# generated using pymatgen
data_Zn4H24C42O19
_symmetry_space_group_name_H-M   'P 1'
_cell_length_a   17.32274247
_cell_length_b   17.32489900
_cell_length_c   17.34297698
_cell_angle_alpha   90.02472131
_cell_angle_beta   89.99884173
_cell_angle_gamma   89.97040322
_symmetry_Int_Tables_number   1
_chemical_formula_structural   Zn4H24C42O19
_chemical_formula_sum   'Zn4 H24 C42 O19'
_cell_volume   5204.88225814
_cell_formula_units_Z   1
loop_
 _symmetry_equiv_pos_site_id
 _symmetry_equiv_pos_as_xyz
  1  'x, y, z'
loop_
 _atom_site_type_symbol
 _atom_site_label
 _atom_site_symmetry_multiplicity
 _atom_site_fract_x
 _atom_site_fract_y
 _atom_site_fract_z
 _atom_site_occupancy
  Zn  Zn0  1  0.43402323  0.43419931  0.56586961  1.0
  Zn  Zn1  1  0.56492308  0.56509034  0.56571368  1.0
  Zn  Zn2  1  0.56504105  0.43518871  0.43414539  1.0
  Zn  Zn3  1  0.43488309  0.56537221  0.43508067  1.0
  H  H4  1  0.19895402  0.58604210  0.41056528  1.0
  H  H5  1  0.07997610  0.62653411  0.36712770  1.0
  H  H6  1  0.80238637  0.42027710  0.40465166  1.0
  H  H7  1  0.00664942  0.41968400  0.39518112  1.0
  H  H8  1  0.80353110  0.58071990  0.59457983  1.0
  H  H9  1  0.19388561  0.41365889  0.58858410  1.0
  H  H10  1  0.41970425  0.80317772  0.40522144  1.0
  H  H11  1  0.41698654  0.00748806  0.39872571  1.0
  H  H12  1  0.41716660  0.19479884  0.59152021  1.0
  H  H13  1  0.58226365  0.19875038  0.40660528  1.0
  H  H14  1  0.62166047  0.07951909  0.36285887  1.0
  H  H15  1  0.58100302  0.80338526  0.59434361  1.0
  H  H16  1  0.40805064  0.58585750  0.19857925  1.0
  H  H17  1  0.58212771  0.59157456  0.80196182  1.0
  H  H18  1  0.62175292  0.63461370  0.92123164  1.0
  H  H19  1  0.41390344  0.40947796  0.80524439  1.0
  H  H20  1  0.59043446  0.41662419  0.19487077  1.0
  H  H21  1  0.59247541  0.41450735  0.99048689  1.0
  H  H22  1  0.94810563  0.58141735  0.59194224  1.0
  H  H23  1  0.04919734  0.41546296  0.58539394  1.0
  H  H24  1  0.41954311  0.05011878  0.58973900  1.0
  H  H25  1  0.58207464  0.94796834  0.59220041  1.0
  H  H26  1  0.40784257  0.58778889  0.05420076  1.0
  H  H27  1  0.41479328  0.41196262  0.94981410  1.0
  C  C28  1  0.16536473  0.54852914  0.44841783  1.0
  C  C29  1  0.08477166  0.54927511  0.44658582  1.0
  C  C30  1  0.83415867  0.45594775  0.44545133  1.0
  C  C31  1  0.91465828  0.45737589  0.44342807  1.0
  C  C32  1  0.83527733  0.54614780  0.55284680  1.0
  C  C33  1  0.91553998  0.54641355  0.55102279  1.0
  C  C34  1  0.16284017  0.45138271  0.54913163  1.0
  C  C35  1  0.08252464  0.45261398  0.54707715  1.0
  C  C36  1  0.45555434  0.83472204  0.44602593  1.0
  C  C37  1  0.45663673  0.91521951  0.44474535  1.0
  C  C38  1  0.45337605  0.16349568  0.55084648  1.0
  C  C39  1  0.45492255  0.08318342  0.54956754  1.0
  C  C40  1  0.54637282  0.16543986  0.44622316  1.0
  C  C41  1  0.54737387  0.08483283  0.44511253  1.0
  C  C42  1  0.54637248  0.83534445  0.55285856  1.0
  C  C43  1  0.54670563  0.91561350  0.55142399  1.0
  C  C44  1  0.44751538  0.54965012  0.16576985  1.0
  C  C45  1  0.44760948  0.55042471  0.08557790  1.0
  C  C46  1  0.54564791  0.55237475  0.83514643  1.0
  C  C47  1  0.54598216  0.55375193  0.91564502  1.0
  C  C48  1  0.45064793  0.44953725  0.83667401  1.0
  C  C49  1  0.45139314  0.45119883  0.91693394  1.0
  C  C50  1  0.55038811  0.45413984  0.16426516  1.0
  C  C51  1  0.54998508  0.45528969  0.08382881  1.0
  C  C52  1  0.29079750  0.49974352  0.50062598  1.0
  C  C53  1  0.20444860  0.49974711  0.49953365  1.0
  C  C54  1  0.04203286  0.50118869  0.49649120  1.0
  C  C55  1  0.70836779  0.49920928  0.50130879  1.0
  C  C56  1  0.79451204  0.50044101  0.49992949  1.0
  C  C57  1  0.95628272  0.50241184  0.49680765  1.0
  C  C58  1  0.49951416  0.70870732  0.50072016  1.0
  C  C59  1  0.50055180  0.79482859  0.49986344  1.0
  C  C60  1  0.50241677  0.95662080  0.49769108  1.0
  C  C61  1  0.49885658  0.29114222  0.49914999  1.0
  C  C62  1  0.49941922  0.20480152  0.49884134  1.0
  C  C63  1  0.50141528  0.04237085  0.49726907  1.0
  C  C64  1  0.49963413  0.50027989  0.29121290  1.0
  C  C65  1  0.49921156  0.50134369  0.20517485  1.0
  C  C66  1  0.49841186  0.50363284  0.04358429  1.0
  C  C67  1  0.49860611  0.49969104  0.70934978  1.0
  C  C68  1  0.49813229  0.50042032  0.79561195  1.0
  C  C69  1  0.49838579  0.50291417  0.95788278  1.0
  O  O70  1  0.49938641  0.49935029  0.50074940  1.0
  O  O71  1  0.32357456  0.45360470  0.54777483  1.0
  O  O72  1  0.04395411  0.59623297  0.39782101  1.0
  O  O73  1  0.67490294  0.54499751  0.54854216  1.0
  O  O74  1  0.95096416  0.41311554  0.38897997  1.0
  O  O75  1  0.67476552  0.45256356  0.45512881  1.0
  O  O76  1  0.32447990  0.54586245  0.45420871  1.0
  O  O77  1  0.54476061  0.67507685  0.54828386  1.0
  O  O78  1  0.41127354  0.95183639  0.39146644  1.0
  O  O79  1  0.54415296  0.32476842  0.45189152  1.0
  O  O80  1  0.45308872  0.32394082  0.54668860  1.0
  O  O81  1  0.59260011  0.04370936  0.39496762  1.0
  O  O82  1  0.45349534  0.67523645  0.45380510  1.0
  O  O83  1  0.54709022  0.45443322  0.32421127  1.0
  O  O84  1  0.45291979  0.45231014  0.67627248  1.0
  O  O85  1  0.59144785  0.60352544  0.95689848  1.0
  O  O86  1  0.54467713  0.54645318  0.67604849  1.0
  O  O87  1  0.45226531  0.54543164  0.32530149  1.0
  O  O88  1  0.60067903  0.40797405  0.04588860  1.0
