# generated using pymatgen
data_ZnH6C8O5
_symmetry_space_group_name_H-M   'P 1'
_cell_length_a   6.61692912
_cell_length_b   12.13046788
_cell_length_c   16.57351868
_cell_angle_alpha   90.00063349
_cell_angle_beta   90.00038924
_cell_angle_gamma   98.16531470
_symmetry_Int_Tables_number   1
_chemical_formula_structural   ZnH6C8O5
_chemical_formula_sum   'Zn4 H24 C32 O20'
_cell_volume   1316.81141217
_cell_formula_units_Z   4
loop_
 _symmetry_equiv_pos_site_id
 _symmetry_equiv_pos_as_xyz
  1  'x, y, z'
loop_
 _atom_site_type_symbol
 _atom_site_label
 _atom_site_symmetry_multiplicity
 _atom_site_fract_x
 _atom_site_fract_y
 _atom_site_fract_z
 _atom_site_occupancy
  Zn  Zn0  1  0.30919608  0.92855690  0.99763482  1.0
  Zn  Zn1  1  0.19080072  0.57143663  0.49763136  1.0
  Zn  Zn2  1  0.69080909  0.07144057  0.00236100  1.0
  Zn  Zn3  1  0.80919311  0.42855858  0.50235842  1.0
  H  H4  1  0.98327086  0.88432342  0.17599107  1.0
  H  H5  1  0.51674292  0.61567253  0.67598578  1.0
  H  H6  1  0.01671924  0.11568780  0.82401199  1.0
  H  H7  1  0.48327376  0.38430959  0.32401910  1.0
  H  H8  1  0.10133200  0.77752997  0.29126915  1.0
  H  H9  1  0.39865610  0.72246104  0.79126574  1.0
  H  H10  1  0.89862124  0.22247956  0.70873633  1.0
  H  H11  1  0.60137216  0.27751495  0.20874819  1.0
  H  H12  1  0.50994018  0.57707459  0.30206863  1.0
  H  H13  1  0.99003891  0.92294274  0.80206830  1.0
  H  H14  1  0.49003840  0.42295198  0.69793503  1.0
  H  H15  1  0.01000124  0.07703717  0.19793959  1.0
  H  H16  1  0.39122033  0.68445545  0.18710358  1.0
  H  H17  1  0.10876171  0.81556325  0.68710016  1.0
  H  H18  1  0.60876954  0.31556416  0.81290491  1.0
  H  H19  1  0.89125147  0.18442649  0.31289988  1.0
  H  H20  1  0.93347256  0.87707880  0.03319752  1.0
  H  H21  1  0.56650804  0.62292885  0.53320328  1.0
  H  H22  1  0.06653139  0.12291954  0.96680192  1.0
  H  H23  1  0.43348684  0.37708310  0.46679677  1.0
  H  H24  1  0.95013245  0.89084212  0.94194487  1.0
  H  H25  1  0.54984690  0.60916923  0.44195160  1.0
  H  H26  1  0.04987361  0.10916706  0.05805698  1.0
  H  H27  1  0.45012540  0.39083401  0.55805327  1.0
  C  C28  1  0.67932030  0.79089614  0.17479681  1.0
  C  C29  1  0.82071057  0.70911031  0.67479007  1.0
  C  C30  1  0.32068737  0.20910882  0.82520866  1.0
  C  C31  1  0.17931367  0.29088087  0.32519911  1.0
  C  C32  1  0.88011620  0.81680421  0.20364200  1.0
  C  C33  1  0.61987605  0.68318934  0.70363813  1.0
  C  C34  1  0.11987329  0.18319613  0.79636408  1.0
  C  C35  1  0.38015214  0.31680007  0.29636071  1.0
  C  C36  1  0.94663579  0.75747181  0.26781530  1.0
  C  C37  1  0.55336737  0.74251506  0.76780329  1.0
  C  C38  1  0.05337138  0.24254071  0.73219138  1.0
  C  C39  1  0.44665643  0.25747026  0.23219675  1.0
  C  C40  1  0.81317021  0.67137482  0.30389100  1.0
  C  C41  1  0.68684156  0.82864517  0.80388970  1.0
  C  C42  1  0.18681204  0.32864915  0.69609517  1.0
  C  C43  1  0.31318412  0.17135939  0.19610853  1.0
  C  C44  1  0.61311376  0.64455984  0.27437245  1.0
  C  C45  1  0.88686156  0.85545207  0.77437432  1.0
  C  C46  1  0.38683642  0.35544054  0.72562578  1.0
  C  C47  1  0.11315767  0.14454676  0.22562392  1.0
  C  C48  1  0.54636427  0.70400554  0.21024742  1.0
  C  C49  1  0.95362123  0.79599918  0.71023691  1.0
  C  C50  1  0.45360854  0.29599014  0.78975987  1.0
  C  C51  1  0.04636860  0.20398858  0.28975228  1.0
  C  C52  1  0.60704086  0.85763786  0.10759219  1.0
  C  C53  1  0.89295676  0.64236733  0.60758992  1.0
  C  C54  1  0.39293884  0.14236940  0.89239518  1.0
  C  C55  1  0.10704969  0.35763849  0.39240228  1.0
  C  C56  1  0.88262707  0.60976256  0.37457830  1.0
  C  C57  1  0.61732954  0.89022466  0.87457913  1.0
  C  C58  1  0.11734925  0.39022549  0.62543320  1.0
  C  C59  1  0.38268381  0.10977011  0.12542876  1.0
  O  O60  1  0.42325511  0.83520260  0.08413938  1.0
  O  O61  1  0.07674939  0.66478868  0.58414672  1.0
  O  O62  1  0.57674211  0.16478918  0.91585403  1.0
  O  O63  1  0.92326323  0.33519940  0.41585997  1.0
  O  O64  1  0.73863461  0.93504871  0.07766482  1.0
  O  O65  1  0.76137675  0.56496739  0.57765433  1.0
  O  O66  1  0.26137228  0.06496297  0.92233704  1.0
  O  O67  1  0.23865421  0.43505297  0.42232882  1.0
  O  O68  1  0.74970199  0.53529653  0.40681419  1.0
  O  O69  1  0.75025398  0.96469630  0.90681658  1.0
  O  O70  1  0.25024525  0.46469050  0.59318042  1.0
  O  O71  1  0.24976220  0.03529338  0.09318045  1.0
  O  O72  1  0.06513105  0.63549117  0.39898916  1.0
  O  O73  1  0.43483631  0.86450049  0.89898217  1.0
  O  O74  1  0.93485688  0.36452262  0.60101692  1.0
  O  O75  1  0.56520339  0.13549621  0.10101727  1.0
  O  O76  1  0.01777004  0.85667802  0.98711194  1.0
  O  O77  1  0.48221190  0.64333495  0.48711708  1.0
  O  O78  1  0.98222901  0.14332378  0.01288630  1.0
  O  O79  1  0.51777886  0.35667374  0.51288417  1.0
