# generated using pymatgen
data_ZnH17C18(NO2)2
_symmetry_space_group_name_H-M   'P 1'
_cell_length_a   11.22639149
_cell_length_b   13.96202708
_cell_length_c   15.37979869
_cell_angle_alpha   92.10192330
_cell_angle_beta   93.47657889
_cell_angle_gamma   90.29334542
_symmetry_Int_Tables_number   1
_chemical_formula_structural   ZnH17C18(NO2)2
_chemical_formula_sum   'Zn2 H34 C36 N4 O8'
_cell_volume   2404.55796019
_cell_formula_units_Z   2
loop_
 _symmetry_equiv_pos_site_id
 _symmetry_equiv_pos_as_xyz
  1  'x, y, z'
loop_
 _atom_site_type_symbol
 _atom_site_label
 _atom_site_symmetry_multiplicity
 _atom_site_fract_x
 _atom_site_fract_y
 _atom_site_fract_z
 _atom_site_occupancy
  Zn  Zn0  1  0.49710912  0.40143987  0.49781622  1.0
  Zn  Zn1  1  0.49930864  0.60109830  0.50027019  1.0
  H  H2  1  0.89022539  0.64751709  0.50439322  1.0
  H  H3  1  0.11101322  0.64668666  0.51905192  1.0
  H  H4  1  0.59256788  0.25488806  0.61795187  1.0
  H  H5  1  0.40185556  0.24339036  0.37938362  1.0
  H  H6  1  0.90187215  0.42868283  0.52101014  1.0
  H  H7  1  0.09174440  0.42907379  0.48112035  1.0
  H  H8  1  0.65320055  0.40370239  0.06479021  1.0
  H  H9  1  0.31244020  0.50911648  0.93022748  1.0
  H  H10  1  0.35085026  0.59180023  0.05324958  1.0
  H  H11  1  0.69607734  0.49408085  0.94835589  1.0
  H  H12  1  0.32158294  0.92956881  0.43594491  1.0
  H  H13  1  0.67746269  0.93661800  0.56075008  1.0
  H  H14  1  0.33010699  0.75007794  0.43870951  1.0
  H  H15  1  0.66950638  0.75685583  0.55838207  1.0
  H  H16  1  0.59842894  0.07554972  0.62351272  1.0
  H  H17  1  0.39916652  0.06377797  0.37351685  1.0
  H  H18  1  0.71136704  0.23527597  0.27235277  1.0
  H  H19  1  0.55785782  0.26734049  0.27062317  1.0
  H  H20  1  0.62746168  0.24487682  0.17097598  1.0
  H  H21  1  0.75937007  0.38989776  0.20460992  1.0
  H  H22  1  0.69094062  0.41052489  0.30388453  1.0
  H  H23  1  0.13700649  0.42317558  0.69668289  1.0
  H  H24  1  0.28298211  0.37538860  0.69095619  1.0
  H  H25  1  0.21204640  0.37688038  0.79142314  1.0
  H  H26  1  0.21559233  0.55830292  0.79453013  1.0
  H  H27  1  0.28906051  0.55585004  0.69635592  1.0
  H  H28  1  0.27513809  0.64128311  0.17378636  1.0
  H  H29  1  0.16955679  0.51223056  0.23893672  1.0
  H  H30  1  0.19105392  0.61347085  0.31338285  1.0
  H  H31  1  0.28501381  0.51335393  0.32318885  1.0
  H  H32  1  0.78880174  0.47189999  0.82136630  1.0
  H  H33  1  0.78190260  0.64269037  0.78803737  1.0
  H  H34  1  0.69681283  0.60712101  0.69040990  1.0
  H  H35  1  0.84632131  0.56823666  0.70584733  1.0
  C  C36  1  0.49299707  0.49305391  0.32817020  1.0
  C  C37  1  0.50420965  0.50370022  0.67014781  1.0
  C  C38  1  0.50234744  0.49805251  0.04718608  1.0
  C  C39  1  0.50393602  0.49959639  0.95116694  1.0
  C  C40  1  0.40120431  0.89451063  0.46310323  1.0
  C  C41  1  0.59779586  0.89853790  0.53394113  1.0
  C  C42  1  0.40457609  0.79512027  0.46464457  1.0
  C  C43  1  0.59464167  0.79901981  0.53278145  1.0
  C  C44  1  0.49934073  0.94854465  0.49855773  1.0
  C  C45  1  0.55493822  0.10946871  0.56746992  1.0
  C  C46  1  0.44208256  0.10289516  0.42959802  1.0
  C  C47  1  0.55200040  0.20886407  0.56530308  1.0
  C  C48  1  0.44349658  0.20241397  0.43188019  1.0
  C  C49  1  0.49889968  0.05421354  0.49856262  1.0
  C  C50  1  0.26350513  0.50361991  0.49527677  1.0
  C  C51  1  0.73263392  0.50476706  0.50879998  1.0
  C  C52  1  0.93490691  0.57827213  0.50882595  1.0
  C  C53  1  0.06408934  0.57800563  0.50831506  1.0
  C  C54  1  0.86468307  0.50025640  0.51413592  1.0
  C  C55  1  0.13156777  0.50000792  0.49395538  1.0
  C  C56  1  0.58515261  0.44493559  0.09711664  1.0
  C  C57  1  0.39748776  0.50787705  0.89935034  1.0
  C  C58  1  0.58126829  0.44135792  0.18771475  1.0
  C  C59  1  0.39647492  0.51194113  0.80859284  1.0
  C  C60  1  0.49246193  0.49258775  0.23048881  1.0
  C  C61  1  0.50530736  0.50652346  0.76810736  1.0
  C  C62  1  0.40823431  0.54737500  0.18131160  1.0
  C  C63  1  0.61393721  0.49954434  0.81862590  1.0
  C  C64  1  0.41534392  0.54890173  0.09069175  1.0
  C  C65  1  0.61148904  0.49587078  0.90941788  1.0
  C  C66  1  0.67471925  0.38256621  0.23649202  1.0
  C  C67  1  0.64093729  0.27600588  0.23757382  1.0
  C  C68  1  0.27835311  0.51662531  0.75613570  1.0
  C  C69  1  0.22436134  0.41701363  0.73239070  1.0
  C  C70  1  0.23706081  0.55794827  0.27602976  1.0
  C  C71  1  0.76430888  0.58331410  0.73912594  1.0
  N  N72  1  0.49955320  0.74834875  0.49905959  1.0
  N  N73  1  0.49739108  0.25427999  0.49852740  1.0
  N  N74  1  0.32003663  0.60255212  0.21979535  1.0
  N  N75  1  0.72389894  0.49533658  0.77825605  1.0
  O  O76  1  0.48464948  0.41231402  0.36381662  1.0
  O  O77  1  0.50602713  0.42139288  0.63212131  1.0
  O  O78  1  0.50271270  0.57406578  0.36871636  1.0
  O  O79  1  0.49895370  0.58366729  0.63287012  1.0
  O  O80  1  0.31506520  0.42230116  0.49558348  1.0
  O  O81  1  0.67875323  0.42384158  0.50022027  1.0
  O  O82  1  0.31515062  0.58530817  0.49546257  1.0
  O  O83  1  0.68317365  0.58676013  0.51215609  1.0
