# generated using pymatgen
data_Zn4H8C24S4N2O13F2
_symmetry_space_group_name_H-M   'P 1'
_cell_length_a   19.68696305
_cell_length_b   19.69839041
_cell_length_c   33.40317015
_cell_angle_alpha   79.08311947
_cell_angle_beta   79.11724872
_cell_angle_gamma   63.81714636
_symmetry_Int_Tables_number   1
_chemical_formula_structural   Zn4H8C24S4N2O13F2
_chemical_formula_sum   'Zn16 H32 C96 S16 N8 O52 F8'
_cell_volume   11332.54769426
_cell_formula_units_Z   4
loop_
 _symmetry_equiv_pos_site_id
 _symmetry_equiv_pos_as_xyz
  1  'x, y, z'
loop_
 _atom_site_type_symbol
 _atom_site_label
 _atom_site_symmetry_multiplicity
 _atom_site_fract_x
 _atom_site_fract_y
 _atom_site_fract_z
 _atom_site_occupancy
  Zn  Zn0  1  0.59938817  0.94406191  0.52168588  1.0
  Zn  Zn1  1  0.51627865  0.01606276  0.43984843  1.0
  Zn  Zn2  1  0.43919936  0.94111883  0.51761351  1.0
  Zn  Zn3  1  0.44407367  0.09910092  0.52047597  1.0
  Zn  Zn4  1  0.65048241  0.30520957  0.72834784  1.0
  Zn  Zn5  1  0.80984293  0.31151019  0.73333736  1.0
  Zn  Zn6  1  0.73357046  0.23153897  0.80950725  1.0
  Zn  Zn7  1  0.80688686  0.15174715  0.72845395  1.0
  Zn  Zn8  1  0.23323303  0.73316428  0.31053702  1.0
  Zn  Zn9  1  0.30434505  0.65174267  0.22795329  1.0
  Zn  Zn10  1  0.15099875  0.80746016  0.22839405  1.0
  Zn  Zn11  1  0.31070974  0.80855689  0.23212092  1.0
  Zn  Zn12  1  0.94008005  0.43931392  0.01649358  1.0
  Zn  Zn13  1  0.94456580  0.59894084  0.02181145  1.0
  Zn  Zn14  1  0.09891608  0.44365408  0.02126949  1.0
  Zn  Zn15  1  0.01811111  0.51713329  0.93979127  1.0
  H  H16  1  0.54880308  0.25075289  0.64994930  1.0
  H  H17  1  0.70133733  0.99870513  0.59993210  1.0
  H  H18  1  0.29961341  0.79912831  0.40052495  1.0
  H  H19  1  0.45018123  0.95031478  0.34927659  1.0
  H  H20  1  0.75884670  0.53711047  0.65923736  1.0
  H  H21  1  0.29905016  0.51987271  0.39811357  1.0
  H  H22  1  0.01999196  0.79607876  0.39852509  1.0
  H  H23  1  0.03056363  0.05257528  0.65262193  1.0
  H  H24  1  0.84894050  0.34975438  0.95055363  1.0
  H  H25  1  0.90093179  0.40035313  0.79951391  1.0
  H  H26  1  0.23019451  0.45170140  0.85174536  1.0
  H  H27  1  0.85711220  0.83750360  0.95923036  1.0
  H  H28  1  0.99838288  0.70165708  0.09990631  1.0
  H  H29  1  0.25044078  0.54908212  0.15009775  1.0
  H  H30  1  0.72006887  0.69779763  0.09834233  1.0
  H  H31  1  0.98975716  0.21345840  0.09188080  1.0
  H  H32  1  0.44269126  0.68671931  0.60397558  1.0
  H  H33  1  0.44701790  0.76673958  0.57267700  1.0
  H  H34  1  0.47784979  0.23242096  0.31433613  1.0
  H  H35  1  0.48177872  0.16384164  0.35634887  1.0
  H  H36  1  0.73182694  0.95416391  0.31426244  1.0
  H  H37  1  0.66386588  0.97944628  0.35683850  1.0
  H  H38  1  0.19776199  0.25758304  0.61462416  1.0
  H  H39  1  0.27495076  0.20574637  0.58091624  1.0
  H  H40  1  0.51814866  0.27390361  0.93540383  1.0
  H  H41  1  0.58722368  0.26734567  0.89318063  1.0
  H  H42  1  0.91474592  0.85492877  0.77297992  1.0
  H  H43  1  0.88419339  0.95299305  0.76011936  1.0
  H  H44  1  0.56399876  0.48270618  0.14526117  1.0
  H  H45  1  0.47691442  0.54302244  0.16936841  1.0
  H  H46  1  0.29839852  0.07385043  0.15587676  1.0
  H  H47  1  0.30251377  0.98463651  0.17768061  1.0
  C  C48  1  0.68377445  0.94131691  0.43727356  1.0
  C  C49  1  0.43022252  0.93031522  0.43131166  1.0
  C  C50  1  0.56078528  0.81445913  0.56066034  1.0
  C  C51  1  0.31432577  0.06445907  0.56103371  1.0
  C  C52  1  0.56778670  0.07002860  0.56895464  1.0
  C  C53  1  0.43703754  0.18371692  0.43662658  1.0
  C  C54  1  0.68750186  0.43503703  0.68909079  1.0
  C  C55  1  0.81933190  0.31784703  0.81956875  1.0
  C  C56  1  0.56622040  0.31183320  0.81237912  1.0
  C  C57  1  0.81391409  0.06371915  0.81065203  1.0
  C  C58  1  0.68228131  0.17933059  0.68101517  1.0
  C  C59  1  0.93503395  0.18957145  0.68905830  1.0
  C  C60  1  0.31302290  0.56594205  0.31129520  1.0
  C  C61  1  0.17899759  0.68212814  0.18116902  1.0
  C  C62  1  0.06598284  0.81065794  0.31169504  1.0
  C  C63  1  0.19125225  0.93442590  0.18749935  1.0
  C  C64  1  0.31926096  0.81961477  0.31838865  1.0
  C  C65  1  0.43433354  0.68606512  0.18721618  1.0
  C  C66  1  0.81656488  0.56070768  0.06184167  1.0
  C  C67  1  0.06992250  0.56844589  0.06886472  1.0
  C  C68  1  0.06065734  0.31597892  0.06177736  1.0
  C  C69  1  0.18485491  0.43705855  0.93846875  1.0
  C  C70  1  0.93162395  0.43126811  0.93040646  1.0
  C  C71  1  0.93773692  0.68434986  0.93876697  1.0
  C  C72  1  0.59562235  0.09953727  0.59770423  1.0
  C  C73  1  0.65440039  0.14975964  0.65233685  1.0
  C  C74  1  0.55409075  0.17071677  0.61259277  1.0
  C  C75  1  0.69591378  0.07856532  0.63746478  1.0
  C  C76  1  0.58255581  0.19526429  0.63911316  1.0
  C  C77  1  0.66752039  0.05407888  0.61086529  1.0
  C  C78  1  0.40115536  0.90094194  0.40317513  1.0
  C  C79  1  0.34840634  0.84878032  0.34659198  1.0
  C  C80  1  0.35827670  0.85784420  0.41658447  1.0
  C  C81  1  0.39131872  0.89185393  0.33320347  1.0
  C  C82  1  0.33260228  0.83242019  0.38910271  1.0
  C  C83  1  0.41706125  0.91716746  0.36066890  1.0
  C  C84  1  0.54415518  0.69606505  0.59780595  1.0
  C  C85  1  0.70194477  0.55441880  0.65131791  1.0
  C  C86  1  0.58570802  0.74063465  0.58490226  1.0
  C  C87  1  0.66188265  0.50989544  0.66416084  1.0
  C  C88  1  0.65941605  0.62238140  0.62732928  1.0
  C  C89  1  0.58759615  0.62820440  0.62234656  1.0
  C  C90  1  0.42315644  0.27244615  0.36929827  1.0
  C  C91  1  0.32800983  0.47516673  0.37811868  1.0
  C  C92  1  0.41206817  0.25751475  0.41230551  1.0
  C  C93  1  0.33830976  0.49075801  0.33582102  1.0
  C  C94  1  0.35914722  0.39589902  0.39055127  1.0
  C  C95  1  0.39244544  0.35257398  0.35732984  1.0
  C  C96  1  0.77256446  0.92702150  0.36994170  1.0
  C  C97  1  0.97524724  0.82550446  0.37854394  1.0
  C  C98  1  0.75768486  0.91702371  0.41299892  1.0
  C  C99  1  0.99076418  0.83549085  0.33622432  1.0
  C  C100  1  0.89600612  0.85840301  0.39103819  1.0
  C  C101  1  0.85263688  0.89285146  0.35784253  1.0
  C  C102  1  0.19957535  0.15899230  0.60161193  1.0
  C  C103  1  0.05106947  0.09680337  0.64802041  1.0
  C  C104  1  0.24059886  0.08917397  0.58525417  1.0
  C  C105  1  0.00990788  0.16525342  0.66424667  1.0
  C  C106  1  0.12034058  0.09386429  0.62543896  1.0
  C  C107  1  0.13044244  0.16045330  0.62482429  1.0
  C  C108  1  0.84704556  0.34644895  0.84877701  1.0
  C  C109  1  0.90322521  0.40328241  0.90127681  1.0
  C  C110  1  0.83327193  0.33342723  0.89180917  1.0
  C  C111  1  0.91670306  0.41662542  0.85824090  1.0
  C  C112  1  0.86058875  0.36098662  0.91739054  1.0
  C  C113  1  0.88941510  0.38900558  0.83266957  1.0
  C  C114  1  0.47820955  0.32621807  0.87997043  1.0
  C  C115  1  0.27514498  0.42253529  0.87161450  1.0
  C  C116  1  0.49267905  0.33740169  0.83688105  1.0
  C  C117  1  0.25994935  0.41184481  0.91392616  1.0
  C  C118  1  0.35435310  0.39122144  0.85902703  1.0
  C  C119  1  0.39802263  0.35743005  0.89212121  1.0
  C  C120  1  0.87788145  0.91846286  0.82124137  1.0
  C  C121  1  0.87391197  0.82990447  0.92687944  1.0
  C  C122  1  0.83874918  0.99042893  0.83539732  1.0
  C  C123  1  0.91272969  0.75872161  0.91345347  1.0
  C  C124  1  0.86062732  0.88828767  0.89352962  1.0
  C  C125  1  0.88980346  0.86025444  0.85525673  1.0
  C  C126  1  0.14945350  0.65456591  0.15237370  1.0
  C  C127  1  0.09935565  0.59613258  0.09764747  1.0
  C  C128  1  0.07825699  0.69626915  0.13745861  1.0
  C  C129  1  0.17059719  0.55446179  0.11253347  1.0
  C  C130  1  0.05381238  0.66789658  0.11083994  1.0
  C  C131  1  0.19501106  0.58282138  0.13915211  1.0
  C  C132  1  0.54964415  0.59211724  0.14648460  1.0
  C  C133  1  0.69991837  0.65332259  0.10284860  1.0
  C  C134  1  0.50770898  0.66210387  0.16254949  1.0
  C  C135  1  0.74176301  0.58480714  0.08677916  1.0
  C  C136  1  0.63015706  0.65626057  0.12478859  1.0
  C  C137  1  0.62020629  0.58974580  0.12490035  1.0
  C  C138  1  0.20741118  0.05299392  0.15034293  1.0
  C  C139  1  0.04673148  0.19642253  0.09962024  1.0
  C  C140  1  0.16661056  0.00770044  0.16278714  1.0
  C  C141  1  0.08620834  0.24149017  0.08693403  1.0
  C  C142  1  0.09025778  0.12797460  0.12287790  1.0
  C  C143  1  0.16229286  0.12226462  0.12739622  1.0
  S  S144  1  0.67560669  0.69966305  0.60213898  1.0
  S  S145  1  0.57246042  0.55013966  0.64709763  1.0
  S  S146  1  0.36479540  0.33961825  0.43714897  1.0
  S  S147  1  0.38550026  0.40933805  0.31086118  1.0
  S  S148  1  0.83985195  0.86736344  0.43774512  1.0
  S  S149  1  0.90931669  0.88502376  0.31133265  1.0
  S  S150  1  0.19513576  0.02779041  0.59776616  1.0
  S  S151  1  0.05482213  0.22657226  0.65203160  1.0
  S  S152  1  0.41017740  0.38559476  0.81229354  1.0
  S  S153  1  0.34164160  0.36401751  0.93869563  1.0
  S  S154  1  0.81791285  0.98641742  0.88885136  1.0
  S  S155  1  0.93361340  0.76219356  0.86030480  1.0
  S  S156  1  0.55353168  0.72319704  0.15107577  1.0
  S  S157  1  0.69661507  0.52367130  0.09805038  1.0
  S  S158  1  0.07596469  0.04889971  0.14650556  1.0
  S  S159  1  0.17645531  0.20101765  0.10300829  1.0
  N  N160  1  0.47421464  0.71363605  0.58740872  1.0
  N  N161  1  0.45596129  0.21836265  0.34291489  1.0
  N  N162  1  0.71854073  0.96600714  0.34367917  1.0
  N  N163  1  0.22131996  0.21724765  0.59522991  1.0
  N  N164  1  0.53236910  0.29284832  0.90617106  1.0
  N  N165  1  0.90278164  0.90620645  0.78123845  1.0
  N  N166  1  0.52530458  0.53615374  0.14990921  1.0
  N  N167  1  0.27986168  0.03278148  0.15793455  1.0
  O  O168  1  0.50048094  0.99985242  0.49968205  1.0
  O  O169  1  0.68238507  0.92525754  0.47636688  1.0
  O  O170  1  0.47174878  0.96503855  0.41398637  1.0
  O  O171  1  0.49365379  0.84245977  0.54889169  1.0
  O  O172  1  0.62460782  0.97725184  0.41752412  1.0
  O  O173  1  0.60672225  0.84684969  0.55276343  1.0
  O  O174  1  0.41123334  0.91869533  0.46957578  1.0
  O  O175  1  0.34373730  0.99691199  0.55053119  1.0
  O  O176  1  0.50212426  0.11241010  0.55786901  1.0
  O  O177  1  0.34526533  0.11216225  0.55190547  1.0
  O  O178  1  0.61289653  0.00446290  0.55813924  1.0
  O  O179  1  0.47136697  0.12432335  0.41708391  1.0
  O  O180  1  0.42348487  0.18279739  0.47577172  1.0
  O  O181  1  0.75023193  0.25075011  0.74938621  1.0
  O  O182  1  0.64095694  0.40360596  0.69697115  1.0
  O  O183  1  0.83473985  0.33704190  0.78141421  1.0
  O  O184  1  0.62566997  0.27606341  0.83184183  1.0
  O  O185  1  0.75391162  0.40812256  0.70047622  1.0
  O  O186  1  0.56705885  0.32615069  0.77319554  1.0
  O  O187  1  0.78334279  0.27722626  0.83497528  1.0
  O  O188  1  0.77584936  0.12291241  0.82951894  1.0
  O  O189  1  0.74738192  0.13641722  0.69271015  1.0
  O  O190  1  0.83165841  0.06412844  0.77130510  1.0
  O  O191  1  0.63779548  0.24551449  0.69120297  1.0
  O  O192  1  0.90718119  0.25590268  0.70077007  1.0
  O  O193  1  0.90452508  0.14244551  0.69657221  1.0
  O  O194  1  0.24971623  0.74945371  0.25032836  1.0
  O  O195  1  0.27708237  0.62388732  0.33097726  1.0
  O  O196  1  0.24425501  0.63633046  0.19233113  1.0
  O  O197  1  0.06611836  0.82774116  0.27276183  1.0
  O  O198  1  0.32930364  0.56619693  0.27228461  1.0
  O  O199  1  0.12415295  0.77472155  0.33133529  1.0
  O  O200  1  0.13730822  0.74797858  0.19197687  1.0
  O  O201  1  0.14403206  0.90355700  0.19665047  1.0
  O  O202  1  0.33435611  0.83541422  0.28002738  1.0
  O  O203  1  0.25886795  0.90558487  0.19867579  1.0
  O  O204  1  0.28151039  0.78105933  0.33570350  1.0
  O  O205  1  0.40214674  0.63936519  0.19496095  1.0
  O  O206  1  0.40667877  0.75183727  0.19972862  1.0
  O  O207  1  0.99962022  0.50023092  0.00003717  1.0
  O  O208  1  0.84414930  0.49440559  0.05017146  1.0
  O  O209  1  0.00389656  0.61323871  0.05839670  1.0
  O  O210  1  0.10775536  0.34675505  0.05353248  1.0
  O  O211  1  0.84702188  0.60791356  0.05403251  1.0
  O  O212  1  0.99431199  0.34314820  0.05030507  1.0
  O  O213  1  0.11268308  0.50333202  0.05734682  1.0
  O  O214  1  0.18451223  0.41974385  0.97742993  1.0
  O  O215  1  0.97026221  0.46924458  0.91486701  1.0
  O  O216  1  0.12677212  0.47410452  0.91888471  1.0
  O  O217  1  0.91434126  0.41417768  0.96862960  1.0
  O  O218  1  0.92094157  0.68462144  0.97764983  1.0
  O  O219  1  0.97447289  0.62589949  0.91936752  1.0
  F  F220  1  0.48408938  0.21871231  0.60156799  1.0
  F  F221  1  0.76588588  0.03051672  0.64853145  1.0
  F  F222  1  0.34049015  0.83892041  0.45706123  1.0
  F  F223  1  0.40948473  0.91059910  0.29269593  1.0
  F  F224  1  0.79239044  0.29340721  0.91019436  1.0
  F  F225  1  0.95707203  0.45713024  0.83984276  1.0
  F  F226  1  0.03029833  0.76606645  0.14854020  1.0
  F  F227  1  0.21858011  0.48459587  0.10149654  1.0
