# generated using pymatgen
data_DyH3(C3O2)3
_symmetry_space_group_name_H-M   'P 1'
_cell_length_a   10.34284268
_cell_length_b   10.34284095
_cell_length_c   14.03749178
_cell_angle_alpha   90.00000316
_cell_angle_beta   90.00001666
_cell_angle_gamma   89.99999627
_symmetry_Int_Tables_number   1
_chemical_formula_structural   DyH3(C3O2)3
_chemical_formula_sum   'Dy4 H12 C36 O24'
_cell_volume   1501.65193514
_cell_formula_units_Z   4
loop_
 _symmetry_equiv_pos_site_id
 _symmetry_equiv_pos_as_xyz
  1  'x, y, z'
loop_
 _atom_site_type_symbol
 _atom_site_label
 _atom_site_symmetry_multiplicity
 _atom_site_fract_x
 _atom_site_fract_y
 _atom_site_fract_z
 _atom_site_occupancy
  Dy  Dy0  1  0.62406659  0.62406558  0.87499970  1.0
  Dy  Dy1  1  0.37593452  0.37593452  0.37500009  1.0
  Dy  Dy2  1  0.62406645  0.37593450  0.12499961  1.0
  Dy  Dy3  1  0.37593456  0.62406558  0.62499988  1.0
  H  H4  1  0.97077877  0.56968398  0.64479622  1.0
  H  H5  1  0.02922032  0.43031610  0.14479582  1.0
  H  H6  1  0.56968408  0.02922128  0.89479595  1.0
  H  H7  1  0.43031704  0.97077882  0.39479638  1.0
  H  H8  1  0.97077872  0.43031607  0.35520388  1.0
  H  H9  1  0.02922045  0.56968402  0.85520336  1.0
  H  H10  1  0.56968389  0.97077880  0.10520335  1.0
  H  H11  1  0.43031711  0.02922127  0.60520361  1.0
  H  H12  1  0.61058667  0.50000004  0.50000037  1.0
  H  H13  1  0.38941353  0.50000007  0.99999992  1.0
  H  H14  1  0.50000010  0.38941342  0.75000014  1.0
  H  H15  1  0.49999999  0.61058667  0.24999986  1.0
  C  C16  1  0.70716943  0.57359008  0.66845854  1.0
  C  C17  1  0.29283063  0.42640904  0.16845820  1.0
  C  C18  1  0.57359016  0.29283067  0.91845831  1.0
  C  C19  1  0.42641000  0.70716846  0.41845872  1.0
  C  C20  1  0.70716937  0.42640903  0.33154151  1.0
  C  C21  1  0.29283076  0.57359010  0.83154176  1.0
  C  C22  1  0.57358998  0.70716941  0.08154171  1.0
  C  C23  1  0.42641005  0.29283066  0.58154126  1.0
  C  C24  1  0.78233734  0.53785617  0.58188966  1.0
  C  C25  1  0.21766269  0.46214390  0.08188931  1.0
  C  C26  1  0.53785625  0.21766273  0.83188942  1.0
  C  C27  1  0.46214387  0.78233736  0.33188984  1.0
  C  C28  1  0.78233731  0.46214389  0.41811040  1.0
  C  C29  1  0.21766286  0.53785621  0.91810992  1.0
  C  C30  1  0.53785610  0.78233735  0.16811059  1.0
  C  C31  1  0.46214396  0.21766273  0.66811015  1.0
  C  C32  1  0.98479230  0.50000003  0.50000041  1.0
  C  C33  1  0.01520789  0.50000008  0.99999988  1.0
  C  C34  1  0.50000011  0.01520772  0.74999942  1.0
  C  C35  1  0.49999998  0.98479237  0.24999986  1.0
  C  C36  1  0.91766280  0.53928228  0.58159974  1.0
  C  C37  1  0.08233626  0.46071780  0.08159935  1.0
  C  C38  1  0.53928236  0.08233628  0.83159948  1.0
  C  C39  1  0.46071873  0.91766285  0.33159991  1.0
  C  C40  1  0.91766374  0.46071778  0.41840035  1.0
  C  C41  1  0.08233642  0.53928232  0.91839984  1.0
  C  C42  1  0.53928221  0.91766381  0.16840053  1.0
  C  C43  1  0.46071786  0.08233628  0.66840009  1.0
  C  C44  1  0.71566900  0.50000004  0.49999967  1.0
  C  C45  1  0.28433023  0.50000007  0.99999991  1.0
  C  C46  1  0.50000010  0.28433010  0.75000014  1.0
  C  C47  1  0.49999999  0.71566999  0.24999986  1.0
  C  C48  1  0.12950229  0.50000006  0.49999960  1.0
  C  C49  1  0.87049790  0.50000005  0.99999998  1.0
  C  C50  1  0.50000008  0.87049787  0.75000015  1.0
  C  C51  1  0.50000001  0.12950222  0.24999985  1.0
  O  O52  1  0.76399135  0.58250059  0.74855405  1.0
  O  O53  1  0.23600875  0.41749853  0.24855441  1.0
  O  O54  1  0.58250068  0.23600876  0.99855381  1.0
  O  O55  1  0.41749854  0.76399134  0.49855423  1.0
  O  O56  1  0.76399222  0.41749852  0.25144601  1.0
  O  O57  1  0.23600884  0.58250061  0.75144553  1.0
  O  O58  1  0.58250047  0.76399132  0.00144549  1.0
  O  O59  1  0.41749953  0.23600778  0.50144576  1.0
  O  O60  1  0.18588428  0.58494577  0.55075654  1.0
  O  O61  1  0.81411573  0.41505334  0.05075560  1.0
  O  O62  1  0.58494676  0.81411588  0.80075638  1.0
  O  O63  1  0.41505335  0.18588422  0.30075534  1.0
  O  O64  1  0.18588427  0.41505337  0.44924410  1.0
  O  O65  1  0.81411590  0.58494673  0.94924447  1.0
  O  O66  1  0.58494666  0.18588421  0.19924435  1.0
  O  O67  1  0.41505341  0.81411588  0.69924392  1.0
  O  O68  1  0.58525323  0.59174660  0.66016787  1.0
  O  O69  1  0.41474586  0.40825348  0.16016827  1.0
  O  O70  1  0.59174763  0.41474592  0.91016837  1.0
  O  O71  1  0.40825252  0.58525322  0.41016806  1.0
  O  O72  1  0.58525318  0.40825252  0.33983144  1.0
  O  O73  1  0.41474599  0.59174758  0.83983171  1.0
  O  O74  1  0.59174747  0.58525416  0.08983165  1.0
  O  O75  1  0.40825256  0.41474591  0.58983192  1.0
