# generated using pymatgen
data_Y4H36C57(O11F6)3
_symmetry_space_group_name_H-M   'P 1'
_cell_length_a   7.88788954
_cell_length_b   21.35143614
_cell_length_c   22.94726422
_cell_angle_alpha   82.56440624
_cell_angle_beta   82.42046015
_cell_angle_gamma   80.01879131
_symmetry_Int_Tables_number   1
_chemical_formula_structural   Y4H36C57(O11F6)3
_chemical_formula_sum   'Y8 H72 C114 O66 F36'
_cell_volume   3750.43832026
_cell_formula_units_Z   2
loop_
 _symmetry_equiv_pos_site_id
 _symmetry_equiv_pos_as_xyz
  1  'x, y, z'
loop_
 _atom_site_type_symbol
 _atom_site_label
 _atom_site_symmetry_multiplicity
 _atom_site_fract_x
 _atom_site_fract_y
 _atom_site_fract_z
 _atom_site_occupancy
  Y  Y0  1  0.80585684  0.42186412  0.28781035  1.0
  Y  Y1  1  0.37941078  0.47154624  0.43392936  1.0
  Y  Y2  1  0.46868611  0.24706815  0.09745693  1.0
  Y  Y3  1  0.23157134  0.09489397  0.03622661  1.0
  Y  Y4  1  0.19415136  0.57813738  0.71218481  1.0
  Y  Y5  1  0.62059468  0.52845574  0.56606978  1.0
  Y  Y6  1  0.53131054  0.75293048  0.90254433  1.0
  Y  Y7  1  0.76842383  0.90510514  0.96377466  1.0
  H  H8  1  0.50363311  0.41580350  0.22314380  1.0
  H  H9  1  0.63237231  0.45873977  0.18457624  1.0
  H  H10  1  0.00574858  0.45238695  0.16173043  1.0
  H  H11  1  0.92516930  0.38816074  0.16661251  1.0
  H  H12  1  0.19923772  0.40095024  0.25855587  1.0
  H  H13  1  0.15653874  0.45166595  0.30443748  1.0
  H  H14  1  0.07364514  0.42383266  0.40240309  1.0
  H  H15  1  0.99579404  0.46696784  0.45209962  1.0
  H  H16  1  0.84642376  0.26349521  0.05181236  1.0
  H  H17  1  0.81914019  0.27069742  0.12163512  1.0
  H  H18  1  0.10636326  0.30734799  0.10986983  1.0
  H  H19  1  0.13322273  0.30505845  0.04155117  1.0
  H  H20  1  0.44144437  0.36761976  0.14225417  1.0
  H  H21  1  0.60227557  0.36239968  0.09369278  1.0
  H  H22  1  0.90769455  0.03265354  0.05336994  1.0
  H  H23  1  0.86808856  0.10070026  0.08010590  1.0
  H  H24  1  0.38637456  0.95729205  0.07662520  1.0
  H  H25  1  0.18353691  0.95798826  0.07963188  1.0
  H  H26  1  0.56842088  0.63951441  0.24396942  1.0
  H  H27  1  0.53801994  0.71246928  0.44136590  1.0
  H  H28  1  0.43891543  0.78960106  0.35946802  1.0
  H  H29  1  0.36783160  0.76648141  0.12187775  1.0
  H  H30  1  0.99252194  0.74604919  0.14472051  1.0
  H  H31  1  0.77970313  0.74409456  0.23357734  1.0
  H  H32  1  0.33006996  0.28725257  0.43739287  1.0
  H  H33  1  0.32958118  0.18098971  0.25823052  1.0
  H  H34  1  0.22662268  0.12864041  0.35541594  1.0
  H  H35  1  0.97601294  0.26618818  0.41274046  1.0
  H  H36  1  0.98858780  0.31375574  0.61742580  1.0
  H  H37  1  0.15433524  0.21241844  0.58502192  1.0
  H  H38  1  0.64474000  0.09593837  0.21595562  1.0
  H  H39  1  0.83871225  0.87516049  0.16318141  1.0
  H  H40  1  0.90178943  0.90258086  0.25789984  1.0
  H  H41  1  0.03237063  0.06655413  0.20869511  1.0
  H  H42  1  0.76287203  0.24616979  0.32281762  1.0
  H  H43  1  0.70271283  0.13757812  0.35959071  1.0
  H  H44  1  0.49636718  0.58419561  0.77685724  1.0
  H  H45  1  0.36762095  0.54126078  0.81542189  1.0
  H  H46  1  0.99425877  0.54761359  0.83826923  1.0
  H  H47  1  0.07483359  0.61184124  0.83338545  1.0
  H  H48  1  0.80076332  0.59905318  0.74144722  1.0
  H  H49  1  0.84345564  0.54833508  0.69556708  1.0
  H  H50  1  0.92635649  0.57616933  0.59759710  1.0
  H  H51  1  0.00420845  0.53303509  0.54789998  1.0
  H  H52  1  0.15357000  0.73650725  0.94818944  1.0
  H  H53  1  0.18085106  0.72930792  0.87836558  1.0
  H  H54  1  0.89363513  0.69265256  0.89012937  1.0
  H  H55  1  0.86677371  0.69494067  0.95844873  1.0
  H  H56  1  0.55854765  0.63238080  0.85774881  1.0
  H  H57  1  0.39771686  0.63759992  0.90631161  1.0
  H  H58  1  0.09230129  0.96734701  0.94663069  1.0
  H  H59  1  0.13190898  0.89929933  0.91989608  1.0
  H  H60  1  0.61362236  0.04270898  0.92337576  1.0
  H  H61  1  0.81645873  0.04201277  0.92036914  1.0
  H  H62  1  0.43156896  0.36048519  0.75602986  1.0
  H  H63  1  0.46197439  0.28753175  0.55863126  1.0
  H  H64  1  0.56108079  0.21039853  0.64052966  1.0
  H  H65  1  0.63216806  0.23351914  0.87812009  1.0
  H  H66  1  0.00748012  0.25395183  0.85528239  1.0
  H  H67  1  0.22029224  0.25590408  0.76642398  1.0
  H  H68  1  0.66993976  0.71274845  0.56260837  1.0
  H  H69  1  0.67043402  0.81900747  0.74177311  1.0
  H  H70  1  0.77338962  0.87136061  0.64458780  1.0
  H  H71  1  0.02399569  0.73381236  0.58725828  1.0
  H  H72  1  0.01139867  0.68624577  0.38257471  1.0
  H  H73  1  0.84564802  0.78758164  0.41498066  1.0
  H  H74  1  0.35526432  0.90406026  0.78404267  1.0
  H  H75  1  0.16127990  0.12483671  0.83682066  1.0
  H  H76  1  0.09819417  0.09741539  0.74210362  1.0
  H  H77  1  0.96762858  0.93344451  0.79130516  1.0
  H  H78  1  0.23712568  0.75382932  0.67718092  1.0
  H  H79  1  0.29728576  0.86242195  0.64040767  1.0
  C  C80  1  0.42958665  0.76493321  0.24147452  1.0
  C  C81  1  0.49408513  0.72023625  0.29498519  1.0
  C  C82  1  0.55628126  0.65591852  0.28757044  1.0
  C  C83  1  0.60109275  0.61110518  0.33538889  1.0
  C  C84  1  0.59370164  0.63196540  0.39152449  1.0
  C  C85  1  0.54094708  0.69684620  0.39795092  1.0
  C  C86  1  0.48673901  0.74038957  0.35108692  1.0
  C  C87  1  0.66003900  0.54343470  0.32137767  1.0
  C  C88  1  0.62723957  0.58991707  0.44740490  1.0
  C  C89  1  0.55664827  0.75740895  0.18502105  1.0
  C  C90  1  0.50327465  0.76271359  0.12862664  1.0
  C  C91  1  0.62372471  0.76557143  0.07825401  1.0
  C  C92  1  0.80077610  0.76193834  0.08347535  1.0
  C  C93  1  0.85519907  0.75179821  0.13989936  1.0
  C  C94  1  0.73466378  0.75030390  0.18997995  1.0
  C  C95  1  0.56698746  0.77211741  0.01823559  1.0
  C  C96  1  0.92926926  0.77079824  0.02935402  1.0
  C  C97  1  0.24715621  0.74993415  0.23450953  1.0
  C  C98  1  0.40790110  0.83695310  0.25210024  1.0
  C  C99  1  0.20099200  0.17751816  0.46697282  1.0
  C  C100  1  0.27024425  0.20384125  0.40416415  1.0
  C  C101  1  0.32993694  0.26282443  0.39858540  1.0
  C  C102  1  0.38626104  0.29245804  0.34357065  1.0
  C  C103  1  0.38517637  0.26303806  0.29226630  1.0
  C  C104  1  0.33038919  0.20354125  0.29804725  1.0
  C  C105  1  0.27172776  0.17428109  0.35321798  1.0
  C  C106  1  0.45715012  0.35346365  0.34206932  1.0
  C  C107  1  0.43034911  0.29466108  0.23155155  1.0
  C  C108  1  0.08182568  0.23287121  0.49567677  1.0
  C  C109  1  0.97856346  0.27550718  0.45812311  1.0
  C  C110  1  0.88593105  0.33251403  0.47620820  1.0
  C  C111  1  0.89368982  0.34695543  0.53379971  1.0
  C  C112  1  0.98469804  0.30209971  0.57285585  1.0
  C  C113  1  0.07907535  0.24527782  0.55419350  1.0
  C  C114  1  0.78356029  0.37599055  0.43185279  1.0
  C  C115  1  0.82170739  0.41212986  0.55035836  1.0
  C  C116  1  0.36213519  0.15077639  0.50048791  1.0
  C  C117  1  0.09223873  0.12290327  0.46777520  1.0
  C  C118  1  0.82067940  0.02454293  0.30071488  1.0
  C  C119  1  0.77980047  0.00171978  0.24404357  1.0
  C  C120  1  0.68635221  0.04686924  0.20574827  1.0
  C  C121  1  0.65167588  0.03176824  0.15171459  1.0
  C  C122  1  0.70666462  0.96937255  0.13616714  1.0
  C  C123  1  0.79429893  0.92344532  0.17532806  1.0
  C  C124  1  0.83106569  0.93934044  0.22885292  1.0
  C  C125  1  0.57165705  0.08395854  0.10904112  1.0
  C  C126  1  0.70715948  0.95336895  0.07461447  1.0
  C  C127  1  0.85952023  0.09347080  0.28611022  1.0
  C  C128  1  0.97198580  0.10522933  0.23476191  1.0
  C  C129  1  0.00866855  0.16630705  0.21449643  1.0
  C  C130  1  0.92932279  0.21815400  0.24590194  1.0
  C  C131  1  0.82360659  0.20592743  0.29862608  1.0
  C  C132  1  0.78839698  0.14441131  0.31885233  1.0
  C  C133  1  0.14217673  0.17157873  0.16211042  1.0
  C  C134  1  0.93947697  0.28680207  0.22399149  1.0
  C  C135  1  0.65937316  0.01808744  0.34669264  1.0
  C  C136  1  0.98365224  0.98360615  0.32603051  1.0
  C  C137  1  0.57040998  0.23506543  0.75852282  1.0
  C  C138  1  0.50591367  0.27976334  0.70501368  1.0
  C  C139  1  0.44371754  0.34408108  0.71242799  1.0
  C  C140  1  0.39890288  0.38889585  0.66461082  1.0
  C  C141  1  0.40629231  0.36803659  0.60847561  1.0
  C  C142  1  0.45904175  0.30315579  0.60204899  1.0
  C  C143  1  0.51325850  0.25961003  0.64891113  1.0
  C  C144  1  0.33996154  0.45656680  0.67862001  1.0
  C  C145  1  0.37276548  0.41008586  0.55259414  1.0
  C  C146  1  0.44335416  0.24259112  0.81497760  1.0
  C  C147  1  0.49672799  0.23728600  0.87137292  1.0
  C  C148  1  0.37628071  0.23442768  0.92174766  1.0
  C  C149  1  0.19922931  0.23806077  0.91652588  1.0
  C  C150  1  0.14480405  0.24820329  0.86010257  1.0
  C  C151  1  0.26533590  0.24969665  0.81002050  1.0
  C  C152  1  0.43302111  0.22788026  0.98176392  1.0
  C  C153  1  0.07073609  0.22919800  0.97064756  1.0
  C  C154  1  0.75284534  0.25006496  0.76548796  1.0
  C  C155  1  0.59209405  0.16304602  0.74789842  1.0
  C  C156  1  0.79900385  0.82248239  0.53302999  1.0
  C  C157  1  0.72977505  0.79615833  0.59583857  1.0
  C  C158  1  0.67008193  0.73717610  0.60141417  1.0
  C  C159  1  0.61375398  0.70754250  0.65642823  1.0
  C  C160  1  0.61483821  0.73696057  0.70773631  1.0
  C  C161  1  0.66962944  0.79645689  0.70195611  1.0
  C  C162  1  0.72828837  0.82571992  0.64678471  1.0
  C  C163  1  0.54285640  0.64653880  0.65792797  1.0
  C  C164  1  0.56964889  0.70534043  0.76844974  1.0
  C  C165  1  0.91817272  0.76712934  0.50432330  1.0
  C  C166  1  0.02144178  0.72449528  0.54187424  1.0
  C  C167  1  0.11407608  0.66748699  0.52378880  1.0
  C  C168  1  0.10631307  0.65304656  0.46619824  1.0
  C  C169  1  0.01529375  0.69790133  0.42714316  1.0
  C  C170  1  0.92090918  0.75472226  0.44580727  1.0
  C  C171  1  0.21644877  0.62401191  0.56814133  1.0
  C  C172  1  0.17829510  0.58787308  0.44964037  1.0
  C  C173  1  0.63785725  0.84922320  0.49951735  1.0
  C  C174  1  0.90776368  0.87709679  0.53222126  1.0
  C  C175  1  0.17931874  0.97545522  0.69928681  1.0
  C  C176  1  0.22020044  0.99827789  0.75595804  1.0
  C  C177  1  0.31364505  0.95312797  0.79425270  1.0
  C  C178  1  0.34832563  0.96822800  0.84828543  1.0
  C  C179  1  0.29333648  0.03062465  0.86383365  1.0
  C  C180  1  0.20569449  0.07655188  0.82467353  1.0
  C  C181  1  0.16893050  0.06065629  0.77114903  1.0
  C  C182  1  0.42833724  0.91603962  0.89095900  1.0
  C  C183  1  0.29283670  0.04662778  0.92538617  1.0
  C  C184  1  0.14047494  0.90652831  0.71389061  1.0
  C  C185  1  0.02801320  0.89476978  0.76523788  1.0
  C  C186  1  0.99132642  0.83369254  0.78550436  1.0
  C  C187  1  0.07067324  0.78184607  0.75409699  1.0
  C  C188  1  0.17639241  0.79407169  0.70137327  1.0
  C  C189  1  0.21160033  0.85558876  0.68114611  1.0
  C  C190  1  0.85782081  0.82842086  0.83789112  1.0
  C  C191  1  0.06052053  0.71319753  0.77600482  1.0
  C  C192  1  0.34062822  0.98191215  0.65331003  1.0
  C  C193  1  0.01634972  0.01639200  0.67396839  1.0
  O  O194  1  0.78683872  0.53319806  0.28117061  1.0
  O  O195  1  0.58414009  0.49691695  0.34650653  1.0
  O  O196  1  0.56406947  0.53764575  0.45851715  1.0
  O  O197  1  0.70437210  0.60824563  0.48553476  1.0
  O  O198  1  0.64560677  0.80628609  0.97591975  1.0
  O  O199  1  0.45192897  0.74195816  0.00706501  1.0
  O  O200  1  0.95511493  0.82830768  0.01307628  1.0
  O  O201  1  0.00290192  0.72256683  0.00403520  1.0
  O  O202  1  0.61050585  0.35399182  0.31702122  1.0
  O  O203  1  0.36212337  0.39889561  0.36682345  1.0
  O  O204  1  0.51082379  0.25955330  0.19297905  1.0
  O  O205  1  0.38039406  0.35540107  0.21998838  1.0
  O  O206  1  0.86883875  0.38976375  0.38127281  1.0
  O  O207  1  0.62436197  0.39312747  0.44536991  1.0
  O  O208  1  0.75020108  0.42140507  0.60204115  1.0
  O  O209  1  0.83129302  0.45917186  0.50940427  1.0
  O  O210  1  0.58734203  0.14112427  0.11526208  1.0
  O  O211  1  0.50096882  0.06754429  0.06792297  1.0
  O  O212  1  0.60046690  0.92108122  0.06004104  1.0
  O  O213  1  0.83208838  0.96908848  0.03711305  1.0
  O  O214  1  0.24377671  0.21186488  0.16064183  1.0
  O  O215  1  0.15115969  0.13285856  0.12374322  1.0
  O  O216  1  0.94808768  0.32367008  0.26217899  1.0
  O  O217  1  0.92839989  0.30664723  0.16897315  1.0
  O  O218  1  0.57609247  0.44914553  0.22447665  1.0
  O  O219  1  0.90098952  0.43405865  0.17528701  1.0
  O  O220  1  0.10649293  0.43433019  0.27449487  1.0
  O  O221  1  0.08897506  0.46258755  0.41838144  1.0
  O  O222  1  0.76120981  0.26121177  0.08865372  1.0
  O  O223  1  0.19285669  0.31228306  0.07490545  1.0
  O  O224  1  0.47728079  0.36286666  0.09940557  1.0
  O  O225  1  0.95933984  0.06641613  0.06801264  1.0
  O  O226  1  0.27066412  0.98471176  0.08094831  1.0
  O  O227  1  0.21315757  0.46680441  0.71882672  1.0
  O  O228  1  0.41585533  0.50308456  0.65349095  1.0
  O  O229  1  0.43593432  0.46235719  0.54148327  1.0
  O  O230  1  0.29563638  0.39175825  0.51446314  1.0
  O  O231  1  0.35440140  0.19371254  0.02408098  1.0
  O  O232  1  0.54808870  0.25803615  0.99293449  1.0
  O  O233  1  0.04488772  0.17169191  0.98692546  1.0
  O  O234  1  0.99710282  0.27743085  0.99596623  1.0
  O  O235  1  0.38950518  0.64601207  0.68297525  1.0
  O  O236  1  0.63788459  0.60110350  0.63317592  1.0
  O  O237  1  0.48916801  0.74044773  0.80702127  1.0
  O  O238  1  0.61960287  0.64459995  0.78001432  1.0
  O  O239  1  0.13117624  0.61023678  0.61872083  1.0
  O  O240  1  0.37565053  0.60687594  0.55462438  1.0
  O  O241  1  0.24980222  0.57859595  0.39795646  1.0
  O  O242  1  0.16871075  0.54083108  0.49059396  1.0
  O  O243  1  0.41264569  0.85887437  0.88474177  1.0
  O  O244  1  0.49902912  0.93245435  0.93207823  1.0
  O  O245  1  0.39952995  0.07891694  0.93995939  1.0
  O  O246  1  0.16791124  0.03090920  0.96288731  1.0
  O  O247  1  0.75621596  0.78813711  0.83935877  1.0
  O  O248  1  0.84884193  0.86714342  0.87625697  1.0
  O  O249  1  0.05191454  0.67633047  0.73781917  1.0
  O  O250  1  0.07159573  0.69335380  0.83102526  1.0
  O  O251  1  0.42390889  0.55085406  0.77552253  1.0
  O  O252  1  0.09901485  0.56594285  0.82471093  1.0
  O  O253  1  0.89350641  0.56567418  0.72550557  1.0
  O  O254  1  0.91102528  0.53741443  0.58161751  1.0
  O  O255  1  0.23878334  0.73879213  0.91134837  1.0
  O  O256  1  0.80714210  0.68771653  0.92509385  1.0
  O  O257  1  0.52271231  0.63713437  0.90059731  1.0
  O  O258  1  0.04065533  0.93358299  0.93198863  1.0
  O  O259  1  0.72933556  0.01528879  0.91905301  1.0
  F  F260  1  0.14544066  0.74529144  0.28692127  1.0
  F  F261  1  0.15654219  0.79630403  0.19805385  1.0
  F  F262  1  0.25930353  0.69367433  0.21120352  1.0
  F  F263  1  0.27518135  0.85319193  0.29442359  1.0
  F  F264  1  0.55469004  0.85022369  0.26974384  1.0
  F  F265  1  0.37631929  0.87701588  0.20226001  1.0
  F  F266  1  0.44722925  0.19881244  0.50924434  1.0
  F  F267  1  0.47853857  0.10950787  0.46932288  1.0
  F  F268  1  0.32163043  0.11942200  0.55451959  1.0
  F  F269  1  0.01263390  0.10795636  0.52271942  1.0
  F  F270  1  0.18839905  0.06800089  0.44991969  1.0
  F  F271  1  0.96478856  0.14162163  0.43139699  1.0
  F  F272  1  0.61032791  0.95982878  0.34878127  1.0
  F  F273  1  0.52153782  0.06222787  0.33098179  1.0
  F  F274  1  0.68564681  0.02623658  0.40227322  1.0
  F  F275  1  0.95918254  0.92309485  0.34827273  1.0
  F  F276  1  0.12068295  0.97857404  0.28307177  1.0
  F  F277  1  0.03211998  0.01081440  0.37012736  1.0
  F  F278  1  0.85455934  0.25470528  0.71307658  1.0
  F  F279  1  0.84345619  0.20369652  0.80194448  1.0
  F  F280  1  0.74069929  0.30632478  0.78879261  1.0
  F  F281  1  0.72481503  0.14680432  0.70557623  1.0
  F  F282  1  0.44530384  0.14977543  0.73025618  1.0
  F  F283  1  0.62367951  0.12298371  0.79773973  1.0
  F  F284  1  0.55275801  0.80118429  0.49076194  1.0
  F  F285  1  0.52144998  0.89048886  0.53068421  1.0
  F  F286  1  0.67834450  0.88057666  0.44548616  1.0
  F  F287  1  0.98737958  0.89203269  0.47727612  1.0
  F  F288  1  0.81160597  0.93200492  0.55006463  1.0
  F  F289  1  0.03521075  0.85838275  0.56859997  1.0
  F  F290  1  0.38966431  0.04017130  0.65122176  1.0
  F  F291  1  0.47846163  0.93777028  0.66902289  1.0
  F  F292  1  0.31435631  0.97376492  0.59772783  1.0
  F  F293  1  0.04081923  0.07690379  0.65172699  1.0
  F  F294  1  0.87931875  0.02142172  0.71692699  1.0
  F  F295  1  0.96789288  0.98918519  0.62986955  1.0
