# generated using pymatgen
data_Zr3H28C40(N3O8)2
_symmetry_space_group_name_H-M   'P 1'
_cell_length_a   18.33080865
_cell_length_b   22.52237380
_cell_length_c   22.54351516
_cell_angle_alpha   93.68960140
_cell_angle_beta   89.95635057
_cell_angle_gamma   89.93261043
_symmetry_Int_Tables_number   1
_chemical_formula_structural   Zr3H28C40(N3O8)2
_chemical_formula_sum   'Zr6 H56 C80 N12 O32'
_cell_volume   9287.86465094
_cell_formula_units_Z   2
loop_
 _symmetry_equiv_pos_site_id
 _symmetry_equiv_pos_as_xyz
  1  'x, y, z'
loop_
 _atom_site_type_symbol
 _atom_site_label
 _atom_site_symmetry_multiplicity
 _atom_site_fract_x
 _atom_site_fract_y
 _atom_site_fract_z
 _atom_site_occupancy
  Zr  Zr0  1  0.99474971  0.98844419  0.08551440  1.0
  Zr  Zr1  1  0.99519697  0.09509583  0.97146573  1.0
  Zr  Zr2  1  0.99379378  0.86664255  0.97484160  1.0
  Zr  Zr3  1  0.99420710  0.97085050  0.86252329  1.0
  Zr  Zr4  1  0.86067369  0.98108809  0.97356065  1.0
  Zr  Zr5  1  0.12818805  0.97959737  0.97250592  1.0
  H  H6  1  0.10322755  0.07014743  0.06334526  1.0
  H  H7  1  0.88967072  0.06554300  0.88228417  1.0
  H  H8  1  0.10136371  0.88832357  0.88178160  1.0
  H  H9  1  0.88600418  0.89664980  0.05967635  1.0
  H  H10  1  0.94342331  0.18016341  0.90974741  1.0
  H  H11  1  0.04748976  0.02419804  0.76906211  1.0
  H  H12  1  0.95445563  0.88455679  0.78322072  1.0
  H  H13  1  0.99258458  0.83965298  0.85130482  1.0
  H  H14  1  0.03646545  0.79528764  0.05694254  1.0
  H  H15  1  0.99635811  0.86712299  0.10679108  1.0
  H  H16  1  0.95448705  0.07433394  0.16459101  1.0
  H  H17  1  0.99309232  0.12033693  0.09545638  1.0
  H  H18  1  0.03387002  0.78385244  0.88054186  1.0
  H  H19  1  0.95119231  0.90031022  0.16201225  1.0
  H  H20  1  0.03308525  0.17671855  0.06635263  1.0
  H  H21  1  0.96213714  0.02018995  0.75359235  1.0
  H  H22  1  0.41913739  0.81074268  0.95486873  1.0
  H  H23  1  0.29212995  0.65394847  0.97859606  1.0
  H  H24  1  0.17763081  0.71513578  0.98076709  1.0
  H  H25  1  0.30500093  0.87192149  0.95754098  1.0
  H  H26  1  0.69803385  0.65720785  0.97538478  1.0
  H  H27  1  0.56512076  0.81235524  0.95834218  1.0
  H  H28  1  0.67717504  0.87557717  0.95897213  1.0
  H  H29  1  0.81051022  0.72072397  0.97543345  1.0
  H  H30  1  0.28837913  0.30333464  0.96228793  1.0
  H  H31  1  0.42159592  0.15142914  0.99319803  1.0
  H  H32  1  0.31047767  0.08679596  0.99060370  1.0
  H  H33  1  0.17667880  0.23840674  0.96039192  1.0
  H  H34  1  0.69642972  0.30310011  0.97477041  1.0
  H  H35  1  0.56113563  0.14916980  0.98890591  1.0
  H  H36  1  0.67229629  0.08444588  0.98857839  1.0
  H  H37  1  0.80801611  0.23830932  0.97595426  1.0
  H  H38  1  0.61178240  0.53573080  0.97640362  1.0
  H  H39  1  0.37772370  0.53673776  0.96788674  1.0
  H  H40  1  0.37656746  0.42547069  0.96956879  1.0
  H  H41  1  0.61062610  0.42440803  0.97811122  1.0
  H  H42  1  0.42675994  0.96889737  0.80399461  1.0
  H  H43  1  0.29416013  0.98208354  0.64841287  1.0
  H  H44  1  0.18171087  0.98303221  0.71165125  1.0
  H  H45  1  0.31448083  0.97065689  0.86728463  1.0
  H  H46  1  0.81400239  0.97703258  0.70898846  1.0
  H  H47  1  0.68212042  0.95612377  0.86377041  1.0
  H  H48  1  0.56954653  0.95804632  0.80121018  1.0
  H  H49  1  0.70123096  0.97991139  0.64655293  1.0
  H  H50  1  0.42377675  0.98838462  0.14038766  1.0
  H  H51  1  0.29050553  0.97751105  0.29607889  1.0
  H  H52  1  0.17812818  0.97584970  0.23234296  1.0
  H  H53  1  0.31184869  0.98632642  0.07705511  1.0
  H  H54  1  0.69743837  0.98166237  0.29886183  1.0
  H  H55  1  0.56834074  0.99876116  0.14203488  1.0
  H  H56  1  0.68212689  0.00062239  0.08081422  1.0
  H  H57  1  0.81154469  0.98408013  0.23762650  1.0
  H  H58  1  0.61159870  0.98700948  0.41614875  1.0
  H  H59  1  0.37783967  0.97512931  0.41690885  1.0
  H  H60  1  0.37909057  0.97291779  0.52808853  1.0
  H  H61  1  0.61296834  0.98433969  0.52723303  1.0
  C  C62  1  0.49434923  0.98278289  0.34460328  1.0
  C  C63  1  0.43242782  0.98415890  0.25732555  1.0
  C  C64  1  0.55694477  0.98732311  0.25802883  1.0
  C  C65  1  0.49681946  0.97689330  0.59958404  1.0
  C  C66  1  0.55981340  0.97224561  0.68596355  1.0
  C  C67  1  0.43541792  0.97461364  0.68706542  1.0
  C  C68  1  0.49291340  0.35287015  0.97532050  1.0
  C  C69  1  0.55432049  0.26553899  0.97971989  1.0
  C  C70  1  0.42984264  0.26627300  0.97781047  1.0
  C  C71  1  0.49493772  0.60827266  0.97072284  1.0
  C  C72  1  0.43182577  0.69486234  0.96727375  1.0
  C  C73  1  0.55631279  0.69573417  0.96754953  1.0
  C  C74  1  0.81879195  0.99087092  0.11524886  1.0
  C  C75  1  0.17328368  0.11809418  0.97356628  1.0
  C  C76  1  0.81147515  0.11698613  0.97906096  1.0
  C  C77  1  0.17330587  0.98072882  0.11043754  1.0
  C  C78  1  0.16939047  0.83759668  0.97247802  1.0
  C  C79  1  0.81909899  0.96833889  0.83109075  1.0
  C  C80  1  0.17631221  0.97702413  0.83374055  1.0
  C  C81  1  0.81539136  0.84255488  0.96908537  1.0
  C  C82  1  0.36600954  0.79033169  0.96047862  1.0
  C  C83  1  0.36261001  0.72880871  0.96691032  1.0
  C  C84  1  0.29434414  0.70172106  0.97374776  1.0
  C  C85  1  0.23069414  0.73582320  0.97498628  1.0
  C  C86  1  0.23461717  0.79741653  0.96961824  1.0
  C  C87  1  0.30289860  0.82412638  0.96192291  1.0
  C  C88  1  0.69393292  0.70506109  0.97148663  1.0
  C  C89  1  0.62451092  0.73096043  0.96685465  1.0
  C  C90  1  0.61905470  0.79270851  0.96194599  1.0
  C  C91  1  0.68114482  0.82767481  0.96215811  1.0
  C  C92  1  0.75052514  0.80197059  0.96707151  1.0
  C  C93  1  0.75648232  0.74033216  0.97147439  1.0
  C  C94  1  0.29265865  0.25595341  0.96885350  1.0
  C  C95  1  0.36176878  0.23107791  0.97775335  1.0
  C  C96  1  0.36775845  0.16993740  0.98604789  1.0
  C  C97  1  0.30640033  0.13426513  0.98467529  1.0
  C  C98  1  0.23743294  0.15893675  0.97538611  1.0
  C  C99  1  0.23070035  0.22001090  0.96784328  1.0
  C  C100  1  0.69169539  0.25521087  0.97810303  1.0
  C  C101  1  0.62200305  0.22983820  0.98148888  1.0
  C  C102  1  0.61547555  0.16811677  0.98601958  1.0
  C  C103  1  0.67695888  0.13236996  0.98591215  1.0
  C  C104  1  0.74659369  0.15749606  0.98172419  1.0
  C  C105  1  0.75358485  0.21921560  0.97851270  1.0
  C  C106  1  0.56065682  0.51110904  0.97491429  1.0
  C  C107  1  0.49481673  0.54280226  0.97212084  1.0
  C  C108  1  0.42834480  0.51163985  0.97016873  1.0
  C  C109  1  0.42770564  0.45008852  0.97101927  1.0
  C  C110  1  0.49356856  0.41838534  0.97386662  1.0
  C  C111  1  0.56002687  0.44951845  0.97579636  1.0
  C  C112  1  0.37280957  0.97207093  0.78435086  1.0
  C  C113  1  0.36734463  0.97534022  0.72247398  1.0
  C  C114  1  0.29808624  0.97948571  0.69640033  1.0
  C  C115  1  0.23557261  0.98029241  0.73172279  1.0
  C  C116  1  0.24134224  0.97718636  0.79346561  1.0
  C  C117  1  0.31066910  0.97305423  0.81932946  1.0
  C  C118  1  0.76024587  0.97284363  0.72900934  1.0
  C  C119  1  0.75465654  0.96669515  0.79034422  1.0
  C  C120  1  0.68557147  0.96091579  0.81613634  1.0
  C  C121  1  0.62336903  0.96209312  0.78156794  1.0
  C  C122  1  0.62841519  0.96939880  0.72028063  1.0
  C  C123  1  0.69753183  0.97436697  0.69411176  1.0
  C  C124  1  0.36979956  0.98561323  0.16009966  1.0
  C  C125  1  0.36423808  0.98310981  0.22207631  1.0
  C  C126  1  0.29476037  0.97946081  0.24802995  1.0
  C  C127  1  0.23226072  0.97844552  0.21263743  1.0
  C  C128  1  0.23830254  0.98089882  0.15085094  1.0
  C  C129  1  0.30777888  0.98443439  0.12504941  1.0
  C  C130  1  0.69464194  0.98609638  0.25108086  1.0
  C  C131  1  0.62588755  0.98987977  0.22401431  1.0
  C  C132  1  0.62185267  0.99568407  0.16245595  1.0
  C  C133  1  0.68476284  0.99676239  0.12861840  1.0
  C  C134  1  0.75353513  0.99220065  0.15535387  1.0
  C  C135  1  0.75807414  0.98736611  0.21694573  1.0
  C  C136  1  0.56109929  0.98381204  0.44118847  1.0
  C  C137  1  0.49467462  0.98117002  0.41001477  1.0
  C  C138  1  0.42893574  0.97720157  0.44156814  1.0
  C  C139  1  0.42963842  0.97597405  0.50306332  1.0
  C  C140  1  0.49607672  0.97854760  0.53421115  1.0
  C  C141  1  0.56183303  0.98241953  0.50262649  1.0
  N  N142  1  0.42923628  0.98195388  0.31676408  1.0
  N  N143  1  0.49492257  0.98718268  0.22645170  1.0
  N  N144  1  0.55966636  0.98508519  0.31735604  1.0
  N  N145  1  0.56236098  0.97519340  0.62667304  1.0
  N  N146  1  0.49789043  0.97174991  0.71770664  1.0
  N  N147  1  0.43186062  0.97689235  0.62773010  1.0
  N  N148  1  0.55793733  0.32493419  0.97715459  1.0
  N  N149  1  0.49179876  0.23487182  0.98059419  1.0
  N  N150  1  0.42731604  0.32567124  0.97498360  1.0
  N  N151  1  0.42946273  0.63553993  0.96975061  1.0
  N  N152  1  0.49366141  0.72658028  0.96552963  1.0
  N  N153  1  0.55989400  0.63632176  0.97029495  1.0
  O  O154  1  0.88336600  0.99026125  0.13710572  1.0
  O  O155  1  0.80360962  0.98924024  0.06008393  1.0
  O  O156  1  0.10927693  0.13986999  0.97677199  1.0
  O  O157  1  0.18918261  0.06262512  0.96968538  1.0
  O  O158  1  0.87509539  0.13850266  0.98202877  1.0
  O  O159  1  0.79618581  0.06120220  0.97223449  1.0
  O  O160  1  0.10905561  0.98108763  0.13152905  1.0
  O  O161  1  0.18951623  0.98139586  0.05509805  1.0
  O  O162  1  0.99529170  0.07017480  0.13701465  1.0
  O  O163  1  0.99510690  0.90392065  0.13826245  1.0
  O  O164  1  0.99223301  0.14942220  0.06089209  1.0
  O  O165  1  0.98932407  0.15973610  0.91527115  1.0
  O  O166  1  0.93801311  0.03037547  0.01975266  1.0
  O  O167  1  0.07073589  0.04629310  0.03763078  1.0
  O  O168  1  0.10466923  0.81572117  0.97241274  1.0
  O  O169  1  0.18458824  0.89269741  0.97415483  1.0
  O  O170  1  0.88386373  0.96756198  0.80930866  1.0
  O  O171  1  0.80379839  0.97161860  0.88610673  1.0
  O  O172  1  0.11180602  0.97984917  0.81246798  1.0
  O  O173  1  0.19096982  0.97239675  0.88850532  1.0
  O  O174  1  0.87967588  0.82127807  0.96821089  1.0
  O  O175  1  0.79930771  0.89813486  0.97284988  1.0
  O  O176  1  0.99197305  0.81016585  0.88615329  1.0
  O  O177  1  0.99498423  0.82201303  0.05457885  1.0
  O  O178  1  0.99621222  0.88860534  0.80979246  1.0
  O  O179  1  0.99774032  0.03342680  0.78364212  1.0
  O  O180  1  0.06941903  0.91203428  0.90820831  1.0
  O  O181  1  0.93731958  0.92974817  0.92603404  1.0
  O  O182  1  0.05008507  0.93528897  0.01898920  1.0
  O  O183  1  0.92203564  0.04227029  0.90569738  1.0
  O  O184  1  0.91912037  0.92024564  0.03729758  1.0
  O  O185  1  0.05242613  0.02567018  0.92435108  1.0
