# generated using pymatgen
data_Zn2H62C59N2O13
_symmetry_space_group_name_H-M   'P 1'
_cell_length_a   10.75488895
_cell_length_b   14.00836083
_cell_length_c   15.15527071
_cell_angle_alpha   91.93543382
_cell_angle_beta   91.85250667
_cell_angle_gamma   90.25905273
_symmetry_Int_Tables_number   1
_chemical_formula_structural   Zn2H62C59N2O13
_chemical_formula_sum   'Zn2 H62 C59 N2 O13'
_cell_volume   2280.73708400
_cell_formula_units_Z   1
loop_
 _symmetry_equiv_pos_site_id
 _symmetry_equiv_pos_as_xyz
  1  'x, y, z'
loop_
 _atom_site_type_symbol
 _atom_site_label
 _atom_site_symmetry_multiplicity
 _atom_site_fract_x
 _atom_site_fract_y
 _atom_site_fract_z
 _atom_site_occupancy
  Zn  Zn0  1  0.50728527  0.60618901  0.50591642  1.0
  Zn  Zn1  1  0.50903055  0.39698403  0.49647954  1.0
  H  H2  1  0.11967830  0.61911445  0.57112313  1.0
  H  H3  1  0.09704066  0.34941617  0.43452263  1.0
  H  H4  1  0.79278219  0.62200061  0.92054305  1.0
  H  H5  1  0.67648337  0.58180374  0.77681958  1.0
  H  H6  1  0.34383256  0.41093953  0.77483680  1.0
  H  H7  1  0.24755639  0.37125296  0.91735287  1.0
  H  H8  1  0.25148342  0.38066462  0.08099301  1.0
  H  H9  1  0.60597724  0.76166454  0.61210394  1.0
  H  H10  1  0.60487716  0.25505038  0.61048945  1.0
  H  H11  1  0.27484243  0.08393361  0.33438026  1.0
  H  H12  1  0.25344080  0.91122495  0.34694883  1.0
  H  H13  1  0.93139428  0.49196881  0.64603693  1.0
  H  H14  1  0.91654358  0.36213521  0.57698801  1.0
  H  H15  1  0.11480470  0.60499557  0.41533303  1.0
  H  H16  1  0.10054532  0.49267070  0.35954324  1.0
  H  H17  1  0.89896649  0.61418284  0.42512855  1.0
  H  H18  1  0.88472259  0.50667246  0.36418907  1.0
  H  H19  1  0.35808438  0.42985973  0.22267910  1.0
  H  H20  1  0.70168112  0.58936847  0.22488762  1.0
  H  H21  1  0.27381092  0.61875339  0.23952965  1.0
  H  H22  1  0.18700774  0.72433189  0.22033295  1.0
  H  H23  1  0.31562948  0.69449975  0.15392463  1.0
  H  H24  1  0.37501859  0.82414772  0.26766680  1.0
  H  H25  1  0.46242771  0.71932602  0.28370971  1.0
  H  H26  1  0.32177138  0.66784920  0.39970540  1.0
  H  H27  1  0.22810530  0.76913186  0.38491742  1.0
  H  H28  1  0.43368957  0.23802870  0.15251296  1.0
  H  H29  1  0.55908873  0.31102604  0.19345764  1.0
  H  H30  1  0.58881654  0.19661043  0.14492346  1.0
  H  H31  1  0.61043252  0.19918317  0.31149972  1.0
  H  H32  1  0.49863814  0.11577885  0.26974063  1.0
  H  H33  1  0.32673705  0.22405795  0.31206104  1.0
  H  H34  1  0.43432749  0.31639880  0.34230174  1.0
  H  H35  1  0.76473434  0.75961603  0.81785094  1.0
  H  H36  1  0.80028893  0.86872725  0.87632857  1.0
  H  H37  1  0.67314981  0.79735662  0.90766983  1.0
  H  H38  1  0.59769614  0.93837450  0.81999380  1.0
  H  H39  1  0.55873568  0.82886197  0.76519833  1.0
  H  H40  1  0.74626712  0.84272318  0.67248947  1.0
  H  H41  1  0.78808648  0.95048492  0.72731230  1.0
  H  H42  1  0.83800018  0.28879847  0.74609913  1.0
  H  H43  1  0.91651266  0.19302569  0.79737261  1.0
  H  H44  1  0.98342671  0.24978668  0.70679646  1.0
  H  H45  1  0.88696323  0.09227482  0.65542965  1.0
  H  H46  1  0.81019585  0.18815427  0.60548258  1.0
  H  H47  1  0.64870080  0.18240167  0.72594700  1.0
  H  H48  1  0.72220174  0.08077783  0.76617738  1.0
  H  H49  1  0.06569600  0.60398142  0.75248066  1.0
  H  H50  1  0.20233125  0.65288978  0.70556188  1.0
  H  H51  1  0.21699540  0.55946874  0.78308984  1.0
  H  H52  1  0.18076118  0.21525852  0.48073028  1.0
  H  H53  1  0.04369023  0.19663767  0.54235188  1.0
  H  H54  1  0.19462186  0.19560099  0.59688641  1.0
  H  H55  1  0.99506470  0.71439718  0.53727717  1.0
  H  H56  1  0.90211822  0.77239502  0.61745477  1.0
  H  H57  1  0.82857124  0.71337187  0.52225455  1.0
  H  H58  1  0.94389531  0.34984748  0.33437712  1.0
  H  H59  1  0.78050717  0.37362375  0.34774229  1.0
  H  H60  1  0.83423851  0.25386370  0.33460444  1.0
  H  H61  1  0.89090010  0.51926914  0.15899482  1.0
  H  H62  1  0.98929798  0.62286827  0.15432294  1.0
  H  H63  1  0.96562533  0.54576965  0.05812305  1.0
  C  C64  1  0.49993374  0.50107321  0.66928536  1.0
  C  C65  1  0.93009073  0.53997786  0.42334722  1.0
  C  C66  1  0.43164287  0.46353279  0.18637999  1.0
  C  C67  1  0.53108935  0.50834243  0.23277755  1.0
  C  C68  1  0.62633909  0.55204595  0.18806452  1.0
  C  C69  1  0.62538235  0.54861000  0.09536760  1.0
  C  C70  1  0.52421435  0.50229393  0.04713024  1.0
  C  C71  1  0.42575238  0.45994918  0.09382623  1.0
  C  C72  1  0.72290896  0.59060376  0.04607939  1.0
  C  C73  1  0.71816635  0.58855129  0.95578896  1.0
  C  C74  1  0.61652555  0.54397085  0.90650661  1.0
  C  C75  1  0.27106757  0.48862329  0.49204943  1.0
  C  C76  1  0.52033451  0.49875206  0.95325092  1.0
  C  C77  1  0.42006677  0.45076091  0.90556280  1.0
  C  C78  1  0.32364367  0.40776477  0.95429599  1.0
  C  C79  1  0.32583857  0.41299648  0.04449410  1.0
  C  C80  1  0.60691310  0.54463698  0.81398313  1.0
  C  C81  1  0.50878861  0.49738611  0.76789120  1.0
  C  C82  1  0.41813546  0.44848435  0.81284257  1.0
  C  C83  1  0.40274780  0.79896106  0.44927611  1.0
  C  C84  1  0.44245479  0.19811016  0.42804068  1.0
  C  C85  1  0.54960972  0.80490458  0.56789144  1.0
  C  C86  1  0.55760117  0.20673412  0.56252497  1.0
  C  C87  1  0.55143501  0.90518617  0.57533083  1.0
  C  C88  1  0.55548373  0.10739091  0.57242395  1.0
  C  C89  1  0.53253958  0.50867341  0.33181152  1.0
  C  C90  1  0.47450745  0.95304207  0.51292048  1.0
  C  C91  1  0.47971359  0.05402779  0.50980311  1.0
  C  C92  1  0.39746969  0.89984144  0.45107220  1.0
  C  C93  1  0.41558678  0.10085008  0.44049839  1.0
  C  C94  1  0.62809643  0.95991853  0.63965204  1.0
  C  C95  1  0.62720887  0.05886412  0.63977703  1.0
  C  C96  1  0.33122777  0.04694006  0.38330591  1.0
  C  C97  1  0.31981726  0.95054271  0.39007666  1.0
  C  C98  1  0.74487639  0.49780626  0.51335317  1.0
  C  C99  1  0.09114470  0.54478453  0.58241717  1.0
  C  C100  1  0.07677134  0.38296821  0.49958005  1.0
  C  C101  1  0.94849473  0.53971242  0.59146488  1.0
  C  C102  1  0.93349311  0.38566132  0.50997430  1.0
  C  C103  1  0.07278232  0.53364987  0.41888917  1.0
  C  C104  1  0.13007772  0.48483386  0.50113483  1.0
  C  C105  1  0.88580731  0.49078274  0.50631344  1.0
  C  C106  1  0.32451071  0.74276200  0.38197499  1.0
  C  C107  1  0.36839673  0.74910495  0.28642925  1.0
  C  C108  1  0.28127909  0.69383686  0.22140445  1.0
  C  C109  1  0.42146130  0.23896232  0.33876557  1.0
  C  C110  1  0.51862764  0.19285071  0.27734271  1.0
  C  C111  1  0.52512211  0.23713022  0.18715889  1.0
  C  C112  1  0.70731672  0.90657355  0.70528845  1.0
  C  C113  1  0.63787201  0.87510621  0.78670069  1.0
  C  C114  1  0.72337792  0.82244398  0.85084064  1.0
  C  C115  1  0.70364138  0.11973902  0.70549965  1.0
  C  C116  1  0.82767936  0.15464232  0.66938275  1.0
  C  C117  1  0.89543540  0.22526999  0.73339667  1.0
  C  C118  1  0.15920732  0.58682108  0.72873171  1.0
  C  C119  1  0.13762757  0.22900852  0.54516149  1.0
  C  C120  1  0.90615016  0.71044568  0.57125710  1.0
  C  C121  1  0.85742361  0.32479899  0.36392185  1.0
  C  C122  1  0.92167360  0.57715413  0.11702224  1.0
  N  N123  1  0.48021782  0.75431362  0.50661251  1.0
  N  N124  1  0.50659954  0.24923775  0.49164296  1.0
  O  O125  1  0.52856444  0.58102325  0.63710584  1.0
  O  O126  1  0.46512641  0.42527336  0.62692615  1.0
  O  O127  1  0.32246307  0.56829395  0.51323089  1.0
  O  O128  1  0.32547559  0.41556101  0.45990565  1.0
  O  O129  1  0.50241380  0.58622148  0.37046970  1.0
  O  O130  1  0.56077390  0.43087140  0.36819570  1.0
  O  O131  1  0.69558247  0.57668386  0.49275517  1.0
  O  O132  1  0.68755632  0.42486364  0.53928216  1.0
  O  O133  1  0.15531166  0.51448992  0.66034880  1.0
  O  O134  1  0.13563247  0.32835975  0.56680101  1.0
  O  O135  1  0.89647284  0.62794814  0.62328632  1.0
  O  O136  1  0.87144715  0.31247054  0.45639328  1.0
  O  O137  1  0.81977202  0.63761915  0.09220780  1.0
