# generated using pymatgen
data_ZnH10C20NO4F3
_symmetry_space_group_name_H-M   'P 1'
_cell_length_a   11.10012874
_cell_length_b   16.36179637
_cell_length_c   17.77493582
_cell_angle_alpha   95.58878202
_cell_angle_beta   90.30236857
_cell_angle_gamma   92.21280223
_symmetry_Int_Tables_number   1
_chemical_formula_structural   ZnH10C20NO4F3
_chemical_formula_sum   'Zn2 H20 C40 N2 O8 F6'
_cell_volume   3210.37520263
_cell_formula_units_Z   2
loop_
 _symmetry_equiv_pos_site_id
 _symmetry_equiv_pos_as_xyz
  1  'x, y, z'
loop_
 _atom_site_type_symbol
 _atom_site_label
 _atom_site_symmetry_multiplicity
 _atom_site_fract_x
 _atom_site_fract_y
 _atom_site_fract_z
 _atom_site_occupancy
  Zn  Zn0  1  0.49470302  0.41347105  0.49767523  1.0
  Zn  Zn1  1  0.50420808  0.58508763  0.50663804  1.0
  H  H2  1  0.37688098  0.71022879  0.42735424  1.0
  H  H3  1  0.37840346  0.86173804  0.42749363  1.0
  H  H4  1  0.66286981  0.87485574  0.59709369  1.0
  H  H5  1  0.64805796  0.72160350  0.58884545  1.0
  H  H6  1  0.33770486  0.12409658  0.40351421  1.0
  H  H7  1  0.62280311  0.13663790  0.57272263  1.0
  H  H8  1  0.62473418  0.28841519  0.57306684  1.0
  H  H9  1  0.35122303  0.27746668  0.41315185  1.0
  H  H10  1  0.50678676  0.61974010  0.26596764  1.0
  H  H11  1  0.50742666  0.61374576  0.12668752  1.0
  H  H12  1  0.49106042  0.34833660  0.11429518  1.0
  H  H13  1  0.49069402  0.35683632  0.25458022  1.0
  H  H14  1  0.50915907  0.65238321  0.89007638  1.0
  H  H15  1  0.49295813  0.38676609  0.87519719  1.0
  H  H16  1  0.49328388  0.38249775  0.73581614  1.0
  H  H17  1  0.50945413  0.64545288  0.74986870  1.0
  H  H18  1  0.78062163  0.59865215  0.40140747  1.0
  H  H19  1  0.89636176  0.68351009  0.31803905  1.0
  H  H20  1  0.22869608  0.59540887  0.39941328  1.0
  H  H21  1  0.12186864  0.68195018  0.31687917  1.0
  C  C22  1  0.49697548  0.49295475  0.35355421  1.0
  C  C23  1  0.26357666  0.49609048  0.50107272  1.0
  C  C24  1  0.50274475  0.51082207  0.64994472  1.0
  C  C25  1  0.73542834  0.49707920  0.50177669  1.0
  C  C26  1  0.43870135  0.74951592  0.46402285  1.0
  C  C27  1  0.44014082  0.83438596  0.46439297  1.0
  C  C28  1  0.52154137  0.88262036  0.51292910  1.0
  C  C29  1  0.59809176  0.84106096  0.55859648  1.0
  C  C30  1  0.59039889  0.75592724  0.55446917  1.0
  C  C31  1  0.53103040  0.97195280  0.51872825  1.0
  C  C32  1  0.46986294  0.02670563  0.48163608  1.0
  C  C33  1  0.40253701  0.15777919  0.44208115  1.0
  C  C34  1  0.47934465  0.11606586  0.48747757  1.0
  C  C35  1  0.56097192  0.16413861  0.53598504  1.0
  C  C36  1  0.56239520  0.24907211  0.53674713  1.0
  C  C37  1  0.40966691  0.24295142  0.44685912  1.0
  C  C38  1  0.49776490  0.48871811  0.26908504  1.0
  C  C39  1  0.50295454  0.56054258  0.23199757  1.0
  C  C40  1  0.50344905  0.55698633  0.15361148  1.0
  C  C41  1  0.49878167  0.48027387  0.10929731  1.0
  C  C42  1  0.49425543  0.40807805  0.14714574  1.0
  C  C43  1  0.49382087  0.41252461  0.22554839  1.0
  C  C44  1  0.49844636  0.47140346  0.02705328  1.0
  C  C45  1  0.50182324  0.52852828  0.97599605  1.0
  C  C46  1  0.50602659  0.59295204  0.85671559  1.0
  C  C47  1  0.50157729  0.52022747  0.89376787  1.0
  C  C48  1  0.49696608  0.44390726  0.84884197  1.0
  C  C49  1  0.49725906  0.44125239  0.77049078  1.0
  C  C50  1  0.50226426  0.51364405  0.73429763  1.0
  C  C51  1  0.50634372  0.58944152  0.77841180  1.0
  C  C52  1  0.87092376  0.49880700  0.49937095  1.0
  C  C53  1  0.93741643  0.54871558  0.45076367  1.0
  C  C54  1  0.93372668  0.45136799  0.54481627  1.0
  C  C55  1  0.87854081  0.59815762  0.40145976  1.0
  C  C56  1  0.94370493  0.64574826  0.35498479  1.0
  C  C57  1  0.12829658  0.49802824  0.49890274  1.0
  C  C58  1  0.06084595  0.45103088  0.54471422  1.0
  C  C59  1  0.06693731  0.54813219  0.45043282  1.0
  C  C60  1  0.13083950  0.59669952  0.40052553  1.0
  C  C61  1  0.07078382  0.64494325  0.35443927  1.0
  N  N62  1  0.51195649  0.71077976  0.50814307  1.0
  N  N63  1  0.48821935  0.28786202  0.49325552  1.0
  O  O64  1  0.49355795  0.42507515  0.38303453  1.0
  O  O65  1  0.50002456  0.56437094  0.38994538  1.0
  O  O66  1  0.32036596  0.56543077  0.50941274  1.0
  O  O67  1  0.30943560  0.42599482  0.49389666  1.0
  O  O68  1  0.50738220  0.57945818  0.62168004  1.0
  O  O69  1  0.49827392  0.43999048  0.61266579  1.0
  O  O70  1  0.68137680  0.42704129  0.49548461  1.0
  O  O71  1  0.68662639  0.56647616  0.50918384  1.0
  F  F72  1  0.61573077  0.00486537  0.57018409  1.0
  F  F73  1  0.38506380  0.99371768  0.43023761  1.0
  F  F74  1  0.49386330  0.39097988  0.99640694  1.0
  F  F75  1  0.50635712  0.60891879  0.00684139  1.0
  F  F76  1  0.11384849  0.40429257  0.59332813  1.0
  F  F77  1  0.87606346  0.40458791  0.59348756  1.0
