# generated using pymatgen
data_Co2H26C19(NO5)2
_symmetry_space_group_name_H-M   'P 1'
_cell_length_a   8.47570493
_cell_length_b   17.01726396
_cell_length_c   17.02836491
_cell_angle_alpha   117.29444824
_cell_angle_beta   99.55923553
_cell_angle_gamma   99.52769235
_symmetry_Int_Tables_number   1
_chemical_formula_structural   Co2H26C19(NO5)2
_chemical_formula_sum   'Co6 H78 C57 N6 O30'
_cell_volume   2068.82979839
_cell_formula_units_Z   3
loop_
 _symmetry_equiv_pos_site_id
 _symmetry_equiv_pos_as_xyz
  1  'x, y, z'
loop_
 _atom_site_type_symbol
 _atom_site_label
 _atom_site_symmetry_multiplicity
 _atom_site_fract_x
 _atom_site_fract_y
 _atom_site_fract_z
 _atom_site_occupancy
  Co  Co0  1  0.41267852  0.84671357  0.06661238  1.0
  Co  Co1  1  0.56524347  0.21971077  0.15309987  1.0
  Co  Co2  1  0.34592311  0.93354047  0.78043562  1.0
  Co  Co3  1  0.96839939  0.15010064  0.93191648  1.0
  Co  Co4  1  0.81842945  0.78179009  0.84998624  1.0
  Co  Co5  1  0.03674406  0.06775995  0.21808233  1.0
  H  H6  1  0.39826900  0.02315132  0.11502187  1.0
  H  H7  1  0.37483592  0.09166656  0.97656756  1.0
  H  H8  1  0.28316369  0.88494778  0.90840179  1.0
  H  H9  1  0.58636776  0.02095473  0.12247355  1.0
  H  H10  1  0.56545199  0.10161575  0.97924132  1.0
  H  H11  1  0.46381268  0.87748149  0.89849967  1.0
  H  H12  1  0.98169126  0.97385008  0.87674361  1.0
  H  H13  1  0.00814936  0.90243206  0.02583879  1.0
  H  H14  1  0.10482433  0.12318766  0.09719262  1.0
  H  H15  1  0.79824496  0.97759236  0.88325669  1.0
  H  H16  1  0.82133548  0.90565818  0.02268372  1.0
  H  H17  1  0.91471770  0.11671135  0.09439948  1.0
  H  H18  1  0.72038903  0.55599064  0.02375080  1.0
  H  H19  1  0.16511503  0.46844466  0.44423768  1.0
  H  H20  1  0.69739562  0.97641508  0.53212771  1.0
  H  H21  1  0.84732264  0.70837188  0.10242343  1.0
  H  H22  1  0.13943700  0.39459640  0.29193075  1.0
  H  H23  1  0.74543289  0.89775672  0.60588989  1.0
  H  H24  1  0.99011042  0.74120298  0.05057246  1.0
  H  H25  1  0.24952809  0.30988951  0.25915690  1.0
  H  H26  1  0.94010714  0.94960568  0.69054568  1.0
  H  H27  1  0.06503491  0.74823385  0.15712191  1.0
  H  H28  1  0.31699398  0.40928194  0.25176122  1.0
  H  H29  1  0.90831609  0.84285282  0.59118402  1.0
  H  H30  1  0.67605881  0.33241798  0.97598746  1.0
  H  H31  1  0.34433452  0.64398148  0.66768024  1.0
  H  H32  1  0.70117356  0.02418610  0.35638463  1.0
  H  H33  1  0.63539744  0.32572846  0.86749862  1.0
  H  H34  1  0.31050935  0.54209956  0.67433146  1.0
  H  H35  1  0.76922818  0.13267286  0.45818601  1.0
  H  H36  1  0.57240764  0.40727858  0.95810195  1.0
  H  H37  1  0.16590400  0.55131313  0.59289225  1.0
  H  H38  1  0.61532247  0.04211834  0.44903837  1.0
  H  H39  1  0.85839525  0.27826803  0.88785072  1.0
  H  H40  1  0.58067600  0.60955002  0.72159600  1.0
  H  H41  1  0.97160433  0.11196851  0.39029253  1.0
  H  H42  1  0.05954544  0.29981491  0.87681836  1.0
  H  H43  1  0.76030063  0.57691143  0.69994857  1.0
  H  H44  1  0.18374518  0.12275527  0.42280794  1.0
  H  H45  1  0.38322905  0.48612412  0.02204737  1.0
  H  H46  1  0.89771815  0.53623348  0.51374400  1.0
  H  H47  1  0.36175952  0.97736856  0.46391924  1.0
  H  H48  1  0.33897215  0.50801972  0.93028620  1.0
  H  H49  1  0.83158488  0.42247699  0.49163682  1.0
  H  H50  1  0.40943531  0.06912003  0.57753703  1.0
  H  H51  1  0.26378030  0.39627955  0.91137652  1.0
  H  H52  1  0.86803704  0.51510484  0.60341748  1.0
  H  H53  1  0.35334221  0.08820382  0.48483824  1.0
  H  H54  1  0.39442822  0.64165289  0.08516878  1.0
  H  H55  1  0.75285399  0.44331997  0.35780552  1.0
  H  H56  1  0.30987892  0.91457928  0.55686535  1.0
  H  H57  1  0.28099751  0.72353933  0.12003480  1.0
  H  H58  1  0.55733219  0.39657545  0.27629764  1.0
  H  H59  1  0.16120251  0.87988100  0.60371037  1.0
  H  H60  1  0.10733485  0.59778899  0.89463244  1.0
  H  H61  1  0.50862562  0.29700908  0.40198419  1.0
  H  H62  1  0.21189364  0.10518625  0.70311725  1.0
  H  H63  1  0.25376708  0.64122528  0.85155779  1.0
  H  H64  1  0.61193047  0.21050812  0.35898730  1.0
  H  H65  1  0.40168756  0.14863872  0.78945312  1.0
  H  H66  1  0.47346507  0.60005075  0.91807651  1.0
  H  H67  1  0.87266414  0.31758292  0.39969432  1.0
  H  H68  1  0.55528114  0.08208885  0.68229285  1.0
  H  H69  1  0.58284767  0.68896077  0.03287637  1.0
  H  H70  1  0.89350959  0.34360642  0.31089938  1.0
  H  H71  1  0.54999827  0.96722848  0.65634603  1.0
  H  H72  1  0.92617691  0.39508824  0.08291997  1.0
  H  H73  1  0.53212725  0.68831137  0.60508546  1.0
  H  H74  1  0.84378097  0.91690634  0.31207037  1.0
  H  H75  1  0.07558790  0.36683332  0.14165574  1.0
  H  H76  1  0.70978204  0.77531232  0.63353922  1.0
  H  H77  1  0.93463820  0.85786743  0.22532999  1.0
  H  H78  1  0.28672243  0.39713801  0.08234939  1.0
  H  H79  1  0.89055977  0.68542434  0.60313005  1.0
  H  H80  1  0.20509588  0.91718660  0.31476347  1.0
  H  H81  1  0.27888182  0.30849271  0.97095789  1.0
  H  H82  1  0.97119813  0.66267922  0.69185313  1.0
  H  H83  1  0.30874151  0.02867937  0.33751535  1.0
  C  C84  1  0.12898472  0.58609664  0.02652301  1.0
  C  C85  1  0.54341408  0.44082802  0.41385842  1.0
  C  C86  1  0.10302088  0.97325272  0.55946991  1.0
  C  C87  1  0.12917419  0.49252902  0.98328914  1.0
  C  C88  1  0.63729314  0.49108278  0.50733381  1.0
  C  C89  1  0.14661036  0.01632200  0.50905799  1.0
  C  C90  1  0.98465957  0.42251965  0.95987709  1.0
  C  C91  1  0.56279468  0.53765915  0.57737519  1.0
  C  C92  1  0.02557010  0.03982647  0.46247685  1.0
  C  C93  1  0.83436506  0.44561208  0.97222741  1.0
  C  C94  1  0.38946830  0.52708121  0.55442707  1.0
  C  C95  1  0.86291812  0.02762807  0.47317018  1.0
  C  C96  1  0.83611248  0.53808710  0.01312831  1.0
  C  C97  1  0.29865986  0.47565297  0.46202753  1.0
  C  C98  1  0.82362415  0.98684881  0.52478804  1.0
  C  C99  1  0.98034324  0.60900005  0.04273257  1.0
  C  C100  1  0.37195304  0.43433294  0.39111466  1.0
  C  C101  1  0.93815274  0.95717083  0.56610932  1.0
  C  C102  1  0.97031888  0.70663307  0.09046977  1.0
  C  C103  1  0.26419391  0.38437512  0.29357218  1.0
  C  C104  1  0.88037081  0.90959669  0.61610040  1.0
  C  C105  1  0.67189454  0.37392188  0.94210115  1.0
  C  C106  1  0.29873323  0.56857384  0.62615870  1.0
  C  C107  1  0.73087168  0.05802323  0.43172574  1.0
  C  C108  1  0.98485660  0.32346325  0.92547035  1.0
  C  C109  1  0.66202548  0.60209484  0.67644093  1.0
  C  C110  1  0.06029841  0.07421496  0.39785064  1.0
  C  C111  1  0.28598417  0.46926550  0.96074293  1.0
  C  C112  1  0.81728192  0.49167695  0.53050189  1.0
  C  C113  1  0.32599678  0.03877806  0.50837547  1.0
  C  C114  1  0.28871021  0.66180172  0.06055554  1.0
  C  C115  1  0.62692820  0.39881679  0.33797694  1.0
  C  C116  1  0.22855451  0.93932043  0.60143416  1.0
  C  C117  1  0.20157450  0.65973468  0.91073094  1.0
  C  C118  1  0.54120868  0.25105559  0.34019479  1.0
  C  C119  1  0.29048595  0.08931271  0.74901124  1.0
  C  C120  1  0.11414242  0.73236703  0.91462085  1.0
  C  C121  1  0.38146032  0.18213018  0.26753472  1.0
  C  C122  1  0.19971349  0.08565396  0.81796693  1.0
  C  C123  1  0.56453881  0.73369066  0.93473442  1.0
  C  C124  1  0.83018222  0.20069146  0.26606020  1.0
  C  C125  1  0.62969950  0.06531913  0.79913653  1.0
  C  C126  1  0.49007818  0.67215003  0.97013550  1.0
  C  C127  1  0.81734896  0.29766633  0.32764675  1.0
  C  C128  1  0.51985773  0.02997548  0.70228175  1.0
  C  C129  1  0.97594324  0.33775459  0.07765904  1.0
  C  C130  1  0.63905415  0.74027054  0.66246486  1.0
  C  C131  1  0.89900803  0.92195385  0.26001931  1.0
  C  C132  1  0.84300496  0.26646737  0.07948502  1.0
  C  C133  1  0.57711990  0.81325617  0.73371250  1.0
  C  C134  1  0.76431597  0.92003448  0.18673972  1.0
  C  C135  1  0.28372197  0.26391882  0.06782282  1.0
  C  C136  1  0.02023980  0.80411267  0.73623196  1.0
  C  C137  1  0.21671995  0.93176791  0.19614441  1.0
  C  C138  1  0.22891303  0.32413409  0.03032812  1.0
  C  C139  1  0.90553895  0.70638902  0.67609341  1.0
  C  C140  1  0.19936980  0.96927129  0.29378995  1.0
  N  N141  1  0.33645101  0.69141689  0.99403793  1.0
  N  N142  1  0.64462137  0.30256956  0.30845207  1.0
  N  N143  1  0.34235039  0.00598947  0.69753112  1.0
  N  N144  1  0.04664155  0.30089705  0.99860927  1.0
  N  N145  1  0.74639510  0.69787851  0.69921351  1.0
  N  N146  1  0.04877181  0.00099812  0.30219667  1.0
  O  O147  1  0.18787554  0.81678985  0.97193703  1.0
  O  O148  1  0.37093179  0.15499272  0.18316651  1.0
  O  O149  1  0.21656554  0.02847192  0.84526116  1.0
  O  O150  1  0.47094934  0.98239631  0.09935255  1.0
  O  O151  1  0.48806361  0.11668898  0.01751426  1.0
  O  O152  1  0.37139656  0.90070524  0.88331109  1.0
  O  O153  1  0.91142388  0.01554065  0.89921828  1.0
  O  O154  1  0.89615778  0.88362226  0.98448062  1.0
  O  O155  1  0.01201843  0.10072745  0.11637705  1.0
  O  O156  1  0.97274926  0.70197916  0.85719565  1.0
  O  O157  1  0.27050517  0.15498586  0.29790249  1.0
  O  O158  1  0.11558903  0.14307420  0.84497341  1.0
  O  O159  1  0.54068354  0.81327233  0.96646771  1.0
  O  O160  1  0.72696122  0.15300444  0.18648680  1.0
  O  O161  1  0.57421889  0.03353972  0.84695364  1.0
  O  O162  1  0.64818351  0.70136753  0.87833172  1.0
  O  O163  1  0.94599807  0.17644334  0.29831913  1.0
  O  O164  1  0.76977378  0.12171109  0.82321983  1.0
  O  O165  1  0.82252859  0.18141133  0.02415686  1.0
  O  O166  1  0.64153940  0.84281250  0.81869171  1.0
  O  O167  1  0.79918067  0.97539395  0.15703937  1.0
  O  O168  1  0.76495432  0.29854762  0.13921114  1.0
  O  O169  1  0.46692749  0.84091609  0.70164676  1.0
  O  O170  1  0.62661855  0.86025518  0.15902040  1.0
  O  O171  1  0.18486824  0.18491949  0.03730016  1.0
  O  O172  1  0.00005471  0.85248691  0.81513969  1.0
  O  O173  1  0.14824647  0.96229899  0.14768011  1.0
  O  O174  1  0.42743163  0.29637691  0.12349765  1.0
  O  O175  1  0.13150270  0.82740313  0.70379033  1.0
  O  O176  1  0.30491653  0.87610580  0.17294966  1.0
