# generated using pymatgen
data_CuSiH12C24(N2F5)2
_symmetry_space_group_name_H-M   'P 1'
_cell_length_a   8.25731010
_cell_length_b   13.84560732
_cell_length_c   13.86286913
_cell_angle_alpha   89.68350708
_cell_angle_beta   77.48258149
_cell_angle_gamma   77.31574672
_symmetry_Int_Tables_number   1
_chemical_formula_structural   CuSiH12C24(N2F5)2
_chemical_formula_sum   'Cu1 Si1 H12 C24 N4 F10'
_cell_volume   1508.00033509
_cell_formula_units_Z   1
loop_
 _symmetry_equiv_pos_site_id
 _symmetry_equiv_pos_as_xyz
  1  'x, y, z'
loop_
 _atom_site_type_symbol
 _atom_site_label
 _atom_site_symmetry_multiplicity
 _atom_site_fract_x
 _atom_site_fract_y
 _atom_site_fract_z
 _atom_site_occupancy
  Cu  Cu0  1  0.50025407  0.49938139  0.50056331  1.0
  Si  Si1  1  0.00003440  0.50152371  0.49838879  1.0
  H  H2  1  0.25712628  0.37619667  0.55855905  1.0
  H  H3  1  0.23460934  0.20236074  0.55929286  1.0
  H  H4  1  0.78203169  0.12056158  0.44478896  1.0
  H  H5  1  0.22015847  0.87763154  0.56365248  1.0
  H  H6  1  0.74057406  0.62372140  0.43319865  1.0
  H  H7  1  0.76138962  0.79800699  0.43000178  1.0
  H  H8  1  0.25926949  0.56483518  0.37575807  1.0
  H  H9  1  0.23741464  0.56773388  0.20187001  1.0
  H  H10  1  0.78100310  0.43968070  0.12208867  1.0
  H  H11  1  0.21683028  0.55222613  0.87925403  1.0
  H  H12  1  0.74327348  0.44349926  0.62460123  1.0
  H  H13  1  0.76565813  0.44296330  0.79832502  1.0
  C  C14  1  0.37096881  0.31775732  0.53419391  1.0
  C  C15  1  0.35901475  0.21956242  0.53465795  1.0
  C  C16  1  0.50690443  0.14473545  0.50152853  1.0
  C  C17  1  0.66195047  0.17379553  0.47048625  1.0
  C  C18  1  0.66005044  0.27426441  0.47279048  1.0
  C  C19  1  0.50125012  0.04340264  0.49950896  1.0
  C  C20  1  0.49695796  0.95599671  0.49772408  1.0
  C  C21  1  0.49186342  0.85454595  0.49658395  1.0
  C  C22  1  0.33912000  0.82481248  0.53394171  1.0
  C  C23  1  0.34260937  0.72412280  0.53363172  1.0
  C  C24  1  0.62758853  0.68185182  0.46075916  1.0
  C  C25  1  0.63853281  0.78023563  0.45900804  1.0
  C  C26  1  0.37247499  0.53826744  0.31767847  1.0
  C  C27  1  0.36096695  0.53987384  0.21948678  1.0
  C  C28  1  0.50806227  0.50373004  0.14523704  1.0
  C  C29  1  0.66171378  0.46813640  0.17489347  1.0
  C  C30  1  0.65885765  0.46865622  0.27537556  1.0
  C  C31  1  0.50259157  0.50243392  0.04397420  1.0
  C  C32  1  0.49816131  0.50054607  0.95668305  1.0
  C  C33  1  0.49263546  0.49829131  0.85546383  1.0
  C  C34  1  0.33722958  0.52769042  0.82620960  1.0
  C  C35  1  0.33917985  0.52508320  0.72586481  1.0
  C  C36  1  0.62910988  0.46677935  0.68283819  1.0
  C  C37  1  0.64100550  0.46646949  0.78094713  1.0
  N  N38  1  0.51999397  0.34622538  0.50204471  1.0
  N  N39  1  0.48114032  0.65266921  0.49903974  1.0
  N  N40  1  0.51984503  0.50153607  0.34680391  1.0
  N  N41  1  0.47966496  0.49735770  0.65416048  1.0
  F  F42  1  0.20103840  0.51498335  0.51123617  1.0
  F  F43  1  0.79898284  0.48782802  0.48587762  1.0
  F  F44  1  0.00047454  0.41378319  0.58764649  1.0
  F  F45  1  0.99960575  0.58917891  0.40919039  1.0
  F  F46  1  0.09716528  0.41116286  0.40971748  1.0
  F  F47  1  0.90284126  0.59184111  0.58711052  1.0
  F  F48  1  0.80805880  0.30105442  0.44394549  1.0
  F  F49  1  0.19779054  0.69634779  0.57115160  1.0
  F  F50  1  0.80499126  0.43342640  0.30287624  1.0
  F  F51  1  0.19066505  0.55179063  0.69898054  1.0
