# generated using pymatgen
data_ZnH15C28NO11
_symmetry_space_group_name_H-M   'P 1'
_cell_length_a   15.83978809
_cell_length_b   16.47208639
_cell_length_c   17.62838860
_cell_angle_alpha   89.07023148
_cell_angle_beta   89.44117563
_cell_angle_gamma   63.58033048
_symmetry_Int_Tables_number   1
_chemical_formula_structural   ZnH15C28NO11
_chemical_formula_sum   'Zn2 H30 C56 N2 O22'
_cell_volume   4118.56482513
_cell_formula_units_Z   2
loop_
 _symmetry_equiv_pos_site_id
 _symmetry_equiv_pos_as_xyz
  1  'x, y, z'
loop_
 _atom_site_type_symbol
 _atom_site_label
 _atom_site_symmetry_multiplicity
 _atom_site_fract_x
 _atom_site_fract_y
 _atom_site_fract_z
 _atom_site_occupancy
  Zn  Zn0  1  0.51807694  0.40825073  0.50515657  1.0
  Zn  Zn1  1  0.48687506  0.59147921  0.48810096  1.0
  H  H2  1  0.09543454  0.31429931  0.37103416  1.0
  H  H3  1  0.91858326  0.67462025  0.64446375  1.0
  H  H4  1  0.47066373  0.14566037  0.62574985  1.0
  H  H5  1  0.39639051  0.91849564  0.40230310  1.0
  H  H6  1  0.48079235  0.29342334  0.62273234  1.0
  H  H7  1  0.39650496  0.76583707  0.39971030  1.0
  H  H8  1  0.54413885  0.27163202  0.39331554  1.0
  H  H9  1  0.60140109  0.66259326  0.56598497  1.0
  H  H10  1  0.53960545  0.12102435  0.38624066  1.0
  H  H11  1  0.60921156  0.81118724  0.57739342  1.0
  H  H12  1  0.96035844  0.28113201  0.36064434  1.0
  H  H13  1  0.05492648  0.70726970  0.65357420  1.0
  H  H14  1  0.16926250  0.40379001  0.42149781  1.0
  H  H15  1  0.84341469  0.58629737  0.59403070  1.0
  H  H16  1  0.40874634  0.40904568  0.27584740  1.0
  H  H17  1  0.36729838  0.66550861  0.72123609  1.0
  H  H18  1  0.50484585  0.59376174  0.10253786  1.0
  H  H19  1  0.52708472  0.39484701  0.88841697  1.0
  H  H20  1  0.16203003  0.53667920  0.30112164  1.0
  H  H21  1  0.70921731  0.52463225  0.67718947  1.0
  H  H22  1  0.23725602  0.77078490  0.53453574  1.0
  H  H23  1  0.25206789  0.79633784  0.63075169  1.0
  H  H24  1  0.13587207  0.82480111  0.59585092  1.0
  H  H25  1  0.77090313  0.18635238  0.38675279  1.0
  H  H26  1  0.77641999  0.22363523  0.48083534  1.0
  H  H27  1  0.88287234  0.16733251  0.42548885  1.0
  H  H28  1  0.29175208  0.33827707  0.15739510  1.0
  H  H29  1  0.22880535  0.82086854  0.84429474  1.0
  H  H30  1  0.58137935  0.69315559  0.24840980  1.0
  H  H31  1  0.71182227  0.31514347  0.70007323  1.0
  C  C32  1  0.48714902  0.51784096  0.64392962  1.0
  C  C33  1  0.49892718  0.49036221  0.34948770  1.0
  C  C34  1  0.09769220  0.41953006  0.43897072  1.0
  C  C35  1  0.91366224  0.57235677  0.57414830  1.0
  C  C36  1  0.05772735  0.36749415  0.41195696  1.0
  C  C37  1  0.95443499  0.62365055  0.60138851  1.0
  C  C38  1  0.40746168  0.45495311  0.16002294  1.0
  C  C39  1  0.38080904  0.61338866  0.83613539  1.0
  C  C40  1  0.43192919  0.44720891  0.23702441  1.0
  C  C41  1  0.40342525  0.60725369  0.75871938  1.0
  C  C42  1  0.48256589  0.49060552  0.26585287  1.0
  C  C43  1  0.47010606  0.52670057  0.72774690  1.0
  C  C44  1  0.50931084  0.54348966  0.21673139  1.0
  C  C45  1  0.51537954  0.44988747  0.77525484  1.0
  C  C46  1  0.48447640  0.55273823  0.14060817  1.0
  C  C47  1  0.49258178  0.45437616  0.85178339  1.0
  C  C48  1  0.43427709  0.50819147  0.11040905  1.0
  C  C49  1  0.42604323  0.53599167  0.88405964  1.0
  C  C50  1  0.41717783  0.51834409  0.03149754  1.0
  C  C51  1  0.41322633  0.53487641  0.96341608  1.0
  C  C52  1  0.48763457  0.17084176  0.57319175  1.0
  C  C53  1  0.44229777  0.86372892  0.43974591  1.0
  C  C54  1  0.68561334  0.42879720  0.50025640  1.0
  C  C55  1  0.31923392  0.57252567  0.49943446  1.0
  C  C56  1  0.49262597  0.25294309  0.57180661  1.0
  C  C57  1  0.44191967  0.77971044  0.43817853  1.0
  C  C58  1  0.52924816  0.23984634  0.44302783  1.0
  C  C59  1  0.55666361  0.72186918  0.53192947  1.0
  C  C60  1  0.52591005  0.15739118  0.43947685  1.0
  C  C61  1  0.56100479  0.80382480  0.53759252  1.0
  C  C62  1  0.50494977  0.12111496  0.50584954  1.0
  C  C63  1  0.50186414  0.87745794  0.49144065  1.0
  C  C64  1  0.50248426  0.03634527  0.50322154  1.0
  C  C65  1  0.50211650  0.96292955  0.49714727  1.0
  C  C66  1  0.78845723  0.40402745  0.48748487  1.0
  C  C67  1  0.21818863  0.59414505  0.51769627  1.0
  C  C68  1  0.92443094  0.32939229  0.40552091  1.0
  C  C69  1  0.08797150  0.66220427  0.60608408  1.0
  C  C70  1  0.83530504  0.34327581  0.42765404  1.0
  C  C71  1  0.17571389  0.64985162  0.58108888  1.0
  C  C72  1  0.83595667  0.44482327  0.52663933  1.0
  C  C73  1  0.17069195  0.55214424  0.48061410  1.0
  C  C74  1  0.92180031  0.44174075  0.49724088  1.0
  C  C75  1  0.08715912  0.55285285  0.51260337  1.0
  C  C76  1  0.96719091  0.37994255  0.43720932  1.0
  C  C77  1  0.04365915  0.61312134  0.57403641  1.0
  C  C78  1  0.96134879  0.50131419  0.52143276  1.0
  C  C79  1  0.04826733  0.49220263  0.48990014  1.0
  C  C80  1  0.20499773  0.51738177  0.40240955  1.0
  C  C81  1  0.80916469  0.46770932  0.60821412  1.0
  C  C82  1  0.21088795  0.77542778  0.59300725  1.0
  C  C83  1  0.80692576  0.21411362  0.42346003  1.0
  C  C84  1  0.35385746  0.40857562  0.12939252  1.0
  C  C85  1  0.31037589  0.69951183  0.86884590  1.0
  C  C86  1  0.57198929  0.58348606  0.24354332  1.0
  C  C87  1  0.59026589  0.36250933  0.74538333  1.0
  N  N88  1  0.51329903  0.28646900  0.50798443  1.0
  N  N89  1  0.49712640  0.71067820  0.48396435  1.0
  O  O90  1  0.51133228  0.43860731  0.61891179  1.0
  O  O91  1  0.49079099  0.56528328  0.37484448  1.0
  O  O92  1  0.47497307  0.58809679  0.60535618  1.0
  O  O93  1  0.51625959  0.41870432  0.38778812  1.0
  O  O94  1  0.66082606  0.36670181  0.51480844  1.0
  O  O95  1  0.34127185  0.63491984  0.47910076  1.0
  O  O96  1  0.63106003  0.51215110  0.48961377  1.0
  O  O97  1  0.37543809  0.49004923  0.51166159  1.0
  O  O98  1  0.28370714  0.46187645  0.38330173  1.0
  O  O99  1  0.13503084  0.56175364  0.35064652  1.0
  O  O100  1  0.86436640  0.42843695  0.65952142  1.0
  O  O101  1  0.71823734  0.52866190  0.62230013  1.0
  O  O102  1  0.22394882  0.68780095  0.62051534  1.0
  O  O103  1  0.79162256  0.29978108  0.38989110  1.0
  O  O104  1  0.33590566  0.40586755  0.06244955  1.0
  O  O105  1  0.32463132  0.36701239  0.18476417  1.0
  O  O106  1  0.28574935  0.71072744  0.93537396  1.0
  O  O107  1  0.27399516  0.76854512  0.81619004  1.0
  O  O108  1  0.65119593  0.53917732  0.26825210  1.0
  O  O109  1  0.53318070  0.67511790  0.23214951  1.0
  O  O110  1  0.58637771  0.29018462  0.74631909  1.0
  O  O111  1  0.66734244  0.37272300  0.72225026  1.0
