# generated using pymatgen
data_AlH5C12O5
_symmetry_space_group_name_H-M   'P 1'
_cell_length_a   6.69828523
_cell_length_b   17.87069739
_cell_length_c   19.69502957
_cell_angle_alpha   104.44833451
_cell_angle_beta   89.99996417
_cell_angle_gamma   89.99971391
_symmetry_Int_Tables_number   1
_chemical_formula_structural   AlH5C12O5
_chemical_formula_sum   'Al4 H20 C48 O20'
_cell_volume   2282.99235484
_cell_formula_units_Z   4
loop_
 _symmetry_equiv_pos_site_id
 _symmetry_equiv_pos_as_xyz
  1  'x, y, z'
loop_
 _atom_site_type_symbol
 _atom_site_label
 _atom_site_symmetry_multiplicity
 _atom_site_fract_x
 _atom_site_fract_y
 _atom_site_fract_z
 _atom_site_occupancy
  Al  Al0  1  0.24159356  0.74951712  0.74917997  1.0
  Al  Al1  1  0.75840867  0.25048529  0.25082216  1.0
  Al  Al2  1  0.74159465  0.75048442  0.75082198  1.0
  Al  Al3  1  0.25840609  0.24951687  0.24918015  1.0
  H  H4  1  0.29568384  0.34271885  0.07584599  1.0
  H  H5  1  0.70431392  0.65728286  0.92415562  1.0
  H  H6  1  0.79567836  0.15727944  0.42415261  1.0
  H  H7  1  0.20432238  0.84271946  0.57584689  1.0
  H  H8  1  0.55296633  0.53188001  0.10693757  1.0
  H  H9  1  0.44703441  0.46812142  0.89306298  1.0
  H  H10  1  0.05296508  0.96812032  0.39306345  1.0
  H  H11  1  0.94703267  0.03187999  0.60693711  1.0
  H  H12  1  0.54824823  0.61525505  0.02396053  1.0
  H  H13  1  0.45175400  0.38474582  0.97604003  1.0
  H  H14  1  0.04824793  0.88474543  0.47604102  1.0
  H  H15  1  0.95174983  0.11525474  0.52395901  1.0
  H  H16  1  0.71645657  0.42829542  0.15190973  1.0
  H  H17  1  0.28353969  0.57170685  0.84809188  1.0
  H  H18  1  0.21645164  0.07170402  0.34809050  1.0
  H  H19  1  0.78354910  0.92829530  0.65190848  1.0
  H  H20  1  0.49297798  0.64845878  0.72906507  1.0
  H  H21  1  0.50702425  0.35154264  0.27093549  1.0
  H  H22  1  0.99297622  0.85154323  0.77094038  1.0
  H  H23  1  0.00702750  0.14845807  0.22906384  1.0
  C  C24  1  0.49052364  0.85477723  0.85537660  1.0
  C  C25  1  0.50949352  0.14522208  0.14462028  1.0
  C  C26  1  0.99049795  0.64522322  0.64462099  1.0
  C  C27  1  0.00949234  0.35477778  0.35537799  1.0
  C  C28  1  0.49157200  0.83155472  0.66886076  1.0
  C  C29  1  0.50843620  0.16844376  0.33113926  1.0
  C  C30  1  0.99153968  0.66844658  0.83113997  1.0
  C  C31  1  0.00845210  0.33155611  0.16886111  1.0
  C  C32  1  0.16862272  0.38011496  0.07323572  1.0
  C  C33  1  0.83137354  0.61988759  0.92676484  1.0
  C  C34  1  0.66861175  0.11988514  0.42676455  1.0
  C  C35  1  0.33138749  0.88011390  0.57323548  1.0
  C  C36  1  0.00626470  0.38115452  0.11820040  1.0
  C  C37  1  0.99373604  0.61884859  0.88180017  1.0
  C  C38  1  0.50625682  0.11884788  0.38180104  1.0
  C  C39  1  0.49374392  0.88115046  0.61819846  1.0
  C  C40  1  0.84174538  0.42900215  0.11668705  1.0
  C  C41  1  0.15824790  0.57099885  0.88331403  1.0
  C  C42  1  0.34173890  0.07099772  0.38331363  1.0
  C  C43  1  0.65826184  0.92900118  0.61668587  1.0
  C  C44  1  0.83850845  0.47833736  0.07138116  1.0
  C  C45  1  0.16148931  0.52166351  0.92861939  1.0
  C  C46  1  0.33850851  0.02166294  0.42861899  1.0
  C  C47  1  0.66148925  0.97833736  0.57138157  1.0
  C  C48  1  0.00141367  0.47605998  0.02387166  1.0
  C  C49  1  0.99858558  0.52394144  0.97612889  1.0
  C  C50  1  0.50140835  0.02393977  0.47612819  1.0
  C  C51  1  0.49858791  0.97606068  0.52387289  1.0
  C  C52  1  0.16692651  0.42549133  0.02444988  1.0
  C  C53  1  0.83307274  0.57450995  0.97555016  1.0
  C  C54  1  0.66692501  0.07450904  0.47554935  1.0
  C  C55  1  0.33307424  0.92549084  0.52445173  1.0
  C  C56  1  0.67676820  0.53067424  0.07064348  1.0
  C  C57  1  0.32322955  0.46932536  0.92935654  1.0
  C  C58  1  0.17676837  0.96932470  0.42935745  1.0
  C  C59  1  0.82322939  0.03067505  0.57064311  1.0
  C  C60  1  0.67411204  0.57670996  0.02477811  1.0
  C  C61  1  0.32588720  0.42329006  0.97522140  1.0
  C  C62  1  0.17411571  0.92328997  0.47522231  1.0
  C  C63  1  0.82588354  0.07671020  0.52477772  1.0
  C  C64  1  0.00965460  0.41712408  0.41818637  1.0
  C  C65  1  0.99034166  0.58288014  0.58181420  1.0
  C  C66  1  0.50965970  0.08287971  0.08181402  1.0
  C  C67  1  0.49034253  0.91712326  0.91818602  1.0
  C  C68  1  0.00340036  0.47054795  0.47087362  1.0
  C  C69  1  0.99659590  0.52944379  0.52912009  1.0
  C  C70  1  0.50339880  0.02944393  0.02911992  1.0
  C  C71  1  0.49659597  0.97054795  0.97087432  1.0
  O  O72  1  0.66021525  0.81474965  0.69122410  1.0
  O  O73  1  0.33978399  0.18524953  0.30877645  1.0
  O  O74  1  0.16021489  0.68525064  0.80877267  1.0
  O  O75  1  0.83978884  0.31475148  0.19122632  1.0
  O  O76  1  0.32111778  0.83081400  0.82968748  1.0
  O  O77  1  0.67888594  0.16918154  0.17031201  1.0
  O  O78  1  0.82113204  0.66918023  0.67031282  1.0
  O  O79  1  0.17887766  0.33082022  0.32968826  1.0
  O  O80  1  0.32148680  0.81089965  0.68683755  1.0
  O  O81  1  0.67850648  0.18909743  0.31316142  1.0
  O  O82  1  0.82148858  0.68910384  0.81316803  1.0
  O  O83  1  0.17851515  0.31089857  0.18683411  1.0
  O  O84  1  0.16151396  0.66940165  0.66841428  1.0
  O  O85  1  0.83848379  0.33060090  0.33158838  1.0
  O  O86  1  0.66150490  0.83060524  0.83158618  1.0
  O  O87  1  0.33850032  0.16939745  0.16841491  1.0
  O  O88  1  0.49203109  0.70428746  0.74451061  1.0
  O  O89  1  0.50796816  0.29571369  0.25549100  1.0
  O  O90  1  0.99203308  0.79571496  0.75549014  1.0
  O  O91  1  0.00797065  0.20428646  0.24451042  1.0
