# generated using pymatgen
data_NiH14C22(NO)4
_symmetry_space_group_name_H-M   'P 1'
_cell_length_a   12.78363593
_cell_length_b   22.36924312
_cell_length_c   22.36924555
_cell_angle_alpha   89.99998464
_cell_angle_beta   89.99999430
_cell_angle_gamma   89.99996282
_symmetry_Int_Tables_number   1
_chemical_formula_structural   NiH14C22(NO)4
_chemical_formula_sum   'Ni8 H112 C176 N32 O32'
_cell_volume   6396.71527517
_cell_formula_units_Z   8
loop_
 _symmetry_equiv_pos_site_id
 _symmetry_equiv_pos_as_xyz
  1  'x, y, z'
loop_
 _atom_site_type_symbol
 _atom_site_label
 _atom_site_symmetry_multiplicity
 _atom_site_fract_x
 _atom_site_fract_y
 _atom_site_fract_z
 _atom_site_occupancy
  Ni  Ni0  1  0.75231921  0.25872861  0.25396408  1.0
  Ni  Ni1  1  0.75232202  0.74127103  0.74603917  1.0
  Ni  Ni2  1  0.75231893  0.75396307  0.24126891  1.0
  Ni  Ni3  1  0.75231917  0.24603657  0.75872943  1.0
  Ni  Ni4  1  0.24767949  0.24126985  0.75396308  1.0
  Ni  Ni5  1  0.24768081  0.75872953  0.24603663  1.0
  Ni  Ni6  1  0.24767842  0.74603704  0.74127059  1.0
  Ni  Ni7  1  0.24767796  0.25396323  0.25872644  1.0
  H  H8  1  0.26547453  0.96987391  0.22822688  1.0
  H  H9  1  0.26547502  0.03012591  0.77177596  1.0
  H  H10  1  0.26547386  0.72822421  0.53012534  1.0
  H  H11  1  0.26547491  0.27177471  0.46987437  1.0
  H  H12  1  0.73452595  0.53012620  0.72822457  1.0
  H  H13  1  0.73452525  0.46987434  0.27177601  1.0
  H  H14  1  0.73452588  0.77177596  0.03012589  1.0
  H  H15  1  0.73452454  0.22822458  0.96987379  1.0
  H  H16  1  0.16702653  0.06718179  0.23102638  1.0
  H  H17  1  0.16702833  0.93281762  0.76897467  1.0
  H  H18  1  0.16702770  0.73102541  0.43281763  1.0
  H  H19  1  0.16702638  0.26897400  0.56718074  1.0
  H  H20  1  0.83297296  0.43281936  0.73102485  1.0
  H  H21  1  0.83297293  0.56718114  0.26897483  1.0
  H  H22  1  0.83297354  0.76897465  0.93281838  1.0
  H  H23  1  0.83297157  0.23102541  0.06718175  1.0
  H  H24  1  0.97237910  0.88005179  0.20084150  1.0
  H  H25  1  0.97237870  0.11994776  0.79915727  1.0
  H  H26  1  0.97237917  0.70084272  0.61994730  1.0
  H  H27  1  0.97237942  0.29915773  0.38005147  1.0
  H  H28  1  0.02762139  0.61994788  0.70084278  1.0
  H  H29  1  0.02762078  0.38005158  0.29915828  1.0
  H  H30  1  0.02762212  0.79915698  0.11994744  1.0
  H  H31  1  0.02762083  0.20084338  0.88005273  1.0
  H  H32  1  0.07043034  0.12801935  0.27882280  1.0
  H  H33  1  0.07043066  0.87198054  0.72117647  1.0
  H  H34  1  0.07043074  0.77882366  0.37198098  1.0
  H  H35  1  0.07043104  0.22117579  0.62801919  1.0
  H  H36  1  0.92956914  0.37198089  0.77882396  1.0
  H  H37  1  0.92956826  0.62801913  0.22117571  1.0
  H  H38  1  0.92956893  0.72117597  0.87198039  1.0
  H  H39  1  0.92956769  0.27882405  0.12801928  1.0
  H  H40  1  0.95897640  0.21751439  0.29029656  1.0
  H  H41  1  0.95897682  0.78248562  0.70970267  1.0
  H  H42  1  0.95897686  0.79029729  0.28248620  1.0
  H  H43  1  0.95897637  0.20970316  0.71751436  1.0
  H  H44  1  0.04102386  0.28248585  0.79029779  1.0
  H  H45  1  0.04102367  0.71751450  0.20970283  1.0
  H  H46  1  0.04102284  0.70970236  0.78248522  1.0
  H  H47  1  0.04102391  0.29029754  0.21751450  1.0
  H  H48  1  0.71637020  0.14017075  0.19449942  1.0
  H  H49  1  0.71637208  0.85982980  0.80550116  1.0
  H  H50  1  0.71637143  0.69449927  0.35983036  1.0
  H  H51  1  0.71637085  0.30550127  0.64016977  1.0
  H  H52  1  0.28363008  0.35982996  0.69449928  1.0
  H  H53  1  0.28362995  0.64016985  0.30550043  1.0
  H  H54  1  0.28362903  0.80550081  0.85982978  1.0
  H  H55  1  0.28363022  0.19449901  0.14016992  1.0
  H  H56  1  0.81892637  0.04612374  0.17851901  1.0
  H  H57  1  0.81892736  0.95387677  0.82148112  1.0
  H  H58  1  0.81892833  0.67851926  0.45387734  1.0
  H  H59  1  0.81892696  0.32148124  0.54612323  1.0
  H  H60  1  0.18107313  0.45387653  0.67851929  1.0
  H  H61  1  0.18107311  0.54612288  0.32148087  1.0
  H  H62  1  0.18107212  0.82148034  0.95387632  1.0
  H  H63  1  0.18107100  0.17851906  0.04612339  1.0
  H  H64  1  0.29102246  0.17280577  0.55711246  1.0
  H  H65  1  0.29102288  0.82719270  0.44288769  1.0
  H  H66  1  0.29102098  0.05711212  0.32719323  1.0
  H  H67  1  0.29102279  0.94288769  0.67280737  1.0
  H  H68  1  0.70897706  0.32719274  0.05711300  1.0
  H  H69  1  0.70897913  0.67280691  0.94288892  1.0
  H  H70  1  0.70897771  0.44288632  0.82719305  1.0
  H  H71  1  0.70897692  0.55711200  0.17280753  1.0
  H  H72  1  0.39783402  0.16836887  0.46270561  1.0
  H  H73  1  0.39783442  0.83163135  0.53729409  1.0
  H  H74  1  0.39783437  0.96270555  0.33163135  1.0
  H  H75  1  0.39783408  0.03729422  0.66836835  1.0
  H  H76  1  0.60216621  0.33163133  0.96270591  1.0
  H  H77  1  0.60216532  0.66836882  0.03729423  1.0
  H  H78  1  0.60216845  0.53729409  0.83163172  1.0
  H  H79  1  0.60216542  0.46270516  0.16836886  1.0
  H  H80  1  0.52814898  0.28652212  0.63214760  1.0
  H  H81  1  0.52815111  0.71347805  0.36785254  1.0
  H  H82  1  0.52814989  0.13214861  0.21347861  1.0
  H  H83  1  0.52815020  0.86785246  0.78652287  1.0
  H  H84  1  0.47184975  0.21347726  0.13214774  1.0
  H  H85  1  0.47185092  0.78652159  0.86785240  1.0
  H  H86  1  0.47184882  0.36785299  0.71347801  1.0
  H  H87  1  0.47184949  0.63214764  0.28652213  1.0
  H  H88  1  0.44038137  0.21736516  0.38265552  1.0
  H  H89  1  0.44038259  0.78263504  0.61734373  1.0
  H  H90  1  0.44038178  0.88265635  0.28263552  1.0
  H  H91  1  0.44038296  0.11734296  0.71736418  1.0
  H  H92  1  0.55961810  0.28263595  0.88265762  1.0
  H  H93  1  0.55961870  0.71736377  0.11734342  1.0
  H  H94  1  0.55962026  0.61734375  0.78263542  1.0
  H  H95  1  0.55961653  0.38265641  0.21736516  1.0
  H  H96  1  0.54432754  0.22391612  0.28972927  1.0
  H  H97  1  0.54432719  0.77608315  0.71026998  1.0
  H  H98  1  0.54432722  0.78973052  0.27608412  1.0
  H  H99  1  0.54432673  0.21026964  0.72391647  1.0
  H  H100  1  0.45567272  0.27608323  0.78973138  1.0
  H  H101  1  0.45567252  0.72391607  0.21026966  1.0
  H  H102  1  0.45567404  0.71026958  0.77608356  1.0
  H  H103  1  0.45567198  0.28973017  0.22391703  1.0
  H  H104  1  0.81699251  0.26022439  0.38366716  1.0
  H  H105  1  0.81699456  0.73977612  0.61633431  1.0
  H  H106  1  0.81699295  0.88366660  0.23977487  1.0
  H  H107  1  0.81699334  0.11633301  0.76022525  1.0
  H  H108  1  0.18300696  0.23977627  0.88366750  1.0
  H  H109  1  0.18300673  0.76022492  0.11633355  1.0
  H  H110  1  0.18300754  0.61633351  0.73977659  1.0
  H  H111  1  0.18300693  0.38366723  0.26022491  1.0
  H  H112  1  0.72493653  0.25262557  0.48158732  1.0
  H  H113  1  0.72494094  0.74737632  0.51841281  1.0
  H  H114  1  0.72493927  0.98158768  0.24737369  1.0
  H  H115  1  0.72493820  0.01841242  0.75262644  1.0
  H  H116  1  0.27506057  0.24737641  0.98158944  1.0
  H  H117  1  0.27506115  0.75262609  0.01841205  1.0
  H  H118  1  0.27506122  0.51841243  0.74737677  1.0
  H  H119  1  0.27506050  0.48158783  0.25262562  1.0
  C  C120  1  0.17907899  0.85905659  0.22225486  1.0
  C  C121  1  0.17908169  0.14094415  0.77774575  1.0
  C  C122  1  0.17907981  0.72225396  0.64094356  1.0
  C  C123  1  0.17908009  0.27774544  0.35905526  1.0
  C  C124  1  0.82091915  0.64094531  0.72225743  1.0
  C  C125  1  0.82091779  0.35905609  0.27774627  1.0
  C  C126  1  0.82091835  0.77774618  0.14094411  1.0
  C  C127  1  0.82092016  0.22225344  0.85905736  1.0
  C  C128  1  0.12543459  0.91781362  0.21676741  1.0
  C  C129  1  0.12543345  0.08218804  0.78323231  1.0
  C  C130  1  0.12543233  0.71676743  0.58218834  1.0
  C  C131  1  0.12543337  0.28323200  0.41781093  1.0
  C  C132  1  0.87456433  0.58218784  0.71676775  1.0
  C  C133  1  0.87456681  0.41780996  0.28323326  1.0
  C  C134  1  0.87456506  0.78323273  0.08218665  1.0
  C  C135  1  0.87456530  0.21676731  0.91781079  1.0
  C  C136  1  0.18070287  0.97129061  0.22345649  1.0
  C  C137  1  0.18070493  0.02870880  0.77654367  1.0
  C  C138  1  0.18070533  0.72345607  0.52870866  1.0
  C  C139  1  0.18070481  0.27654333  0.47129105  1.0
  C  C140  1  0.81929448  0.52870906  0.72345641  1.0
  C  C141  1  0.81929377  0.47129100  0.27654371  1.0
  C  C142  1  0.81929597  0.77654365  0.02870966  1.0
  C  C143  1  0.81929385  0.22345641  0.97129136  1.0
  C  C144  1  0.12595138  0.02489829  0.22512051  1.0
  C  C145  1  0.12595158  0.97510158  0.77488010  1.0
  C  C146  1  0.12595253  0.72511909  0.47510113  1.0
  C  C147  1  0.12595200  0.27487899  0.52489813  1.0
  C  C148  1  0.87404889  0.47510241  0.72511897  1.0
  C  C149  1  0.87404577  0.52489763  0.27488026  1.0
  C  C150  1  0.87404791  0.77488007  0.97510098  1.0
  C  C151  1  0.87404597  0.22511908  0.02489914  1.0
  C  C152  1  0.01628697  0.02356881  0.22034074  1.0
  C  C153  1  0.01628872  0.97643021  0.77965854  1.0
  C  C154  1  0.01628811  0.72034023  0.47643019  1.0
  C  C155  1  0.01628601  0.27965790  0.52356863  1.0
  C  C156  1  0.98371174  0.47643100  0.72034008  1.0
  C  C157  1  0.98371410  0.52356900  0.27965959  1.0
  C  C158  1  0.98371233  0.77965893  0.97643093  1.0
  C  C159  1  0.98371039  0.22034062  0.02356963  1.0
  C  C160  1  0.01671044  0.92119730  0.20851724  1.0
  C  C161  1  0.01670852  0.07880305  0.79148158  1.0
  C  C162  1  0.01670896  0.70851728  0.57880289  1.0
  C  C163  1  0.01670921  0.29148129  0.42119593  1.0
  C  C164  1  0.98329396  0.57880505  0.70851714  1.0
  C  C165  1  0.98328940  0.42119540  0.29148253  1.0
  C  C166  1  0.98329234  0.79148153  0.07880343  1.0
  C  C167  1  0.98329259  0.20851757  0.92119624  1.0
  C  C168  1  0.95370568  0.07874663  0.22730071  1.0
  C  C169  1  0.95370750  0.92125383  0.77269986  1.0
  C  C170  1  0.95370764  0.72730006  0.42125352  1.0
  C  C171  1  0.95370554  0.27269861  0.57874615  1.0
  C  C172  1  0.04629381  0.42125273  0.72730012  1.0
  C  C173  1  0.04629219  0.57874583  0.27269871  1.0
  C  C174  1  0.04629359  0.77269911  0.92125341  1.0
  C  C175  1  0.04629163  0.22730079  0.07874675  1.0
  C  C176  1  0.99245676  0.12806881  0.25915783  1.0
  C  C177  1  0.99245864  0.87193030  0.74084184  1.0
  C  C178  1  0.99245952  0.75915854  0.37193088  1.0
  C  C179  1  0.99245744  0.24084146  0.62806878  1.0
  C  C180  1  0.00754429  0.37193144  0.75915726  1.0
  C  C181  1  0.00754419  0.62806892  0.24084202  1.0
  C  C182  1  0.00754251  0.74084109  0.87193079  1.0
  C  C183  1  0.00754050  0.25915882  0.12806983  1.0
  C  C184  1  0.93031322  0.17848268  0.26615315  1.0
  C  C185  1  0.93030968  0.82151689  0.73384742  1.0
  C  C186  1  0.93030975  0.76615254  0.32151747  1.0
  C  C187  1  0.93030924  0.23384704  0.67848309  1.0
  C  C188  1  0.06969331  0.32151801  0.76615213  1.0
  C  C189  1  0.06969237  0.67848143  0.23384714  1.0
  C  C190  1  0.06969150  0.73384711  0.82151693  1.0
  C  C191  1  0.06969104  0.26615323  0.17848189  1.0
  C  C192  1  0.79523352  0.13525327  0.21228276  1.0
  C  C193  1  0.79523540  0.86474636  0.78771826  1.0
  C  C194  1  0.79523475  0.71228305  0.36474648  1.0
  C  C195  1  0.79523653  0.28771702  0.63525275  1.0
  C  C196  1  0.20476519  0.36474610  0.71228397  1.0
  C  C197  1  0.20476507  0.63525285  0.28771574  1.0
  C  C198  1  0.20476259  0.78771658  0.86474591  1.0
  C  C199  1  0.20476298  0.21228326  0.13525290  1.0
  C  C200  1  0.85234954  0.08320903  0.20358198  1.0
  C  C201  1  0.85235058  0.91679147  0.79641903  1.0
  C  C202  1  0.85235152  0.70358091  0.41679204  1.0
  C  C203  1  0.85235095  0.29641870  0.58320853  1.0
  C  C204  1  0.14764917  0.41679123  0.70358183  1.0
  C  C205  1  0.14764989  0.58320908  0.29641788  1.0
  C  C206  1  0.14764815  0.79641826  0.91679103  1.0
  C  C207  1  0.14765091  0.20358070  0.08320824  1.0
  C  C208  1  0.33636945  0.23806097  0.65560125  1.0
  C  C209  1  0.33636918  0.76193882  0.34439756  1.0
  C  C210  1  0.33636719  0.15560182  0.26193532  1.0
  C  C211  1  0.33636832  0.84439708  0.73806215  1.0
  C  C212  1  0.66363084  0.26193662  0.15560225  1.0
  C  C213  1  0.66363441  0.73806350  0.84439878  1.0
  C  C214  1  0.66362917  0.34439664  0.76193919  1.0
  C  C215  1  0.66363060  0.65560438  0.23806095  1.0
  C  C216  1  0.39991163  0.23210011  0.60037900  1.0
  C  C217  1  0.39991447  0.76790011  0.39962026  1.0
  C  C218  1  0.39991330  0.10037956  0.26789932  1.0
  C  C219  1  0.39991359  0.89962021  0.73210128  1.0
  C  C220  1  0.60008554  0.26789795  0.10038045  1.0
  C  C221  1  0.60008911  0.73210085  0.89962102  1.0
  C  C222  1  0.60008618  0.39961980  0.76789915  1.0
  C  C223  1  0.60008612  0.60038035  0.23210054  1.0
  C  C224  1  0.36445930  0.19718521  0.55268763  1.0
  C  C225  1  0.36446053  0.80281502  0.44731252  1.0
  C  C226  1  0.36445940  0.05268729  0.30281467  1.0
  C  C227  1  0.36445886  0.94731250  0.69718548  1.0
  C  C228  1  0.63554179  0.30281464  0.05268684  1.0
  C  C229  1  0.63554226  0.69718593  0.94731329  1.0
  C  C230  1  0.63554320  0.44731250  0.80281538  1.0
  C  C231  1  0.63553928  0.55268673  0.19718520  1.0
  C  C232  1  0.42327434  0.19523476  0.50061390  1.0
  C  C233  1  0.42327712  0.80476544  0.49938535  1.0
  C  C234  1  0.42327525  0.00061488  0.30476423  1.0
  C  C235  1  0.42327621  0.99938488  0.69523547  1.0
  C  C236  1  0.57672519  0.30476421  0.00061669  1.0
  C  C237  1  0.57672566  0.69523549  0.99938524  1.0
  C  C238  1  0.57672579  0.49938401  0.80476448  1.0
  C  C239  1  0.57672350  0.50061480  0.19523521  1.0
  C  C240  1  0.51572063  0.22911654  0.49722442  1.0
  C  C241  1  0.51572346  0.77088498  0.50277483  1.0
  C  C242  1  0.51571944  0.99722391  0.27088410  1.0
  C  C243  1  0.51571996  0.00277581  0.72911515  1.0
  C  C244  1  0.48427881  0.27088499  0.99722384  1.0
  C  C245  1  0.48427942  0.72911520  0.00277630  1.0
  C  C246  1  0.48428026  0.50277708  0.77088404  1.0
  C  C247  1  0.48427797  0.49722444  0.22911566  1.0
  C  C248  1  0.49662275  0.26127497  0.59434392  1.0
  C  C249  1  0.49662563  0.73872611  0.40565488  1.0
  C  C250  1  0.49662210  0.09434492  0.23872667  1.0
  C  C251  1  0.49662316  0.90565482  0.76127436  1.0
  C  C252  1  0.50337754  0.23872443  0.09434539  1.0
  C  C253  1  0.50337874  0.76127352  0.90565565  1.0
  C  C254  1  0.50337582  0.40565623  0.73872472  1.0
  C  C255  1  0.50337576  0.59434440  0.26127498  1.0
  C  C256  1  0.57499564  0.23258514  0.44072140  1.0
  C  C257  1  0.57499845  0.76741680  0.55927874  1.0
  C  C258  1  0.57499603  0.94072222  0.26741416  1.0
  C  C259  1  0.57499727  0.05927794  0.73258419  1.0
  C  C260  1  0.42500225  0.26741685  0.94072306  1.0
  C  C261  1  0.42500285  0.73258425  0.05927753  1.0
  C  C262  1  0.42500367  0.55927700  0.76741588  1.0
  C  C263  1  0.42500222  0.44072187  0.23258382  1.0
  C  C264  1  0.52456946  0.22442886  0.38561717  1.0
  C  C265  1  0.52457538  0.77557220  0.61438208  1.0
  C  C266  1  0.52457066  0.88561844  0.27557046  1.0
  C  C267  1  0.52457027  0.11438218  0.72442745  1.0
  C  C268  1  0.47542609  0.27557314  0.88561928  1.0
  C  C269  1  0.47542747  0.72442795  0.11438131  1.0
  C  C270  1  0.47542904  0.61438167  0.77557305  1.0
  C  C271  1  0.47542765  0.38561763  0.22442754  1.0
  C  C272  1  0.58166746  0.22931503  0.33315183  1.0
  C  C273  1  0.58166790  0.77068601  0.66684831  1.0
  C  C274  1  0.58166712  0.83315130  0.27068429  1.0
  C  C275  1  0.58166746  0.16684841  0.72931406  1.0
  C  C276  1  0.41832967  0.27068653  0.83315260  1.0
  C  C277  1  0.41833103  0.72931457  0.16684844  1.0
  C  C278  1  0.41833101  0.66684791  0.77068509  1.0
  C  C279  1  0.41832890  0.33315185  0.22931461  1.0
  C  C280  1  0.73396527  0.24972964  0.38565292  1.0
  C  C281  1  0.73396653  0.75027046  0.61434720  1.0
  C  C282  1  0.73396727  0.88565282  0.25026875  1.0
  C  C283  1  0.73396610  0.11434637  0.74973004  1.0
  C  C284  1  0.26603263  0.25027102  0.88565505  1.0
  C  C285  1  0.26603476  0.74972924  0.11434779  1.0
  C  C286  1  0.26603634  0.61434729  0.75027135  1.0
  C  C287  1  0.26603104  0.38565298  0.24972925  1.0
  C  C288  1  0.68232347  0.24554532  0.44006692  1.0
  C  C289  1  0.68232551  0.75445524  0.55993321  1.0
  C  C290  1  0.68232543  0.94006728  0.25445306  1.0
  C  C291  1  0.68232589  0.05993238  0.74554573  1.0
  C  C292  1  0.31767599  0.25445577  0.94006770  1.0
  C  C293  1  0.31767657  0.74554582  0.05993335  1.0
  C  C294  1  0.31767818  0.55993328  0.75445568  1.0
  C  C295  1  0.31767438  0.44006787  0.24554537  1.0
  N  N296  1  0.96280274  0.97237141  0.21041267  1.0
  N  N297  1  0.96280323  0.02762860  0.78958566  1.0
  N  N298  1  0.96280287  0.71041257  0.52762859  1.0
  N  N299  1  0.96280155  0.28958565  0.47237019  1.0
  N  N300  1  0.03719774  0.52762960  0.71041263  1.0
  N  N301  1  0.03719703  0.47237075  0.28958709  1.0
  N  N302  1  0.03719766  0.78958581  0.02762828  1.0
  N  N303  1  0.03719712  0.21041365  0.97237144  1.0
  N  N304  1  0.83295359  0.18242249  0.24314164  1.0
  N  N305  1  0.83295631  0.81757757  0.75686072  1.0
  N  N306  1  0.83295327  0.74314060  0.31757635  1.0
  N  N307  1  0.83295429  0.25685901  0.68242243  1.0
  N  N308  1  0.16704590  0.31757732  0.74314107  1.0
  N  N309  1  0.16704651  0.68242254  0.25685775  1.0
  N  N310  1  0.16704407  0.75685949  0.81757803  1.0
  N  N311  1  0.16704677  0.24314126  0.18242257  1.0
  N  N312  1  0.55337891  0.26036881  0.54421259  1.0
  N  N313  1  0.55338178  0.73963314  0.45578621  1.0
  N  N314  1  0.55337906  0.04421536  0.23963149  1.0
  N  N315  1  0.55337928  0.95578569  0.76036775  1.0
  N  N316  1  0.44662061  0.23963149  0.04421495  1.0
  N  N317  1  0.44662101  0.76036826  0.95578430  1.0
  N  N318  1  0.44662277  0.45578623  0.73963087  1.0
  N  N319  1  0.44662042  0.54421352  0.26036838  1.0
  N  N320  1  0.68481182  0.24203963  0.33285320  1.0
  N  N321  1  0.68481384  0.75796093  0.66714827  1.0
  N  N322  1  0.68481305  0.83285131  0.25795878  1.0
  N  N323  1  0.68481260  0.16714746  0.74203912  1.0
  N  N324  1  0.31518687  0.25796283  0.83285264  1.0
  N  N325  1  0.31518822  0.74203831  0.16714751  1.0
  N  N326  1  0.31518978  0.66714656  0.75796182  1.0
  N  N327  1  0.31518610  0.33285190  0.24203834  1.0
  O  O328  1  0.12479634  0.81092221  0.21616928  1.0
  O  O329  1  0.12479664  0.18907677  0.78383178  1.0
  O  O330  1  0.12479322  0.71617017  0.68907661  1.0
  O  O331  1  0.12479663  0.28383060  0.31092087  1.0
  O  O332  1  0.87520493  0.68907612  0.71617183  1.0
  O  O333  1  0.87520441  0.31092257  0.28383142  1.0
  O  O334  1  0.87520102  0.78383175  0.18907760  1.0
  O  O335  1  0.87520441  0.21616919  0.81092341  1.0
  O  O336  1  0.27566106  0.85623484  0.23558342  1.0
  O  O337  1  0.27565985  0.14376542  0.76441628  1.0
  O  O338  1  0.27566109  0.73558072  0.64376529  1.0
  O  O339  1  0.27566216  0.26441641  0.35623174  1.0
  O  O340  1  0.72434412  0.64376393  0.73558644  1.0
  O  O341  1  0.72433807  0.35623438  0.26441726  1.0
  O  O342  1  0.72433863  0.76441673  0.14376584  1.0
  O  O343  1  0.72433730  0.23558158  0.85623563  1.0
  O  O344  1  0.24308379  0.21816179  0.65725888  1.0
  O  O345  1  0.24308272  0.78183893  0.34274217  1.0
  O  O346  1  0.24307760  0.15725857  0.28183049  1.0
  O  O347  1  0.24308187  0.84274259  0.71816296  1.0
  O  O348  1  0.75691805  0.28183535  0.15725809  1.0
  O  O349  1  0.75692400  0.71816741  0.84274248  1.0
  O  O350  1  0.75691562  0.34274122  0.78183883  1.0
  O  O351  1  0.75691549  0.65726065  0.21816130  1.0
  O  O352  1  0.37690798  0.26341407  0.70160682  1.0
  O  O353  1  0.37690305  0.73658660  0.29839289  1.0
  O  O354  1  0.37690492  0.20160784  0.23658354  1.0
  O  O355  1  0.37690532  0.79839372  0.76341527  1.0
  O  O356  1  0.62309387  0.23658261  0.20160694  1.0
  O  O357  1  0.62309508  0.76341529  0.79839409  1.0
  O  O358  1  0.62309378  0.29839241  0.73658563  1.0
  O  O359  1  0.62309594  0.70160817  0.26341271  1.0
