# generated using pymatgen
data_Zr3H36C45(S5O8)2
_symmetry_space_group_name_H-M   'P 1'
_cell_length_a   11.50977378
_cell_length_b   20.45063259
_cell_length_c   33.61036359
_cell_angle_alpha   90.54019940
_cell_angle_beta   98.06112782
_cell_angle_gamma   90.27412955
_symmetry_Int_Tables_number   1
_chemical_formula_structural   Zr3H36C45(S5O8)2
_chemical_formula_sum   'Zr6 H72 C90 S20 O32'
_cell_volume   7832.61150466
_cell_formula_units_Z   2
loop_
 _symmetry_equiv_pos_site_id
 _symmetry_equiv_pos_as_xyz
  1  'x, y, z'
loop_
 _atom_site_type_symbol
 _atom_site_label
 _atom_site_symmetry_multiplicity
 _atom_site_fract_x
 _atom_site_fract_y
 _atom_site_fract_z
 _atom_site_occupancy
  Zr  Zr0  1  0.98673729  0.08207604  0.95463711  1.0
  Zr  Zr1  1  0.04157626  0.88440889  0.03856747  1.0
  Zr  Zr2  1  0.84023903  0.92868522  0.95199580  1.0
  Zr  Zr3  1  0.18650446  0.03756279  0.03951479  1.0
  Zr  Zr4  1  0.87486677  0.02976176  0.04176798  1.0
  Zr  Zr5  1  0.15276087  0.93668481  0.95210582  1.0
  H  H6  1  0.01746400  0.13964570  0.03262385  1.0
  H  H7  1  0.79067562  0.90129177  0.03196067  1.0
  H  H8  1  0.28072679  0.91306678  0.03028245  1.0
  H  H9  1  0.96795017  0.97864007  0.89307920  1.0
  H  H10  1  0.63795905  0.99399150  0.04176365  1.0
  H  H11  1  0.80461656  0.84548410  0.88493232  1.0
  H  H12  1  0.10936140  0.82383828  0.90411624  1.0
  H  H13  1  0.92633085  0.07661629  0.11910783  1.0
  H  H14  1  0.18671796  0.14285492  0.09558464  1.0
  H  H15  1  0.40156796  0.07232617  0.02650595  1.0
  H  H16  1  0.36642961  0.98911148  0.99185861  1.0
  H  H17  1  0.79659700  0.99398390  0.11466987  1.0
  H  H18  1  0.88893607  0.91436217  0.09610302  1.0
  H  H19  1  0.04279838  0.09831632  0.87462213  1.0
  H  H20  1  0.18997631  0.96086515  0.87602053  1.0
  H  H21  1  0.06497605  0.09764699  0.09623074  1.0
  H  H22  1  0.89833037  0.83506629  0.09441290  1.0
  H  H23  1  0.62036071  0.89011019  0.96399734  1.0
  H  H24  1  0.65859125  0.98208789  0.99593787  1.0
  H  H25  1  0.37008388  0.98138342  0.94342856  1.0
  H  H26  1  0.98735640  0.86564635  0.89606740  1.0
  H  H27  1  0.14370981  0.05031902  0.89785965  1.0
  H  H28  1  0.30207347  0.48650150  0.99750221  1.0
  H  H29  1  0.73106642  0.47895884  0.99502031  1.0
  H  H30  1  0.74340944  0.09331224  0.71357676  1.0
  H  H31  1  0.49315111  0.08684175  0.60582284  1.0
  H  H32  1  0.37337673  0.08045349  0.72143653  1.0
  H  H33  1  0.56789886  0.91593682  0.28404611  1.0
  H  H34  1  0.43982343  0.94319271  0.39721073  1.0
  H  H35  1  0.19537840  0.91341455  0.28948336  1.0
  H  H36  1  0.75491511  0.03691519  0.49277146  1.0
  H  H37  1  0.18206194  0.99680929  0.50792914  1.0
  H  H38  1  0.22183263  0.02811568  0.31217748  1.0
  H  H39  1  0.08136041  0.88356143  0.49672530  1.0
  H  H40  1  0.26759172  0.85335197  0.40671559  1.0
  H  H41  1  0.02297305  0.05194938  0.39854165  1.0
  H  H42  1  0.58154379  0.81771733  0.35437164  1.0
  H  H43  1  0.87573433  0.11250968  0.43601322  1.0
  H  H44  1  0.61230355  0.04759853  0.35411551  1.0
  H  H45  1  0.84231409  0.88221444  0.43761278  1.0
  H  H46  1  0.72097159  0.98503880  0.68755115  1.0
  H  H47  1  0.85453767  0.15286534  0.50789815  1.0
  H  H48  1  0.66084572  0.17028609  0.59719323  1.0
  H  H49  1  0.91968533  0.97804178  0.60109810  1.0
  H  H50  1  0.37051344  0.20096775  0.65150747  1.0
  H  H51  1  0.04541244  0.91959467  0.56312632  1.0
  H  H52  1  0.30669366  0.97273292  0.64905883  1.0
  H  H53  1  0.11074050  0.14822978  0.56449322  1.0
  H  H54  1  0.20994000  0.17916199  0.91738580  1.0
  H  H55  1  0.40152890  0.43618694  0.06448407  1.0
  H  H56  1  0.25490330  0.25881737  0.05526596  1.0
  H  H57  1  0.39668387  0.34342115  0.93335256  1.0
  H  H58  1  0.63411505  0.55495663  0.07491216  1.0
  H  H59  1  0.83820871  0.75838363  0.92324572  1.0
  H  H60  1  0.68263064  0.58876020  0.93705851  1.0
  H  H61  1  0.77149159  0.72642272  0.05932250  1.0
  H  H62  1  0.34284489  0.81594706  0.93561514  1.0
  H  H63  1  0.39989203  0.55340300  0.07593012  1.0
  H  H64  1  0.20610469  0.69947412  0.04346497  1.0
  H  H65  1  0.47448173  0.64025391  0.94722643  1.0
  H  H66  1  0.74021261  0.16367022  0.06800805  1.0
  H  H67  1  0.62535150  0.42926300  0.92641344  1.0
  H  H68  1  0.78874894  0.25684431  0.94089422  1.0
  H  H69  1  0.59408525  0.33644695  0.05357590  1.0
  H  H70  1  0.26262404  0.80148857  0.27416870  1.0
  H  H71  1  0.40860909  0.01569212  0.11629704  1.0
  H  H72  1  0.47723266  0.98397612  0.23200119  1.0
  H  H73  1  0.17511849  0.84010628  0.15775797  1.0
  H  H74  1  0.78097489  0.17641786  0.88869130  1.0
  H  H75  1  0.51137057  0.97059916  0.72319352  1.0
  H  H76  1  0.68108037  0.96268988  0.83511428  1.0
  H  H77  1  0.61370963  0.18339066  0.77789204  1.0
  C  C78  1  0.80619138  0.17060232  0.99729087  1.0
  C  C79  1  0.20104997  0.17797496  0.99467713  1.0
  C  C80  1  0.77033969  0.04950569  0.88622221  1.0
  C  C81  1  0.84505560  0.78311079  0.99729185  1.0
  C  C82  1  0.21674685  0.79357612  0.99287508  1.0
  C  C83  1  0.24414410  0.92708805  0.11020074  1.0
  C  C84  1  0.45135111  0.42423753  0.99580901  1.0
  C  C85  1  0.57331792  0.42171435  0.99471506  1.0
  C  C86  1  0.63640160  0.48049032  0.99525063  1.0
  C  C87  1  0.58222262  0.54128226  0.99734126  1.0
  C  C88  1  0.45968305  0.54410001  0.99827616  1.0
  C  C89  1  0.39672073  0.48508323  0.99740074  1.0
  C  C90  1  0.56152581  0.08832517  0.72197964  1.0
  C  C91  1  0.65304891  0.09189779  0.69860784  1.0
  C  C92  1  0.62975987  0.09088605  0.65658860  1.0
  C  C93  1  0.51275323  0.08924104  0.63851498  1.0
  C  C94  1  0.41990610  0.08579606  0.66127651  1.0
  C  C95  1  0.44450037  0.08498858  0.70329700  1.0
  C  C96  1  0.37896685  0.91153806  0.28200266  1.0
  C  C97  1  0.49498529  0.91843112  0.30152496  1.0
  C  C98  1  0.51708901  0.93007884  0.34296662  1.0
  C  C99  1  0.42261942  0.93328736  0.36496719  1.0
  C  C100  1  0.30654960  0.92769160  0.34621362  1.0
  C  C101  1  0.28541045  0.91670986  0.30464163  1.0
  C  C102  1  0.91737278  0.04228728  0.53321136  1.0
  C  C103  1  0.03878906  0.03001818  0.53746391  1.0
  C  C104  1  0.08756915  0.00485717  0.50465371  1.0
  C  C105  1  0.01938222  0.99095687  0.46759413  1.0
  C  C106  1  0.89795755  0.00295931  0.46336893  1.0
  C  C107  1  0.84941932  0.02894432  0.49602131  1.0
  C  C108  1  0.21400523  0.93820248  0.37210885  1.0
  C  C109  1  0.21196469  0.89661424  0.40481295  1.0
  C  C110  1  0.14404296  0.90948193  0.43536411  1.0
  C  C111  1  0.07784819  0.96759078  0.43361076  1.0
  C  C112  1  0.07468825  0.00721727  0.39980516  1.0
  C  C113  1  0.14064905  0.99368009  0.36876796  1.0
  C  C114  1  0.63367569  0.94534990  0.36647660  1.0
  C  C115  1  0.66480906  0.01129608  0.37208487  1.0
  C  C116  1  0.75597823  0.03192550  0.40162247  1.0
  C  C117  1  0.81706744  0.98464574  0.42653561  1.0
  C  C118  1  0.79247039  0.91839172  0.41868083  1.0
  C  C119  1  0.70154979  0.89773158  0.38902811  1.0
  C  C120  1  0.72114740  0.08473834  0.62999580  1.0
  C  C121  1  0.71923948  0.12825684  0.59801495  1.0
  C  C122  1  0.78712476  0.11909707  0.56701848  1.0
  C  C123  1  0.85815255  0.06292753  0.56763040  1.0
  C  C124  1  0.86510338  0.02156197  0.60073755  1.0
  C  C125  1  0.79891222  0.03109277  0.63217201  1.0
  C  C126  1  0.30250090  0.07561872  0.63720127  1.0
  C  C127  1  0.26150229  0.01141820  0.63092950  1.0
  C  C128  1  0.17080952  0.99503638  0.60013735  1.0
  C  C129  1  0.11934358  0.04496758  0.57499373  1.0
  C  C130  1  0.15331024  0.10986304  0.58356214  1.0
  C  C131  1  0.24448629  0.12620969  0.61421163  1.0
  C  C132  1  0.26412050  0.24150966  0.99279945  1.0
  C  C133  1  0.28460769  0.27841148  0.02833041  1.0
  C  C134  1  0.34192867  0.33892040  0.03027510  1.0
  C  C135  1  0.38264397  0.36248424  0.99531734  1.0
  C  C136  1  0.36291159  0.32522594  0.95996330  1.0
  C  C137  1  0.30322122  0.26501785  0.95752234  1.0
  C  C138  1  0.65619510  0.60116255  0.99858098  1.0
  C  C139  1  0.70150476  0.61967383  0.96387844  1.0
  C  C140  1  0.76395888  0.67822878  0.96163640  1.0
  C  C141  1  0.78618902  0.71780178  0.99660381  1.0
  C  C142  1  0.74840240  0.69686262  0.03217514  1.0
  C  C143  1  0.68218520  0.63978295  0.03372912  1.0
  C  C144  1  0.28260039  0.73107874  0.99246344  1.0
  C  C145  1  0.26469374  0.68539414  0.02210823  1.0
  C  C146  1  0.32040649  0.62505911  0.02580045  1.0
  C  C147  1  0.39736336  0.60764117  0.99796782  1.0
  C  C148  1  0.41556955  0.65307275  0.96872203  1.0
  C  C149  1  0.36279425  0.71492650  0.96547662  1.0
  C  C150  1  0.74512573  0.23440457  0.99892221  1.0
  C  C151  1  0.74452007  0.27488974  0.96534603  1.0
  C  C152  1  0.68934707  0.33549573  0.96220625  1.0
  C  C153  1  0.63449169  0.35799971  0.99483651  1.0
  C  C154  1  0.63629064  0.31852233  0.02847860  1.0
  C  C155  1  0.68900436  0.25666936  0.03157940  1.0
  C  C156  1  0.35411337  0.90691589  0.23757072  1.0
  C  C157  1  0.41220442  0.95107852  0.21552784  1.0
  C  C158  1  0.38652686  0.95803033  0.17376436  1.0
  C  C159  1  0.29503880  0.91857569  0.15309960  1.0
  C  C160  1  0.24219556  0.87118048  0.17470249  1.0
  C  C161  1  0.27021159  0.86381647  0.21619106  1.0
  C  C162  1  0.70306707  0.06530918  0.84618877  1.0
  C  C163  1  0.66539139  0.01092874  0.82195445  1.0
  C  C164  1  0.61398883  0.01709474  0.78209217  1.0
  C  C165  1  0.59679766  0.08050232  0.76592178  1.0
  C  C166  1  0.62789606  0.13469830  0.79064118  1.0
  C  C167  1  0.68186314  0.12897255  0.83066605  1.0
  S  S168  1  0.14731996  0.85030448  0.47336442  1.0
  S  S169  1  0.13137527  0.05119664  0.32964026  1.0
  S  S170  1  0.78560897  0.11667316  0.40581431  1.0
  S  S171  1  0.67319975  0.81306942  0.38400578  1.0
  S  S172  1  0.77641352  0.17952810  0.52957599  1.0
  S  S173  1  0.81588117  0.97056348  0.66965995  1.0
  S  S174  1  0.13074905  0.91166505  0.59455862  1.0
  S  S175  1  0.28517682  0.20930381  0.62011889  1.0
  S  S176  1  0.36793941  0.37797702  0.07778356  1.0
  S  S177  1  0.29445666  0.22276800  0.91139709  1.0
  S  S178  1  0.81410112  0.69425328  0.91555106  1.0
  S  S179  1  0.63321655  0.62056222  0.07978804  1.0
  S  S180  1  0.28884062  0.57451696  0.06548868  1.0
  S  S181  1  0.41040860  0.76430295  0.92832301  1.0
  S  S182  1  0.68856569  0.37766490  0.91657424  1.0
  S  S183  1  0.67879082  0.21691284  0.07700431  1.0
  S  S184  1  0.47561160  0.01469593  0.15287213  1.0
  S  S185  1  0.19627210  0.80014555  0.23774904  1.0
  S  S186  1  0.58446365  0.94417023  0.75367562  1.0
  S  S187  1  0.71248327  0.20308099  0.85701097  1.0
  O  O188  1  0.09371410  0.09275837  0.90000487  1.0
  O  O189  1  0.86880080  0.16187708  0.96898064  1.0
  O  O190  1  0.85205336  0.09029270  0.90113663  1.0
  O  O191  1  0.23712205  0.14080603  0.02422418  1.0
  O  O192  1  0.74909944  0.99579328  0.90185649  1.0
  O  O193  1  0.11450257  0.16572571  0.96753401  1.0
  O  O194  1  0.79519561  0.12769174  0.02397773  1.0
  O  O195  1  0.87453191  0.02159205  0.97862916  1.0
  O  O196  1  0.01823111  0.09509179  0.02252621  1.0
  O  O197  1  0.98432851  0.98169871  0.92215982  1.0
  O  O198  1  0.13398015  0.02859009  0.97729513  1.0
  O  O199  1  0.36429637  0.03039559  0.03013223  1.0
  O  O200  1  0.67261071  0.01409465  0.01999103  1.0
  O  O201  1  0.03851474  0.98258356  0.05173339  1.0
  O  O202  1  0.85480567  0.92339177  0.02165834  1.0
  O  O203  1  0.01171429  0.89909618  0.97777616  1.0
  O  O204  1  0.20628356  0.93224203  0.01927079  1.0
  O  O205  1  0.66496844  0.92973695  0.96096081  1.0
  O  O206  1  0.81091556  0.82089836  0.96821804  1.0
  O  O207  1  0.92210792  0.79702994  0.02754821  1.0
  O  O208  1  0.20802599  0.98518455  0.90113737  1.0
  O  O209  1  0.15617005  0.80320141  0.02126738  1.0
  O  O210  1  0.86295485  0.87556228  0.89843367  1.0
  O  O211  1  0.08016728  0.86784717  0.89839066  1.0
  O  O212  1  0.35101059  0.95795330  0.96689533  1.0
  O  O213  1  0.22339961  0.83511061  0.96454243  1.0
  O  O214  1  0.94554011  0.87476264  0.09543266  1.0
  O  O215  1  0.15875753  0.09789863  0.09458333  1.0
  O  O216  1  0.17893916  0.88161655  0.09258896  1.0
  O  O217  1  0.26551630  0.98092780  0.09352152  1.0
  O  O218  1  0.94221721  0.09123382  0.09300766  1.0
  O  O219  1  0.81148774  0.97503230  0.08930635  1.0
