# generated using pymatgen
data_Al6H70C87(IO7)4
_symmetry_space_group_name_H-M   'P 1'
_cell_length_a   12.77830556
_cell_length_b   12.92738268
_cell_length_c   28.32849914
_cell_angle_alpha   90.13564721
_cell_angle_beta   90.46787366
_cell_angle_gamma   62.70704199
_symmetry_Int_Tables_number   1
_chemical_formula_structural   Al6H70C87(IO7)4
_chemical_formula_sum   'Al6 H70 C87 I4 O28'
_cell_volume   4158.48094397
_cell_formula_units_Z   1
loop_
 _symmetry_equiv_pos_site_id
 _symmetry_equiv_pos_as_xyz
  1  'x, y, z'
loop_
 _atom_site_type_symbol
 _atom_site_label
 _atom_site_symmetry_multiplicity
 _atom_site_fract_x
 _atom_site_fract_y
 _atom_site_fract_z
 _atom_site_occupancy
  Al  Al0  1  0.59245780  0.58784832  0.49712814  1.0
  Al  Al1  1  0.34867344  0.57280741  0.49887074  1.0
  Al  Al2  1  0.57415803  0.34890768  0.49961351  1.0
  Al  Al3  1  0.07279782  0.07774796  0.99964906  1.0
  Al  Al4  1  0.08637783  0.31994823  0.00054172  1.0
  Al  Al5  1  0.31400396  0.09845181  0.00055509  1.0
  H  H6  1  0.11384078  0.40346520  0.22925773  1.0
  H  H7  1  0.92659134  0.45176475  0.21862363  1.0
  H  H8  1  0.50832953  0.80678662  0.21126923  1.0
  H  H9  1  0.23968973  0.21067808  0.29042343  1.0
  H  H10  1  0.52509108  0.75534321  0.28816006  1.0
  H  H11  1  0.23197655  0.00038651  0.30425788  1.0
  H  H12  1  0.38414293  0.95559838  0.29770765  1.0
  H  H13  1  0.34274468  0.00712094  0.21743607  1.0
  H  H14  1  0.19836750  0.02432233  0.22274569  1.0
  H  H15  1  0.24458802  0.70948532  0.28351287  1.0
  H  H16  1  0.15404291  0.86095308  0.28484001  1.0
  H  H17  1  0.97436418  0.12521408  0.29777516  1.0
  H  H18  1  0.28067521  0.70907152  0.20226629  1.0
  H  H19  1  0.20771812  0.53203241  0.27947762  1.0
  H  H20  1  0.50915561  0.21649535  0.79568815  1.0
  H  H21  1  0.52878785  0.24457682  0.71518784  1.0
  H  H22  1  0.23331719  0.25441911  0.69555431  1.0
  H  H23  1  0.38588734  0.16069620  0.70081545  1.0
  H  H24  1  0.36275303  0.14373866  0.78186758  1.0
  H  H25  1  0.21098385  0.24119804  0.77685644  1.0
  H  H26  1  0.25673739  0.53022914  0.71643713  1.0
  H  H27  1  0.15646654  0.47379997  0.70612854  1.0
  H  H28  1  0.01880349  0.12876590  0.21819886  1.0
  H  H29  1  0.24266100  0.51164016  0.79781953  1.0
  H  H30  1  0.40167308  0.44812734  0.21617482  1.0
  H  H31  1  0.47338801  0.39612288  0.72440032  1.0
  H  H32  1  0.46436039  0.36639012  0.80474490  1.0
  H  H33  1  0.13988703  0.45786520  0.78792927  1.0
  H  H34  1  0.80036251  0.51055934  0.79121671  1.0
  H  H35  1  0.74836488  0.52946970  0.71074674  1.0
  H  H36  1  0.99841356  0.22763239  0.69612035  1.0
  H  H37  1  0.96315717  0.37640382  0.70083597  1.0
  H  H38  1  0.00448534  0.34788968  0.78204125  1.0
  H  H39  1  0.07055649  0.23243558  0.22905361  1.0
  H  H40  1  0.02713474  0.20258929  0.77782502  1.0
  H  H41  1  0.69447744  0.26494681  0.71482193  1.0
  H  H42  1  0.52714165  0.25596967  0.27731127  1.0
  H  H43  1  0.84468999  0.16394378  0.71073300  1.0
  H  H44  1  0.70706849  0.28032684  0.79663062  1.0
  H  H45  1  0.64043470  0.48312208  0.72146035  1.0
  H  H46  1  0.67985977  0.48275455  0.80198524  1.0
  H  H47  1  0.21772914  0.78101650  0.79867707  1.0
  H  H48  1  0.22398117  0.74281529  0.71818110  1.0
  H  H49  1  0.27774731  0.99995596  0.69267000  1.0
  H  H50  1  0.77648666  0.49964577  0.29821096  1.0
  H  H51  1  0.16689502  0.95452511  0.69557818  1.0
  H  H52  1  0.15065445  0.98408497  0.77725445  1.0
  H  H53  1  0.43324426  0.12731775  0.22714742  1.0
  H  H54  1  0.25030237  0.04312542  0.77347549  1.0
  H  H55  1  0.53068879  0.70701816  0.71684161  1.0
  H  H56  1  0.49440112  0.85086257  0.70012044  1.0
  H  H57  1  0.52307744  0.76317384  0.79580398  1.0
  H  H58  1  0.37451290  0.64164795  0.72339413  1.0
  H  H59  1  0.46979303  0.91048286  0.77954154  1.0
  H  H60  1  0.80229794  0.19455443  0.20773791  1.0
  H  H61  1  0.93118335  0.42811510  0.30117374  1.0
  H  H62  1  0.75563114  0.21390132  0.28825138  1.0
  H  H63  1  0.04382354  0.21353585  0.30988019  1.0
  H  H64  1  0.39226516  0.54613727  0.35502570  1.0
  H  H65  1  0.51711717  0.47167780  0.39195386  1.0
  H  H66  1  0.51112077  0.41367390  0.33609114  1.0
  H  H67  1  0.64211131  0.50704104  0.33272605  1.0
  H  H68  1  0.53412727  0.63651949  0.35541382  1.0
  H  H69  1  0.43054174  0.58014710  0.27349398  1.0
  H  H70  1  0.57212753  0.55283714  0.25733657  1.0
  H  H71  1  0.77482852  0.49303829  0.21557371  1.0
  H  H72  1  0.67112688  0.36594224  0.28208842  1.0
  H  H73  1  0.70297746  0.34412921  0.20100975  1.0
  H  H74  1  0.68048196  0.69585891  0.46519393  1.0
  H  H75  1  0.96209772  0.98995375  0.96944255  1.0
  C  C76  1  0.37659706  0.71450021  0.43198078  1.0
  C  C77  1  0.33732073  0.34158799  0.35129180  1.0
  C  C78  1  0.75701330  0.29252051  0.27432459  1.0
  C  C79  1  0.38323261  0.38356706  0.43758301  1.0
  C  C80  1  0.97447304  0.20773477  0.28850822  1.0
  C  C81  1  0.99664881  0.21280031  0.23506349  1.0
  C  C82  1  0.92162840  0.29501374  0.11729714  1.0
  C  C83  1  0.85414573  0.31004666  0.30141241  1.0
  C  C84  1  0.78081120  0.28210295  0.22077776  1.0
  C  C85  1  0.88553361  0.30736494  0.21006938  1.0
  C  C86  1  0.85894469  0.42778531  0.23047362  1.0
  C  C87  1  0.34999034  0.35191134  0.39349401  1.0
  C  C88  1  0.85464218  0.42432285  0.28482188  1.0
  C  C89  1  0.90462169  0.30262459  0.15958963  1.0
  C  C90  1  0.82727912  0.31722546  0.35145577  1.0
  C  C91  1  0.72107649  0.37437386  0.43392843  1.0
  C  C92  1  0.79000436  0.33440183  0.39161790  1.0
  C  C93  1  0.46017156  0.73191066  0.27193844  1.0
  C  C94  1  0.31049198  0.94172167  0.28441272  1.0
  C  C95  1  0.29085586  0.96575720  0.23103453  1.0
  C  C96  1  0.30750845  0.90885896  0.11218473  1.0
  C  C97  1  0.33769782  0.81423149  0.29470766  1.0
  C  C98  1  0.38300930  0.21708348  0.23929771  1.0
  C  C99  1  0.45219780  0.76535901  0.21860521  1.0
  C  C100  1  0.32474002  0.85125419  0.20309956  1.0
  C  C101  1  0.24474084  0.79633517  0.21779502  1.0
  C  C102  1  0.23834468  0.79302466  0.27181260  1.0
  C  C103  1  0.39149090  0.70746712  0.56500811  1.0
  C  C104  1  0.31767585  0.87810219  0.15313722  1.0
  C  C105  1  0.33913851  0.79607085  0.34539915  1.0
  C  C106  1  0.34141139  0.77584492  0.38745986  1.0
  C  C107  1  0.45593457  0.32154161  0.73077082  1.0
  C  C108  1  0.31361318  0.24055507  0.71490094  1.0
  C  C109  1  0.31281034  0.32380746  0.20498143  1.0
  C  C110  1  0.29940529  0.22998691  0.76867865  1.0
  C  C111  1  0.29639834  0.30244835  0.88816136  1.0
  C  C112  1  0.33996390  0.34410110  0.70476891  1.0
  C  C113  1  0.44587975  0.30447563  0.78419726  1.0
  C  C114  1  0.32003260  0.32352476  0.79577557  1.0
  C  C115  1  0.39134462  0.39280430  0.56610417  1.0
  C  C116  1  0.22813449  0.44553257  0.77849503  1.0
  C  C117  1  0.23862425  0.45701591  0.72465597  1.0
  C  C118  1  0.30820420  0.31184831  0.84608598  1.0
  C  C119  1  0.35307962  0.35570362  0.65450563  1.0
  C  C120  1  0.43530565  0.28859912  0.26619196  1.0
  C  C121  1  0.36586754  0.36779730  0.61272335  1.0
  C  C122  1  0.73326709  0.46138725  0.72786456  1.0
  C  C123  1  0.94278839  0.30865471  0.71497278  1.0
  C  C124  1  0.96572344  0.29308662  0.76879777  1.0
  C  C125  1  0.89479848  0.31470167  0.88783233  1.0
  C  C126  1  0.81193516  0.34293792  0.70413522  1.0
  C  C127  1  0.71312263  0.38986955  0.56533948  1.0
  C  C128  1  0.76061163  0.45413408  0.78123558  1.0
  C  C129  1  0.84909737  0.32747272  0.79559907  1.0
  C  C130  1  0.79302456  0.24928822  0.77970438  1.0
  C  C131  1  0.32786578  0.33525773  0.30172049  1.0
  C  C132  1  0.78344136  0.24852329  0.72556659  1.0
  C  C133  1  0.87149543  0.32108023  0.84595790  1.0
  C  C134  1  0.78895526  0.35202661  0.65376577  1.0
  C  C135  1  0.76380820  0.36372802  0.61201075  1.0
  C  C136  1  0.31009339  0.73188271  0.73078034  1.0
  C  C137  1  0.25107259  0.94138061  0.71124530  1.0
  C  C138  1  0.23848722  0.96643468  0.76477264  1.0
  C  C139  1  0.27541430  0.26335181  0.27335230  1.0
  C  C140  1  0.30504644  0.92116579  0.88409855  1.0
  C  C141  1  0.34503903  0.81423770  0.70275149  1.0
  C  C142  1  0.36549995  0.39582961  0.23328457  1.0
  C  C143  1  0.30420145  0.75951324  0.78389543  1.0
  C  C144  1  0.33288142  0.86147112  0.79325935  1.0
  C  C145  1  0.45612061  0.83329906  0.77433441  1.0
  C  C146  1  0.46561655  0.79841356  0.72176275  1.0
  C  C147  1  0.32082953  0.89184206  0.84295557  1.0
  C  C148  1  0.35358403  0.78490118  0.65299023  1.0
  C  C149  1  0.36486951  0.75710538  0.61162121  1.0
  C  C150  1  0.96142255  0.27132597  0.06933329  1.0
  C  C151  1  0.20560441  0.37065515  0.24047952  1.0
  C  C152  1  0.26895710  0.28408772  0.06587817  1.0
  C  C153  1  0.25788614  0.44217227  0.26740092  1.0
  C  C154  1  0.28151927  0.95871757  0.06560449  1.0
  C  C155  1  0.94569050  0.28759430  0.93448926  1.0
  C  C156  1  0.27214192  0.27850572  0.93511492  1.0
  C  C157  1  0.27425050  0.96839478  0.93096042  1.0
  C  C158  1  0.29358652  0.30865598  0.11291628  1.0
  C  C159  1  0.50176669  0.60259692  0.28241053  1.0
  C  C160  1  0.54666724  0.56269442  0.33301364  1.0
  C  C161  1  0.48866316  0.49512048  0.35523132  1.0
  C  C162  1  0.30373966  0.31727479  0.15539824  1.0
  I  I163  1  0.52556816  0.61976230  0.16785230  1.0
  I  I164  1  0.06990541  0.88277472  0.18609973  1.0
  I  I165  1  0.88688885  0.07202708  0.80768438  1.0
  I  I166  1  0.41862241  0.60701356  0.82638647  1.0
  O  O167  1  0.69156128  0.47775111  0.44682672  1.0
  O  O168  1  0.34332957  0.18854315  0.04731085  1.0
  O  O169  1  0.35752029  0.98725314  0.04788946  1.0
  O  O170  1  0.47955254  0.68824962  0.44649547  1.0
  O  O171  1  0.17194749  0.99290091  0.94486653  1.0
  O  O172  1  0.96586408  0.19020110  0.95162589  1.0
  O  O173  1  0.97166942  0.36361129  0.95374826  1.0
  O  O174  1  0.17482617  0.35059696  0.95352341  1.0
  O  O175  1  0.34751018  0.18312346  0.95403821  1.0
  O  O176  1  0.35270758  0.98504652  0.95402219  1.0
  O  O177  1  0.15875075  0.16641633  0.00004483  1.0
  O  O178  1  0.31807751  0.48934815  0.54745558  1.0
  O  O179  1  0.30313724  0.68531438  0.45150644  1.0
  O  O180  1  0.31290965  0.48296485  0.45472630  1.0
  O  O181  1  0.48410885  0.31371013  0.45481476  1.0
  O  O182  1  0.68976849  0.30299197  0.45373816  1.0
  O  O183  1  0.69252872  0.48686678  0.54764574  1.0
  O  O184  1  0.49126883  0.68408651  0.54855944  1.0
  O  O185  1  0.31198040  0.68711747  0.54468570  1.0
  O  O186  1  0.48812692  0.31942336  0.54758770  1.0
  O  O187  1  0.68837660  0.31271028  0.54645573  1.0
  O  O188  1  0.50413015  0.50258126  0.49771589  1.0
  O  O189  1  0.18551640  0.97456411  0.04691747  1.0
  O  O190  1  0.98411556  0.17230145  0.05313164  1.0
  O  O191  1  0.97497798  0.35187662  0.04747311  1.0
  O  O192  1  0.17113923  0.35646489  0.04708296  1.0
  O  O193  1  0.67151686  0.66793116  0.49574260  1.0
  O  O194  1  0.99634736  0.99502248  0.99935960  1.0
