# generated using pymatgen
data_AlH10C16O5F
_symmetry_space_group_name_H-M   'P 1'
_cell_length_a   7.23243784
_cell_length_b   14.98868794
_cell_length_c   15.27506725
_cell_angle_alpha   75.55630066
_cell_angle_beta   76.46521077
_cell_angle_gamma   78.11216905
_symmetry_Int_Tables_number   1
_chemical_formula_structural   AlH10C16O5F
_chemical_formula_sum   'Al2 H20 C32 O10 F2'
_cell_volume   1539.73573559
_cell_formula_units_Z   2
loop_
 _symmetry_equiv_pos_site_id
 _symmetry_equiv_pos_as_xyz
  1  'x, y, z'
loop_
 _atom_site_type_symbol
 _atom_site_label
 _atom_site_symmetry_multiplicity
 _atom_site_fract_x
 _atom_site_fract_y
 _atom_site_fract_z
 _atom_site_occupancy
  Al  Al0  1  0.50035295  0.49842395  0.50102580  1.0
  Al  Al1  1  0.99922616  0.49948130  0.50224499  1.0
  H  H2  1  0.74940609  0.39639161  0.59217400  1.0
  H  H3  1  0.26742799  0.58032426  0.39317750  1.0
  H  H4  1  0.81554523  0.52868562  0.76445109  1.0
  H  H5  1  0.13331782  0.56160299  0.22059725  1.0
  H  H6  1  0.64119080  0.43179975  0.24258214  1.0
  H  H7  1  0.72935412  0.43352415  0.07523255  1.0
  H  H8  1  0.41811888  0.48482088  0.77477957  1.0
  H  H9  1  0.33439037  0.48223615  0.94207833  1.0
  H  H10  1  0.88901786  0.77138874  0.53430132  1.0
  H  H11  1  0.35866050  0.77046501  0.45315078  1.0
  H  H12  1  0.07606418  0.20697432  0.54561366  1.0
  H  H13  1  0.67038508  0.24597410  0.46673142  1.0
  H  H14  1  0.71024268  0.98769197  0.60529854  1.0
  H  H15  1  0.93366310  0.92673074  0.56345423  1.0
  H  H16  1  0.20720276  0.01201694  0.39721797  1.0
  H  H17  1  0.10869214  0.91252854  0.46505597  1.0
  H  H18  1  0.20337519  0.95982222  0.60461939  1.0
  H  H19  1  0.01163201  0.03999806  0.56620703  1.0
  H  H20  1  0.86819614  0.03406032  0.39774025  1.0
  H  H21  1  0.91406665  0.10025435  0.46910772  1.0
  C  C22  1  0.31340466  0.33674490  0.50945838  1.0
  C  C23  1  0.17353339  0.50298015  0.65900554  1.0
  C  C24  1  0.68627953  0.66119261  0.48948510  1.0
  C  C25  1  0.82838732  0.49669200  0.34303210  1.0
  C  C26  1  0.12340623  0.50568728  0.75894985  1.0
  C  C27  1  0.88075994  0.49643905  0.24258651  1.0
  C  C28  1  0.93002264  0.51874035  0.80294598  1.0
  C  C29  1  0.88616486  0.51968096  0.89594132  1.0
  C  C30  1  0.04300261  0.53401797  0.18921922  1.0
  C  C31  1  0.08507813  0.53800345  0.09525684  1.0
  C  C32  1  0.76706703  0.46123646  0.20051714  1.0
  C  C33  1  0.81620068  0.46320037  0.10658932  1.0
  C  C34  1  0.26803837  0.49403000  0.80969656  1.0
  C  C35  1  0.22005502  0.49320160  0.90340356  1.0
  C  C36  1  0.02665896  0.50577966  0.95018704  1.0
  C  C37  1  0.97600045  0.50283635  0.05014626  1.0
  C  C38  1  0.80158537  0.96585578  0.54303537  1.0
  C  C39  1  0.20752579  0.95967574  0.46224927  1.0
  C  C40  1  0.16038706  0.01090308  0.54411010  1.0
  C  C41  1  0.81741775  0.05517582  0.46452956  1.0
  C  C42  1  0.75621018  0.81028226  0.51291614  1.0
  C  C43  1  0.70142269  0.90497050  0.51274501  1.0
  C  C44  1  0.45611780  0.81010840  0.46631441  1.0
  C  C45  1  0.40340464  0.90472562  0.46609652  1.0
  C  C46  1  0.22650379  0.17878126  0.52282907  1.0
  C  C47  1  0.28301767  0.08541102  0.51736144  1.0
  C  C48  1  0.56304310  0.20078130  0.47765571  1.0
  C  C49  1  0.61753408  0.10768229  0.47160870  1.0
  C  C50  1  0.63443651  0.76302407  0.48780900  1.0
  C  C51  1  0.53070206  0.95250407  0.48519222  1.0
  C  C52  1  0.36712700  0.23711995  0.50167188  1.0
  C  C53  1  0.47617355  0.05152639  0.48780348  1.0
  O  O54  1  0.45128122  0.37560841  0.51452993  1.0
  O  O55  1  0.03504089  0.49917411  0.62201152  1.0
  O  O56  1  0.85968548  0.62357643  0.49515780  1.0
  O  O57  1  0.65242609  0.49180935  0.38068785  1.0
  O  O58  1  0.55076046  0.62078770  0.48458814  1.0
  O  O59  1  0.96416762  0.50328793  0.38050794  1.0
  O  O60  1  0.13689300  0.37378749  0.51116817  1.0
  O  O61  1  0.35021366  0.50359237  0.62069819  1.0
  O  O62  1  0.74614469  0.45539924  0.54792780  1.0
  O  O63  1  0.25360756  0.54201727  0.45498545  1.0
  F  F64  1  0.69517300  0.53635367  0.93527446  1.0
  F  F65  1  0.23842420  0.58031358  0.04529031  1.0
