# generated using pymatgen
data_ZnH26(C7N)6
_symmetry_space_group_name_H-M   'P 1'
_cell_length_a   9.41253822
_cell_length_b   19.27356996
_cell_length_c   19.27343109
_cell_angle_alpha   117.39435676
_cell_angle_beta   99.37398422
_cell_angle_gamma   99.35360072
_symmetry_Int_Tables_number   1
_chemical_formula_structural   ZnH26(C7N)6
_chemical_formula_sum   'Zn3 H78 C126 N18'
_cell_volume   2948.22315088
_cell_formula_units_Z   3
loop_
 _symmetry_equiv_pos_site_id
 _symmetry_equiv_pos_as_xyz
  1  'x, y, z'
loop_
 _atom_site_type_symbol
 _atom_site_label
 _atom_site_symmetry_multiplicity
 _atom_site_fract_x
 _atom_site_fract_y
 _atom_site_fract_z
 _atom_site_occupancy
  Zn  Zn0  1  0.50000058  0.49999966  0.50000004  1.0
  Zn  Zn1  1  0.99999928  0.00000011  0.49999995  1.0
  Zn  Zn2  1  0.00000029  0.50000029  0.99999988  1.0
  H  H3  1  0.56383508  0.81160248  0.59831781  1.0
  H  H4  1  0.75201127  0.78659483  0.18849428  1.0
  H  H5  1  0.96521278  0.40191197  0.21349314  1.0
  H  H6  1  0.43616594  0.18839718  0.40168270  1.0
  H  H7  1  0.24798761  0.21340675  0.81150624  1.0
  H  H8  1  0.03478717  0.59808864  0.78650737  1.0
  H  H9  1  0.33628971  0.77115757  0.65167112  1.0
  H  H10  1  0.56509220  0.88056357  0.22898133  1.0
  H  H11  1  0.68438221  0.34852069  0.11957126  1.0
  H  H12  1  0.66371071  0.22884201  0.34832818  1.0
  H  H13  1  0.43490713  0.11943747  0.77101796  1.0
  H  H14  1  0.31561773  0.65147993  0.88042925  1.0
  H  H15  1  0.07115998  0.49939021  0.64841332  1.0
  H  H16  1  0.57158344  0.14893149  0.50057600  1.0
  H  H17  1  0.42283801  0.35181374  0.85103675  1.0
  H  H18  1  0.92883906  0.50060898  0.35158537  1.0
  H  H19  1  0.42841621  0.85106883  0.49942391  1.0
  H  H20  1  0.57716242  0.64818532  0.14896255  1.0
  H  H21  1  0.09463544  0.34589904  0.57859768  1.0
  H  H22  1  0.74849099  0.23269705  0.65405431  1.0
  H  H23  1  0.51596621  0.42158510  0.76731902  1.0
  H  H24  1  0.90536420  0.65409971  0.42140222  1.0
  H  H25  1  0.25150897  0.76730409  0.34594621  1.0
  H  H26  1  0.48403374  0.57841500  0.23268149  1.0
  H  H27  1  0.96828548  0.58223946  0.57051001  1.0
  H  H28  1  0.38611849  0.98815611  0.41767027  1.0
  H  H29  1  0.39773403  0.42956025  0.01172664  1.0
  H  H30  1  0.03171308  0.41776129  0.42948989  1.0
  H  H31  1  0.61388039  0.01184391  0.58233024  1.0
  H  H32  1  0.60226992  0.57043885  0.98827326  1.0
  H  H33  1  0.81981217  0.66188334  0.65506453  1.0
  H  H34  1  0.15817798  0.99322553  0.33804933  1.0
  H  H35  1  0.16479394  0.34494544  0.00674315  1.0
  H  H36  1  0.18018639  0.33811741  0.34493537  1.0
  H  H37  1  0.84182135  0.00677448  0.66194996  1.0
  H  H38  1  0.83520863  0.65505431  0.99325615  1.0
  H  H39  1  0.94342892  0.77313836  0.79777819  1.0
  H  H40  1  0.17076695  0.02491640  0.22694801  1.0
  H  H41  1  0.14577594  0.20213945  0.97501179  1.0
  H  H42  1  0.05657103  0.22686174  0.20222232  1.0
  H  H43  1  0.82923454  0.97508274  0.77305128  1.0
  H  H44  1  0.85422495  0.79785961  0.02498629  1.0
  H  H45  1  0.21830647  0.80303160  0.85462198  1.0
  H  H46  1  0.41581037  0.05189759  0.19712801  1.0
  H  H47  1  0.36384758  0.14534365  0.94803593  1.0
  H  H48  1  0.78169318  0.19696717  0.14537793  1.0
  H  H49  1  0.58419006  0.94810147  0.80287129  1.0
  H  H50  1  0.63615314  0.85465519  0.05196397  1.0
  H  H51  1  0.36734557  0.72420352  0.76853781  1.0
  H  H52  1  0.64355746  0.04451693  0.27596417  1.0
  H  H53  1  0.59907144  0.23156966  0.95556575  1.0
  H  H54  1  0.63265269  0.27579536  0.23146148  1.0
  H  H55  1  0.35644358  0.95548327  0.72403635  1.0
  H  H56  1  0.40093006  0.76842845  0.04443355  1.0
  H  H57  1  0.56079150  0.73962582  0.42512329  1.0
  H  H58  1  0.82110712  0.68558786  0.26035982  1.0
  H  H59  1  0.13579929  0.57484413  0.31456184  1.0
  H  H60  1  0.43920785  0.26037367  0.57487601  1.0
  H  H61  1  0.17889145  0.31441184  0.73964008  1.0
  H  H62  1  0.86420067  0.42515598  0.68543868  1.0
  H  H63  1  0.06522173  0.90895536  0.59737367  1.0
  H  H64  1  0.15634382  0.68831193  0.09099139  1.0
  H  H65  1  0.46804001  0.40252802  0.31161785  1.0
  H  H66  1  0.93477900  0.09104400  0.40262624  1.0
  H  H67  1  0.84365643  0.31168951  0.90900973  1.0
  H  H68  1  0.53195857  0.59747170  0.68838206  1.0
  H  H69  1  0.68068358  0.86852494  0.43012769  1.0
  H  H70  1  0.81239446  0.56164118  0.13158974  1.0
  H  H71  1  0.25101174  0.56990292  0.43847133  1.0
  H  H72  1  0.31931559  0.13147590  0.56987343  1.0
  H  H73  1  0.18760520  0.43835966  0.86841017  1.0
  H  H74  1  0.74898821  0.43009666  0.56152918  1.0
  H  H75  1  0.96224294  0.78158337  0.59961084  1.0
  H  H76  1  0.18104988  0.81788576  0.21847524  1.0
  H  H77  1  0.36288200  0.40039823  0.18204649  1.0
  H  H78  1  0.03775563  0.21841634  0.40038907  1.0
  H  H79  1  0.81895236  0.18211512  0.78152770  1.0
  H  H80  1  0.63711765  0.59960157  0.81795342  1.0
  C  C81  1  0.56855232  0.68073653  0.55190285  1.0
  C  C82  1  0.88773877  0.87103704  0.31930462  1.0
  C  C83  1  0.01648371  0.44831667  0.12906214  1.0
  C  C84  1  0.43144703  0.31926297  0.44809645  1.0
  C  C85  1  0.11225980  0.12896370  0.68069528  1.0
  C  C86  1  0.98351624  0.55168396  0.87093838  1.0
  C  C87  1  0.51755601  0.75284354  0.59166931  1.0
  C  C88  1  0.76454172  0.83871219  0.24724823  1.0
  C  C89  1  0.92561635  0.40859786  0.16139599  1.0
  C  C90  1  0.48244393  0.24715604  0.40833120  1.0
  C  C91  1  0.23545901  0.16128925  0.75275168  1.0
  C  C92  1  0.07438253  0.59140268  0.83860453  1.0
  C  C93  1  0.40256442  0.73253494  0.61982208  1.0
  C  C94  1  0.66994178  0.88723834  0.26756563  1.0
  C  C95  1  0.78251292  0.38044595  0.11288633  1.0
  C  C96  1  0.59743493  0.26746403  0.38017722  1.0
  C  C97  1  0.33005863  0.11276227  0.73243366  1.0
  C  C98  1  0.21748595  0.61955510  0.88711418  1.0
  C  C99  1  0.38252516  0.64801113  0.59758947  1.0
  C  C100  1  0.73455851  0.94952976  0.35205830  1.0
  C  C101  1  0.78483049  0.40261819  0.05055278  1.0
  C  C102  1  0.61747341  0.35198806  0.40241044  1.0
  C  C103  1  0.26544299  0.05047198  0.64794100  1.0
  C  C104  1  0.21516947  0.59738192  0.94944774  1.0
  C  C105  1  0.27002626  0.60235381  0.61234346  1.0
  C  C106  1  0.66782115  0.00998497  0.39771376  1.0
  C  C107  1  0.65771236  0.38780687  0.99000708  1.0
  C  C108  1  0.72997232  0.39764591  0.38765645  1.0
  C  C109  1  0.33218018  0.99001655  0.60228736  1.0
  C  C110  1  0.34228943  0.61219257  0.00999282  1.0
  C  C111  1  0.24110847  0.51811785  0.58404262  1.0
  C  C112  1  0.72301063  0.06591306  0.48192995  1.0
  C  C113  1  0.65715860  0.41610552  0.93406892  1.0
  C  C114  1  0.75889149  0.48188226  0.41595790  1.0
  C  C115  1  0.27699070  0.93408847  0.51807117  1.0
  C  C116  1  0.34283998  0.58389368  0.06593099  1.0
  C  C117  1  0.13974113  0.47372078  0.60822687  1.0
  C  C118  1  0.66586209  0.13443997  0.52627505  1.0
  C  C119  1  0.53157023  0.39198268  0.86553437  1.0
  C  C120  1  0.86025959  0.52628013  0.39177303  1.0
  C  C121  1  0.33413648  0.86556079  0.47372486  1.0
  C  C122  1  0.46842942  0.60801660  0.13446554  1.0
  C  C123  1  0.15256418  0.39596976  0.57322112  1.0
  C  C124  1  0.75640052  0.17723172  0.60403262  1.0
  C  C125  1  0.57933421  0.42696079  0.82275314  1.0
  C  C126  1  0.84743302  0.60403008  0.42677818  1.0
  C  C127  1  0.24359913  0.82276964  0.39596729  1.0
  C  C128  1  0.42066574  0.57303931  0.17724737  1.0
  C  C129  1  0.26237487  0.39255003  0.52768831  1.0
  C  C130  1  0.86974275  0.13516765  0.60749183  1.0
  C  C131  1  0.73471164  0.47242855  0.86481789  1.0
  C  C132  1  0.73762586  0.60744934  0.47231160  1.0
  C  C133  1  0.13025689  0.86483318  0.39250807  1.0
  C  C134  1  0.26528832  0.52757156  0.13518263  1.0
  C  C135  1  0.68397824  0.67556858  0.51279798  1.0
  C  C136  1  0.00843669  0.83715549  0.32441721  1.0
  C  C137  1  0.17107838  0.48720128  0.16288189  1.0
  C  C138  1  0.31602357  0.32443036  0.48720193  1.0
  C  C139  1  0.99156110  0.16284547  0.67558330  1.0
  C  C140  1  0.82892157  0.51279933  0.83711862  1.0
  C  C141  1  0.17843262  0.64788151  0.66360757  1.0
  C  C142  1  0.53075843  0.01574659  0.35215272  1.0
  C  C143  1  0.51487776  0.33649852  0.98421866  1.0
  C  C144  1  0.82156673  0.35211799  0.33639173  1.0
  C  C145  1  0.46924122  0.98425425  0.64784719  1.0
  C  C146  1  0.48512282  0.66350022  0.01577881  1.0
  C  C147  1  0.02333393  0.63046408  0.63281880  1.0
  C  C148  1  0.39302151  0.00232140  0.36948219  1.0
  C  C149  1  0.39050664  0.36723394  0.99759081  1.0
  C  C150  1  0.97666540  0.36953644  0.36718049  1.0
  C  C151  1  0.60697705  0.99767934  0.63051771  1.0
  C  C152  1  0.60949654  0.63276538  0.00240970  1.0
  C  C153  1  0.93962403  0.67567551  0.68066373  1.0
  C  C154  1  0.26420775  0.00503432  0.32427079  1.0
  C  C155  1  0.25901464  0.31934788  0.99490453  1.0
  C  C156  1  0.06037531  0.32432450  0.31933556  1.0
  C  C157  1  0.73579021  0.99496531  0.67572790  1.0
  C  C158  1  0.74098686  0.68065023  0.00509477  1.0
  C  C159  1  0.00919001  0.73820819  0.76035216  1.0
  C  C160  1  0.27139622  0.02233001  0.26182835  1.0
  C  C161  1  0.24894354  0.23961082  0.97757908  1.0
  C  C162  1  0.99080963  0.26179160  0.23964774  1.0
  C  C163  1  0.72860359  0.97766895  0.73816973  1.0
  C  C164  1  0.75105658  0.76038690  0.02241961  1.0
  C  C165  1  0.16320744  0.75531099  0.79204814  1.0
  C  C166  1  0.40836990  0.03697062  0.24480293  1.0
  C  C167  1  0.37131950  0.20794848  0.96296598  1.0
  C  C168  1  0.83679006  0.24468760  0.20795177  1.0
  C  C169  1  0.59163052  0.96302897  0.75519637  1.0
  C  C170  1  0.62868200  0.79205015  0.03703332  1.0
  C  C171  1  0.24705695  0.71075816  0.74395842  1.0
  C  C172  1  0.53666660  0.03335932  0.28935949  1.0
  C  C173  1  0.50329665  0.25612152  0.96665894  1.0
  C  C174  1  0.75294162  0.28924103  0.25604149  1.0
  C  C175  1  0.46333383  0.96664078  0.71063981  1.0
  C  C176  1  0.49670515  0.74387741  0.03334096  1.0
  C  C177  1  0.75258164  0.75041983  0.51231365  1.0
  C  C178  1  0.00221555  0.76187120  0.24957024  1.0
  C  C179  1  0.24025475  0.48760978  0.23815127  1.0
  C  C180  1  0.24741878  0.24957975  0.48768565  1.0
  C  C181  1  0.99778255  0.23812799  0.75043088  1.0
  C  C182  1  0.75974627  0.51239040  0.76184924  1.0
  C  C183  1  0.67313611  0.77572735  0.46426020  1.0
  C  C184  1  0.89738324  0.68857626  0.22425936  1.0
  C  C185  1  0.20903272  0.53569682  0.31152421  1.0
  C  C186  1  0.32686122  0.22427414  0.53574153  1.0
  C  C187  1  0.10261701  0.31142206  0.77574175  1.0
  C  C188  1  0.79096693  0.46430247  0.68847570  1.0
  C  C189  1  0.95370214  0.86948885  0.55995861  1.0
  C  C190  1  0.08431701  0.69038126  0.13049704  1.0
  C  C191  1  0.39394680  0.43997794  0.30958139  1.0
  C  C192  1  0.04629780  0.13051125  0.44004190  1.0
  C  C193  1  0.91568217  0.30961854  0.86950408  1.0
  C  C194  1  0.60605284  0.56002185  0.69041851  1.0
  C  C195  1  0.73929833  0.84728819  0.46701878  1.0
  C  C196  1  0.89217295  0.61974327  0.15277049  1.0
  C  C197  1  0.27264598  0.53299458  0.38034204  1.0
  C  C198  1  0.26070024  0.15271151  0.53298112  1.0
  C  C199  1  0.10782592  0.38025674  0.84723002  1.0
  C  C200  1  0.72735398  0.46700501  0.61965848  1.0
  C  C201  1  0.89672404  0.79878254  0.56096318  1.0
  C  C202  1  0.09817953  0.76208966  0.20125130  1.0
  C  C203  1  0.33592261  0.43900147  0.23787374  1.0
  C  C204  1  0.10327483  0.20121799  0.43903733  1.0
  C  C205  1  0.90182026  0.23791127  0.79875103  1.0
  C  C206  1  0.66407841  0.56099819  0.76212677  1.0
  N  N207  1  0.48612649  0.61889995  0.55749774  1.0
  N  N208  1  0.86725515  0.93851406  0.38113295  1.0
  N  N209  1  0.92854951  0.44267617  0.06156220  1.0
  N  N210  1  0.51387315  0.38109984  0.44250216  1.0
  N  N211  1  0.13274449  0.06148729  0.61886695  1.0
  N  N212  1  0.07145044  0.55732445  0.93843831  1.0
  N  N213  1  0.31180977  0.46686989  0.53438562  1.0
  N  N214  1  0.84498995  0.06755656  0.53319174  1.0
  N  N215  1  0.77750029  0.46571094  0.93243553  1.0
  N  N216  1  0.68819079  0.53313031  0.46561611  1.0
  N  N217  1  0.15500969  0.93244427  0.46680816  1.0
  N  N218  1  0.22249829  0.53428929  0.06756438  1.0
  N  N219  1  0.87719452  0.89365147  0.51401468  1.0
  N  N220  1  0.98363865  0.62031387  0.10635148  1.0
  N  N221  1  0.36346264  0.48593923  0.37969276  1.0
  N  N222  1  0.12280406  0.10634825  0.48598523  1.0
  N  N223  1  0.01636023  0.37968666  0.89364903  1.0
  N  N224  1  0.63653671  0.51406027  0.62030654  1.0
