# generated using pymatgen
data_Zn2H33C47N2O9
_symmetry_space_group_name_H-M   'P 1'
_cell_length_a   16.56858807
_cell_length_b   17.86611360
_cell_length_c   31.07545560
_cell_angle_alpha   89.93244392
_cell_angle_beta   89.45473259
_cell_angle_gamma   89.90697962
_symmetry_Int_Tables_number   1
_chemical_formula_structural   Zn2H33C47N2O9
_chemical_formula_sum   'Zn4 H66 C94 N4 O18'
_cell_volume   9198.40575511
_cell_formula_units_Z   2
loop_
 _symmetry_equiv_pos_site_id
 _symmetry_equiv_pos_as_xyz
  1  'x, y, z'
loop_
 _atom_site_type_symbol
 _atom_site_label
 _atom_site_symmetry_multiplicity
 _atom_site_fract_x
 _atom_site_fract_y
 _atom_site_fract_z
 _atom_site_occupancy
  Zn  Zn0  1  0.42222691  0.49811714  0.50502192  1.0
  Zn  Zn1  1  0.59204801  0.51181396  0.49922575  1.0
  Zn  Zn2  1  0.57771174  0.49502658  0.92395392  1.0
  Zn  Zn3  1  0.40787879  0.50958137  0.92962290  1.0
  H  H4  1  0.71282824  0.42758143  0.53986850  1.0
  H  H5  1  0.86327380  0.41346629  0.54417963  1.0
  H  H6  1  0.88255303  0.59926416  0.45543243  1.0
  H  H7  1  0.13362518  0.41581350  0.55622029  1.0
  H  H8  1  0.29957032  0.56481552  0.45660556  1.0
  H  H9  1  0.14883608  0.57278319  0.45050197  1.0
  H  H10  1  0.39312329  0.27645033  0.49329419  1.0
  H  H11  1  0.37839852  0.13751072  0.49115026  1.0
  H  H12  1  0.63729571  0.11709995  0.49444133  1.0
  H  H13  1  0.36085930  0.88545848  0.50160634  1.0
  H  H14  1  0.61481244  0.74007314  0.50366419  1.0
  H  H15  1  0.62068449  0.87930842  0.49860958  1.0
  H  H16  1  0.60052293  0.50113500  0.78695461  1.0
  H  H17  1  0.34290576  0.49767524  0.79571534  1.0
  H  H18  1  0.39942260  0.50256920  0.64188856  1.0
  H  H19  1  0.65705443  0.49910677  0.63308144  1.0
  H  H20  1  0.62670476  0.51815524  0.06303910  1.0
  H  H21  1  0.62939357  0.51430263  0.14341985  1.0
  H  H22  1  0.37756182  0.45493703  0.14433473  1.0
  H  H23  1  0.62290317  0.45581673  0.28501297  1.0
  H  H24  1  0.37313946  0.51938427  0.36575798  1.0
  H  H25  1  0.37072747  0.51464510  0.28539306  1.0
  H  H26  1  0.28710879  0.42643731  0.88883813  1.0
  H  H27  1  0.13668230  0.41284948  0.88448440  1.0
  H  H28  1  0.11736724  0.59772584  0.97365313  1.0
  H  H29  1  0.86712869  0.41422473  0.87290408  1.0
  H  H30  1  0.69967084  0.56181738  0.97253457  1.0
  H  H31  1  0.85032280  0.57090245  0.97851504  1.0
  H  H32  1  0.60601262  0.27333695  0.93591934  1.0
  H  H33  1  0.62091743  0.13441095  0.93706213  1.0
  H  H34  1  0.36217285  0.11455181  0.93220019  1.0
  H  H35  1  0.63984617  0.88206198  0.92563943  1.0
  H  H36  1  0.38562073  0.73775574  0.92373343  1.0
  H  H37  1  0.38000343  0.87710483  0.92794203  1.0
  H  H38  1  0.76210833  0.65162763  0.42599987  1.0
  H  H39  1  0.66900077  0.60067848  0.43103835  1.0
  H  H40  1  0.69509323  0.66648112  0.47048624  1.0
  H  H41  1  0.31725015  0.34762244  0.55064153  1.0
  H  H42  1  0.35000375  0.42713591  0.57879570  1.0
  H  H43  1  0.25586035  0.38338686  0.59333350  1.0
  H  H44  1  0.72156755  0.21595262  0.49482658  1.0
  H  H45  1  0.68848536  0.30096661  0.46994668  1.0
  H  H46  1  0.68674122  0.29306053  0.52628963  1.0
  H  H47  1  0.31696928  0.70811037  0.47670009  1.0
  H  H48  1  0.32610679  0.69882016  0.53264251  1.0
  H  H49  1  0.28375544  0.78266362  0.51076250  1.0
  H  H50  1  0.31924308  0.50436243  0.04891599  1.0
  H  H51  1  0.36046171  0.41895968  0.03109905  1.0
  H  H52  1  0.31105252  0.42386226  0.08242562  1.0
  H  H53  1  0.68050325  0.50668140  0.38023493  1.0
  H  H54  1  0.64010333  0.42120796  0.39838863  1.0
  H  H55  1  0.68956918  0.42594768  0.34706135  1.0
  H  H56  1  0.23770946  0.64971077  0.00302665  1.0
  H  H57  1  0.33064770  0.59819207  0.99817744  1.0
  H  H58  1  0.30523374  0.66447945  0.95873758  1.0
  H  H59  1  0.68319176  0.34532719  0.87864522  1.0
  H  H60  1  0.65099614  0.42480797  0.85009226  1.0
  H  H61  1  0.74521243  0.38053650  0.83604266  1.0
  H  H62  1  0.27777076  0.21409790  0.93632583  1.0
  H  H63  1  0.31247525  0.30354998  0.95449704  1.0
  H  H64  1  0.31034747  0.28372589  0.89908347  1.0
  H  H65  1  0.68333064  0.70477921  0.95136964  1.0
  H  H66  1  0.67438764  0.69501482  0.89545406  1.0
  H  H67  1  0.71676310  0.77888256  0.91700761  1.0
  H  H68  1  0.68027744  0.50103700  0.74584606  1.0
  H  H69  1  0.31975123  0.50166685  0.68296052  1.0
  C  C70  1  0.52225112  0.35905914  0.49817004  1.0
  C  C71  1  0.51979371  0.50113595  0.58574439  1.0
  C  C72  1  0.49088786  0.64999656  0.50438268  1.0
  C  C73  1  0.49672914  0.50223921  0.41824187  1.0
  C  C74  1  0.47719656  0.35644978  0.93063810  1.0
  C  C75  1  0.48017184  0.49862445  0.84310156  1.0
  C  C76  1  0.50935319  0.64718581  0.92390634  1.0
  C  C77  1  0.50311336  0.50005795  0.01074074  1.0
  C  C78  1  0.75336219  0.46408035  0.52172350  1.0
  C  C79  1  0.83640244  0.45651430  0.52405351  1.0
  C  C80  1  0.88512661  0.50564857  0.49972920  1.0
  C  C81  1  0.84665105  0.56017532  0.47450087  1.0
  C  C82  1  0.76253300  0.56496460  0.47394550  1.0
  C  C83  1  0.97030430  0.50089878  0.50078963  1.0
  C  C84  1  0.04375318  0.49751545  0.50189345  1.0
  C  C85  1  0.12900080  0.49457555  0.50330110  1.0
  C  C86  1  0.16867040  0.44951736  0.53359456  1.0
  C  C87  1  0.25290503  0.44784351  0.53504148  1.0
  C  C88  1  0.25983604  0.53288892  0.47788765  1.0
  C  C89  1  0.17668020  0.53711996  0.47460206  1.0
  C  C90  1  0.52220982  0.27514828  0.49525584  1.0
  C  C91  1  0.44618045  0.24040260  0.49354471  1.0
  C  C92  1  0.43785714  0.16335623  0.49235957  1.0
  C  C93  1  0.50733997  0.11773667  0.49327207  1.0
  C  C94  1  0.58361081  0.15253076  0.49404654  1.0
  C  C95  1  0.59285290  0.23032693  0.49485869  1.0
  C  C96  1  0.50047458  0.03887068  0.49428095  1.0
  C  C97  1  0.49376719  0.97087237  0.49640364  1.0
  C  C98  1  0.49066615  0.89190291  0.49911741  1.0
  C  C99  1  0.41677461  0.85309375  0.50146439  1.0
  C  C100  1  0.41253130  0.77494164  0.50362529  1.0
  C  C101  1  0.48590733  0.73394485  0.50366143  1.0
  C  C102  1  0.55952674  0.77293556  0.50243168  1.0
  C  C103  1  0.56297247  0.85018088  0.49990878  1.0
  C  C104  1  0.54325639  0.49985896  0.76986562  1.0
  C  C105  1  0.39704742  0.49824615  0.77561129  1.0
  C  C106  1  0.39082073  0.49928157  0.73136249  1.0
  C  C107  1  0.46117460  0.49994633  0.70425936  1.0
  C  C108  1  0.45673765  0.50093910  0.65896035  1.0
  C  C109  1  0.60292427  0.49936090  0.65319739  1.0
  C  C110  1  0.60914809  0.49956306  0.69745589  1.0
  C  C111  1  0.53879294  0.49975305  0.72457767  1.0
  C  C112  1  0.47374746  0.49885627  0.79499305  1.0
  C  C113  1  0.52623178  0.50043722  0.63381497  1.0
  C  C114  1  0.50065985  0.49241206  0.05872936  1.0
  C  C115  1  0.57208678  0.50546617  0.08147893  1.0
  C  C116  1  0.57385881  0.50300065  0.12609249  1.0
  C  C117  1  0.50268341  0.48596952  0.14934097  1.0
  C  C118  1  0.43191590  0.47018792  0.12627121  1.0
  C  C119  1  0.42908699  0.47313230  0.08139025  1.0
  C  C120  1  0.50146066  0.48478328  0.19489351  1.0
  C  C121  1  0.49897054  0.48489892  0.23418195  1.0
  C  C122  1  0.49760304  0.48648504  0.27973697  1.0
  C  C123  1  0.56839378  0.47110060  0.30294575  1.0
  C  C124  1  0.57108021  0.47458910  0.34780685  1.0
  C  C125  1  0.49930901  0.49396837  0.37030086  1.0
  C  C126  1  0.42786128  0.50658167  0.34743643  1.0
  C  C127  1  0.42624619  0.50360948  0.30284022  1.0
  C  C128  1  0.24656688  0.46292055  0.90703046  1.0
  C  C129  1  0.16352124  0.45563216  0.90469616  1.0
  C  C130  1  0.11478680  0.50463691  0.92913969  1.0
  C  C131  1  0.15327167  0.55879706  0.95446270  1.0
  C  C132  1  0.23739982  0.56336684  0.95500341  1.0
  C  C133  1  0.02961365  0.49996060  0.92814291  1.0
  C  C134  1  0.95618776  0.49638007  0.92711663  1.0
  C  C135  1  0.87096272  0.49292528  0.92576088  1.0
  C  C136  1  0.83173644  0.44763940  0.89552402  1.0
  C  C137  1  0.74751347  0.44540148  0.89412360  1.0
  C  C138  1  0.73973206  0.53024346  0.95124410  1.0
  C  C139  1  0.82284222  0.53507415  0.95446345  1.0
  C  C140  1  0.47698148  0.27243755  0.93307535  1.0
  C  C141  1  0.55301226  0.23745936  0.93501447  1.0
  C  C142  1  0.56146105  0.16039004  0.93564191  1.0
  C  C143  1  0.49212758  0.11488212  0.93395043  1.0
  C  C144  1  0.41582915  0.14983631  0.93307414  1.0
  C  C145  1  0.40644424  0.22769164  0.93279452  1.0
  C  C146  1  0.49930979  0.03603759  0.93251770  1.0
  C  C147  1  0.50672914  0.96810331  0.93027869  1.0
  C  C148  1  0.50997696  0.88911262  0.92775546  1.0
  C  C149  1  0.58383705  0.84997597  0.92577880  1.0
  C  C150  1  0.58796330  0.77176489  0.92401535  1.0
  C  C151  1  0.51451404  0.73109752  0.92407726  1.0
  C  C152  1  0.44094663  0.77039840  0.92489397  1.0
  C  C153  1  0.43763013  0.84767628  0.92694690  1.0
  C  C154  1  0.72037928  0.62411455  0.44852668  1.0
  C  C155  1  0.29601499  0.39906717  0.56656747  1.0
  C  C156  1  0.67713982  0.26156322  0.49639644  1.0
  C  C157  1  0.33024188  0.73943162  0.50619741  1.0
  C  C158  1  0.35081544  0.45372105  0.05977254  1.0
  C  C159  1  0.64947015  0.45576780  0.36956875  1.0
  C  C160  1  0.27954340  0.62210352  0.98057238  1.0
  C  C161  1  0.70476650  0.39655505  0.86261498  1.0
  C  C162  1  0.32201294  0.25888516  0.93087095  1.0
  C  C163  1  0.67021285  0.73587761  0.92172053  1.0
  N  N164  1  0.71707266  0.51647529  0.49734217  1.0
  N  N165  1  0.29730756  0.48995414  0.50733414  1.0
  N  N166  1  0.28286380  0.51498438  0.93150618  1.0
  N  N167  1  0.70270037  0.48711938  0.92184668  1.0
  O  O168  1  0.45522280  0.38878223  0.50960379  1.0
  O  O169  1  0.58655375  0.39516207  0.48933496  1.0
  O  O170  1  0.58477545  0.49114528  0.56426054  1.0
  O  O171  1  0.44993474  0.51162814  0.56991960  1.0
  O  O172  1  0.56033713  0.62153858  0.51111777  1.0
  O  O173  1  0.42672285  0.61252732  0.49766811  1.0
  O  O174  1  0.43066395  0.48806720  0.43779245  1.0
  O  O175  1  0.56165113  0.52413993  0.43615085  1.0
  O  O176  1  0.54449017  0.38591974  0.91958053  1.0
  O  O177  1  0.41303511  0.39292689  0.93945100  1.0
  O  O178  1  0.41516549  0.48868618  0.86455127  1.0
  O  O179  1  0.55010335  0.50838582  0.85895573  1.0
  O  O180  1  0.43981220  0.61896594  0.91740327  1.0
  O  O181  1  0.57342229  0.60949682  0.93082715  1.0
  O  O182  1  0.56917671  0.48556372  0.99124207  1.0
  O  O183  1  0.43811153  0.52177976  0.99274008  1.0
  O  O184  1  0.68504185  0.49934990  0.71458012  1.0
  O  O185  1  0.31497921  0.49944035  0.71421411  1.0
