# generated using pymatgen
data_Hf3H14(C13O8)2
_symmetry_space_group_name_H-M   'P 1'
_cell_length_a   15.49789558
_cell_length_b   19.28407956
_cell_length_c   19.29320358
_cell_angle_alpha   88.60478371
_cell_angle_beta   89.90255314
_cell_angle_gamma   89.92547965
_symmetry_Int_Tables_number   1
_chemical_formula_structural   Hf3H14(C13O8)2
_chemical_formula_sum   'Hf6 H28 C52 O32'
_cell_volume   5764.29559241
_cell_formula_units_Z   2
loop_
 _symmetry_equiv_pos_site_id
 _symmetry_equiv_pos_as_xyz
  1  'x, y, z'
loop_
 _atom_site_type_symbol
 _atom_site_label
 _atom_site_symmetry_multiplicity
 _atom_site_fract_x
 _atom_site_fract_y
 _atom_site_fract_z
 _atom_site_occupancy
  Hf  Hf0  1  0.00832892  0.98980291  0.90068766  1.0
  Hf  Hf1  1  0.00395575  0.11060016  0.03774216  1.0
  Hf  Hf2  1  0.00590533  0.85134462  0.02521230  1.0
  Hf  Hf3  1  0.00480869  0.97133458  0.15849702  1.0
  Hf  Hf4  1  0.16536311  0.98161984  0.03133136  1.0
  Hf  Hf5  1  0.84607457  0.98125425  0.02992910  1.0
  H  H6  1  0.64463589  0.97541835  0.64547810  1.0
  H  H7  1  0.50425806  0.98313896  0.83850455  1.0
  H  H8  1  0.36628219  0.98964017  0.64435012  1.0
  H  H9  1  0.36562359  0.97560045  0.41947488  1.0
  H  H10  1  0.50226346  0.97803932  0.22421162  1.0
  H  H11  1  0.64396030  0.98579648  0.41634546  1.0
  H  H12  1  0.64436409  0.36917650  0.03275164  1.0
  H  H13  1  0.50693177  0.17494909  0.02680605  1.0
  H  H14  1  0.36575308  0.36812624  0.02513519  1.0
  H  H15  1  0.64452166  0.59445724  0.02778619  1.0
  H  H16  1  0.50782483  0.78963959  0.03036159  1.0
  H  H17  1  0.36586323  0.59718619  0.03355698  1.0
  H  H18  1  0.88821020  0.08935700  0.92330793  1.0
  H  H19  1  0.12466121  0.08227558  0.14125561  1.0
  H  H20  1  0.87951851  0.87572824  0.13419440  1.0
  H  H21  1  0.13228947  0.88186283  0.92633498  1.0
  H  H22  1  0.06221737  0.20829432  0.12261760  1.0
  H  H23  1  0.94846759  0.03711083  0.27109509  1.0
  H  H24  1  0.04972429  0.87222519  0.24868533  1.0
  H  H25  1  0.00538063  0.81968531  0.16692969  1.0
  H  H26  1  0.96172173  0.76233889  0.92979463  1.0
  H  H27  1  0.00447997  0.84940547  0.87287539  1.0
  H  H28  1  0.04132320  0.07881807  0.80028529  1.0
  H  H29  1  0.95875650  0.22856336  0.96863800  1.0
  H  H30  1  0.95744553  0.75460080  0.12947908  1.0
  H  H31  1  0.95098988  0.89433903  0.81484012  1.0
  H  H32  1  0.05936681  0.21718652  0.95812743  1.0
  H  H33  1  0.05023529  0.02894899  0.28439512  1.0
  C  C34  1  0.50553061  0.98248962  0.63642755  1.0
  C  C35  1  0.58369771  0.97851660  0.67342120  1.0
  C  C36  1  0.58348874  0.97860945  0.74625888  1.0
  C  C37  1  0.50464178  0.98292715  0.78207177  1.0
  C  C38  1  0.42625566  0.98704844  0.74556339  1.0
  C  C39  1  0.42688001  0.98667841  0.67275737  1.0
  C  C40  1  0.50490554  0.98098053  0.42645138  1.0
  C  C41  1  0.42602747  0.97754312  0.39057535  1.0
  C  C42  1  0.42482540  0.97634154  0.31779288  1.0
  C  C43  1  0.50302535  0.97887620  0.28061780  1.0
  C  C44  1  0.58216446  0.98233456  0.31599971  1.0
  C  C45  1  0.58281146  0.98331200  0.38881646  1.0
  C  C46  1  0.50496955  0.37717837  0.02910806  1.0
  C  C47  1  0.58379547  0.34075471  0.03074791  1.0
  C  C48  1  0.58471992  0.26793540  0.02991223  1.0
  C  C49  1  0.50635979  0.23140235  0.02735327  1.0
  C  C50  1  0.42735276  0.26733212  0.02551754  1.0
  C  C51  1  0.42683658  0.34016690  0.02644237  1.0
  C  C52  1  0.50510814  0.58726263  0.03070657  1.0
  C  C53  1  0.58408245  0.62325255  0.02903748  1.0
  C  C54  1  0.58532500  0.69612114  0.02879206  1.0
  C  C55  1  0.50702158  0.73316394  0.03055635  1.0
  C  C56  1  0.42772049  0.69763981  0.03245245  1.0
  C  C57  1  0.42714510  0.62474887  0.03238573  1.0
  C  C58  1  0.21590678  0.99353496  0.87135916  1.0
  C  C59  1  0.79564198  0.14223734  0.03426798  1.0
  C  C60  1  0.21711191  0.14138640  0.02502501  1.0
  C  C61  1  0.79415340  0.97469066  0.87183422  1.0
  C  C62  1  0.79987966  0.81744745  0.02536770  1.0
  C  C63  1  0.21221869  0.96963110  0.19494823  1.0
  C  C64  1  0.79413010  0.98259597  0.19128056  1.0
  C  C65  1  0.21399898  0.82076217  0.03420795  1.0
  C  C66  1  0.72955357  0.76853490  0.02526924  1.0
  C  C67  1  0.66435579  0.73327704  0.02685212  1.0
  C  C68  1  0.34959321  0.73610796  0.03417189  1.0
  C  C69  1  0.28488518  0.77196081  0.03539770  1.0
  C  C70  1  0.66280979  0.22952384  0.03173030  1.0
  C  C71  1  0.72550658  0.19145568  0.03329329  1.0
  C  C72  1  0.34991631  0.22835602  0.02329961  1.0
  C  C73  1  0.28754405  0.19007635  0.02207853  1.0
  C  C74  1  0.50443496  0.45060895  0.02999234  1.0
  C  C75  1  0.50435859  0.51380791  0.03050308  1.0
  C  C76  1  0.72374588  0.98526750  0.24011997  1.0
  C  C77  1  0.65995921  0.98427054  0.27709825  1.0
  C  C78  1  0.34622445  0.97265707  0.28043147  1.0
  C  C79  1  0.28212742  0.96967511  0.24416750  1.0
  C  C80  1  0.66099332  0.97498035  0.78517031  1.0
  C  C81  1  0.72346694  0.97281079  0.82332768  1.0
  C  C82  1  0.28589430  0.99403812  0.82208886  1.0
  C  C83  1  0.34842606  0.99114770  0.78400751  1.0
  C  C84  1  0.50580264  0.98221123  0.56300299  1.0
  C  C85  1  0.50565138  0.98181303  0.49983121  1.0
  O  O86  1  0.13924832  0.99627780  0.84823058  1.0
  O  O87  1  0.23888416  0.98910403  0.93501779  1.0
  O  O88  1  0.87232278  0.16581636  0.03264166  1.0
  O  O89  1  0.77332285  0.07860787  0.03600781  1.0
  O  O90  1  0.14061439  0.16467327  0.01815919  1.0
  O  O91  1  0.23853010  0.07818257  0.03661506  1.0
  O  O92  1  0.87034373  0.96834065  0.84918313  1.0
  O  O93  1  0.77179871  0.98429340  0.93496113  1.0
  O  O94  1  0.99300135  0.06527689  0.82951614  1.0
  O  O95  1  0.00668104  0.89200610  0.83850194  1.0
  O  O96  1  0.00227333  0.19639774  0.95155188  1.0
  O  O97  1  0.01088079  0.18386867  0.10862267  1.0
  O  O98  1  0.07475803  0.03905198  0.97961003  1.0
  O  O99  1  0.91831597  0.05906845  0.95624230  1.0
  O  O100  1  0.87735934  0.79394647  0.02572414  1.0
  O  O101  1  0.77696809  0.88082255  0.02613954  1.0
  O  O102  1  0.13471344  0.96636838  0.21829740  1.0
  O  O103  1  0.23470609  0.97424181  0.13172129  1.0
  O  O104  1  0.87131350  0.98499538  0.21456685  1.0
  O  O105  1  0.77211142  0.97621647  0.12821230  1.0
  O  O106  1  0.13730989  0.79787957  0.03431244  1.0
  O  O107  1  0.23745245  0.88451240  0.03185264  1.0
  O  O108  1  0.00640054  0.78582374  0.12469086  1.0
  O  O109  1  0.00726795  0.79658819  0.93357214  1.0
  O  O110  1  0.00125548  0.87768402  0.21709222  1.0
  O  O111  1  0.00636624  0.04450262  0.25129334  1.0
  O  O112  1  0.91549930  0.90416863  0.10375844  1.0
  O  O113  1  0.07330347  0.92430190  0.08368983  1.0
  O  O114  1  0.93911751  0.93016484  0.97749664  1.0
  O  O115  1  0.09078533  0.05308407  0.11147815  1.0
  O  O116  1  0.09618636  0.91080057  0.95496620  1.0
  O  O117  1  0.93545290  0.03378323  0.08815426  1.0
