# generated using pymatgen
data_AlH6C21(NO2)9
_symmetry_space_group_name_H-M   'P 1'
_cell_length_a   4.20486440
_cell_length_b   27.98679881
_cell_length_c   27.98617212
_cell_angle_alpha   120.00124740
_cell_angle_beta   90.00045380
_cell_angle_gamma   89.99879192
_symmetry_Int_Tables_number   1
_chemical_formula_structural   AlH6C21(NO2)9
_chemical_formula_sum   'Al2 H12 C42 N18 O36'
_cell_volume   2852.16006170
_cell_formula_units_Z   2
loop_
 _symmetry_equiv_pos_site_id
 _symmetry_equiv_pos_as_xyz
  1  'x, y, z'
loop_
 _atom_site_type_symbol
 _atom_site_label
 _atom_site_symmetry_multiplicity
 _atom_site_fract_x
 _atom_site_fract_y
 _atom_site_fract_z
 _atom_site_occupancy
  Al  Al0  1  0.93155198  0.99999505  0.49999627  1.0
  Al  Al1  1  0.92313087  0.33333388  0.16667496  1.0
  H  H2  1  0.18236461  0.48877308  0.29661152  1.0
  H  H3  1  0.21752268  0.59209859  0.34630559  1.0
  H  H4  1  0.47326116  0.75071312  0.46028287  1.0
  H  H5  1  0.45382572  0.73643519  0.29938703  1.0
  H  H6  1  0.18233912  0.20338385  0.19215829  1.0
  H  H7  1  0.21753058  0.15369158  0.24578613  1.0
  H  H8  1  0.47335299  0.03971196  0.29042996  1.0
  H  H9  1  0.45377531  0.20060345  0.43704900  1.0
  H  H10  1  0.18231519  0.30783859  0.01123423  1.0
  H  H11  1  0.21753598  0.25421680  0.90790885  1.0
  H  H12  1  0.47327213  0.20956614  0.74927962  1.0
  H  H13  1  0.45382438  0.06295681  0.76356207  1.0
  C  C14  1  0.43917177  0.03785753  0.58396812  1.0
  C  C15  1  0.43917457  0.91602411  0.45388649  1.0
  C  C16  1  0.43918943  0.04611016  0.46214128  1.0
  C  C17  1  0.42613720  0.41637584  0.19884084  1.0
  C  C18  1  0.42613626  0.30115837  0.21753984  1.0
  C  C19  1  0.42613171  0.28246130  0.08362844  1.0
  C  C20  1  0.43677597  0.47825309  0.22509523  1.0
  C  C21  1  0.30159835  0.50981989  0.27770828  1.0
  C  C22  1  0.32229965  0.56696558  0.30552877  1.0
  C  C23  1  0.47341257  0.59397164  0.28082092  1.0
  C  C24  1  0.60253528  0.56244074  0.22769770  1.0
  C  C25  1  0.59008875  0.50495755  0.20059783  1.0
  C  C26  1  0.46502585  0.76948786  0.43434057  1.0
  C  C27  1  0.45402750  0.73664056  0.37704123  1.0
  C  C28  1  0.45950189  0.76148886  0.34423092  1.0
  C  C29  1  0.47644321  0.81840760  0.36941704  1.0
  C  C30  1  0.46753351  0.85366818  0.42733132  1.0
  C  C31  1  0.46831388  0.82664714  0.45838276  1.0
  C  C32  1  0.43677433  0.27489780  0.25315467  1.0
  C  C33  1  0.30161611  0.22228484  0.23210658  1.0
  C  C34  1  0.32233293  0.19446414  0.26143182  1.0
  C  C35  1  0.47343611  0.21916742  0.31314836  1.0
  C  C36  1  0.60258098  0.27228801  0.33473958  1.0
  C  C37  1  0.59008561  0.29939325  0.30435840  1.0
  C  C38  1  0.46509047  0.06565355  0.33514503  1.0
  C  C39  1  0.45402370  0.12295189  0.35959905  1.0
  C  C40  1  0.45947135  0.15576209  0.41725788  1.0
  C  C41  1  0.47643050  0.13057745  0.44899387  1.0
  C  C42  1  0.46754189  0.07266237  0.42633785  1.0
  C  C43  1  0.46838206  0.04161143  0.36826233  1.0
  C  C44  1  0.43678693  0.24684663  0.02174917  1.0
  C  C45  1  0.30159218  0.26789314  0.99018525  1.0
  C  C46  1  0.32233064  0.23857053  0.93303896  1.0
  C  C47  1  0.47350610  0.18685835  0.90602447  1.0
  C  C48  1  0.60268502  0.16527377  0.93755641  1.0
  C  C49  1  0.59014652  0.19564806  0.99504275  1.0
  C  C50  1  0.46502006  0.16485149  0.73050660  1.0
  C  C51  1  0.45401633  0.14040175  0.76335469  1.0
  C  C52  1  0.45951812  0.08274364  0.73850531  1.0
  C  C53  1  0.47645402  0.05100573  0.68158490  1.0
  C  C54  1  0.46753803  0.07365781  0.64632398  1.0
  C  C55  1  0.46832421  0.13173061  0.67334883  1.0
  N  N56  1  0.48820152  0.65158101  0.30403765  1.0
  N  N57  1  0.44645881  0.67887526  0.35562640  1.0
  N  N58  1  0.48824053  0.19595296  0.34754244  1.0
  N  N59  1  0.44644907  0.14436370  0.32324561  1.0
  N  N60  1  0.48832082  0.15246625  0.84841581  1.0
  N  N61  1  0.44642882  0.17675569  0.82112247  1.0
  N  N62  1  0.74515293  0.47182946  0.14649413  1.0
  N  N63  1  0.73042958  0.59246612  0.20073769  1.0
  N  N64  1  0.48906317  0.85638070  0.51979834  1.0
  N  N65  1  0.51822567  0.83910631  0.33001895  1.0
  N  N66  1  0.74513260  0.35349643  0.32533945  1.0
  N  N67  1  0.73049670  0.29924540  0.39172524  1.0
  N  N68  1  0.48921619  0.98020066  0.33658377  1.0
  N  N69  1  0.51821661  0.16997627  0.50909242  1.0
  N  N70  1  0.74516359  0.17466468  0.02816543  1.0
  N  N71  1  0.73064005  0.10829075  0.90752693  1.0
  N  N72  1  0.48909240  0.16341019  0.64361339  1.0
  N  N73  1  0.51825691  0.99090841  0.66088462  1.0
  O  O74  1  0.18349678  0.01994947  0.45606349  1.0
  O  O75  1  0.18347649  0.04393500  0.56388716  1.0
  O  O76  1  0.18348902  0.93610493  0.48004215  1.0
  O  O77  1  0.66242177  0.05250268  0.49505531  1.0
  O  O78  1  0.66240685  0.94254645  0.44749313  1.0
  O  O79  1  0.66240295  0.00494360  0.55744654  1.0
  O  O80  1  0.18063595  0.27940616  0.10815747  1.0
  O  O81  1  0.18064634  0.39184402  0.17125899  1.0
  O  O82  1  0.18063778  0.32874123  0.22059481  1.0
  O  O83  1  0.65801375  0.31550926  0.10452879  1.0
  O  O84  1  0.65802007  0.28901029  0.18449280  1.0
  O  O85  1  0.65802042  0.39548097  0.21099582  1.0
  O  O86  1  0.63930660  0.42492059  0.11596686  1.0
  O  O87  1  0.97353905  0.49292205  0.13605623  1.0
  O  O88  1  0.96470436  0.62199431  0.22256693  1.0
  O  O89  1  0.58237421  0.58690016  0.16040992  1.0
  O  O90  1  0.30684837  0.89512734  0.54660688  1.0
  O  O91  1  0.68789185  0.83749120  0.53856057  1.0
  O  O92  1  0.74728938  0.86983362  0.33848337  1.0
  O  O93  1  0.33366825  0.82077575  0.29050758  1.0
  O  O94  1  0.63924076  0.38402661  0.30896681  1.0
  O  O95  1  0.97353482  0.36393393  0.35686720  1.0
  O  O96  1  0.96478899  0.27741675  0.39942099  1.0
  O  O97  1  0.58245433  0.33957318  0.42649007  1.0
  O  O98  1  0.30706744  0.95338996  0.34852685  1.0
  O  O99  1  0.68804577  0.96144163  0.29893013  1.0
  O  O100  1  0.74727154  0.16151207  0.53135770  1.0
  O  O101  1  0.33366860  0.20948732  0.53027377  1.0
  O  O102  1  0.63923634  0.19103236  0.07506750  1.0
  O  O103  1  0.97357690  0.14313796  0.00707732  1.0
  O  O104  1  0.96492086  0.10059787  0.87799962  1.0
  O  O105  1  0.58261883  0.07352185  0.91308356  1.0
  O  O106  1  0.30690799  0.15146817  0.60486233  1.0
  O  O107  1  0.68790997  0.20106348  0.66250861  1.0
  O  O108  1  0.74730430  0.96864372  0.63015097  1.0
  O  O109  1  0.33373687  0.96972969  0.67922019  1.0
