# generated using pymatgen
data_Al3H19C48I6(Br3O7)2
_symmetry_space_group_name_H-M   'P 1'
_cell_length_a   13.85593151
_cell_length_b   14.19411701
_cell_length_c   26.74824505
_cell_angle_alpha   87.37404960
_cell_angle_beta   89.50294391
_cell_angle_gamma   64.01924167
_symmetry_Int_Tables_number   1
_chemical_formula_structural   Al3H19C48I6(Br3O7)2
_chemical_formula_sum   'Al6 H38 C96 I12 Br12 O28'
_cell_volume   4723.66883430
_cell_formula_units_Z   2
loop_
 _symmetry_equiv_pos_site_id
 _symmetry_equiv_pos_as_xyz
  1  'x, y, z'
loop_
 _atom_site_type_symbol
 _atom_site_label
 _atom_site_symmetry_multiplicity
 _atom_site_fract_x
 _atom_site_fract_y
 _atom_site_fract_z
 _atom_site_occupancy
  Al  Al0  1  0.56716776  0.61061447  0.49598326  1.0
  Al  Al1  1  0.60596085  0.81622658  0.49374350  1.0
  Al  Al2  1  0.79931683  0.60747037  0.49373587  1.0
  Al  Al3  1  0.12216310  0.03032869  0.99124462  1.0
  Al  Al4  1  0.06162854  0.84171856  0.98210323  1.0
  Al  Al5  1  0.88127988  0.05801323  0.98430953  1.0
  H  H6  1  0.66007183  0.80575076  0.26546912  1.0
  H  H7  1  0.81032773  0.47082190  0.23883743  1.0
  H  H8  1  0.47397857  0.86979508  0.25262413  1.0
  H  H9  1  0.67809555  0.78496721  0.18027852  1.0
  H  H10  1  0.80641214  0.38363923  0.16837657  1.0
  H  H11  1  0.42324913  0.86717466  0.17116476  1.0
  H  H12  1  0.72835934  0.02371043  0.17935310  1.0
  H  H13  1  0.06362116  0.17991737  0.23000941  1.0
  H  H14  1  0.41022585  0.61926785  0.21059750  1.0
  H  H15  1  0.92476379  0.62455978  0.62666782  1.0
  H  H16  1  0.61247389  0.49821886  0.64166153  1.0
  H  H17  1  0.48700273  0.92599214  0.63367727  1.0
  H  H18  1  0.99505005  0.59453554  0.80281577  1.0
  H  H19  1  0.59988306  0.42744676  0.81778154  1.0
  H  H20  1  0.43416898  0.99004436  0.80831910  1.0
  H  H21  1  0.71554291  0.11852887  0.74765705  1.0
  H  H22  1  0.12938386  0.18846442  0.75939981  1.0
  H  H23  1  0.18336330  0.68495570  0.75983169  1.0
  H  H24  1  0.78595760  0.69641379  0.27322502  1.0
  H  H25  1  0.69712634  0.45346846  0.25765246  1.0
  H  H26  1  0.34573551  0.97198634  0.26243135  1.0
  H  H27  1  0.73181811  0.95407079  0.59383242  1.0
  H  H28  1  0.94811414  0.36064139  0.60648526  1.0
  H  H29  1  0.33838233  0.72440639  0.60432363  1.0
  H  H30  1  0.94499676  0.85661330  0.27159683  1.0
  H  H31  1  0.84762293  0.20126397  0.33280008  1.0
  H  H32  1  0.21767643  0.79938553  0.30722603  1.0
  H  H33  1  0.95650924  0.72850974  0.26548974  1.0
  H  H34  1  0.73116379  0.27504199  0.29576597  1.0
  H  H35  1  0.19259844  0.92537004  0.28109234  1.0
  H  H36  1  0.96055971  0.75445717  0.18005022  1.0
  H  H37  1  0.81466384  0.14325694  0.23854294  1.0
  H  H38  1  0.15597337  0.87033398  0.20659789  1.0
  H  H39  1  0.77168723  0.00524145  0.26147789  1.0
  H  H40  1  0.01292177  0.23237952  0.30845813  1.0
  H  H41  1  0.39174619  0.65517551  0.29242176  1.0
  H  H42  1  0.49125257  0.49970968  0.52430878  1.0
  H  H43  1  0.19813472  0.14592012  0.97438254  1.0
  C  C44  1  0.76003820  0.48904077  0.42622201  1.0
  C  C45  1  0.45928789  0.79897376  0.42842637  1.0
  C  C46  1  0.76620223  0.78125857  0.42212474  1.0
  C  C47  1  0.70998521  0.96267159  0.19726037  1.0
  C  C48  1  0.99142845  0.25502218  0.22874701  1.0
  C  C49  1  0.42310698  0.68860320  0.21673199  1.0
  C  C50  1  0.72556785  0.96086690  0.25461283  1.0
  C  C51  1  0.96785739  0.29810132  0.28185783  1.0
  C  C52  1  0.42814359  0.70170165  0.27348292  1.0
  C  C53  1  0.79450226  0.85849455  0.12307587  1.0
  C  C54  1  0.91782331  0.18621860  0.16175734  1.0
  C  C55  1  0.30236766  0.77720797  0.14188707  1.0
  C  C56  1  0.79467636  0.83219555  0.32922792  1.0
  C  C57  1  0.81663906  0.39370286  0.34007943  1.0
  C  C58  1  0.37838983  0.83295286  0.33811240  1.0
  C  C59  1  0.79310591  0.80939971  0.37349981  1.0
  C  C60  1  0.79012331  0.43296124  0.38046673  1.0
  C  C61  1  0.39998778  0.83411356  0.38192568  1.0
  C  C62  1  0.21153895  0.86068053  0.91771579  1.0
  C  C63  1  0.89439971  0.90866681  0.90914765  1.0
  C  C64  1  0.93265291  0.18999086  0.92290322  1.0
  C  C65  1  0.20777657  0.82735906  0.05341067  1.0
  C  C66  1  0.86588468  0.89225888  0.03795495  1.0
  C  C67  1  0.95072831  0.12963384  0.06710090  1.0
  C  C68  1  0.88910484  0.70467075  0.63901686  1.0
  C  C69  1  0.69563417  0.45178829  0.65357662  1.0
  C  C70  1  0.43933971  0.88611625  0.64680575  1.0
  C  C71  1  0.90124886  0.72373475  0.68887866  1.0
  C  C72  1  0.71943216  0.41408900  0.70345392  1.0
  C  C73  1  0.40482677  0.89444021  0.69648886  1.0
  C  C74  1  0.90072633  0.76341980  0.79281172  1.0
  C  C75  1  0.77271231  0.35005036  0.80706677  1.0
  C  C76  1  0.35678285  0.88728301  0.80064562  1.0
  C  C77  1  0.74875336  0.48982145  0.56861406  1.0
  C  C78  1  0.47356443  0.79589802  0.56570680  1.0
  C  C79  1  0.79291966  0.76218661  0.55720885  1.0
  C  C80  1  0.95422272  0.65921267  0.77562901  1.0
  C  C81  1  0.66360031  0.40765610  0.79046714  1.0
  C  C82  1  0.41085460  0.94713650  0.78209761  1.0
  C  C83  1  0.95749998  0.64107338  0.72591171  1.0
  C  C84  1  0.63859995  0.43599004  0.74114221  1.0
  C  C85  1  0.43066420  0.95267989  0.73232268  1.0
  C  C86  1  0.89679232  0.78563179  0.84370097  1.0
  C  C87  1  0.80181643  0.31687533  0.85755217  1.0
  C  C88  1  0.33274776  0.88131990  0.85164487  1.0
  C  C89  1  0.85737121  0.88946349  0.85975732  1.0
  C  C90  1  0.90896609  0.25180052  0.87316189  1.0
  C  C91  1  0.27009987  0.83044914  0.86899703  1.0
  C  C92  1  0.78066889  0.89077342  0.62031638  1.0
  C  C93  1  0.88472206  0.37384127  0.63347461  1.0
  C  C94  1  0.35477476  0.77273849  0.63024965  1.0
  C  C95  1  0.79520394  0.91357980  0.66921634  1.0
  C  C96  1  0.91170896  0.33060068  0.68246514  1.0
  C  C97  1  0.31599449  0.78167184  0.67909988  1.0
  C  C98  1  0.85112565  0.82919488  0.70535229  1.0
  C  C99  1  0.82920363  0.35390248  0.71924640  1.0
  C  C100  1  0.34565063  0.83837301  0.71415831  1.0
  C  C101  1  0.75107061  0.01838272  0.68653388  1.0
  C  C102  1  0.02013296  0.26663528  0.69928848  1.0
  C  C103  1  0.25195147  0.73108712  0.69755817  1.0
  C  C104  1  0.75210513  0.03806697  0.73583435  1.0
  C  C105  1  0.04590237  0.23566275  0.74829246  1.0
  C  C106  1  0.23019907  0.72597051  0.74712781  1.0
  C  C107  1  0.79996568  0.95472728  0.77295293  1.0
  C  C108  1  0.96554603  0.26337069  0.78599863  1.0
  C  C109  1  0.26664280  0.77484752  0.78323957  1.0
  C  C110  1  0.74490180  0.77469218  0.25487714  1.0
  C  C111  1  0.78174598  0.41098633  0.24800781  1.0
  C  C112  1  0.38759315  0.89129656  0.25039227  1.0
  C  C113  1  0.85307820  0.84956468  0.75698289  1.0
  C  C114  1  0.85581286  0.32072882  0.77066287  1.0
  C  C115  1  0.32053961  0.83569333  0.76591090  1.0
  C  C116  1  0.79921288  0.97278841  0.82472445  1.0
  C  C117  1  0.99076751  0.23365457  0.83746839  1.0
  C  C118  1  0.24866319  0.76782421  0.83525182  1.0
  C  C119  1  0.82503688  0.78710350  0.60580059  1.0
  C  C120  1  0.77770067  0.43511197  0.61926467  1.0
  C  C121  1  0.41868764  0.82184919  0.61480054  1.0
  C  C122  1  0.90766014  0.81161729  0.25460678  1.0
  C  C123  1  0.81899202  0.24508212  0.29697387  1.0
  C  C124  1  0.24228409  0.84076922  0.27800369  1.0
  C  C125  1  0.90379061  0.82568555  0.19740036  1.0
  C  C126  1  0.86799318  0.17426684  0.25309405  1.0
  C  C127  1  0.22696390  0.80964435  0.22576913  1.0
  C  C128  1  0.81842161  0.86225652  0.07952042  1.0
  C  C129  1  0.92917015  0.16087108  0.11844438  1.0
  C  C130  1  0.26687504  0.78725783  0.09962456  1.0
  C  C131  1  0.79255971  0.84618622  0.27514176  1.0
  C  C132  1  0.84598981  0.34057873  0.29316591  1.0
  C  C133  1  0.36090453  0.81835960  0.28637743  1.0
  C  C134  1  0.75451608  0.77093295  0.19789321  1.0
  C  C135  1  0.79597654  0.34442289  0.20274838  1.0
  C  C136  1  0.35651105  0.88145626  0.19665192  1.0
  C  C137  1  0.78889928  0.85432836  0.17710725  1.0
  C  C138  1  0.89536036  0.23561804  0.20992096  1.0
  C  C139  1  0.32745505  0.78747792  0.19333735  1.0
  I  I140  1  0.86165112  0.61403731  0.17414265  1.0
  I  I141  1  0.65146043  0.32485849  0.18461626  1.0
  I  I142  1  0.23298636  0.02744311  0.16375030  1.0
  I  I143  1  0.69740311  0.12518580  0.84714072  1.0
  I  I144  1  0.15488142  0.16721647  0.85809612  1.0
  I  I145  1  0.20344262  0.64953015  0.85994806  1.0
  I  I146  1  0.58299646  0.04554986  0.29798968  1.0
  I  I147  1  0.03098365  0.40781872  0.30023542  1.0
  I  I148  1  0.58482700  0.63209068  0.30909493  1.0
  I  I149  1  0.54926178  0.00688261  0.16694426  1.0
  I  I150  1  0.03813391  0.33872503  0.17008319  1.0
  I  I151  1  0.56707606  0.65401591  0.17259184  1.0
  Br  Br152  1  0.93060842  0.67201078  0.89187450  1.0
  Br  Br153  1  0.69119527  0.37232224  0.90601518  1.0
  Br  Br154  1  0.39653320  0.93444527  0.89874888  1.0
  Br  Br155  1  0.03811604  0.50161220  0.70582565  1.0
  Br  Br156  1  0.49084114  0.50865975  0.72265880  1.0
  Br  Br157  1  0.49555935  0.04049144  0.71028158  1.0
  Br  Br158  1  0.68552280  0.13526670  0.64013270  1.0
  Br  Br159  1  0.13455932  0.22424464  0.65255343  1.0
  Br  Br160  1  0.19658101  0.66677978  0.65216844  1.0
  Br  Br161  1  0.94945132  0.93276270  0.17170424  1.0
  Br  Br162  1  0.99486282  0.04697495  0.27823579  1.0
  Br  Br163  1  0.19482446  0.68611046  0.22857030  1.0
  O  O164  1  0.48393311  0.70462627  0.44170319  1.0
  O  O165  1  0.67618446  0.84671325  0.43935092  1.0
  O  O166  1  0.83362431  0.51049694  0.44515846  1.0
  O  O167  1  0.04707614  0.09588693  0.05325706  1.0
  O  O168  1  0.15017065  0.78311523  0.03810586  1.0
  O  O169  1  0.81963909  0.99021200  0.02499412  1.0
  O  O170  1  0.66734310  0.51473773  0.44320953  1.0
  O  O171  1  0.48709344  0.86206800  0.45060660  1.0
  O  O172  1  0.82880519  0.69285177  0.44293916  1.0
  O  O173  1  0.47838518  0.71561647  0.54526291  1.0
  O  O174  1  0.70824967  0.83199119  0.53569005  1.0
  O  O175  1  0.82322131  0.50252933  0.54428401  1.0
  O  O176  1  0.65246566  0.52342941  0.55366931  1.0
  O  O177  1  0.51705893  0.85496897  0.54862512  1.0
  O  O178  1  0.84774935  0.66977430  0.54151939  1.0
  O  O179  1  0.65862815  0.67834409  0.49420971  1.0
  O  O180  1  0.02165626  0.15898478  0.94509775  1.0
  O  O181  1  0.18369653  0.79612549  0.94191492  1.0
  O  O182  1  0.84082242  0.99347681  0.93076749  1.0
  O  O183  1  0.18507017  0.95354760  0.92991594  1.0
  O  O184  1  0.98666731  0.83899030  0.92448829  1.0
  O  O185  1  0.85772464  0.16449925  0.93788699  1.0
  O  O186  1  0.02009041  0.97747253  0.98615984  1.0
  O  O187  1  0.21319063  0.90688456  0.03287057  1.0
  O  O188  1  0.95278591  0.82388039  0.02000104  1.0
  O  O189  1  0.87031636  0.13873696  0.04002199  1.0
  O  O190  1  0.48483810  0.54604650  0.49560347  1.0
  O  O191  1  0.21474233  0.08269924  0.99488388  1.0
