# generated using pymatgen
data_Zn4H10C24Br2O13
_symmetry_space_group_name_H-M   'P 1'
_cell_length_a   10.83939518
_cell_length_b   10.85911423
_cell_length_c   15.40788710
_cell_angle_alpha   70.73290022
_cell_angle_beta   86.22772056
_cell_angle_gamma   83.77526072
_symmetry_Int_Tables_number   1
_chemical_formula_structural   Zn4H10C24Br2O13
_chemical_formula_sum   'Zn4 H10 C24 Br2 O13'
_cell_volume   1701.06106657
_cell_formula_units_Z   1
loop_
 _symmetry_equiv_pos_site_id
 _symmetry_equiv_pos_as_xyz
  1  'x, y, z'
loop_
 _atom_site_type_symbol
 _atom_site_label
 _atom_site_symmetry_multiplicity
 _atom_site_fract_x
 _atom_site_fract_y
 _atom_site_fract_z
 _atom_site_occupancy
  Zn  Zn0  1  0.39821794  0.86211754  0.58500336  1.0
  Zn  Zn1  1  0.38906744  0.15188986  0.43370525  1.0
  Zn  Zn2  1  0.59849090  0.93854507  0.41299845  1.0
  Zn  Zn3  1  0.59709568  0.04356026  0.58942962  1.0
  H  H4  1  0.45921837  0.44714845  0.61664693  1.0
  H  H5  1  0.51852348  0.54290073  0.40707497  1.0
  H  H6  1  0.99620876  0.03838164  0.38926367  1.0
  H  H7  1  0.98588740  0.01269633  0.59559147  1.0
  H  H8  1  0.48078011  0.35349640  0.81939087  1.0
  H  H9  1  0.45986549  0.15675294  0.94669480  1.0
  H  H10  1  0.50365129  0.38716002  0.16938906  1.0
  H  H11  1  0.62081517  0.91305343  0.87312296  1.0
  H  H12  1  0.65696380  0.79744814  0.03920545  1.0
  H  H13  1  0.50251043  0.58946515  0.75826376  1.0
  C  C14  1  0.47612560  0.31061457  0.53654360  1.0
  C  C15  1  0.50198022  0.33854275  0.11840137  1.0
  C  C16  1  0.47240195  0.13851766  0.08884925  1.0
  C  C17  1  0.50139641  0.67849075  0.48728422  1.0
  C  C18  1  0.55760796  0.74606051  0.85052454  1.0
  C  C19  1  0.49714717  0.54844696  0.47595026  1.0
  C  C20  1  0.47392333  0.44193674  0.54713202  1.0
  C  C21  1  0.95697170  0.03236177  0.45739649  1.0
  C  C22  1  0.02771385  0.02649757  0.52698531  1.0
  C  C23  1  0.16534419  0.02337720  0.51937506  1.0
  C  C24  1  0.82162432  0.01876843  0.47276642  1.0
  C  C25  1  0.62094370  0.74663362  0.99749224  1.0
  C  C26  1  0.48117485  0.14320708  0.25397646  1.0
  C  C27  1  0.53375201  0.82526781  0.75242577  1.0
  C  C28  1  0.47583257  0.20603648  0.99562219  1.0
  C  C29  1  0.48326271  0.20597652  0.15175854  1.0
  C  C30  1  0.60119748  0.81126440  0.90440735  1.0
  C  C31  1  0.59553866  0.61691255  0.03781530  1.0
  C  C32  1  0.54853344  0.54415968  0.98727314  1.0
  C  C33  1  0.53527381  0.61137461  0.88977480  1.0
  C  C34  1  0.51794322  0.40824888  0.02400653  1.0
  C  C35  1  0.49798350  0.33969511  0.96194113  1.0
  C  C36  1  0.49594170  0.40778131  0.86550485  1.0
  C  C37  1  0.50913078  0.53839342  0.83167024  1.0
  Br  Br38  1  0.44096443  0.95902604  0.12814835  1.0
  Br  Br39  1  0.64281179  0.54829336  0.16393507  1.0
  O  O40  1  0.49641674  0.99879905  0.50441688  1.0
  O  O41  1  0.41723677  0.20729157  0.30019654  1.0
  O  O42  1  0.60552518  0.91548005  0.71404505  1.0
  O  O43  1  0.54660337  0.03468611  0.28625596  1.0
  O  O44  1  0.44163941  0.80119275  0.71502402  1.0
  O  O45  1  0.22195767  0.92744122  0.58011137  1.0
  O  O46  1  0.76853508  0.04995747  0.53996420  1.0
  O  O47  1  0.42482770  0.30501249  0.46606402  1.0
  O  O48  1  0.57133115  0.75589050  0.42950962  1.0
  O  O49  1  0.52990076  0.21527152  0.59957717  1.0
  O  O50  1  0.43481794  0.70097026  0.55290565  1.0
  O  O51  1  0.21354014  0.11395675  0.45518728  1.0
  O  O52  1  0.77136592  0.97547874  0.41712682  1.0
