# generated using pymatgen
data_Zn3H32C52(NO6)2
_symmetry_space_group_name_H-M   'P 1'
_cell_length_a   14.24841202
_cell_length_b   18.11591820
_cell_length_c   25.93225269
_cell_angle_alpha   89.99939218
_cell_angle_beta   89.99979065
_cell_angle_gamma   89.99901018
_symmetry_Int_Tables_number   1
_chemical_formula_structural   Zn3H32C52(NO6)2
_chemical_formula_sum   'Zn12 H128 C208 N8 O48'
_cell_volume   6693.71258766
_cell_formula_units_Z   4
loop_
 _symmetry_equiv_pos_site_id
 _symmetry_equiv_pos_as_xyz
  1  'x, y, z'
loop_
 _atom_site_type_symbol
 _atom_site_label
 _atom_site_symmetry_multiplicity
 _atom_site_fract_x
 _atom_site_fract_y
 _atom_site_fract_z
 _atom_site_occupancy
  Zn  Zn0  1  0.47033139  0.94125424  0.35288398  1.0
  Zn  Zn1  1  0.02965472  0.44125711  0.14711550  1.0
  Zn  Zn2  1  0.52967130  0.55873996  0.35288264  1.0
  Zn  Zn3  1  0.97033635  0.05874840  0.14711594  1.0
  Zn  Zn4  1  0.52966388  0.05874540  0.64711384  1.0
  Zn  Zn5  1  0.97034756  0.55874529  0.85288464  1.0
  Zn  Zn6  1  0.47033519  0.44125361  0.64711634  1.0
  Zn  Zn7  1  0.02965610  0.94125510  0.85288381  1.0
  Zn  Zn8  1  0.49999994  0.75000068  0.35398483  1.0
  Zn  Zn9  1  0.00000017  0.24999956  0.14601452  1.0
  Zn  Zn10  1  0.49999884  0.24999841  0.64601530  1.0
  Zn  Zn11  1  0.00000085  0.75000084  0.85398896  1.0
  H  H12  1  0.53691944  0.05803440  0.42565872  1.0
  H  H13  1  0.96305805  0.55804084  0.07434526  1.0
  H  H14  1  0.46306983  0.44196521  0.42564851  1.0
  H  H15  1  0.03693802  0.94196754  0.07434711  1.0
  H  H16  1  0.46306389  0.94196413  0.57434797  1.0
  H  H17  1  0.03694424  0.44196322  0.92565179  1.0
  H  H18  1  0.53693175  0.55803498  0.57434584  1.0
  H  H19  1  0.96305093  0.05803541  0.92565765  1.0
  H  H20  1  0.55150622  0.19628507  0.42826923  1.0
  H  H21  1  0.94848369  0.69629396  0.07173296  1.0
  H  H22  1  0.44848234  0.30371506  0.42826315  1.0
  H  H23  1  0.05151099  0.80371667  0.07173156  1.0
  H  H24  1  0.44848273  0.80371346  0.57173669  1.0
  H  H25  1  0.05151578  0.30371010  0.92826563  1.0
  H  H26  1  0.55151363  0.69628679  0.57173274  1.0
  H  H27  1  0.94848217  0.19629070  0.92826819  1.0
  H  H28  1  0.43682161  0.20030891  0.27381457  1.0
  H  H29  1  0.06318590  0.70031408  0.22618053  1.0
  H  H30  1  0.56318619  0.29968087  0.27381638  1.0
  H  H31  1  0.93681901  0.79969032  0.22618389  1.0
  H  H32  1  0.56318348  0.79968907  0.72618364  1.0
  H  H33  1  0.93681498  0.29969273  0.77381845  1.0
  H  H34  1  0.43681820  0.70031159  0.72618260  1.0
  H  H35  1  0.06318187  0.20030987  0.77381741  1.0
  H  H36  1  0.42457121  0.06240593  0.27877262  1.0
  H  H37  1  0.07542668  0.56241211  0.22122966  1.0
  H  H38  1  0.57543094  0.43758378  0.27876221  1.0
  H  H39  1  0.92458177  0.93759403  0.22123164  1.0
  H  H40  1  0.57542686  0.93759206  0.72123214  1.0
  H  H41  1  0.92457911  0.43759415  0.77876739  1.0
  H  H42  1  0.42457134  0.56241089  0.72123176  1.0
  H  H43  1  0.07541630  0.06240616  0.77877042  1.0
  H  H44  1  0.38719440  0.51291384  0.49742227  1.0
  H  H45  1  0.11280246  0.01291170  0.00257152  1.0
  H  H46  1  0.61278981  0.98708147  0.49742452  1.0
  H  H47  1  0.88719727  0.48707835  0.00257359  1.0
  H  H48  1  0.61280578  0.48708746  0.50257749  1.0
  H  H49  1  0.88720333  0.98709015  0.99742824  1.0
  H  H50  1  0.38719493  0.01291651  0.50257369  1.0
  H  H51  1  0.11280782  0.51291246  0.99743117  1.0
  H  H52  1  0.29477892  0.51393284  0.57884259  1.0
  H  H53  1  0.20521890  0.01393080  0.92115262  1.0
  H  H54  1  0.70520968  0.98606785  0.57884235  1.0
  H  H55  1  0.79478541  0.48606017  0.92115297  1.0
  H  H56  1  0.70522266  0.48607287  0.42115871  1.0
  H  H57  1  0.79479321  0.98607380  0.07885060  1.0
  H  H58  1  0.29478489  0.01393123  0.42115355  1.0
  H  H59  1  0.20522389  0.51393064  0.07884987  1.0
  H  H60  1  0.24958051  0.74782924  0.56121970  1.0
  H  H61  1  0.25043116  0.24781969  0.93877995  1.0
  H  H62  1  0.75042855  0.75217835  0.56122148  1.0
  H  H63  1  0.74958287  0.25216825  0.93877749  1.0
  H  H64  1  0.75041967  0.25217702  0.43877774  1.0
  H  H65  1  0.74957183  0.75217940  0.06122597  1.0
  H  H66  1  0.24957443  0.24782516  0.43877403  1.0
  H  H67  1  0.25043555  0.74782090  0.06121917  1.0
  H  H68  1  0.34346564  0.74584754  0.47990890  1.0
  H  H69  1  0.15654579  0.24584288  0.02009011  1.0
  H  H70  1  0.65654254  0.75415190  0.47991317  1.0
  H  H71  1  0.84346084  0.25414745  0.02008937  1.0
  H  H72  1  0.65653524  0.25415321  0.52008854  1.0
  H  H73  1  0.84345579  0.75415952  0.97991312  1.0
  H  H74  1  0.34345413  0.24584773  0.52008774  1.0
  H  H75  1  0.15654846  0.74584280  0.97991000  1.0
  H  H76  1  0.14776580  0.52598983  0.61443428  1.0
  H  H77  1  0.35223737  0.02598080  0.88556470  1.0
  H  H78  1  0.85224362  0.97401143  0.61443074  1.0
  H  H79  1  0.64776717  0.47400685  0.88556351  1.0
  H  H80  1  0.85224070  0.47401368  0.38556855  1.0
  H  H81  1  0.64776701  0.97402271  0.11443313  1.0
  H  H82  1  0.14776287  0.02598986  0.38556747  1.0
  H  H83  1  0.35223652  0.52598395  0.11443894  1.0
  H  H84  1  0.26488167  0.74042781  0.64685400  1.0
  H  H85  1  0.23512033  0.24042419  0.85314378  1.0
  H  H86  1  0.73511351  0.75958013  0.64685499  1.0
  H  H87  1  0.76489495  0.25957058  0.85314046  1.0
  H  H88  1  0.73511290  0.25958176  0.35314344  1.0
  H  H89  1  0.76488055  0.75958263  0.14686021  1.0
  H  H90  1  0.26488106  0.24042503  0.35314052  1.0
  H  H91  1  0.23512137  0.74042354  0.14685620  1.0
  H  H92  1  0.16012303  0.93059145  0.31367641  1.0
  H  H93  1  0.33987314  0.43059335  0.18632354  1.0
  H  H94  1  0.83987921  0.56941052  0.31368051  1.0
  H  H95  1  0.66012470  0.06940881  0.18632493  1.0
  H  H96  1  0.83987364  0.06940432  0.68631486  1.0
  H  H97  1  0.66013406  0.56940629  0.81368393  1.0
  H  H98  1  0.16012798  0.43058249  0.68632348  1.0
  H  H99  1  0.33987127  0.93058752  0.81367598  1.0
  H  H100  1  0.00080064  0.87408095  0.30910217  1.0
  H  H101  1  0.49919606  0.37408005  0.19089819  1.0
  H  H102  1  0.99919952  0.62592385  0.30910013  1.0
  H  H103  1  0.50079824  0.12592149  0.19089872  1.0
  H  H104  1  0.99919883  0.12591317  0.69089102  1.0
  H  H105  1  0.50080833  0.62591738  0.80910541  1.0
  H  H106  1  0.00080206  0.37407413  0.69089731  1.0
  H  H107  1  0.49919632  0.87407760  0.80910334  1.0
  H  H108  1  0.11704867  0.66707065  0.36098107  1.0
  H  H109  1  0.38294974  0.16707324  0.13901967  1.0
  H  H110  1  0.88295397  0.83293281  0.36098275  1.0
  H  H111  1  0.61704209  0.33293240  0.13902036  1.0
  H  H112  1  0.88295291  0.33293009  0.63901907  1.0
  H  H113  1  0.61704552  0.83293137  0.86097931  1.0
  H  H114  1  0.11705323  0.16706407  0.63901623  1.0
  H  H115  1  0.38295458  0.66706669  0.86098017  1.0
  H  H116  1  0.27569799  0.72450632  0.36500773  1.0
  H  H117  1  0.22430268  0.22451224  0.13499105  1.0
  H  H118  1  0.72430532  0.77549598  0.36501325  1.0
  H  H119  1  0.77569479  0.27549567  0.13499569  1.0
  H  H120  1  0.72430710  0.27549498  0.63498817  1.0
  H  H121  1  0.77569750  0.77549679  0.86501179  1.0
  H  H122  1  0.27569907  0.22449759  0.63498882  1.0
  H  H123  1  0.22430468  0.72450342  0.86500484  1.0
  H  H124  1  0.06321220  0.52958605  0.69864879  1.0
  H  H125  1  0.43679229  0.02957935  0.80134978  1.0
  H  H126  1  0.93680159  0.97041117  0.69864472  1.0
  H  H127  1  0.56320789  0.47040958  0.80135303  1.0
  H  H128  1  0.93679991  0.47041635  0.30135405  1.0
  H  H129  1  0.56319946  0.97042636  0.19864535  1.0
  H  H130  1  0.06319508  0.02958957  0.30135581  1.0
  H  H131  1  0.43679510  0.52958012  0.19865289  1.0
  H  H132  1  0.17832225  0.74326229  0.73038365  1.0
  H  H133  1  0.32168250  0.24325655  0.76961334  1.0
  H  H134  1  0.82167449  0.75674217  0.73038409  1.0
  H  H135  1  0.67832350  0.25673728  0.76961369  1.0
  H  H136  1  0.82167793  0.25674783  0.26961456  1.0
  H  H137  1  0.67830715  0.75674861  0.23038603  1.0
  H  H138  1  0.17830744  0.24326299  0.26961450  1.0
  H  H139  1  0.32168510  0.74326015  0.23038529  1.0
  C  C140  1  0.51574909  0.09240236  0.39322449  1.0
  C  C141  1  0.98423607  0.59240856  0.10677770  1.0
  C  C142  1  0.48424390  0.40759830  0.39321603  1.0
  C  C143  1  0.01576260  0.90759987  0.10677831  1.0
  C  C144  1  0.48424126  0.90759949  0.60678143  1.0
  C  C145  1  0.01576130  0.40759770  0.89321858  1.0
  C  C146  1  0.51575839  0.59240355  0.60677832  1.0
  C  C147  1  0.98423267  0.09240529  0.89322299  1.0
  C  C148  1  0.52340104  0.16874124  0.39424725  1.0
  C  C149  1  0.97658947  0.66875419  0.10575553  1.0
  C  C150  1  0.47659265  0.33125168  0.39424014  1.0
  C  C151  1  0.02340569  0.83125812  0.10575437  1.0
  C  C152  1  0.47659493  0.83125674  0.60575675  1.0
  C  C153  1  0.02340579  0.33125152  0.89424345  1.0
  C  C154  1  0.52340753  0.66874796  0.60575614  1.0
  C  C155  1  0.97658747  0.16874869  0.89424499  1.0
  C  C156  1  0.49623210  0.20942918  0.35074955  1.0
  C  C157  1  0.00376469  0.70943744  0.14925087  1.0
  C  C158  1  0.50376679  0.29056219  0.35074809  1.0
  C  C159  1  0.99622949  0.79057256  0.14924993  1.0
  C  C160  1  0.50377300  0.79056770  0.64924943  1.0
  C  C161  1  0.99622777  0.29056717  0.85075004  1.0
  C  C162  1  0.49623550  0.70943248  0.64925205  1.0
  C  C163  1  0.00376297  0.20943316  0.85074828  1.0
  C  C164  1  0.46086661  0.17095143  0.30804307  1.0
  C  C165  1  0.03913453  0.67095856  0.19195494  1.0
  C  C166  1  0.53913466  0.32903949  0.30804009  1.0
  C  C167  1  0.96086780  0.82904858  0.19195456  1.0
  C  C168  1  0.53913357  0.82904379  0.69195630  1.0
  C  C169  1  0.96086565  0.32904439  0.80804481  1.0
  C  C170  1  0.46086833  0.67095353  0.69195735  1.0
  C  C171  1  0.03913098  0.17095492  0.80804480  1.0
  C  C172  1  0.45369400  0.09454628  0.31053408  1.0
  C  C173  1  0.04629898  0.59454948  0.18946758  1.0
  C  C174  1  0.54630584  0.40544681  0.31052512  1.0
  C  C175  1  0.95370477  0.90545548  0.18946974  1.0
  C  C176  1  0.54630267  0.90545336  0.68946991  1.0
  C  C177  1  0.95370261  0.40545457  0.81052947  1.0
  C  C178  1  0.45369785  0.59454621  0.68946923  1.0
  C  C179  1  0.04629260  0.09454526  0.81053233  1.0
  C  C180  1  0.37133246  0.62963792  0.48383452  1.0
  C  C181  1  0.12868011  0.12963480  0.01616109  1.0
  C  C182  1  0.62866307  0.87035926  0.48383992  1.0
  C  C183  1  0.87132796  0.37035448  0.01616252  1.0
  C  C184  1  0.62866912  0.37036172  0.51616214  1.0
  C  C185  1  0.87132920  0.87036594  0.98384251  1.0
  C  C186  1  0.37132237  0.12964369  0.51616253  1.0
  C  C187  1  0.12867433  0.62963301  0.98384224  1.0
  C  C188  1  0.35632720  0.56417549  0.51142475  1.0
  C  C189  1  0.14367584  0.06417050  0.98857009  1.0
  C  C190  1  0.64366464  0.93582347  0.51142925  1.0
  C  C191  1  0.85632874  0.43581668  0.98857107  1.0
  C  C192  1  0.64367298  0.43582746  0.48857307  1.0
  C  C193  1  0.85632995  0.93583134  0.01143159  1.0
  C  C194  1  0.35632712  0.06417286  0.48856973  1.0
  C  C195  1  0.14367705  0.56417302  0.01143215  1.0
  C  C196  1  0.30382014  0.56470487  0.55674481  1.0
  C  C197  1  0.19618288  0.06470207  0.94324848  1.0
  C  C198  1  0.69617281  0.93529671  0.55674574  1.0
  C  C199  1  0.80382340  0.43528691  0.94324996  1.0
  C  C200  1  0.69618214  0.43529918  0.44325378  1.0
  C  C201  1  0.80382642  0.93530088  0.05675165  1.0
  C  C202  1  0.30381895  0.06470458  0.44325132  1.0
  C  C203  1  0.19618591  0.56469837  0.05675327  1.0
  C  C204  1  0.26578214  0.63096771  0.57588679  1.0
  C  C205  1  0.23422225  0.13096522  0.92411103  1.0
  C  C206  1  0.73421630  0.86903469  0.57588581  1.0
  C  C207  1  0.76578415  0.36902460  0.92410960  1.0
  C  C208  1  0.73421804  0.36903745  0.42411219  1.0
  C  C209  1  0.76578073  0.86903938  0.07589065  1.0
  C  C210  1  0.26578247  0.13096550  0.42410738  1.0
  C  C211  1  0.23422585  0.63096400  0.07589016  1.0
  C  C212  1  0.28098391  0.69637825  0.54777212  1.0
  C  C213  1  0.21902677  0.19637499  0.95222482  1.0
  C  C214  1  0.71902103  0.80362292  0.54777552  1.0
  C  C215  1  0.78098436  0.30361496  0.95222231  1.0
  C  C216  1  0.71901697  0.30362194  0.45222339  1.0
  C  C217  1  0.78097832  0.80362686  0.04777956  1.0
  C  C218  1  0.28097775  0.19637948  0.45222153  1.0
  C  C219  1  0.21903126  0.69637364  0.04777668  1.0
  C  C220  1  0.33268386  0.69572522  0.50240270  1.0
  C  C221  1  0.16732473  0.19572088  0.99759849  1.0
  C  C222  1  0.66731716  0.80427167  0.50240466  1.0
  C  C223  1  0.83268471  0.30426783  0.99759586  1.0
  C  C224  1  0.66731211  0.30427662  0.49759551  1.0
  C  C225  1  0.83268387  0.80427821  0.00240666  1.0
  C  C226  1  0.33267670  0.19572411  0.49759394  1.0
  C  C227  1  0.16732459  0.69572133  0.00240273  1.0
  C  C228  1  0.21279641  0.63278985  0.62472332  1.0
  C  C229  1  0.28720443  0.13278684  0.87527371  1.0
  C  C230  1  0.78720242  0.86721346  0.62472302  1.0
  C  C231  1  0.71279948  0.36720925  0.87527395  1.0
  C  C232  1  0.78720096  0.36721420  0.37527527  1.0
  C  C233  1  0.71280136  0.86721943  0.12472681  1.0
  C  C234  1  0.21279495  0.13279004  0.37527287  1.0
  C  C235  1  0.28720632  0.63278984  0.12472619  1.0
  C  C236  1  0.15530990  0.57354500  0.63986421  1.0
  C  C237  1  0.34469083  0.07353590  0.86013249  1.0
  C  C238  1  0.84469585  0.92645643  0.63986258  1.0
  C  C239  1  0.65531247  0.42645489  0.86013434  1.0
  C  C240  1  0.84469379  0.42646127  0.36013709  1.0
  C  C241  1  0.65530934  0.92646705  0.13986610  1.0
  C  C242  1  0.15530573  0.07354431  0.36013602  1.0
  C  C243  1  0.34469262  0.57353923  0.13986811  1.0
  C  C244  1  0.21972201  0.69433377  0.65765428  1.0
  C  C245  1  0.28028310  0.19432804  0.84234153  1.0
  C  C246  1  0.78027800  0.80567456  0.65765560  1.0
  C  C247  1  0.71972664  0.30566634  0.84234220  1.0
  C  C248  1  0.78027816  0.30567580  0.34234393  1.0
  C  C249  1  0.71971638  0.80567602  0.15766054  1.0
  C  C250  1  0.21971446  0.19433115  0.34234183  1.0
  C  C251  1  0.28028266  0.69432999  0.15765639  1.0
  C  C252  1  0.31901921  0.86791651  0.34639057  1.0
  C  C253  1  0.18097061  0.36791555  0.15360946  1.0
  C  C254  1  0.68098282  0.63208607  0.34639762  1.0
  C  C255  1  0.81902323  0.13209151  0.15361237  1.0
  C  C256  1  0.68097746  0.13208921  0.65360224  1.0
  C  C257  1  0.81902887  0.63208850  0.84639608  1.0
  C  C258  1  0.31902578  0.36790639  0.65360637  1.0
  C  C259  1  0.18097274  0.86791088  0.84638931  1.0
  C  C260  1  0.22661635  0.83128366  0.34017846  1.0
  C  C261  1  0.27337988  0.33128576  0.15982261  1.0
  C  C262  1  0.77338783  0.66871902  0.34018273  1.0
  C  C263  1  0.72661462  0.16871735  0.15982429  1.0
  C  C264  1  0.77338593  0.16871709  0.65981705  1.0
  C  C265  1  0.72662310  0.66871719  0.84018331  1.0
  C  C266  1  0.22662007  0.33127676  0.65981856  1.0
  C  C267  1  0.27337784  0.83128284  0.84017932  1.0
  C  C268  1  0.14914486  0.87299735  0.32400393  1.0
  C  C269  1  0.35084906  0.37299760  0.17599606  1.0
  C  C270  1  0.85085591  0.62700778  0.32400566  1.0
  C  C271  1  0.64914814  0.12700913  0.17599782  1.0
  C  C272  1  0.85085462  0.12700284  0.67599081  1.0
  C  C273  1  0.64915322  0.62700480  0.82400716  1.0
  C  C274  1  0.14914918  0.37298744  0.67599602  1.0
  C  C275  1  0.35084993  0.87299327  0.82400348  1.0
  C  C276  1  0.06065325  0.84111551  0.32164029  1.0
  C  C277  1  0.43934207  0.34111341  0.17835955  1.0
  C  C278  1  0.93934965  0.65889075  0.32164121  1.0
  C  C279  1  0.56065301  0.15888776  0.17836126  1.0
  C  C280  1  0.93934483  0.15888192  0.67835407  1.0
  C  C281  1  0.56065951  0.65888457  0.82164483  1.0
  C  C282  1  0.06065685  0.34110336  0.67835661  1.0
  C  C283  1  0.43934295  0.84111409  0.82164081  1.0
  C  C284  1  0.04732411  0.76651978  0.33500694  1.0
  C  C285  1  0.45267494  0.26651660  0.16499383  1.0
  C  C286  1  0.95267448  0.73348573  0.33500690  1.0
  C  C287  1  0.54732023  0.23348588  0.16499347  1.0
  C  C288  1  0.95267537  0.23347765  0.66498934  1.0
  C  C289  1  0.54732314  0.73348249  0.83500862  1.0
  C  C290  1  0.04732640  0.26651115  0.66499169  1.0
  C  C291  1  0.45267293  0.76651762  0.83500744  1.0
  C  C292  1  0.12624209  0.72462007  0.34966174  1.0
  C  C293  1  0.37375717  0.22462260  0.15033780  1.0
  C  C294  1  0.87376133  0.77538191  0.34966387  1.0
  C  C295  1  0.62623669  0.27538121  0.15033890  1.0
  C  C296  1  0.87376020  0.27538178  0.65033878  1.0
  C  C297  1  0.62623949  0.77537869  0.84966388  1.0
  C  C298  1  0.12624447  0.22461221  0.65033704  1.0
  C  C299  1  0.37375928  0.72461899  0.84966163  1.0
  C  C300  1  0.21499759  0.75645829  0.35245188  1.0
  C  C301  1  0.28500028  0.25645932  0.14754782  1.0
  C  C302  1  0.78500300  0.74354254  0.35245789  1.0
  C  C303  1  0.71499641  0.24354674  0.14755050  1.0
  C  C304  1  0.78500259  0.24354246  0.64754363  1.0
  C  C305  1  0.71499920  0.74354418  0.85245579  1.0
  C  C306  1  0.21500420  0.25645102  0.64754340  1.0
  C  C307  1  0.28500167  0.75645566  0.85245079  1.0
  C  C308  1  0.06915040  0.63767879  0.77109138  1.0
  C  C309  1  0.43085735  0.13766721  0.72891063  1.0
  C  C310  1  0.93085099  0.86232229  0.77108657  1.0
  C  C311  1  0.56913908  0.36232283  0.72891429  1.0
  C  C312  1  0.93085048  0.36232968  0.22890992  1.0
  C  C313  1  0.56913370  0.86233078  0.27108681  1.0
  C  C314  1  0.06913726  0.13768121  0.22891279  1.0
  C  C315  1  0.43086180  0.63767902  0.27108855  1.0
  C  C316  1  0.11674746  0.63617686  0.71967274  1.0
  C  C317  1  0.38325962  0.13616680  0.78032388  1.0
  C  C318  1  0.88325496  0.86382942  0.71967226  1.0
  C  C319  1  0.61673999  0.36382466  0.78032743  1.0
  C  C320  1  0.88325763  0.36383492  0.28032701  1.0
  C  C321  1  0.61673495  0.86384001  0.21967317  1.0
  C  C322  1  0.11673399  0.13617353  0.28032787  1.0
  C  C323  1  0.38326159  0.63617057  0.21967464  1.0
  C  C324  1  0.10792269  0.57528597  0.68672173  1.0
  C  C325  1  0.39208081  0.07527971  0.81327727  1.0
  C  C326  1  0.89208416  0.92471198  0.68672001  1.0
  C  C327  1  0.60791999  0.42471070  0.81327961  1.0
  C  C328  1  0.89208451  0.42471753  0.31327957  1.0
  C  C329  1  0.60791726  0.92472600  0.18672055  1.0
  C  C330  1  0.10790970  0.07528766  0.31328205  1.0
  C  C331  1  0.39208229  0.57528232  0.18672361  1.0
  C  C332  1  0.17235937  0.69614706  0.70446321  1.0
  C  C333  1  0.32764430  0.19614139  0.79553219  1.0
  C  C334  1  0.82763824  0.80385559  0.70446638  1.0
  C  C335  1  0.67236294  0.30384983  0.79553337  1.0
  C  C336  1  0.82764010  0.30386086  0.29553307  1.0
  C  C337  1  0.67234957  0.80386597  0.20446756  1.0
  C  C338  1  0.17234931  0.19614571  0.29553376  1.0
  C  C339  1  0.32764496  0.69614539  0.20446677  1.0
  C  C340  1  0.42594008  0.63162623  0.43452097  1.0
  C  C341  1  0.07406612  0.13162642  0.06547579  1.0
  C  C342  1  0.57405857  0.86836673  0.43452379  1.0
  C  C343  1  0.92593671  0.36836433  0.06547558  1.0
  C  C344  1  0.57406360  0.36837397  0.56547686  1.0
  C  C345  1  0.92593195  0.86837211  0.93452511  1.0
  C  C346  1  0.42593178  0.13162794  0.56547364  1.0
  C  C347  1  0.07406347  0.63162427  0.93452918  1.0
  N  N348  1  0.48136053  0.05588585  0.35214454  1.0
  N  N349  1  0.01862697  0.55589062  0.14785934  1.0
  N  N350  1  0.51863694  0.44410881  0.35213381  1.0
  N  N351  1  0.98137143  0.94411664  0.14786076  1.0
  N  N352  1  0.51863544  0.94411268  0.64786022  1.0
  N  N353  1  0.98137531  0.44411399  0.85213810  1.0
  N  N354  1  0.48136675  0.55588917  0.64785900  1.0
  N  N355  1  0.01862103  0.05588742  0.85214207  1.0
  O  O356  1  0.32552796  0.93786604  0.33976496  1.0
  O  O357  1  0.17446173  0.43786950  0.16023416  1.0
  O  O358  1  0.67447902  0.56213332  0.33977602  1.0
  O  O359  1  0.82553207  0.06213582  0.16023758  1.0
  O  O360  1  0.67447151  0.06213194  0.66022785  1.0
  O  O361  1  0.82554266  0.56213566  0.83976906  1.0
  O  O362  1  0.32553098  0.43786135  0.66023800  1.0
  O  O363  1  0.17445899  0.93786327  0.83975986  1.0
  O  O364  1  0.02879142  0.57752799  0.78537193  1.0
  O  O365  1  0.47122677  0.07752546  0.71462976  1.0
  O  O366  1  0.97120847  0.92246846  0.78537084  1.0
  O  O367  1  0.52878310  0.42246866  0.71462842  1.0
  O  O368  1  0.97121226  0.42247551  0.21463091  1.0
  O  O369  1  0.52877271  0.92248026  0.28536845  1.0
  O  O370  1  0.02878259  0.07753118  0.21463007  1.0
  O  O371  1  0.47122901  0.57753043  0.28536979  1.0
  O  O372  1  0.46473600  0.57085300  0.41982864  1.0
  O  O373  1  0.03526732  0.07085185  0.08016356  1.0
  O  O374  1  0.53526205  0.92914184  0.41983379  1.0
  O  O375  1  0.96472699  0.42913978  0.08016822  1.0
  O  O376  1  0.53526629  0.42914554  0.58016687  1.0
  O  O377  1  0.96472794  0.92914779  0.91983311  1.0
  O  O378  1  0.46472620  0.07085670  0.58016750  1.0
  O  O379  1  0.03527389  0.57085103  0.91983655  1.0
  O  O380  1  0.42850329  0.69249164  0.41108159  1.0
  O  O381  1  0.07150229  0.19248876  0.08891858  1.0
  O  O382  1  0.57149902  0.80750278  0.41108333  1.0
  O  O383  1  0.92850320  0.30749998  0.08891611  1.0
  O  O384  1  0.57150531  0.30750745  0.58892048  1.0
  O  O385  1  0.92849368  0.80751144  0.91108387  1.0
  O  O386  1  0.42849835  0.19249576  0.58891411  1.0
  O  O387  1  0.07149066  0.69249193  0.91108749  1.0
  O  O388  1  0.39137991  0.83121724  0.36001150  1.0
  O  O389  1  0.10861562  0.33121970  0.13998957  1.0
  O  O390  1  0.60862063  0.66878347  0.36001419  1.0
  O  O391  1  0.89137760  0.16878261  0.13999206  1.0
  O  O392  1  0.60862097  0.16878295  0.63998015  1.0
  O  O393  1  0.89138737  0.66878491  0.86001520  1.0
  O  O394  1  0.39138166  0.33121948  0.63998016  1.0
  O  O395  1  0.10861836  0.83121482  0.86001618  1.0
  O  O396  1  0.07386248  0.69697614  0.79654671  1.0
  O  O397  1  0.42613837  0.19696666  0.70345062  1.0
  O  O398  1  0.92614858  0.80302180  0.79654236  1.0
  O  O399  1  0.57384279  0.30301327  0.70345856  1.0
  O  O400  1  0.92614121  0.30303123  0.20345458  1.0
  O  O401  1  0.57384848  0.80303463  0.29654451  1.0
  O  O402  1  0.07384669  0.19697950  0.20345740  1.0
  O  O403  1  0.42614686  0.69697588  0.29654505  1.0
