# generated using pymatgen
data_ZnH16C22NO4
_symmetry_space_group_name_H-M   'P 1'
_cell_length_a   20.17103859
_cell_length_b   20.17103262
_cell_length_c   20.56328980
_cell_angle_alpha   61.25867713
_cell_angle_beta   61.25872532
_cell_angle_gamma   65.88234099
_symmetry_Int_Tables_number   1
_chemical_formula_structural   ZnH16C22NO4
_chemical_formula_sum   'Zn8 H128 C176 N8 O32'
_cell_volume   6258.48681523
_cell_formula_units_Z   8
loop_
 _symmetry_equiv_pos_site_id
 _symmetry_equiv_pos_as_xyz
  1  'x, y, z'
loop_
 _atom_site_type_symbol
 _atom_site_label
 _atom_site_symmetry_multiplicity
 _atom_site_fract_x
 _atom_site_fract_y
 _atom_site_fract_z
 _atom_site_occupancy
  Zn  Zn0  1  0.64505592  0.17348293  0.98511982  1.0
  Zn  Zn1  1  0.57389569  0.04643587  0.07934916  1.0
  Zn  Zn2  1  0.17348225  0.64505635  0.48512091  1.0
  Zn  Zn3  1  0.04643597  0.57389652  0.57934988  1.0
  Zn  Zn4  1  0.82651678  0.35494361  0.51488062  1.0
  Zn  Zn5  1  0.95356377  0.42610287  0.42065111  1.0
  Zn  Zn6  1  0.35494438  0.82651647  0.01488090  1.0
  Zn  Zn7  1  0.42610419  0.95356294  0.92065106  1.0
  H  H8  1  0.51195356  0.32128772  0.13296373  1.0
  H  H9  1  0.37992471  0.15214159  0.23138034  1.0
  H  H10  1  0.27368875  0.21758419  0.32648140  1.0
  H  H11  1  0.18095829  0.30730570  0.40803736  1.0
  H  H12  1  0.11705820  0.40534757  0.47327295  1.0
  H  H13  1  0.31268261  0.51150563  0.33059557  1.0
  H  H14  1  0.46019680  0.44369555  0.27478948  1.0
  H  H15  1  0.52173428  0.38551852  0.21470934  1.0
  H  H16  1  0.46752833  0.34154652  0.31659644  1.0
  H  H17  1  0.39018993  0.53141265  0.17499867  1.0
  H  H18  1  0.34970413  0.48973480  0.14718075  1.0
  H  H19  1  0.45241849  0.47298913  0.11524298  1.0
  H  H20  1  0.90848441  0.69828915  0.74978379  1.0
  H  H21  1  0.08768405  0.82195616  0.57512311  1.0
  H  H22  1  0.02663708  0.92362780  0.63718147  1.0
  H  H23  1  0.93968724  0.01367234  0.71754583  1.0
  H  H24  1  0.83743883  0.08118324  0.81236209  1.0
  H  H25  1  0.71759993  0.89644823  0.93949676  1.0
  H  H26  1  0.75888982  0.76260965  0.81377620  1.0
  H  H27  1  0.70061351  0.82204512  0.87267225  1.0
  H  H28  1  0.74603007  0.86540991  0.76818249  1.0
  H  H29  1  0.84133353  0.68505355  0.90340028  1.0
  H  H30  1  0.88427280  0.73468987  0.91962277  1.0
  H  H31  1  0.78144523  0.74558753  0.96121509  1.0
  H  H32  1  0.02196789  0.43592610  0.58637068  1.0
  H  H33  1  0.93343266  0.34465124  0.67722387  1.0
  H  H34  1  0.80743817  0.49138282  0.81910197  1.0
  H  H35  1  0.90459201  0.57383204  0.72375686  1.0
  H  H36  1  0.81461148  0.32938927  0.71808911  1.0
  H  H37  1  0.72795163  0.23625758  0.81515897  1.0
  H  H38  1  0.69893550  0.27938938  0.00502228  1.0
  H  H39  1  0.78789365  0.37115362  0.91818052  1.0
  H  H40  1  0.32128681  0.51195409  0.63296370  1.0
  H  H41  1  0.15214114  0.37992384  0.73138221  1.0
  H  H42  1  0.21758461  0.27368826  0.82648224  1.0
  H  H43  1  0.30730637  0.18095768  0.90803722  1.0
  H  H44  1  0.40534785  0.11705820  0.97327324  1.0
  H  H45  1  0.51150625  0.31268277  0.83059512  1.0
  H  H46  1  0.44369542  0.46019651  0.77479002  1.0
  H  H47  1  0.38551754  0.52173472  0.71470990  1.0
  H  H48  1  0.34154579  0.46752728  0.81659711  1.0
  H  H49  1  0.53141334  0.39018984  0.67499829  1.0
  H  H50  1  0.48973503  0.34970506  0.64718010  1.0
  H  H51  1  0.47298872  0.45241927  0.61524266  1.0
  H  H52  1  0.69828967  0.90848506  0.24978381  1.0
  H  H53  1  0.82195700  0.08768370  0.07512227  1.0
  H  H54  1  0.92362847  0.02663691  0.13718066  1.0
  H  H55  1  0.01367276  0.93968637  0.21754591  1.0
  H  H56  1  0.08118436  0.83743838  0.31236170  1.0
  H  H57  1  0.89644879  0.71759976  0.43949580  1.0
  H  H58  1  0.76260996  0.75889087  0.31377522  1.0
  H  H59  1  0.82204466  0.70061415  0.37267186  1.0
  H  H60  1  0.86541025  0.74603053  0.26818229  1.0
  H  H61  1  0.68505467  0.84133314  0.40339954  1.0
  H  H62  1  0.73469093  0.88427216  0.41962316  1.0
  H  H63  1  0.74558772  0.78144469  0.46121490  1.0
  H  H64  1  0.43592581  0.02196813  0.08637096  1.0
  H  H65  1  0.34465078  0.93343247  0.17722512  1.0
  H  H66  1  0.49138471  0.80743777  0.31910132  1.0
  H  H67  1  0.57383298  0.90459249  0.22375575  1.0
  H  H68  1  0.32939150  0.81460976  0.21808984  1.0
  H  H69  1  0.23625932  0.72795121  0.31515883  1.0
  H  H70  1  0.27938800  0.69893592  0.50502344  1.0
  H  H71  1  0.37115245  0.78789325  0.41818323  1.0
  H  H72  1  0.67871306  0.48804472  0.36703797  1.0
  H  H73  1  0.84785916  0.62007556  0.26861753  1.0
  H  H74  1  0.78241428  0.72630996  0.17351921  1.0
  H  H75  1  0.69269436  0.81904230  0.09196253  1.0
  H  H76  1  0.59465245  0.88294120  0.02672747  1.0
  H  H77  1  0.48849475  0.68731605  0.16940505  1.0
  H  H78  1  0.55630488  0.53980288  0.22521021  1.0
  H  H79  1  0.61448276  0.47826467  0.28529082  1.0
  H  H80  1  0.65845452  0.53247212  0.18340361  1.0
  H  H81  1  0.46858739  0.60981014  0.32500098  1.0
  H  H82  1  0.51026443  0.65029549  0.35281949  1.0
  H  H83  1  0.52701045  0.54758012  0.38475810  1.0
  H  H84  1  0.30171092  0.09151551  0.75021573  1.0
  H  H85  1  0.17804429  0.91231629  0.92487673  1.0
  H  H86  1  0.07637155  0.97336365  0.86281964  1.0
  H  H87  1  0.98632741  0.06031361  0.78245362  1.0
  H  H88  1  0.91881693  0.16256160  0.68763730  1.0
  H  H89  1  0.10355124  0.28240079  0.56050352  1.0
  H  H90  1  0.23738964  0.24110910  0.68622459  1.0
  H  H91  1  0.17795537  0.29938641  0.62732746  1.0
  H  H92  1  0.13459006  0.25396886  0.73181746  1.0
  H  H93  1  0.31494619  0.15866626  0.59659993  1.0
  H  H94  1  0.26530937  0.11572724  0.58037659  1.0
  H  H95  1  0.25441245  0.21855529  0.53878463  1.0
  H  H96  1  0.56407379  0.97803184  0.91362981  1.0
  H  H97  1  0.65534826  0.06656750  0.82277544  1.0
  H  H98  1  0.50861489  0.19256220  0.68089945  1.0
  H  H99  1  0.42616705  0.09540807  0.77624503  1.0
  H  H100  1  0.67060922  0.18539021  0.78191089  1.0
  H  H101  1  0.76374084  0.27204877  0.68484167  1.0
  H  H102  1  0.72061047  0.30106404  0.49497739  1.0
  H  H103  1  0.62884602  0.21210671  0.58181906  1.0
  H  H104  1  0.48804492  0.67871457  0.86703648  1.0
  H  H105  1  0.62007631  0.84785956  0.76861775  1.0
  H  H106  1  0.72631113  0.78241462  0.67351980  1.0
  H  H107  1  0.81904160  0.69269544  0.59196224  1.0
  H  H108  1  0.88294056  0.59465356  0.52672768  1.0
  H  H109  1  0.68731629  0.48849492  0.66940526  1.0
  H  H110  1  0.53980450  0.55630443  0.72520952  1.0
  H  H111  1  0.47826560  0.61448262  0.78528978  1.0
  H  H112  1  0.53247269  0.65845463  0.68340311  1.0
  H  H113  1  0.60981079  0.46858734  0.82500059  1.0
  H  H114  1  0.65029617  0.51026459  0.85281948  1.0
  H  H115  1  0.54758125  0.52701026  0.88475801  1.0
  H  H116  1  0.09151506  0.30171140  0.25021531  1.0
  H  H117  1  0.91231611  0.17804381  0.42487594  1.0
  H  H118  1  0.97336436  0.07637160  0.36281871  1.0
  H  H119  1  0.06031349  0.98632764  0.28245295  1.0
  H  H120  1  0.16256134  0.91881673  0.18763695  1.0
  H  H121  1  0.28240108  0.10355059  0.06050389  1.0
  H  H122  1  0.24110865  0.23739031  0.18622463  1.0
  H  H123  1  0.29938581  0.17795601  0.12732762  1.0
  H  H124  1  0.25396897  0.13459006  0.23181758  1.0
  H  H125  1  0.15866607  0.31494642  0.09660001  1.0
  H  H126  1  0.11572680  0.26531010  0.08037654  1.0
  H  H127  1  0.21855480  0.25441303  0.03878472  1.0
  H  H128  1  0.97803227  0.56407388  0.41362934  1.0
  H  H129  1  0.06656835  0.65534758  0.32277582  1.0
  H  H130  1  0.19256297  0.50861542  0.18089792  1.0
  H  H131  1  0.09540773  0.42616735  0.27624363  1.0
  H  H132  1  0.18538939  0.67061013  0.28191085  1.0
  H  H133  1  0.27204741  0.76374238  0.18484159  1.0
  H  H134  1  0.30106453  0.72061118  0.99497705  1.0
  H  H135  1  0.21210765  0.62884636  0.08181896  1.0
  C  C136  1  0.45962087  0.29981431  0.17583142  1.0
  C  C137  1  0.45086453  0.23336791  0.17730957  1.0
  C  C138  1  0.38424255  0.20402104  0.23177973  1.0
  C  C139  1  0.32546243  0.24038704  0.28450918  1.0
  C  C140  1  0.21049004  0.35120060  0.39084878  1.0
  C  C141  1  0.17485031  0.40582974  0.42775422  1.0
  C  C142  1  0.21187812  0.46282283  0.40652811  1.0
  C  C143  1  0.28525436  0.46668192  0.34588398  1.0
  C  C144  1  0.39814086  0.40676060  0.24009034  1.0
  C  C145  1  0.40173739  0.33568037  0.22899736  1.0
  C  C146  1  0.33446946  0.30637207  0.28290564  1.0
  C  C147  1  0.28374503  0.35499965  0.33100253  1.0
  C  C148  1  0.32044490  0.41341246  0.30785988  1.0
  C  C149  1  0.46604481  0.39343209  0.26308765  1.0
  C  C150  1  0.39748651  0.47971289  0.16478255  1.0
  C  C151  1  0.51232234  0.19314364  0.12090419  1.0
  C  C152  1  0.17357491  0.51916887  0.44896588  1.0
  C  C153  1  0.93318368  0.74777692  0.72644596  1.0
  C  C154  1  0.00137615  0.75530589  0.65877356  1.0
  C  C155  1  0.03478711  0.81827508  0.62749104  1.0
  C  C156  1  0.00074912  0.87463000  0.66193644  1.0
  C  C157  1  0.89110305  0.98826567  0.76549294  1.0
  C  C158  1  0.83445768  0.02578623  0.81804074  1.0
  C  C159  1  0.77223163  0.99276916  0.88047297  1.0
  C  C160  1  0.76605427  0.92121680  0.89045990  1.0
  C  C161  1  0.82549096  0.80907916  0.83365552  1.0
  C  C162  1  0.89897958  0.80372713  0.76121678  1.0
  C  C163  1  0.93244650  0.86734045  0.72860594  1.0
  C  C164  1  0.88398316  0.91765754  0.77510461  1.0
  C  C165  1  0.82128597  0.88447509  0.83721244  1.0
  C  C166  1  0.75340179  0.81525288  0.82122286  1.0
  C  C167  1  0.83374042  0.73935995  0.90919752  1.0
  C  C168  1  0.03848450  0.69769494  0.61789183  1.0
  C  C169  1  0.71192209  0.03479657  0.93557259  1.0
  C  C170  1  0.97409792  0.44477713  0.63935150  1.0
  C  C171  1  0.92387940  0.39518039  0.68966888  1.0
  C  C172  1  0.86260587  0.41033478  0.75629838  1.0
  C  C173  1  0.85494700  0.47570901  0.76930852  1.0
  C  C174  1  0.90777037  0.52244168  0.71639925  1.0
  C  C175  1  0.80867369  0.35829944  0.81036177  1.0
  C  C176  1  0.79086396  0.31989031  0.78122713  1.0
  C  C177  1  0.74214443  0.26907015  0.83415010  1.0
  C  C178  1  0.72613286  0.29267936  0.94107331  1.0
  C  C179  1  0.77484268  0.34410059  0.89217156  1.0
  C  C180  1  0.29981329  0.45962009  0.67583257  1.0
  C  C181  1  0.23336712  0.45086504  0.67731095  1.0
  C  C182  1  0.20402090  0.38424283  0.73178093  1.0
  C  C183  1  0.24038637  0.32546302  0.78451050  1.0
  C  C184  1  0.35120038  0.21048967  0.89084847  1.0
  C  C185  1  0.40583150  0.17485041  0.92775375  1.0
  C  C186  1  0.46282349  0.21187814  0.90652723  1.0
  C  C187  1  0.46668190  0.28525340  0.84588435  1.0
  C  C188  1  0.40676052  0.39814094  0.74008923  1.0
  C  C189  1  0.33567958  0.40173910  0.72899724  1.0
  C  C190  1  0.30637135  0.33446965  0.78290672  1.0
  C  C191  1  0.35499975  0.28374541  0.83100364  1.0
  C  C192  1  0.41341262  0.32044401  0.80786060  1.0
  C  C193  1  0.39343112  0.46604656  0.76308760  1.0
  C  C194  1  0.47971272  0.39748657  0.66478151  1.0
  C  C195  1  0.19314129  0.51232207  0.62090567  1.0
  C  C196  1  0.51916967  0.17357642  0.94896475  1.0
  C  C197  1  0.74777677  0.93318324  0.22644682  1.0
  C  C198  1  0.75530650  0.00137602  0.15877273  1.0
  C  C199  1  0.81827685  0.03478630  0.12749096  1.0
  C  C200  1  0.87463072  0.00074915  0.16193551  1.0
  C  C201  1  0.98826644  0.89110198  0.26549423  1.0
  C  C202  1  0.02578621  0.83445842  0.31804080  1.0
  C  C203  1  0.99276848  0.77223131  0.38047365  1.0
  C  C204  1  0.92121737  0.76605265  0.39046155  1.0
  C  C205  1  0.80907925  0.82549096  0.33365659  1.0
  C  C206  1  0.80372583  0.89897942  0.26121759  1.0
  C  C207  1  0.86734132  0.93244686  0.22860598  1.0
  C  C208  1  0.91765779  0.88398350  0.27510497  1.0
  C  C209  1  0.88447210  0.82128662  0.33721273  1.0
  C  C210  1  0.81525292  0.75340250  0.32122267  1.0
  C  C211  1  0.73936130  0.83374044  0.40919650  1.0
  C  C212  1  0.69769340  0.03848039  0.11789531  1.0
  C  C213  1  0.03479735  0.71192175  0.43557330  1.0
  C  C214  1  0.44477686  0.97409853  0.13935085  1.0
  C  C215  1  0.39517992  0.92387838  0.18966957  1.0
  C  C216  1  0.41033548  0.86260554  0.25629870  1.0
  C  C217  1  0.47570959  0.85494449  0.26930849  1.0
  C  C218  1  0.52244340  0.90777016  0.21639760  1.0
  C  C219  1  0.35829912  0.80867402  0.31036275  1.0
  C  C220  1  0.31989183  0.79086521  0.28122730  1.0
  C  C221  1  0.26907077  0.74214517  0.33414898  1.0
  C  C222  1  0.29267882  0.72613276  0.44107509  1.0
  C  C223  1  0.34410037  0.77484260  0.39217220  1.0
  C  C224  1  0.70018772  0.54037873  0.32416809  1.0
  C  C225  1  0.76663177  0.54913318  0.32269147  1.0
  C  C226  1  0.79597940  0.61575657  0.26821930  1.0
  C  C227  1  0.75961351  0.67453579  0.21549020  1.0
  C  C228  1  0.64879922  0.78951030  0.10915182  1.0
  C  C229  1  0.59417206  0.82514959  0.07224563  1.0
  C  C230  1  0.53717709  0.78812009  0.09347293  1.0
  C  C231  1  0.53331896  0.71474600  0.15411610  1.0
  C  C232  1  0.59324021  0.60185904  0.25991053  1.0
  C  C233  1  0.66431832  0.59826086  0.27100288  1.0
  C  C234  1  0.69362853  0.66552916  0.21709447  1.0
  C  C235  1  0.64499999  0.71625398  0.16899783  1.0
  C  C236  1  0.58658782  0.67955481  0.19214130  1.0
  C  C237  1  0.60656876  0.53395458  0.23691201  1.0
  C  C238  1  0.52028773  0.60251458  0.33521734  1.0
  C  C239  1  0.80685945  0.48768023  0.37909444  1.0
  C  C240  1  0.48083178  0.82642531  0.05103384  1.0
  C  C241  1  0.25222381  0.06681499  0.77355432  1.0
  C  C242  1  0.24469494  0.99862339  0.84122647  1.0
  C  C243  1  0.18172571  0.96521311  0.87250917  1.0
  C  C244  1  0.12536945  0.99925082  0.83806451  1.0
  C  C245  1  0.01173387  0.10889742  0.73450649  1.0
  C  C246  1  0.97421269  0.16554212  0.68195858  1.0
  C  C247  1  0.00722999  0.22776865  0.61952620  1.0
  C  C248  1  0.07878478  0.23394850  0.60953746  1.0
  C  C249  1  0.19092219  0.17450845  0.66634310  1.0
  C  C250  1  0.19627377  0.10102055  0.73878173  1.0
  C  C251  1  0.13266040  0.06755371  0.77139303  1.0
  C  C252  1  0.08234307  0.11601589  0.72489548  1.0
  C  C253  1  0.11552863  0.17871336  0.66278751  1.0
  C  C254  1  0.18474837  0.24659748  0.67877682  1.0
  C  C255  1  0.26063943  0.16625954  0.59080325  1.0
  C  C256  1  0.30230632  0.96151667  0.88210629  1.0
  C  C257  1  0.96520394  0.28807824  0.56442521  1.0
  C  C258  1  0.55522218  0.02590144  0.86064922  1.0
  C  C259  1  0.60481982  0.07612101  0.81033190  1.0
  C  C260  1  0.58966440  0.13739560  0.74370139  1.0
  C  C261  1  0.52429057  0.14505548  0.73069104  1.0
  C  C262  1  0.47755634  0.09222923  0.78360192  1.0
  C  C263  1  0.64169908  0.19132711  0.68963863  1.0
  C  C264  1  0.68010779  0.20913709  0.71877286  1.0
  C  C265  1  0.73092842  0.25785655  0.66585068  1.0
  C  C266  1  0.70731909  0.27386720  0.55892746  1.0
  C  C267  1  0.65589839  0.22515853  0.60782843  1.0
  C  C268  1  0.54037776  0.70018972  0.82416741  1.0
  C  C269  1  0.54913310  0.76663322  0.82268867  1.0
  C  C270  1  0.61575608  0.79598067  0.76821874  1.0
  C  C271  1  0.67453591  0.75961351  0.71548998  1.0
  C  C272  1  0.78951012  0.64879938  0.60915172  1.0
  C  C273  1  0.82514958  0.59417140  0.57224538  1.0
  C  C274  1  0.78812022  0.53717772  0.59347202  1.0
  C  C275  1  0.71474722  0.53331923  0.65411482  1.0
  C  C276  1  0.60185916  0.59323996  0.75990947  1.0
  C  C277  1  0.59826081  0.66432076  0.77100208  1.0
  C  C278  1  0.66552888  0.69363080  0.71709387  1.0
  C  C279  1  0.71625556  0.64500091  0.66899653  1.0
  C  C280  1  0.67955512  0.58658810  0.69213993  1.0
  C  C281  1  0.53395564  0.60656906  0.73691023  1.0
  C  C282  1  0.60251422  0.52028709  0.83521817  1.0
  C  C283  1  0.48767897  0.80686100  0.87909212  1.0
  C  C284  1  0.82642527  0.48083343  0.55103352  1.0
  C  C285  1  0.06681578  0.25222364  0.27355314  1.0
  C  C286  1  0.99862232  0.24469407  0.34122677  1.0
  C  C287  1  0.96521362  0.18172491  0.37250774  1.0
  C  C288  1  0.99925062  0.12536939  0.33806454  1.0
  C  C289  1  0.10889768  0.01173431  0.23450584  1.0
  C  C290  1  0.16554178  0.97421432  0.18195885  1.0
  C  C291  1  0.22776854  0.00723082  0.11952656  1.0
  C  C292  1  0.23394815  0.07878320  0.10953808  1.0
  C  C293  1  0.17450893  0.19092198  0.16634263  1.0
  C  C294  1  0.10102088  0.19627401  0.23878206  1.0
  C  C295  1  0.06755296  0.13266010  0.27139414  1.0
  C  C296  1  0.11601672  0.08234127  0.22489464  1.0
  C  C297  1  0.17871280  0.11552837  0.16278757  1.0
  C  C298  1  0.24659823  0.18474767  0.17877696  1.0
  C  C299  1  0.16625918  0.26064002  0.09080326  1.0
  C  C300  1  0.96151793  0.30230739  0.38210456  1.0
  C  C301  1  0.28807934  0.96520283  0.06442613  1.0
  C  C302  1  0.02590225  0.55522285  0.36064852  1.0
  C  C303  1  0.07612147  0.60481901  0.31033157  1.0
  C  C304  1  0.13739627  0.58966405  0.24370077  1.0
  C  C305  1  0.14505513  0.52428982  0.23069160  1.0
  C  C306  1  0.09223063  0.47755713  0.28360092  1.0
  C  C307  1  0.19132718  0.64169996  0.18963722  1.0
  C  C308  1  0.20913690  0.68010909  0.21877234  1.0
  C  C309  1  0.25785517  0.73092982  0.16585068  1.0
  C  C310  1  0.27386701  0.70731945  0.05892789  1.0
  C  C311  1  0.22515876  0.65589882  0.10782813  1.0
  N  N312  1  0.96632953  0.50710417  0.65267731  1.0
  N  N313  1  0.71037674  0.25553704  0.91246693  1.0
  N  N314  1  0.50710522  0.96633224  0.15267458  1.0
  N  N315  1  0.25553769  0.71037648  0.41246918  1.0
  N  N316  1  0.49289650  0.03366833  0.84732492  1.0
  N  N317  1  0.74446064  0.28962406  0.58753338  1.0
  N  N318  1  0.03367021  0.49289522  0.34732270  1.0
  N  N319  1  0.28962357  0.74446236  0.08753184  1.0
  O  O320  1  0.57014835  0.22351443  0.06936728  1.0
  O  O321  1  0.50200287  0.13130132  0.12820440  1.0
  O  O322  1  0.10329326  0.51982777  0.49607608  1.0
  O  O323  1  0.21423725  0.56236743  0.43487135  1.0
  O  O324  1  0.00676286  0.64146563  0.64667690  1.0
  O  O325  1  0.09921053  0.70976253  0.55604184  1.0
  O  O326  1  0.66729586  0.99616680  0.00087601  1.0
  O  O327  1  0.70911972  0.10674448  0.91227688  1.0
  O  O328  1  0.22351477  0.57014821  0.56936840  1.0
  O  O329  1  0.13130204  0.50200364  0.62820441  1.0
  O  O330  1  0.51982859  0.10329033  0.99607900  1.0
  O  O331  1  0.56236767  0.21423807  0.93487130  1.0
  O  O332  1  0.64146674  0.00676223  0.14667895  1.0
  O  O333  1  0.70976347  0.09920854  0.05604315  1.0
  O  O334  1  0.99616667  0.66729676  0.50087657  1.0
  O  O335  1  0.10674390  0.70911904  0.41227987  1.0
  O  O336  1  0.77648088  0.42985174  0.43063571  1.0
  O  O337  1  0.86869586  0.49799399  0.37179681  1.0
  O  O338  1  0.48017156  0.89670732  0.00392407  1.0
  O  O339  1  0.43763165  0.78576074  0.06512919  1.0
  O  O340  1  0.35853440  0.99323601  0.85332191  1.0
  O  O341  1  0.29023585  0.90079027  0.94395831  1.0
  O  O342  1  0.00383265  0.33270204  0.49912392  1.0
  O  O343  1  0.89325527  0.29088035  0.58772089  1.0
  O  O344  1  0.42984998  0.77648611  0.93063188  1.0
  O  O345  1  0.49799673  0.86869865  0.87179443  1.0
  O  O346  1  0.89670535  0.48017161  0.50392592  1.0
  O  O347  1  0.78576024  0.43763427  0.56512912  1.0
  O  O348  1  0.99323532  0.35853316  0.35332315  1.0
  O  O349  1  0.90078921  0.29023686  0.44395720  1.0
  O  O350  1  0.33270232  0.00383200  0.99912599  1.0
  O  O351  1  0.29088327  0.89325551  0.08772034  1.0
