# generated using pymatgen
data_CdH56C72N4(ClO6)2
_symmetry_space_group_name_H-M   'P 1'
_cell_length_a   14.38322253
_cell_length_b   17.58818471
_cell_length_c   19.31892274
_cell_angle_alpha   90.00003210
_cell_angle_beta   90.00008186
_cell_angle_gamma   89.99999600
_symmetry_Int_Tables_number   1
_chemical_formula_structural   CdH56C72N4(ClO6)2
_chemical_formula_sum   'Cd2 H112 C144 N8 Cl4 O24'
_cell_volume   4887.20012533
_cell_formula_units_Z   2
loop_
 _symmetry_equiv_pos_site_id
 _symmetry_equiv_pos_as_xyz
  1  'x, y, z'
loop_
 _atom_site_type_symbol
 _atom_site_label
 _atom_site_symmetry_multiplicity
 _atom_site_fract_x
 _atom_site_fract_y
 _atom_site_fract_z
 _atom_site_occupancy
  Cd  Cd0  1  0.49999898  0.00000045  0.56774219  1.0
  Cd  Cd1  1  0.00000031  0.50000143  0.43225780  1.0
  H  H2  1  0.95076180  0.30719684  0.00177462  1.0
  H  H3  1  0.04923642  0.69280175  0.00177579  1.0
  H  H4  1  0.54923728  0.80719758  0.99822451  1.0
  H  H5  1  0.45076285  0.19280218  0.99822637  1.0
  H  H6  1  0.96534338  0.44648922  0.01478988  1.0
  H  H7  1  0.03465695  0.55350995  0.01479097  1.0
  H  H8  1  0.53465638  0.94648996  0.98520828  1.0
  H  H9  1  0.46534303  0.05350980  0.98521164  1.0
  H  H10  1  0.90010497  0.51189623  0.11912384  1.0
  H  H11  1  0.09989417  0.48810414  0.11912289  1.0
  H  H12  1  0.59989275  0.01189603  0.88087410  1.0
  H  H13  1  0.40010716  0.98810195  0.88087684  1.0
  H  H14  1  0.81916701  0.43695447  0.20972355  1.0
  H  H15  1  0.18083231  0.56304425  0.20972324  1.0
  H  H16  1  0.68083206  0.93695338  0.79027565  1.0
  H  H17  1  0.31916975  0.06304569  0.79027730  1.0
  H  H18  1  0.46525793  0.10074654  0.70530163  1.0
  H  H19  1  0.53474163  0.89925305  0.70530188  1.0
  H  H20  1  0.03474065  0.60074686  0.29469789  1.0
  H  H21  1  0.96525953  0.39925361  0.29469782  1.0
  H  H22  1  0.71031906  0.02930252  0.61197045  1.0
  H  H23  1  0.28967963  0.97069758  0.61197099  1.0
  H  H24  1  0.78967935  0.52930345  0.38802905  1.0
  H  H25  1  0.21032100  0.47069765  0.38802976  1.0
  H  H26  1  0.55009368  0.14604345  0.80988671  1.0
  H  H27  1  0.44990609  0.85395676  0.80988684  1.0
  H  H28  1  0.94990472  0.64604426  0.19011389  1.0
  H  H29  1  0.05009525  0.35395672  0.19011385  1.0
  H  H30  1  0.80501143  0.07230812  0.71084249  1.0
  H  H31  1  0.19498885  0.92769260  0.71084290  1.0
  H  H32  1  0.69498768  0.57230900  0.28915807  1.0
  H  H33  1  0.30501179  0.42769204  0.28915886  1.0
  H  H34  1  0.69646288  0.16906460  0.87038862  1.0
  H  H35  1  0.30353770  0.83093508  0.87038910  1.0
  H  H36  1  0.80353621  0.66906538  0.12961148  1.0
  H  H37  1  0.19646365  0.33093556  0.12961210  1.0
  H  H38  1  0.85670022  0.07223480  0.81281300  1.0
  H  H39  1  0.14329886  0.92776484  0.81281336  1.0
  H  H40  1  0.64329819  0.57223506  0.18718652  1.0
  H  H41  1  0.35670247  0.42776478  0.18718737  1.0
  H  H42  1  0.76681161  0.31501126  0.25476379  1.0
  H  H43  1  0.23318709  0.68498578  0.25476619  1.0
  H  H44  1  0.73318886  0.81501184  0.74523586  1.0
  H  H45  1  0.26681287  0.18498777  0.74523649  1.0
  H  H46  1  0.73170474  0.10094141  0.24362282  1.0
  H  H47  1  0.26829534  0.89905676  0.24362278  1.0
  H  H48  1  0.76829575  0.60094200  0.75637672  1.0
  H  H49  1  0.23170530  0.39905705  0.75637690  1.0
  H  H50  1  0.72450268  0.24570794  0.33376919  1.0
  H  H51  1  0.27549618  0.75429142  0.33376960  1.0
  H  H52  1  0.77549641  0.74570790  0.66623043  1.0
  H  H53  1  0.22450239  0.25429222  0.66623052  1.0
  H  H54  1  0.60935051  0.96135601  0.42560311  1.0
  H  H55  1  0.39064991  0.03864397  0.42560379  1.0
  H  H56  1  0.89065134  0.46135619  0.57439662  1.0
  H  H57  1  0.10935007  0.53864446  0.57439674  1.0
  H  H58  1  0.67918251  0.02878049  0.32549121  1.0
  H  H59  1  0.32081772  0.97121886  0.32549127  1.0
  H  H60  1  0.82081868  0.52878103  0.67450881  1.0
  H  H61  1  0.17918222  0.47121968  0.67450845  1.0
  H  H62  1  0.58046213  0.16133830  0.53678455  1.0
  H  H63  1  0.41953711  0.83866232  0.53678567  1.0
  H  H64  1  0.91953835  0.66133870  0.46321554  1.0
  H  H65  1  0.08046145  0.33866244  0.46321449  1.0
  H  H66  1  0.65322599  0.23763437  0.44247241  1.0
  H  H67  1  0.34677447  0.76236562  0.44247187  1.0
  H  H68  1  0.84677449  0.73763427  0.55752772  1.0
  H  H69  1  0.15322549  0.26236636  0.55752774  1.0
  H  H70  1  0.99625592  0.07254411  0.86255550  1.0
  H  H71  1  0.00374326  0.92745329  0.86255571  1.0
  H  H72  1  0.50374388  0.57254434  0.13744247  1.0
  H  H73  1  0.49625669  0.42745490  0.13744398  1.0
  H  H74  1  0.15266546  0.06292008  0.91310031  1.0
  H  H75  1  0.84733381  0.93707679  0.91310194  1.0
  H  H76  1  0.34733451  0.56292026  0.08689713  1.0
  H  H77  1  0.65266596  0.43708066  0.08689933  1.0
  H  H78  1  0.04041100  0.19732769  0.12478304  1.0
  H  H79  1  0.95958885  0.80267098  0.12478368  1.0
  H  H80  1  0.45958966  0.69733004  0.87521654  1.0
  H  H81  1  0.54041023  0.30267192  0.87521596  1.0
  H  H82  1  0.26197250  0.09236343  0.00818191  1.0
  H  H83  1  0.73802643  0.90763687  0.00818289  1.0
  H  H84  1  0.23802747  0.59236416  0.99181554  1.0
  H  H85  1  0.76197195  0.40763730  0.99181733  1.0
  H  H86  1  0.20611655  0.16113918  0.11340722  1.0
  H  H87  1  0.79388327  0.83886175  0.11340875  1.0
  H  H88  1  0.29388481  0.66114042  0.88659130  1.0
  H  H89  1  0.70611581  0.33886098  0.88659247  1.0
  H  H90  1  0.61951919  0.15760297  0.99715496  1.0
  H  H91  1  0.38048094  0.84239736  0.99715501  1.0
  H  H92  1  0.88048060  0.65760310  0.00284461  1.0
  H  H93  1  0.11951971  0.34239720  0.00284464  1.0
  H  H94  1  0.70096735  0.10854873  0.05244186  1.0
  H  H95  1  0.29903305  0.89145160  0.05244237  1.0
  H  H96  1  0.79903314  0.60854886  0.94755769  1.0
  H  H97  1  0.20096759  0.39145143  0.94755835  1.0
  H  H98  1  0.68615166  0.07917758  0.96428358  1.0
  H  H99  1  0.31384771  0.92082216  0.96428308  1.0
  H  H100  1  0.81384883  0.57917774  0.03571647  1.0
  H  H101  1  0.18615223  0.42082258  0.03571609  1.0
  H  H102  1  0.86678700  0.98774353  0.15375838  1.0
  H  H103  1  0.13321499  0.01225402  0.15375877  1.0
  H  H104  1  0.63321416  0.48774444  0.84624084  1.0
  H  H105  1  0.36678638  0.51225636  0.84624122  1.0
  H  H106  1  0.90007727  0.05761458  0.21742165  1.0
  H  H107  1  0.09992275  0.94238471  0.21742145  1.0
  H  H108  1  0.59992322  0.55761520  0.78257787  1.0
  H  H109  1  0.40007650  0.44238500  0.78257825  1.0
  H  H110  1  0.95077167  0.05921392  0.13232531  1.0
  H  H111  1  0.04922888  0.94078475  0.13232506  1.0
  H  H112  1  0.54922952  0.55921459  0.86767420  1.0
  H  H113  1  0.45077106  0.44078566  0.86767464  1.0
  C  C114  1  0.83914441  0.32875511  0.15813525  1.0
  C  C115  1  0.16085620  0.67124414  0.15813653  1.0
  C  C116  1  0.66085746  0.82875576  0.84186441  1.0
  C  C117  1  0.33914516  0.17124505  0.84186613  1.0
  C  C118  1  0.87713723  0.29130097  0.09846061  1.0
  C  C119  1  0.12286257  0.70869768  0.09846187  1.0
  C  C120  1  0.62286325  0.79130109  0.90153851  1.0
  C  C121  1  0.37713809  0.20869805  0.90154030  1.0
  C  C122  1  0.92262698  0.33563071  0.04736618  1.0
  C  C123  1  0.07737272  0.66436904  0.04736634  1.0
  C  C124  1  0.57737349  0.83563086  0.95263348  1.0
  C  C125  1  0.42262586  0.16436830  0.95263581  1.0
  C  C126  1  0.93039437  0.41342953  0.05481952  1.0
  C  C127  1  0.06960673  0.58657193  0.05481963  1.0
  C  C128  1  0.56960540  0.91342797  0.94518070  1.0
  C  C129  1  0.43039324  0.08657005  0.94518352  1.0
  C  C130  1  0.89277838  0.45056869  0.11348841  1.0
  C  C131  1  0.10722423  0.54943110  0.11348854  1.0
  C  C132  1  0.60722278  0.95056880  0.88651079  1.0
  C  C133  1  0.39277853  0.04942976  0.88651355  1.0
  C  C134  1  0.84792061  0.40905277  0.16397153  1.0
  C  C135  1  0.15208140  0.59094592  0.16397327  1.0
  C  C136  1  0.65208125  0.90905284  0.83602714  1.0
  C  C137  1  0.34792274  0.09094682  0.83602935  1.0
  C  C138  1  0.54070139  0.09507057  0.70915851  1.0
  C  C139  1  0.45929888  0.90493072  0.70915920  1.0
  C  C140  1  0.95929771  0.59507029  0.29084154  1.0
  C  C141  1  0.04070176  0.40493131  0.29084152  1.0
  C  C142  1  0.67727644  0.05534729  0.65695846  1.0
  C  C143  1  0.32272304  0.94465340  0.65695902  1.0
  C  C144  1  0.82272127  0.55534706  0.34304158  1.0
  C  C145  1  0.17727760  0.44465458  0.34304172  1.0
  C  C146  1  0.58862117  0.12074009  0.76703289  1.0
  C  C147  1  0.41137921  0.87926124  0.76703299  1.0
  C  C148  1  0.91137863  0.62074092  0.23296718  1.0
  C  C149  1  0.08862212  0.37926065  0.23296771  1.0
  C  C150  1  0.72983148  0.07917921  0.71300458  1.0
  C  C151  1  0.27016811  0.92082094  0.71300507  1.0
  C  C152  1  0.77016763  0.57918122  0.28699547  1.0
  C  C153  1  0.22983392  0.42081981  0.28699617  1.0
  C  C154  1  0.68583235  0.11154357  0.77115739  1.0
  C  C155  1  0.31416804  0.88845719  0.77115791  1.0
  C  C156  1  0.81416675  0.61154327  0.22884215  1.0
  C  C157  1  0.18583399  0.38845603  0.22884331  1.0
  C  C158  1  0.73461772  0.13306088  0.83431571  1.0
  C  C159  1  0.26538279  0.86693935  0.83431565  1.0
  C  C160  1  0.76538138  0.63306168  0.16568385  1.0
  C  C161  1  0.23461994  0.36693872  0.16568505  1.0
  C  C162  1  0.82119430  0.10836077  0.85067070  1.0
  C  C163  1  0.17880485  0.89163833  0.85067056  1.0
  C  C164  1  0.67880410  0.60836157  0.14932885  1.0
  C  C165  1  0.32119579  0.39163938  0.14932964  1.0
  C  C166  1  0.78609445  0.20687444  0.20453944  1.0
  C  C167  1  0.21390694  0.79312427  0.20454032  1.0
  C  C168  1  0.71390603  0.70687449  0.79546016  1.0
  C  C169  1  0.28609510  0.29312515  0.79546138  1.0
  C  C170  1  0.79423588  0.28542661  0.20961014  1.0
  C  C171  1  0.20576273  0.71457211  0.20961149  1.0
  C  C172  1  0.70576390  0.78542665  0.79038950  1.0
  C  C173  1  0.29423653  0.21457298  0.79039068  1.0
  C  C174  1  0.82366386  0.17044826  0.14433578  1.0
  C  C175  1  0.17633672  0.82955041  0.14433664  1.0
  C  C176  1  0.67633662  0.67044835  0.85566380  1.0
  C  C177  1  0.32366532  0.32955189  0.85566404  1.0
  C  C178  1  0.86762962  0.21081853  0.09221127  1.0
  C  C179  1  0.13237017  0.78918011  0.09221103  1.0
  C  C180  1  0.63237017  0.71081922  0.90778833  1.0
  C  C181  1  0.36763049  0.28918106  0.90778963  1.0
  C  C182  1  0.74131803  0.16060703  0.25740829  1.0
  C  C183  1  0.25868277  0.83939342  0.25740821  1.0
  C  C184  1  0.75868246  0.66060705  0.74259128  1.0
  C  C185  1  0.24131788  0.33939199  0.74259196  1.0
  C  C186  1  0.71332714  0.18620606  0.32004273  1.0
  C  C187  1  0.28667308  0.81379216  0.32004422  1.0
  C  C188  1  0.78667334  0.68620660  0.67995686  1.0
  C  C189  1  0.21332688  0.31379354  0.67995697  1.0
  C  C190  1  0.67140474  0.14057374  0.37450122  1.0
  C  C191  1  0.32859419  0.85942622  0.37450277  1.0
  C  C192  1  0.82859505  0.64057424  0.62549783  1.0
  C  C193  1  0.17140367  0.35942643  0.62549896  1.0
  C  C194  1  0.61935457  0.02285552  0.42654133  1.0
  C  C195  1  0.38064168  0.97714503  0.42654248  1.0
  C  C196  1  0.88064315  0.52285543  0.57345766  1.0
  C  C197  1  0.11935478  0.47714522  0.57345827  1.0
  C  C198  1  0.65833674  0.06118294  0.37096579  1.0
  C  C199  1  0.34166219  0.93881701  0.37096637  1.0
  C  C200  1  0.84166236  0.56118288  0.62903372  1.0
  C  C201  1  0.15833636  0.43881723  0.62903385  1.0
  C  C202  1  0.60418139  0.13441737  0.48910436  1.0
  C  C203  1  0.39581776  0.86558322  0.48910599  1.0
  C  C204  1  0.89581979  0.63441780  0.51089520  1.0
  C  C205  1  0.10418149  0.36558337  0.51089471  1.0
  C  C206  1  0.64302799  0.17675828  0.43600309  1.0
  C  C207  1  0.35696967  0.82324171  0.43600466  1.0
  C  C208  1  0.85697180  0.67675817  0.56399649  1.0
  C  C209  1  0.14302680  0.32324246  0.56399654  1.0
  C  C210  1  0.90419091  0.17168485  0.02949453  1.0
  C  C211  1  0.09581015  0.82831262  0.02949479  1.0
  C  C212  1  0.59580958  0.67168558  0.97050453  1.0
  C  C213  1  0.40419120  0.32831587  0.97050537  1.0
  C  C214  1  0.84494848  0.15794864  0.97430029  1.0
  C  C215  1  0.15505160  0.84204939  0.97430010  1.0
  C  C216  1  0.65505131  0.65794823  0.02569980  1.0
  C  C217  1  0.34494905  0.34205151  0.02569955  1.0
  C  C218  1  0.00033226  0.15145027  0.02500260  1.0
  C  C219  1  0.99966809  0.84854663  0.02500227  1.0
  C  C220  1  0.49966770  0.65145268  0.97499696  1.0
  C  C221  1  0.50033238  0.34854991  0.97499688  1.0
  C  C222  1  0.03319159  0.11361549  0.96392245  1.0
  C  C223  1  0.96680848  0.88638197  0.96392315  1.0
  C  C224  1  0.46680908  0.61361621  0.03607605  1.0
  C  C225  1  0.53319199  0.38638468  0.03607757  1.0
  C  C226  1  0.97018809  0.09994889  0.90943388  1.0
  C  C227  1  0.02981117  0.90004968  0.90943463  1.0
  C  C228  1  0.52981170  0.59995023  0.09056514  1.0
  C  C229  1  0.47018808  0.40005069  0.09056557  1.0
  C  C230  1  0.87725968  0.12220588  0.91195986  1.0
  C  C231  1  0.12273959  0.87779212  0.91195966  1.0
  C  C232  1  0.62274081  0.62220607  0.08803917  1.0
  C  C233  1  0.37726036  0.37779427  0.08804053  1.0
  C  C234  1  0.12821271  0.09208911  0.95954751  1.0
  C  C235  1  0.87178665  0.90790836  0.95954864  1.0
  C  C236  1  0.37178726  0.59208926  0.04045046  1.0
  C  C237  1  0.62821242  0.40791106  0.04045158  1.0
  C  C238  1  0.06485610  0.16781809  0.07857343  1.0
  C  C239  1  0.93514435  0.83217998  0.07857355  1.0
  C  C240  1  0.43514526  0.66782048  0.92142562  1.0
  C  C241  1  0.56485542  0.33218265  0.92142560  1.0
  C  C242  1  0.18905630  0.10835770  0.01262311  1.0
  C  C243  1  0.81094264  0.89164090  0.01262468  1.0
  C  C244  1  0.31094367  0.60835899  0.98737435  1.0
  C  C245  1  0.68905575  0.39164304  0.98737604  1.0
  C  C246  1  0.15713653  0.14707177  0.07225531  1.0
  C  C247  1  0.84286391  0.85292686  0.07225534  1.0
  C  C248  1  0.34286483  0.64707360  0.92774424  1.0
  C  C249  1  0.65713586  0.35292839  0.92774381  1.0
  C  C250  1  0.68666687  0.12831058  0.99962821  1.0
  C  C251  1  0.31333256  0.87168918  0.99962872  1.0
  C  C252  1  0.81333362  0.62831014  0.00037134  1.0
  C  C253  1  0.18666738  0.37168959  0.00037146  1.0
  C  C254  1  0.88722057  0.04708136  0.16197082  1.0
  C  C255  1  0.11278004  0.95291619  0.16197065  1.0
  C  C256  1  0.61278062  0.54708200  0.83802817  1.0
  C  C257  1  0.38721990  0.45291823  0.83802854  1.0
  N  N258  1  0.59226264  0.05865059  0.48485306  1.0
  N  N259  1  0.40773511  0.94134943  0.48485319  1.0
  N  N260  1  0.90773716  0.55865103  0.51514749  1.0
  N  N261  1  0.09226274  0.44135015  0.51514651  1.0
  N  N262  1  0.58389264  0.06193524  0.65511617  1.0
  N  N263  1  0.41610684  0.93806602  0.65511735  1.0
  N  N264  1  0.91610786  0.56193614  0.34488335  1.0
  N  N265  1  0.08389241  0.43806607  0.34488339  1.0
  Cl  Cl266  1  0.67931968  0.85997038  0.57153931  1.0
  Cl  Cl267  1  0.32068033  0.14002912  0.57153945  1.0
  Cl  Cl268  1  0.82068218  0.35997104  0.42845985  1.0
  Cl  Cl269  1  0.17931894  0.64003066  0.42846113  1.0
  O  O270  1  0.81106585  0.09265229  0.13736280  1.0
  O  O271  1  0.18893402  0.90734582  0.13736371  1.0
  O  O272  1  0.68893395  0.59265294  0.86263622  1.0
  O  O273  1  0.31106592  0.40734730  0.86263597  1.0
  O  O274  1  0.75460990  0.18387060  0.97841124  1.0
  O  O275  1  0.24539019  0.81612801  0.97841165  1.0
  O  O276  1  0.74538989  0.68387074  0.02158783  1.0
  O  O277  1  0.25460976  0.31612900  0.02158850  1.0
  O  O278  1  0.58469691  0.88453630  0.54967366  1.0
  O  O279  1  0.41530305  0.11546717  0.54967337  1.0
  O  O280  1  0.91530425  0.38453639  0.45032448  1.0
  O  O281  1  0.08469692  0.61546588  0.45032720  1.0
  O  O282  1  0.74828193  0.90157045  0.53178300  1.0
  O  O283  1  0.25171939  0.09842618  0.53178356  1.0
  O  O284  1  0.75171992  0.40157341  0.46821514  1.0
  O  O285  1  0.24828197  0.59843115  0.46821752  1.0
  O  O286  1  0.68596283  0.77889265  0.55937557  1.0
  O  O287  1  0.31403229  0.22110628  0.55937471  1.0
  O  O288  1  0.81403556  0.27889388  0.44062510  1.0
  O  O289  1  0.18596280  0.72110838  0.44062384  1.0
  O  O290  1  0.69003710  0.87698353  0.64546270  1.0
  O  O291  1  0.30996305  0.12301716  0.64546333  1.0
  O  O292  1  0.80996407  0.37698300  0.35453543  1.0
  O  O293  1  0.19003622  0.62301694  0.35453724  1.0
