# generated using pymatgen
data_Ni3H20C32(N2O7)2
_symmetry_space_group_name_H-M   'P 1'
_cell_length_a   12.25569232
_cell_length_b   14.36271793
_cell_length_c   14.36609831
_cell_angle_alpha   99.94540073
_cell_angle_beta   90.83224913
_cell_angle_gamma   90.84262391
_symmetry_Int_Tables_number   1
_chemical_formula_structural   Ni3H20C32(N2O7)2
_chemical_formula_sum   'Ni6 H40 C64 N8 O28'
_cell_volume   2490.14922903
_cell_formula_units_Z   2
loop_
 _symmetry_equiv_pos_site_id
 _symmetry_equiv_pos_as_xyz
  1  'x, y, z'
loop_
 _atom_site_type_symbol
 _atom_site_label
 _atom_site_symmetry_multiplicity
 _atom_site_fract_x
 _atom_site_fract_y
 _atom_site_fract_z
 _atom_site_occupancy
  Ni  Ni0  1  0.26284318  0.57935572  0.02483051  1.0
  Ni  Ni1  1  0.23719810  0.97522803  0.42074862  1.0
  Ni  Ni2  1  0.73720712  0.42061861  0.97516028  1.0
  Ni  Ni3  1  0.76282704  0.02480303  0.57926990  1.0
  Ni  Ni4  1  0.50002985  0.49998022  0.99998354  1.0
  Ni  Ni5  1  0.99994083  0.00001950  0.50002848  1.0
  H  H6  1  0.08688710  0.52410249  0.15524197  1.0
  H  H7  1  0.09232739  0.56722481  0.87769155  1.0
  H  H8  1  0.39913173  0.15046901  0.23739047  1.0
  H  H9  1  0.24755909  0.80343680  0.05793970  1.0
  H  H10  1  0.45164393  0.27913150  0.14676236  1.0
  H  H11  1  0.13805058  0.40437178  0.20212391  1.0
  H  H12  1  0.08743175  0.27853528  0.29460634  1.0
  H  H13  1  0.45001601  0.31575110  0.73999547  1.0
  H  H14  1  0.12068202  0.38904613  0.81349711  1.0
  H  H15  1  0.25265956  0.61574073  0.24653169  1.0
  H  H16  1  0.41310492  0.84473933  0.47580887  1.0
  H  H17  1  0.40759500  0.12246856  0.43303241  1.0
  H  H18  1  0.10092309  0.76304497  0.84985847  1.0
  H  H19  1  0.25256707  0.94241107  0.19696714  1.0
  H  H20  1  0.04841547  0.85364378  0.72120008  1.0
  H  H21  1  0.36175583  0.79780511  0.59563966  1.0
  H  H22  1  0.41240522  0.70539558  0.72150614  1.0
  H  H23  1  0.04999822  0.26034325  0.68404424  1.0
  H  H24  1  0.37932666  0.18619330  0.61140121  1.0
  H  H25  1  0.24690689  0.75360685  0.38444556  1.0
  H  H26  1  0.91313655  0.47588271  0.84475780  1.0
  H  H27  1  0.90769921  0.43275117  0.12230524  1.0
  H  H28  1  0.60083332  0.84950962  0.76263246  1.0
  H  H29  1  0.75243435  0.19656305  0.94204458  1.0
  H  H30  1  0.54834472  0.72080405  0.85321090  1.0
  H  H31  1  0.86195415  0.59560983  0.79782463  1.0
  H  H32  1  0.91255913  0.72148648  0.70538739  1.0
  H  H33  1  0.55001147  0.68424407  0.25999296  1.0
  H  H34  1  0.87935715  0.61095485  0.18654069  1.0
  H  H35  1  0.74724061  0.38425803  0.75346337  1.0
  H  H36  1  0.58688005  0.15532973  0.52421135  1.0
  H  H37  1  0.59237511  0.87759920  0.56699488  1.0
  H  H38  1  0.89911055  0.23692383  0.15013928  1.0
  H  H39  1  0.74743708  0.05759286  0.80302161  1.0
  H  H40  1  0.95159673  0.14637597  0.27883419  1.0
  H  H41  1  0.63821687  0.20219802  0.40432243  1.0
  H  H42  1  0.58760031  0.29457698  0.27842129  1.0
  H  H43  1  0.95002036  0.73965442  0.31599664  1.0
  H  H44  1  0.62067046  0.81380422  0.38860223  1.0
  H  H45  1  0.75301888  0.24639801  0.61554565  1.0
  C  C46  1  0.04743217  0.51368755  0.08590416  1.0
  C  C47  1  0.05048476  0.53707503  0.93206903  1.0
  C  C48  1  0.34204429  0.20615330  0.22917668  1.0
  C  C49  1  0.32977144  0.42944148  0.86612519  1.0
  C  C50  1  0.32942408  0.42307718  0.11200698  1.0
  C  C51  1  0.28902332  0.35953695  0.78319307  1.0
  C  C52  1  0.29806064  0.34877468  0.16849263  1.0
  C  C53  1  0.20150079  0.13697455  0.33196307  1.0
  C  C54  1  0.24895545  0.79306044  0.13141528  1.0
  C  C55  1  0.37156074  0.27694049  0.17841108  1.0
  C  C56  1  0.23924387  0.20665163  0.27078638  1.0
  C  C57  1  0.19523264  0.34891680  0.20988218  1.0
  C  C58  1  0.16624259  0.27874223  0.26057462  1.0
  C  C59  1  0.36288749  0.30372182  0.72583650  1.0
  C  C60  1  0.17642167  0.34538435  0.76728473  1.0
  C  C61  1  0.25014325  0.68897926  0.23568461  1.0
  C  C62  1  0.45256297  0.91408715  0.48625155  1.0
  C  C63  1  0.44948540  0.06802991  0.46306183  1.0
  C  C64  1  0.15797988  0.77116174  0.79411103  1.0
  C  C65  1  0.17021242  0.13388687  0.57068854  1.0
  C  C66  1  0.17050925  0.88804341  0.57702767  1.0
  C  C67  1  0.21099270  0.21681374  0.64059633  1.0
  C  C68  1  0.20188105  0.83166731  0.65139413  1.0
  C  C69  1  0.29850853  0.66829048  0.86322728  1.0
  C  C70  1  0.25105395  0.86888833  0.20726555  1.0
  C  C71  1  0.12846245  0.82189819  0.72331959  1.0
  C  C72  1  0.26071631  0.72943632  0.79354557  1.0
  C  C73  1  0.30465257  0.79016454  0.65117112  1.0
  C  C74  1  0.33365226  0.73951574  0.72136996  1.0
  C  C75  1  0.13713153  0.27438448  0.69619081  1.0
  C  C76  1  0.32359561  0.23257267  0.65489524  1.0
  C  C77  1  0.24955263  0.76449559  0.31123359  1.0
  C  C78  1  0.95258809  0.48628931  0.91408219  1.0
  C  C79  1  0.94954189  0.46290167  0.06792580  1.0
  C  C80  1  0.65793017  0.79382751  0.77082529  1.0
  C  C81  1  0.67026838  0.57054136  0.13387872  1.0
  C  C82  1  0.67058717  0.57689629  0.88797366  1.0
  C  C83  1  0.71101038  0.64045590  0.21680901  1.0
  C  C84  1  0.70193327  0.65118848  0.83147460  1.0
  C  C85  1  0.79849509  0.86307149  0.66808390  1.0
  C  C86  1  0.75101490  0.20693540  0.86857399  1.0
  C  C87  1  0.62842958  0.72301977  0.82156947  1.0
  C  C88  1  0.76073570  0.79335880  0.72922314  1.0
  C  C89  1  0.80476113  0.65106406  0.79008615  1.0
  C  C90  1  0.83374031  0.72125987  0.73941050  1.0
  C  C91  1  0.63713569  0.69627328  0.27416504  1.0
  C  C92  1  0.82360466  0.65461899  0.23274483  1.0
  C  C93  1  0.74978153  0.31102066  0.76430568  1.0
  C  C94  1  0.54742315  0.08596709  0.51376185  1.0
  C  C95  1  0.55050158  0.93202849  0.53695931  1.0
  C  C96  1  0.84205044  0.22882137  0.20587460  1.0
  C  C97  1  0.82978648  0.86612320  0.42933669  1.0
  C  C98  1  0.82948628  0.11198025  0.42298671  1.0
  C  C99  1  0.78901755  0.78319477  0.35943029  1.0
  C  C100  1  0.79811031  0.16834803  0.34860542  1.0
  C  C101  1  0.70150756  0.33167249  0.13673070  1.0
  C  C102  1  0.74893530  0.13111082  0.79272407  1.0
  C  C103  1  0.87155349  0.17810469  0.27669432  1.0
  C  C104  1  0.73930709  0.27053141  0.20642667  1.0
  C  C105  1  0.69533696  0.20983614  0.34880486  1.0
  C  C106  1  0.66635388  0.26046295  0.27858574  1.0
  C  C107  1  0.86287986  0.72561474  0.30384391  1.0
  C  C108  1  0.67641452  0.76742676  0.34511652  1.0
  C  C109  1  0.75038375  0.23550915  0.68875716  1.0
  N  N110  1  0.24886747  0.70319244  0.14575996  1.0
  N  N111  1  0.09847831  0.55016608  0.01810940  1.0
  N  N112  1  0.25101514  0.85445809  0.29708318  1.0
  N  N113  1  0.40148682  0.98195948  0.44991478  1.0
  N  N114  1  0.75108571  0.29680012  0.85422273  1.0
  N  N115  1  0.90154656  0.44980640  0.98188463  1.0
  N  N116  1  0.74895970  0.14555110  0.70291347  1.0
  N  N117  1  0.59850274  0.01809827  0.55009656  1.0
  O  O118  1  0.25524118  0.46743911  0.92042168  1.0
  O  O119  1  0.26898684  0.49709297  0.12101766  1.0
  O  O120  1  0.26408741  0.06317117  0.33232523  1.0
  O  O121  1  0.43194389  0.44127742  0.87657475  1.0
  O  O122  1  0.40607039  0.59516863  0.02838759  1.0
  O  O123  1  0.41041203  0.40635701  0.05931194  1.0
  O  O124  1  0.11762915  0.15497407  0.37758958  1.0
  O  O125  1  0.24472836  0.07955567  0.53270431  1.0
  O  O126  1  0.23097817  0.87898800  0.50304594  1.0
  O  O127  1  0.23592085  0.66787725  0.93701259  1.0
  O  O128  1  0.06804458  0.12348775  0.55882183  1.0
  O  O129  1  0.09395903  0.97167263  0.40489565  1.0
  O  O130  1  0.08949141  0.94070889  0.59366968  1.0
  O  O131  1  0.38241663  0.62269484  0.84524059  1.0
  O  O132  1  0.74479851  0.53252521  0.07959559  1.0
  O  O133  1  0.73102852  0.50288810  0.87897977  1.0
  O  O134  1  0.73589015  0.93685825  0.66770367  1.0
  O  O135  1  0.56809202  0.55872957  0.12342646  1.0
  O  O136  1  0.59390082  0.40483138  0.97160941  1.0
  O  O137  1  0.58960298  0.59363263  0.94067728  1.0
  O  O138  1  0.88240052  0.84511379  0.62248941  1.0
  O  O139  1  0.75527815  0.92044569  0.46733486  1.0
  O  O140  1  0.76902208  0.12102926  0.49696392  1.0
  O  O141  1  0.76410210  0.33209553  0.06294872  1.0
  O  O142  1  0.93195917  0.87654278  0.44120582  1.0
  O  O143  1  0.90606298  0.02835715  0.59511073  1.0
  O  O144  1  0.91051199  0.05930967  0.40635024  1.0
  O  O145  1  0.61758435  0.37725213  0.15470440  1.0
