# generated using pymatgen
data_AlH3C8ClO5
_symmetry_space_group_name_H-M   'P 1'
_cell_length_a   6.69828726
_cell_length_b   14.69861352
_cell_length_c   16.67587525
_cell_angle_alpha   85.64434167
_cell_angle_beta   89.99960977
_cell_angle_gamma   89.99913240
_symmetry_Int_Tables_number   1
_chemical_formula_structural   AlH3C8ClO5
_chemical_formula_sum   'Al4 H12 C32 Cl4 O20'
_cell_volume   1637.09033514
_cell_formula_units_Z   4
loop_
 _symmetry_equiv_pos_site_id
 _symmetry_equiv_pos_as_xyz
  1  'x, y, z'
loop_
 _atom_site_type_symbol
 _atom_site_label
 _atom_site_symmetry_multiplicity
 _atom_site_fract_x
 _atom_site_fract_y
 _atom_site_fract_z
 _atom_site_occupancy
  Al  Al0  1  0.12393382  0.49909186  0.49840432  1.0
  Al  Al1  1  0.62393322  0.50090775  0.50159733  1.0
  Al  Al2  1  0.61526733  0.99909527  0.00097951  1.0
  Al  Al3  1  0.11527589  0.00090226  0.99902336  1.0
  H  H4  1  0.62472877  0.38631856  0.74616851  1.0
  H  H5  1  0.12472973  0.61368518  0.25383255  1.0
  H  H6  1  0.31751528  0.14061837  0.77041909  1.0
  H  H7  1  0.81751194  0.85937936  0.22958092  1.0
  H  H8  1  0.11533317  0.16991374  0.60450279  1.0
  H  H9  1  0.61532351  0.83008849  0.39550069  1.0
  H  H10  1  0.14631494  0.06311991  0.72865588  1.0
  H  H11  1  0.64630236  0.93687877  0.27134693  1.0
  H  H12  1  0.37263627  0.38564933  0.53613510  1.0
  H  H13  1  0.87263107  0.61434991  0.46386659  1.0
  H  H14  1  0.36933607  0.11870680  0.97969248  1.0
  H  H15  1  0.86934301  0.88129157  0.02030379  1.0
  C  C16  1  0.37087781  0.61217972  0.59934211  1.0
  C  C17  1  0.87090505  0.38782158  0.40065176  1.0
  C  C18  1  0.37522863  0.60590245  0.38225368  1.0
  C  C19  1  0.87524302  0.39409813  0.61774800  1.0
  C  C20  1  0.01434395  0.25558919  0.69935462  1.0
  C  C21  1  0.51433722  0.74441242  0.30064849  1.0
  C  C22  1  0.87819203  0.32731388  0.68960098  1.0
  C  C23  1  0.37818859  0.67268982  0.31040371  1.0
  C  C24  1  0.73523400  0.33180225  0.75073963  1.0
  C  C25  1  0.23523473  0.66819593  0.24926177  1.0
  C  C26  1  0.72760570  0.26687215  0.81671167  1.0
  C  C27  1  0.22760988  0.73312818  0.18328915  1.0
  C  C28  1  0.86445375  0.19344638  0.82627396  1.0
  C  C29  1  0.36444074  0.80655308  0.17372594  1.0
  C  C30  1  0.00839365  0.19228394  0.76586500  1.0
  C  C31  1  0.50839194  0.80771520  0.23413571  1.0
  C  C32  1  0.17809195  0.13521903  0.73648331  1.0
  C  C33  1  0.67808935  0.86478021  0.26351822  1.0
  C  C34  1  0.17065978  0.20151495  0.65767646  1.0
  C  C35  1  0.67065504  0.79848680  0.34232810  1.0
  C  C36  1  0.86627072  0.16185300  0.17222584  1.0
  C  C37  1  0.36628740  0.83814173  0.82777345  1.0
  C  C38  1  0.86657992  0.21465280  0.22548710  1.0
  C  C39  1  0.36657685  0.78535365  0.77451040  1.0
  C  C40  1  0.86693229  0.27304204  0.28417365  1.0
  C  C41  1  0.36694109  0.72696426  0.71581784  1.0
  C  C42  1  0.86693395  0.32597236  0.33732022  1.0
  C  C43  1  0.36692450  0.67403708  0.66266646  1.0
  C  C44  1  0.36306810  0.88022488  0.10725928  1.0
  C  C45  1  0.86304359  0.11977657  0.89274123  1.0
  C  C46  1  0.36553791  0.89807278  0.89236766  1.0
  C  C47  1  0.86548549  0.10192781  0.10763464  1.0
  Cl  Cl48  1  0.54256501  0.28188369  0.88721009  1.0
  Cl  Cl49  1  0.04256790  0.71811925  0.11279115  1.0
  Cl  Cl50  1  0.40215862  0.25499165  0.62841129  1.0
  Cl  Cl51  1  0.90214470  0.74500530  0.37159093  1.0
  O  O52  1  0.54321196  0.58447374  0.41365028  1.0
  O  O53  1  0.04320785  0.41552328  0.58634854  1.0
  O  O54  1  0.20220994  0.58862234  0.57263621  1.0
  O  O55  1  0.70221654  0.41137612  0.42736466  1.0
  O  O56  1  0.20519288  0.57749457  0.40702335  1.0
  O  O57  1  0.70519183  0.42250874  0.59297632  1.0
  O  O58  1  0.04338696  0.41123008  0.42349464  1.0
  O  O59  1  0.54337771  0.58877213  0.57649938  1.0
  O  O60  1  0.37457482  0.44573942  0.50695042  1.0
  O  O61  1  0.87456813  0.55425976  0.49305186  1.0
  O  O62  1  0.19461749  0.92217305  0.91660747  1.0
  O  O63  1  0.69461256  0.07781057  0.08341565  1.0
  O  O64  1  0.53414888  0.90869402  0.08324637  1.0
  O  O65  1  0.03417078  0.09128419  0.91674283  1.0
  O  O66  1  0.53562857  0.91967943  0.91915305  1.0
  O  O67  1  0.03560825  0.08033519  0.08082416  1.0
  O  O68  1  0.69559210  0.09020114  0.91891001  1.0
  O  O69  1  0.19555934  0.90981744  0.08110233  1.0
  O  O70  1  0.36596297  0.05459462  0.99833198  1.0
  O  O71  1  0.86596513  0.94540540  0.00166912  1.0
