# generated using pymatgen
data_ZnH6C8O5
_symmetry_space_group_name_H-M   'P 1'
_cell_length_a   6.60582291
_cell_length_b   10.14800129
_cell_length_c   20.00079512
_cell_angle_alpha   78.59818037
_cell_angle_beta   88.62827692
_cell_angle_gamma   78.74462341
_symmetry_Int_Tables_number   1
_chemical_formula_structural   ZnH6C8O5
_chemical_formula_sum   'Zn4 H24 C32 O20'
_cell_volume   1288.88325316
_cell_formula_units_Z   4
loop_
 _symmetry_equiv_pos_site_id
 _symmetry_equiv_pos_as_xyz
  1  'x, y, z'
loop_
 _atom_site_type_symbol
 _atom_site_label
 _atom_site_symmetry_multiplicity
 _atom_site_fract_x
 _atom_site_fract_y
 _atom_site_fract_z
 _atom_site_occupancy
  Zn  Zn0  1  0.64379458  0.68166446  0.71506924  1.0
  Zn  Zn1  1  0.35621022  0.31833211  0.28492967  1.0
  Zn  Zn2  1  0.95229076  0.76616800  0.78187767  1.0
  Zn  Zn3  1  0.04770991  0.23382754  0.21812197  1.0
  H  H4  1  0.32887976  0.50030652  0.89047715  1.0
  H  H5  1  0.67111334  0.49971053  0.10952104  1.0
  H  H6  1  0.81396560  0.60176471  0.99904909  1.0
  H  H7  1  0.18603413  0.39825027  0.00094911  1.0
  H  H8  1  0.73912113  0.85056576  0.50976241  1.0
  H  H9  1  0.26087516  0.14942069  0.49023376  1.0
  H  H10  1  0.20080970  0.00528228  0.60286302  1.0
  H  H11  1  0.79918224  0.99471027  0.39713468  1.0
  H  H12  1  0.16729705  0.03233252  0.71140113  1.0
  H  H13  1  0.83271095  0.96766286  0.28860431  1.0
  H  H14  1  0.92920757  0.25725685  0.70999537  1.0
  H  H15  1  0.07079146  0.74273126  0.29001609  1.0
  H  H16  1  0.41505585  0.40301713  0.79594676  1.0
  H  H17  1  0.58494179  0.59697824  0.20406000  1.0
  H  H18  1  0.65002579  0.17753880  0.79885443  1.0
  H  H19  1  0.34997808  0.82246283  0.20114649  1.0
  H  H20  1  0.29420404  0.74757297  0.66377105  1.0
  H  H21  1  0.70579450  0.25242364  0.33622703  1.0
  H  H22  1  0.29762674  0.60588504  0.70864580  1.0
  H  H23  1  0.70236934  0.39411250  0.29135628  1.0
  H  H24  1  0.15403188  0.76834447  0.88560176  1.0
  H  H25  1  0.84597485  0.23168792  0.11439397  1.0
  H  H26  1  0.32238668  0.73729140  0.83018435  1.0
  H  H27  1  0.67761773  0.26271744  0.16981383  1.0
  C  C28  1  0.66479308  0.62114743  0.87184441  1.0
  C  C29  1  0.33520005  0.37886350  0.12815339  1.0
  C  C30  1  0.58044175  0.55795856  0.93808214  1.0
  C  C31  1  0.41955242  0.44205441  0.06191593  1.0
  C  C32  1  0.40302570  0.50057780  0.93853769  1.0
  C  C33  1  0.59696998  0.49943517  0.06146034  1.0
  C  C34  1  0.67692235  0.55668405  0.99994619  1.0
  C  C35  1  0.32307466  0.44332991  0.00005220  1.0
  C  C36  1  0.92425986  0.83514434  0.63018992  1.0
  C  C37  1  0.07573165  0.16484826  0.36980578  1.0
  C  C38  1  0.96578263  0.91926237  0.56290120  1.0
  C  C39  1  0.03420670  0.08072618  0.43709347  1.0
  C  C40  1  0.85285999  0.91639634  0.50485437  1.0
  C  C41  1  0.14713067  0.08359321  0.49514066  1.0
  C  C42  1  0.11320994  0.00333707  0.55769210  1.0
  C  C43  1  0.88678035  0.99665451  0.44230374  1.0
  C  C44  1  0.56550431  0.95873202  0.75333275  1.0
  C  C45  1  0.43451133  0.04126961  0.24666631  1.0
  C  C46  1  0.42308394  0.09225990  0.75463378  1.0
  C  C47  1  0.57692997  0.90773449  0.24536957  1.0
  C  C48  1  0.21990262  0.11422622  0.72977791  1.0
  C  C49  1  0.78010490  0.88577119  0.27022784  1.0
  C  C50  1  0.08708555  0.23887678  0.72937148  1.0
  C  C51  1  0.91290722  0.76111137  0.27063917  1.0
  C  C52  1  0.15714257  0.34370458  0.75291308  1.0
  C  C53  1  0.84285974  0.65628465  0.24709365  1.0
  C  C54  1  0.36046866  0.32135544  0.77795105  1.0
  C  C55  1  0.63953155  0.67864313  0.22205030  1.0
  C  C56  1  0.49232339  0.19593838  0.77934349  1.0
  C  C57  1  0.50767829  0.80406217  0.22066012  1.0
  C  C58  1  0.01804150  0.47924492  0.75047423  1.0
  C  C59  1  0.98195629  0.52074846  0.24953072  1.0
  O  O60  1  0.54511193  0.64557186  0.81906419  1.0
  O  O61  1  0.45488777  0.35444214  0.18093261  1.0
  O  O62  1  0.84427947  0.64754575  0.87092808  1.0
  O  O63  1  0.15572033  0.35245699  0.12906935  1.0
  O  O64  1  0.79973307  0.75408372  0.63134249  1.0
  O  O65  1  0.20026450  0.24589862  0.36865456  1.0
  O  O66  1  0.01927314  0.85068126  0.68273749  1.0
  O  O67  1  0.98071661  0.14931038  0.31725585  1.0
  O  O68  1  0.51149013  0.88328322  0.71591943  1.0
  O  O69  1  0.48853185  0.11672466  0.28407430  1.0
  O  O70  1  0.73178216  0.92994108  0.78918660  1.0
  O  O71  1  0.26822333  0.07006053  0.21081478  1.0
  O  O72  1  0.82721957  0.49230385  0.73744649  1.0
  O  O73  1  0.17277861  0.50769146  0.26256276  1.0
  O  O74  1  0.10283409  0.57707126  0.76174798  1.0
  O  O75  1  0.89716745  0.42292831  0.23825372  1.0
  O  O76  1  0.38259355  0.65565178  0.67406272  1.0
  O  O77  1  0.61740714  0.34434475  0.32593831  1.0
  O  O78  1  0.18585303  0.79747396  0.83779952  1.0
  O  O79  1  0.81415088  0.20254006  0.16219564  1.0
