# generated using pymatgen
data_Zn2H15C16N2O8F
_symmetry_space_group_name_H-M   'P 1'
_cell_length_a   9.79271660
_cell_length_b   11.14614946
_cell_length_c   11.16572365
_cell_angle_alpha   88.80131935
_cell_angle_beta   86.26593332
_cell_angle_gamma   82.87202542
_symmetry_Int_Tables_number   1
_chemical_formula_structural   Zn2H15C16N2O8F
_chemical_formula_sum   'Zn2 H15 C16 N2 O8 F1'
_cell_volume   1206.66291395
_cell_formula_units_Z   1
loop_
 _symmetry_equiv_pos_site_id
 _symmetry_equiv_pos_as_xyz
  1  'x, y, z'
loop_
 _atom_site_type_symbol
 _atom_site_label
 _atom_site_symmetry_multiplicity
 _atom_site_fract_x
 _atom_site_fract_y
 _atom_site_fract_z
 _atom_site_occupancy
  Zn  Zn0  1  0.35603900  0.51292828  0.51017388  1.0
  Zn  Zn1  1  0.64072503  0.50186958  0.49302707  1.0
  H  H2  1  0.55681820  0.88653322  0.34051359  1.0
  H  H3  1  0.08543940  0.51210279  0.58988672  1.0
  H  H4  1  0.90722236  0.43077470  0.52132017  1.0
  H  H5  1  0.59139370  0.09584077  0.55349820  1.0
  H  H6  1  0.69663697  0.47274026  0.10147917  1.0
  H  H7  1  0.38914637  0.57173258  0.10077296  1.0
  H  H8  1  0.69807332  0.51312522  0.88012489  1.0
  H  H9  1  0.39499783  0.46522140  0.90979877  1.0
  H  H10  1  0.13826860  0.57288784  0.33642887  1.0
  H  H11  1  0.93918392  0.73143456  0.30801867  1.0
  H  H12  1  0.80791036  0.64081590  0.27253356  1.0
  H  H13  1  0.78112398  0.73061172  0.40081060  1.0
  H  H14  1  0.46178520  0.07291956  0.20947765  1.0
  H  H15  1  0.30530922  0.10798892  0.29626229  1.0
  H  H16  1  0.42049140  0.21930633  0.27547563  1.0
  C  C17  1  0.49858327  0.49014627  0.73317154  1.0
  C  C18  1  0.48845368  0.53690474  0.13503105  1.0
  C  C19  1  0.60085580  0.50128553  0.93030791  1.0
  C  C20  1  0.49290405  0.48465121  0.86615690  1.0
  C  C21  1  0.07769169  0.55469697  0.41971448  1.0
  C  C22  1  0.92440064  0.57241690  0.41871100  1.0
  C  C23  1  0.52303599  0.27498052  0.48240353  1.0
  C  C24  1  0.49384153  0.53114861  0.26748153  1.0
  C  C25  1  0.46474937  0.74327847  0.51394072  1.0
  C  C26  1  0.53290071  0.14102763  0.48196478  1.0
  C  C27  1  0.48392751  0.07356753  0.39944339  1.0
  C  C28  1  0.45152925  0.87873440  0.50619454  1.0
  C  C29  1  0.50285780  0.94113171  0.41333738  1.0
  C  C30  1  0.59932084  0.50147565  0.06025263  1.0
  C  C31  1  0.86171263  0.67580455  0.34549226  1.0
  C  C32  1  0.41482061  0.12246644  0.28917780  1.0
  N  N33  1  0.14479813  0.52393761  0.51211944  1.0
  N  N34  1  0.85098000  0.50048305  0.47799765  1.0
  O  O35  1  0.38784696  0.47136652  0.68551231  1.0
  O  O36  1  0.60968404  0.51394268  0.67665149  1.0
  O  O37  1  0.40803677  0.33615944  0.46046278  1.0
  O  O38  1  0.63159761  0.31939619  0.50803245  1.0
  O  O39  1  0.37931816  0.55957423  0.32840041  1.0
  O  O40  1  0.60978615  0.49841840  0.31147058  1.0
  O  O41  1  0.35881574  0.69525214  0.55070470  1.0
  O  O42  1  0.58214572  0.68862805  0.47923274  1.0
  F  F43  1  0.37195091  0.93518355  0.59792838  1.0
