# generated using pymatgen
data_AlH15(C9O4)3
_symmetry_space_group_name_H-M   'P 1'
_cell_length_a   4.03237807
_cell_length_b   16.00279962
_cell_length_c   16.00511162
_cell_angle_alpha   119.81287803
_cell_angle_beta   90.54689445
_cell_angle_gamma   90.55505873
_symmetry_Int_Tables_number   1
_chemical_formula_structural   AlH15(C9O4)3
_chemical_formula_sum   'Al1 H15 C27 O12'
_cell_volume   895.94731638
_cell_formula_units_Z   1
loop_
 _symmetry_equiv_pos_site_id
 _symmetry_equiv_pos_as_xyz
  1  'x, y, z'
loop_
 _atom_site_type_symbol
 _atom_site_label
 _atom_site_symmetry_multiplicity
 _atom_site_fract_x
 _atom_site_fract_y
 _atom_site_fract_z
 _atom_site_occupancy
  Al  Al0  1  0.00006893  0.50134033  0.49859846  1.0
  H  H1  1  0.49996387  0.92335873  0.07652973  1.0
  H  H2  1  0.50968488  0.65488431  0.07680600  1.0
  H  H3  1  0.49007462  0.92300854  0.34490969  1.0
  H  H4  1  0.79955085  0.05795493  0.16902682  1.0
  H  H5  1  0.16603142  0.05227404  0.38388125  1.0
  H  H6  1  0.20031039  0.83087429  0.94196178  1.0
  H  H7  1  0.83392045  0.61599428  0.94758275  1.0
  H  H8  1  0.80729633  0.61345920  0.16740607  1.0
  H  H9  1  0.19237871  0.83243806  0.38635079  1.0
  H  H10  1  0.01939022  0.29346189  0.49636855  1.0
  H  H11  1  0.96331975  0.29712552  0.30162647  1.0
  H  H12  1  0.03683594  0.69833717  0.70280631  1.0
  H  H13  1  0.98074345  0.50357156  0.70642760  1.0
  H  H14  1  0.84627622  0.48654261  0.29204344  1.0
  H  H15  1  0.15385517  0.70790439  0.51337719  1.0
  C  C16  1  0.51083054  0.57424402  0.64986584  1.0
  C  C17  1  0.50007492  0.57563226  0.42431356  1.0
  C  C18  1  0.48930206  0.35006010  0.42570308  1.0
  C  C19  1  0.51139867  0.78313898  0.06463290  1.0
  C  C20  1  0.49991880  0.88396567  0.11590500  1.0
  C  C21  1  0.48844694  0.93523507  0.21671826  1.0
  C  C22  1  0.48757851  0.88370778  0.26637868  1.0
  C  C23  1  0.49978000  0.78281110  0.21699643  1.0
  C  C24  1  0.51209718  0.73343518  0.11612563  1.0
  C  C25  1  0.66233780  0.19402649  0.28588038  1.0
  C  C26  1  0.65324282  0.09385918  0.23403912  1.0
  C  C27  1  0.48362112  0.04167539  0.26982608  1.0
  C  C28  1  0.31234559  0.09072765  0.35648643  1.0
  C  C29  1  0.30405908  0.19096214  0.40626411  1.0
  C  C30  1  0.48449917  0.24325646  0.37196751  1.0
  C  C31  1  0.34678047  0.76589042  0.90604974  1.0
  C  C32  1  0.33774062  0.71406371  0.80589540  1.0
  C  C33  1  0.51561750  0.62798287  0.75666292  1.0
  C  C34  1  0.69606730  0.59366613  0.80892204  1.0
  C  C35  1  0.68768839  0.64341728  0.90914725  1.0
  C  C36  1  0.51636935  0.73008256  0.95821634  1.0
  C  C37  1  0.66622426  0.64197796  0.23338497  1.0
  C  C38  1  0.67510048  0.59228813  0.28395568  1.0
  C  C39  1  0.49996918  0.62734051  0.37256041  1.0
  C  C40  1  0.32476552  0.71593253  0.40757906  1.0
  C  C41  1  0.33345776  0.76646804  0.35785935  1.0
  C  C42  1  0.49978394  0.72954609  0.27029684  1.0
  O  O43  1  0.25177189  0.39327748  0.40962273  1.0
  O  O44  1  0.27002409  0.51517854  0.60610390  1.0
  O  O45  1  0.27498700  0.59323200  0.48893005  1.0
  O  O46  1  0.73009956  0.39382698  0.48475000  1.0
  O  O47  1  0.72523320  0.51103760  0.40673197  1.0
  O  O48  1  0.74838257  0.59031971  0.60665186  1.0
  O  O49  1  0.12498595  0.23530073  0.48915241  1.0
  O  O50  1  0.84001714  0.24225375  0.24981836  1.0
  O  O51  1  0.16003229  0.75013642  0.75770532  1.0
  O  O52  1  0.87514162  0.51077750  0.76458855  1.0
  O  O53  1  0.84682503  0.50970014  0.24519717  1.0
  O  O54  1  0.15318111  0.75472812  0.49018569  1.0
