# generated using pymatgen
data_NiH30C22(N3O2)2
_symmetry_space_group_name_H-M   'P 1'
_cell_length_a   11.01718910
_cell_length_b   15.46904502
_cell_length_c   15.47321139
_cell_angle_alpha   114.55754529
_cell_angle_beta   103.71274311
_cell_angle_gamma   103.72436925
_symmetry_Int_Tables_number   1
_chemical_formula_structural   NiH30C22(N3O2)2
_chemical_formula_sum   'Ni3 H90 C66 N18 O12'
_cell_volume   2155.33989848
_cell_formula_units_Z   3
loop_
 _symmetry_equiv_pos_site_id
 _symmetry_equiv_pos_as_xyz
  1  'x, y, z'
loop_
 _atom_site_type_symbol
 _atom_site_label
 _atom_site_symmetry_multiplicity
 _atom_site_fract_x
 _atom_site_fract_y
 _atom_site_fract_z
 _atom_site_occupancy
  Ni  Ni0  1  0.50000093  0.00000044  0.50000027  1.0
  Ni  Ni1  1  0.49999971  0.49999918  0.99999943  1.0
  Ni  Ni2  1  0.99999992  0.49999959  0.49999993  1.0
  H  H3  1  0.60278966  0.03235395  0.67666714  1.0
  H  H4  1  0.57053077  0.64442862  0.96779622  1.0
  H  H5  1  0.92602507  0.32323626  0.35569079  1.0
  H  H6  1  0.42946953  0.35557004  0.03220328  1.0
  H  H7  1  0.07397457  0.67676136  0.64430843  1.0
  H  H8  1  0.39721235  0.96764826  0.32333591  1.0
  H  H9  1  0.27000689  0.00884096  0.48721542  1.0
  H  H10  1  0.26113402  0.47835101  0.99123883  1.0
  H  H11  1  0.78284126  0.51296291  0.52160338  1.0
  H  H12  1  0.73886473  0.52164835  0.00876060  1.0
  H  H13  1  0.21715762  0.48703526  0.47839563  1.0
  H  H14  1  0.72999524  0.99116082  0.51278643  1.0
  H  H15  1  0.42235266  0.14726151  0.67246532  1.0
  H  H16  1  0.27532085  0.52519772  0.85290304  1.0
  H  H17  1  0.74992698  0.32764847  0.47491623  1.0
  H  H18  1  0.72467932  0.47480135  0.14709764  1.0
  H  H19  1  0.25007254  0.67235034  0.52508342  1.0
  H  H20  1  0.57764894  0.85273920  0.32753469  1.0
  H  H21  1  0.46078304  0.10527058  0.76281466  1.0
  H  H22  1  0.35558772  0.65755620  0.89482827  1.0
  H  H23  1  0.69797478  0.23717355  0.34259302  1.0
  H  H24  1  0.64441310  0.34244390  0.10517267  1.0
  H  H25  1  0.30202473  0.76282487  0.65740701  1.0
  H  H26  1  0.53921831  0.89473213  0.23718658  1.0
  H  H27  1  0.35242205  0.92145810  0.61667378  1.0
  H  H28  1  0.43093771  0.69522649  0.07862544  1.0
  H  H29  1  0.73564246  0.38319140  0.30478443  1.0
  H  H30  1  0.56906324  0.30477281  0.92137470  1.0
  H  H31  1  0.26435795  0.61680644  0.69521425  1.0
  H  H32  1  0.64758084  0.07854313  0.38332829  1.0
  H  H33  1  0.23662239  0.98463477  0.62515356  1.0
  H  H34  1  0.25201338  0.64052825  0.01544597  1.0
  H  H35  1  0.61151107  0.37492853  0.35961678  1.0
  H  H36  1  0.74798821  0.35947207  0.98455443  1.0
  H  H37  1  0.38848923  0.62507051  0.64038233  1.0
  H  H38  1  0.76337896  0.01536717  0.37484845  1.0
  H  H39  1  0.11350744  0.83799053  0.42887827  1.0
  H  H40  1  0.27527936  0.59076826  0.16204384  1.0
  H  H41  1  0.68464650  0.57115929  0.40896407  1.0
  H  H42  1  0.72472145  0.40923184  0.83795710  1.0
  H  H43  1  0.31535379  0.42883936  0.59103542  1.0
  H  H44  1  0.88649326  0.16201115  0.57112271  1.0
  H  H45  1  0.25540788  0.80174109  0.44274503  1.0
  H  H46  1  0.45340511  0.64090739  0.19829256  1.0
  H  H47  1  0.81278927  0.55724413  0.35893354  1.0
  H  H48  1  0.54659583  0.35909190  0.80170757  1.0
  H  H49  1  0.18721037  0.44275387  0.64106530  1.0
  H  H50  1  0.74459140  0.19825972  0.55725585  1.0
  H  H51  1  0.17161971  0.88513148  0.29915200  1.0
  H  H52  1  0.28623872  0.41389786  0.11494725  1.0
  H  H53  1  0.87234737  0.70086956  0.58588230  1.0
  H  H54  1  0.71375937  0.58610047  0.88505192  1.0
  H  H55  1  0.12765227  0.29912845  0.41411655  1.0
  H  H56  1  0.82838307  0.11487095  0.70085050  1.0
  H  H57  1  0.11234378  0.75345687  0.26070079  1.0
  H  H58  1  0.35877516  0.50712325  0.24657590  1.0
  H  H59  1  0.85168951  0.73941025  0.49275889  1.0
  H  H60  1  0.64122436  0.49287595  0.75342337  1.0
  H  H61  1  0.14831090  0.26058759  0.50723979  1.0
  H  H62  1  0.88765834  0.24654529  0.73930068  1.0
  H  H63  1  0.64267156  0.23294875  0.68965122  1.0
  H  H64  1  0.41005002  0.45689658  0.76721508  1.0
  H  H65  1  0.95302030  0.31039173  0.54331598  1.0
  H  H66  1  0.58994885  0.54310159  0.23278393  1.0
  H  H67  1  0.04698011  0.68960611  0.45668270  1.0
  H  H68  1  0.35733056  0.76705264  0.31035100  1.0
  H  H69  1  0.70917781  0.21819884  0.79700291  1.0
  H  H70  1  0.49126932  0.57904683  0.78201269  1.0
  H  H71  1  0.91226170  0.20297534  0.42125502  1.0
  H  H72  1  0.50873019  0.42095236  0.21798657  1.0
  H  H73  1  0.08773793  0.79702266  0.57874382  1.0
  H  H74  1  0.29082432  0.78180294  0.20299894  1.0
  H  H75  1  0.72957462  0.80087908  0.68972184  1.0
  H  H76  1  0.92895147  0.88866270  0.19916816  1.0
  H  H77  1  0.03985859  0.31025543  0.11112800  1.0
  H  H78  1  0.07104817  0.11133531  0.80083069  1.0
  H  H79  1  0.96013642  0.68974739  0.88886797  1.0
  H  H80  1  0.27042709  0.19912044  0.31027775  1.0
  H  H81  1  0.68475631  0.61833676  0.65460520  1.0
  H  H82  1  0.06655108  0.03624059  0.38165949  1.0
  H  H83  1  0.03009137  0.34528918  0.96365255  1.0
  H  H84  1  0.93344856  0.96375780  0.61833897  1.0
  H  H85  1  0.96990445  0.65471816  0.03634794  1.0
  H  H86  1  0.31524463  0.38166292  0.34539455  1.0
  H  H87  1  0.39777786  0.67681375  0.40567785  1.0
  H  H88  1  0.72118258  0.72877255  0.32339470  1.0
  H  H89  1  0.99190831  0.59438329  0.27106102  1.0
  H  H90  1  0.27881552  0.27122578  0.67660447  1.0
  H  H91  1  0.00808995  0.40561776  0.72894317  1.0
  H  H92  1  0.60222243  0.32318490  0.59432164  1.0
  C  C93  1  0.44581854  0.08601040  0.68273417  1.0
  C  C94  1  0.35995125  0.59675253  0.91412363  1.0
  C  C95  1  0.76309418  0.31728475  0.40337702  1.0
  C  C96  1  0.64005034  0.40324741  0.08587715  1.0
  C  C97  1  0.23690534  0.68271406  0.59662263  1.0
  C  C98  1  0.55418435  0.91399160  0.31726713  1.0
  C  C99  1  0.32805517  0.98322408  0.60813427  1.0
  C  C100  1  0.34486087  0.62492439  0.01687666  1.0
  C  C101  1  0.71992425  0.39187127  0.37514950  1.0
  C  C102  1  0.65513853  0.37507600  0.98312304  1.0
  C  C103  1  0.28007604  0.60812738  0.62484999  1.0
  C  C104  1  0.67194617  0.01677747  0.39186812  1.0
  C  C105  1  0.21381149  0.85236199  0.42357705  1.0
  C  C106  1  0.36123567  0.57111206  0.14766728  1.0
  C  C107  1  0.79024968  0.57644792  0.42868320  1.0
  C  C108  1  0.63876527  0.42888685  0.85233324  1.0
  C  C109  1  0.20975126  0.42355175  0.57131655  1.0
  C  C110  1  0.78618986  0.14763995  0.57642496  1.0
  C  C111  1  0.19820606  0.82709089  0.31401342  1.0
  C  C112  1  0.37089883  0.48677346  0.17289601  1.0
  C  C113  1  0.88415914  0.68602386  0.51302090  1.0
  C  C114  1  0.62910223  0.51322464  0.82710370  1.0
  C  C115  1  0.11584127  0.31397398  0.48697778  1.0
  C  C116  1  0.80179529  0.17291105  0.68598859  1.0
  C  C117  1  0.67901743  0.18242902  0.71265708  1.0
  C  C118  1  0.49688142  0.53042316  0.81774844  1.0
  C  C119  1  0.96638927  0.28735167  0.46980175  1.0
  C  C120  1  0.50311886  0.46957510  0.18225143  1.0
  C  C121  1  0.03360894  0.71264546  0.53019699  1.0
  C  C122  1  0.32098535  0.81757302  0.28734580  1.0
  C  C123  1  0.58948355  0.85911682  0.56898042  1.0
  C  C124  1  0.73046195  0.70986351  0.14103993  1.0
  C  C125  1  0.02058685  0.43106614  0.29008769  1.0
  C  C126  1  0.26953757  0.29013569  0.85895934  1.0
  C  C127  1  0.97941058  0.56893192  0.70991045  1.0
  C  C128  1  0.41051739  0.14088247  0.43101971  1.0
  C  C129  1  0.56700294  0.75177094  0.55001394  1.0
  C  C130  1  0.81551890  0.79818002  0.24839527  1.0
  C  C131  1  0.01695565  0.45000022  0.20166634  1.0
  C  C132  1  0.18447843  0.20181886  0.75160368  1.0
  C  C133  1  0.98304416  0.55000205  0.79833600  1.0
  C  C134  1  0.43299735  0.24822771  0.44998555  1.0
  C  C135  1  0.64790269  0.73488195  0.62105122  1.0
  C  C136  1  0.91333443  0.88605805  0.26520781  1.0
  C  C137  1  0.02685790  0.37893393  0.11377595  1.0
  C  C138  1  0.08666521  0.11394034  0.73479066  1.0
  C  C139  1  0.97314049  0.62106978  0.88622398  1.0
  C  C140  1  0.35209915  0.26511676  0.37894756  1.0
  C  C141  1  0.62276850  0.63497794  0.60207669  1.0
  C  C142  1  0.98797638  0.96705383  0.36504364  1.0
  C  C143  1  0.02061349  0.39783452  0.03282584  1.0
  C  C144  1  0.01202172  0.03294488  0.63495514  1.0
  C  C145  1  0.97938595  0.60217247  0.96717661  1.0
  C  C146  1  0.37723257  0.36502055  0.39792264  1.0
  C  C147  1  0.51563777  0.55386854  0.51195208  1.0
  C  C148  1  0.96185178  0.95804033  0.44612747  1.0
  C  C149  1  0.00363608  0.48799956  0.04188094  1.0
  C  C150  1  0.03814787  0.04195845  0.55387062  1.0
  C  C151  1  0.99636816  0.51201034  0.95812442  1.0
  C  C152  1  0.48436329  0.44612995  0.48804725  1.0
  C  C153  1  0.46271525  0.66577806  0.46232852  1.0
  C  C154  1  0.79714394  0.79645029  0.33437209  1.0
  C  C155  1  0.00022652  0.53769100  0.20339334  1.0
  C  C156  1  0.20285493  0.20354788  0.66562692  1.0
  C  C157  1  0.99977524  0.46231320  0.79661093  1.0
  C  C158  1  0.53728428  0.33422076  0.53767114  1.0
  N  N159  1  0.56701411  0.08216180  0.66023675  1.0
  N  N160  1  0.48503113  0.57817045  0.91798622  1.0
  N  N161  1  0.90676271  0.33974917  0.42195106  1.0
  N  N162  1  0.51496839  0.42182798  0.08201382  1.0
  N  N163  1  0.09323693  0.66024845  0.57804817  1.0
  N  N164  1  0.43298932  0.91784089  0.33976678  1.0
  N  N165  1  0.30656033  0.95896244  0.50149523  1.0
  N  N166  1  0.34754500  0.54249162  0.04110415  1.0
  N  N167  1  0.80508911  0.49855201  0.45742480  1.0
  N  N168  1  0.65245440  0.45750800  0.95889631  1.0
  N  N169  1  0.19491119  0.50144703  0.54257431  1.0
  N  N170  1  0.69344114  0.04103831  0.49850636  1.0
  N  N171  1  0.43603906  0.56930761  0.44312795  1.0
  N  N172  1  0.86690077  0.87377995  0.43078344  1.0
  N  N173  1  0.99279226  0.55685719  0.12611505  1.0
  N  N174  1  0.13309874  0.12621924  0.56921582  1.0
  N  N175  1  0.00721055  0.44315068  0.87389136  1.0
  N  N176  1  0.56396112  0.43069185  0.55687235  1.0
  O  O177  1  0.51001176  0.86474492  0.49758759  1.0
  O  O178  1  0.64529074  0.63292578  0.13549937  1.0
  O  O179  1  0.01260801  0.50255736  0.36710865  1.0
  O  O180  1  0.35470439  0.36707354  0.86449849  1.0
  O  O181  1  0.98738944  0.49743956  0.63289065  1.0
  O  O182  1  0.48998983  0.13525502  0.50241319  1.0
  O  O183  1  0.68036009  0.93331969  0.65202210  1.0
  O  O184  1  0.74711693  0.71877019  0.06684260  1.0
  O  O185  1  0.02840881  0.34796715  0.28119671  1.0
  O  O186  1  0.25288425  0.28122787  0.93315554  1.0
  O  O187  1  0.97159096  0.65203082  0.71880056  1.0
  O  O188  1  0.31964149  0.06667986  0.34797906  1.0
