# generated using pymatgen
data_Zn4H67C80(BrN4)5
_symmetry_space_group_name_H-M   'P 1'
_cell_length_a   20.12832710
_cell_length_b   20.53231548
_cell_length_c   20.73926804
_cell_angle_alpha   105.31256529
_cell_angle_beta   106.69944166
_cell_angle_gamma   112.69842377
_symmetry_Int_Tables_number   1
_chemical_formula_structural   Zn4H67C80(BrN4)5
_chemical_formula_sum   'Zn4 H67 C80 Br5 N20'
_cell_volume   6858.09546427
_cell_formula_units_Z   1
loop_
 _symmetry_equiv_pos_site_id
 _symmetry_equiv_pos_as_xyz
  1  'x, y, z'
loop_
 _atom_site_type_symbol
 _atom_site_label
 _atom_site_symmetry_multiplicity
 _atom_site_fract_x
 _atom_site_fract_y
 _atom_site_fract_z
 _atom_site_occupancy
  Zn  Zn0  1  0.40103780  0.38036873  0.49835891  1.0
  Zn  Zn1  1  0.62316666  0.61470494  0.52358206  1.0
  Zn  Zn2  1  0.42874108  0.50812640  0.41962694  1.0
  Zn  Zn3  1  0.60112049  0.49538262  0.61846334  1.0
  H  H4  1  0.28705189  0.22646169  0.35234838  1.0
  H  H5  1  0.72243868  0.56535910  0.45281431  1.0
  H  H6  1  0.54332106  0.08323410  0.54601272  1.0
  H  H7  1  0.50155313  0.95116845  0.51418411  1.0
  H  H8  1  0.60298029  0.97827300  0.53730864  1.0
  H  H9  1  0.55970710  0.03748969  0.33751530  1.0
  H  H10  1  0.64864005  0.09748431  0.42121352  1.0
  H  H11  1  0.42857784  0.00518636  0.33558163  1.0
  H  H12  1  0.43377301  0.89008968  0.31023727  1.0
  H  H13  1  0.65071089  0.98923076  0.43892403  1.0
  H  H14  1  0.42349617  0.48730507  0.26698296  1.0
  H  H15  1  0.38353504  0.60626604  0.53268574  1.0
  H  H16  1  0.01910937  0.59160565  0.65848780  1.0
  H  H17  1  0.97277849  0.57213605  0.46188070  1.0
  H  H18  1  0.07581538  0.55493686  0.46302986  1.0
  H  H19  1  0.92541071  0.39826730  0.50731320  1.0
  H  H20  1  0.91706801  0.42376533  0.43171926  1.0
  H  H21  1  0.98393824  0.49116012  0.63347531  1.0
  H  H22  1  0.62605769  0.33600886  0.62128050  1.0
  H  H23  1  0.04439728  0.44677913  0.44771926  1.0
  H  H24  1  0.42488073  0.59527348  0.21748688  1.0
  H  H25  1  0.32649633  0.49229209  0.73903118  1.0
  H  H26  1  0.73997703  0.64873647  0.79197411  1.0
  H  H27  1  0.65601230  0.62447119  0.24302574  1.0
  H  H28  1  0.57429770  0.69544836  0.96704197  1.0
  H  H29  1  0.63646106  0.65190140  0.13089625  1.0
  H  H30  1  0.57877247  0.66148971  0.84500075  1.0
  H  H31  1  0.76744060  0.76135599  0.90032587  1.0
  H  H32  1  0.84363788  0.88879582  0.01159118  1.0
  H  H33  1  0.01384751  0.03416864  0.18842922  1.0
  H  H34  1  0.15030230  0.13944067  0.28522166  1.0
  H  H35  1  0.77852997  0.88401221  0.76025789  1.0
  H  H36  1  0.12874584  0.29103445  0.18099609  1.0
  H  H37  1  0.68962375  0.76994647  0.65965535  1.0
  H  H38  1  0.42647118  0.24710684  0.40939058  1.0
  H  H39  1  0.71679205  0.43264248  0.58443634  1.0
  H  H40  1  0.25578396  0.38932656  0.26801534  1.0
  H  H41  1  0.34717271  0.42021513  0.64238224  1.0
  H  H42  1  0.16739629  0.64883479  0.74723824  1.0
  H  H43  1  0.22511305  0.65333594  0.69612555  1.0
  H  H44  1  0.15017421  0.68118275  0.67654311  1.0
  H  H45  1  0.21214606  0.66027202  0.54299432  1.0
  H  H46  1  0.14498347  0.69227709  0.50731352  1.0
  H  H47  1  0.18044158  0.70856206  0.60168729  1.0
  H  H48  1  0.22242397  0.37520966  0.50255089  1.0
  H  H49  1  0.07616665  0.44200576  0.64330369  1.0
  H  H50  1  0.17980524  0.51144347  0.68370650  1.0
  H  H51  1  0.12044547  0.52337032  0.72996154  1.0
  H  H52  1  0.34040560  0.56968809  0.04449850  1.0
  H  H53  1  0.35408758  0.62595937  0.13437622  1.0
  H  H54  1  0.39587300  0.67156039  0.08232251  1.0
  H  H55  1  0.24876323  0.48850189  0.80606372  1.0
  H  H56  1  0.29701398  0.47042706  0.88022070  1.0
  H  H57  1  0.29176302  0.55677163  0.90061118  1.0
  H  H58  1  0.73108960  0.65770489  0.37229259  1.0
  H  H59  1  0.58580185  0.61766380  0.73546226  1.0
  H  H60  1  0.69990684  0.72796878  0.37738620  1.0
  H  H61  1  0.73052296  0.70814175  0.45594620  1.0
  H  H62  1  0.98336458  0.17488664  0.01891444  1.0
  H  H63  1  0.91811967  0.16861104  0.06060677  1.0
  H  H64  1  0.00717252  0.25962433  0.09437980  1.0
  H  H65  1  0.83765597  0.01826269  0.80785860  1.0
  H  H66  1  0.82989803  0.06298215  0.88955413  1.0
  H  H67  1  0.92178790  0.06949628  0.89705917  1.0
  H  H68  1  0.38254246  0.64005973  0.38930495  1.0
  H  H69  1  0.39780456  0.87894023  0.37723825  1.0
  H  H70  1  0.63561659  0.10387239  0.54235630  1.0
  C  C71  1  0.29240247  0.27636626  0.34060244  1.0
  C  C72  1  0.26977489  0.42646768  0.50543560  1.0
  C  C73  1  0.52940436  0.56320275  0.70334770  1.0
  C  C74  1  0.71041404  0.53451856  0.48693248  1.0
  C  C75  1  0.44466193  0.66471628  0.42767200  1.0
  C  C76  1  0.46110777  0.53605149  0.71618903  1.0
  C  C77  1  0.51036086  0.73806163  0.45010077  1.0
  C  C78  1  0.28402779  0.50369528  0.53070911  1.0
  C  C79  1  0.73110188  0.74078137  0.75563622  1.0
  C  C80  1  0.45164723  0.99798844  0.38631752  1.0
  C  C81  1  0.57082809  0.06254110  0.51298558  1.0
  C  C82  1  0.74963881  0.49805178  0.51664596  1.0
  C  C83  1  0.55164910  0.97929005  0.50137098  1.0
  C  C84  1  0.51340039  0.79893681  0.43029398  1.0
  C  C85  1  0.53925371  0.06496486  0.43672910  1.0
  C  C86  1  0.48502814  0.52929101  0.30781998  1.0
  C  C87  1  0.44649043  0.91800800  0.36883613  1.0
  C  C88  1  0.52653486  0.92802108  0.41881657  1.0
  C  C89  1  0.59213980  0.97429360  0.39868669  1.0
  C  C90  1  0.58813891  0.04689541  0.39548689  1.0
  C  C91  1  0.51936279  0.85426568  0.41626511  1.0
  C  C92  1  0.54521107  0.14070868  0.45035493  1.0
  C  C93  1  0.54642224  0.58467147  0.30004215  1.0
  C  C94  1  0.54156866  0.19964298  0.47383704  1.0
  C  C95  1  0.01646197  0.54013270  0.62186126  1.0
  C  C96  1  0.01123049  0.58409370  0.51802145  1.0
  C  C97  1  0.09031944  0.58707869  0.52152713  1.0
  C  C98  1  0.57458600  0.32486123  0.57483432  1.0
  C  C99  1  0.23352242  0.52740046  0.55172891  1.0
  C  C100  1  0.96617042  0.52044744  0.54014121  1.0
  C  C101  1  0.10250014  0.55435940  0.63714235  1.0
  C  C102  1  0.10724538  0.53416290  0.56028184  1.0
  C  C103  1  0.03775486  0.45166873  0.49903159  1.0
  C  C104  1  0.53227776  0.26425702  0.50219662  1.0
  C  C105  1  0.95615309  0.44267589  0.49019373  1.0
  C  C106  1  0.18170773  0.53729723  0.56404629  1.0
  C  C107  1  0.88726640  0.50990857  0.52809700  1.0
  C  C108  1  0.82119558  0.50088220  0.51834742  1.0
  C  C109  1  0.45386347  0.56981021  0.78345000  1.0
  C  C110  1  0.61398469  0.62009076  0.36930855  1.0
  C  C111  1  0.52247732  0.63154777  0.84806782  1.0
  C  C112  1  0.52046914  0.65122611  0.91629823  1.0
  C  C113  1  0.44957216  0.61073466  0.92228570  1.0
  C  C114  1  0.37734965  0.55670382  0.85712219  1.0
  C  C115  1  0.40773117  0.46220159  0.65551845  1.0
  C  C116  1  0.38131959  0.53705035  0.78900189  1.0
  C  C117  1  0.45789063  0.61985744  0.13369896  1.0
  C  C118  1  0.47046856  0.60511579  0.19683546  1.0
  C  C119  1  0.51882365  0.63416016  0.10863857  1.0
  C  C120  1  0.53969080  0.60409976  0.23639023  1.0
  C  C121  1  0.60124355  0.62382533  0.21348843  1.0
  C  C122  1  0.47273071  0.27913209  0.46628298  1.0
  C  C123  1  0.59068502  0.63907749  0.15117679  1.0
  C  C124  1  0.15205041  0.22179731  0.23716064  1.0
  C  C125  1  0.10441226  0.23400233  0.18229868  1.0
  C  C126  1  0.57397675  0.73685338  0.50021679  1.0
  C  C127  1  0.02773830  0.17627060  0.12781344  1.0
  C  C128  1  0.99751379  0.10132652  0.12847711  1.0
  C  C129  1  0.04093863  0.09137812  0.18812090  1.0
  C  C130  1  0.11711271  0.14987242  0.24120736  1.0
  C  C131  1  0.82771808  0.88619762  0.95574109  1.0
  C  C132  1  0.78612007  0.81562553  0.89357769  1.0
  C  C133  1  0.85314459  0.95700489  0.94840255  1.0
  C  C134  1  0.70707721  0.46626655  0.55401133  1.0
  C  C135  1  0.76909207  0.81341736  0.82183730  1.0
  C  C136  1  0.79129718  0.88438165  0.81524029  1.0
  C  C137  1  0.35235384  0.54525217  0.52167205  1.0
  C  C138  1  0.83223292  0.95607901  0.87669614  1.0
  C  C139  1  0.27617108  0.35900741  0.29735748  1.0
  C  C140  1  0.23460927  0.28173772  0.28826032  1.0
  C  C141  1  0.16510178  0.63974479  0.69177328  1.0
  C  C142  1  0.16138110  0.66706087  0.54561129  1.0
  C  C143  1  0.12041031  0.50417772  0.67514082  1.0
  C  C144  1  0.38298818  0.62187630  0.09701373  1.0
  C  C145  1  0.29939590  0.51607716  0.86105917  1.0
  C  C146  1  0.69814895  0.68165324  0.39506760  1.0
  C  C147  1  0.98174495  0.19608620  0.07262629  1.0
  C  C148  1  0.72196859  0.66724848  0.74870105  1.0
  C  C149  1  0.85656880  0.03050183  0.86694634  1.0
  C  C150  1  0.69639496  0.72925498  0.68155431  1.0
  Br  Br151  1  0.68193013  0.81580244  0.54905195  1.0
  Br  Br152  1  0.37873985  0.00630101  0.43135056  1.0
  Br  Br153  1  0.58297021  0.90906454  0.30351161  1.0
  Br  Br154  1  0.02294411  0.68518534  0.57699980  1.0
  Br  Br155  1  0.04392086  0.35902479  0.50603097  1.0
  N  N156  1  0.36220053  0.34496413  0.37882153  1.0
  N  N157  1  0.51619844  0.63958681  0.04200208  1.0
  N  N158  1  0.93133250  0.03074569  0.07186636  1.0
  N  N159  1  0.65075601  0.52656145  0.50726903  1.0
  N  N160  1  0.90698161  0.03084054  0.00797756  1.0
  N  N161  1  0.51285279  0.53164581  0.37651633  1.0
  N  N162  1  0.54257450  0.37142837  0.58196518  1.0
  N  N163  1  0.59180119  0.58863886  0.41413948  1.0
  N  N164  1  0.47906292  0.34243786  0.51422436  1.0
  N  N165  1  0.64885066  0.48447762  0.54806790  1.0
  N  N166  1  0.35138391  0.39573238  0.35106250  1.0
  N  N167  1  0.54908160  0.66943988  0.50730045  1.0
  N  N168  1  0.44241104  0.44628913  0.61177117  1.0
  N  N169  1  0.37577121  0.49602619  0.49231587  1.0
  N  N170  1  0.68540524  0.61651582  0.67659386  1.0
  N  N171  1  0.66945643  0.65560677  0.63489150  1.0
  N  N172  1  0.32429226  0.42272395  0.48233141  1.0
  N  N173  1  0.51758734  0.50892864  0.64107530  1.0
  N  N174  1  0.46836871  0.62477159  0.46159643  1.0
  N  N175  1  0.44751237  0.61451405  0.99051773  1.0
