# generated using pymatgen
data_NiH34C40(NO2)4
_symmetry_space_group_name_H-M   'P 1'
_cell_length_a   10.57480374
_cell_length_b   12.13312863
_cell_length_c   17.37631480
_cell_angle_alpha   69.91600002
_cell_angle_beta   82.28373695
_cell_angle_gamma   77.94179061
_symmetry_Int_Tables_number   1
_chemical_formula_structural   NiH34C40(NO2)4
_chemical_formula_sum   'Ni2 H68 C80 N8 O16'
_cell_volume   2042.95076973
_cell_formula_units_Z   2
loop_
 _symmetry_equiv_pos_site_id
 _symmetry_equiv_pos_as_xyz
  1  'x, y, z'
loop_
 _atom_site_type_symbol
 _atom_site_label
 _atom_site_symmetry_multiplicity
 _atom_site_fract_x
 _atom_site_fract_y
 _atom_site_fract_z
 _atom_site_occupancy
  Ni  Ni0  1  0.50000338  0.49999530  0.00000184  1.0
  Ni  Ni1  1  0.00000107  0.49999623  0.00000089  1.0
  H  H2  1  0.40411393  0.70499742  0.93242045  1.0
  H  H3  1  0.59589030  0.29499365  0.06757553  1.0
  H  H4  1  0.28786151  0.62872700  0.94282713  1.0
  H  H5  1  0.71213656  0.37126278  0.05717301  1.0
  H  H6  1  0.90736367  0.70779410  0.93879776  1.0
  H  H7  1  0.09263205  0.29219612  0.06120928  1.0
  H  H8  1  0.78624308  0.63751839  0.94745549  1.0
  H  H9  1  0.21375423  0.36247591  0.05254828  1.0
  H  H10  1  0.87127486  0.33823195  0.78800846  1.0
  H  H11  1  0.12872834  0.66175146  0.21199718  1.0
  H  H12  1  0.62490385  0.62109667  0.23224934  1.0
  H  H13  1  0.37511033  0.37889590  0.76775226  1.0
  H  H14  1  0.15924422  0.34462525  0.18427050  1.0
  H  H15  1  0.84076365  0.65537583  0.81571428  1.0
  H  H16  1  0.35030318  0.46151541  0.16784007  1.0
  H  H17  1  0.64970863  0.53847585  0.83216565  1.0
  H  H18  1  0.68202737  0.61898495  0.07267946  1.0
  H  H19  1  0.31797112  0.38101533  0.92732091  1.0
  H  H20  1  0.99138072  0.21739169  0.44461325  1.0
  H  H21  1  0.00861630  0.78262905  0.55537540  1.0
  H  H22  1  0.81431260  0.36528752  0.94170020  1.0
  H  H23  1  0.18569235  0.63470271  0.05830302  1.0
  H  H24  1  0.02325073  0.25395133  0.30808716  1.0
  H  H25  1  0.97676652  0.74605275  0.69190446  1.0
  H  H26  1  0.34056321  0.96808830  0.39273735  1.0
  H  H27  1  0.65945145  0.03192093  0.60726185  1.0
  H  H28  1  0.54687833  0.27080263  0.32939993  1.0
  H  H29  1  0.45311046  0.72919083  0.67061490  1.0
  H  H30  1  0.82725922  0.94608893  0.37796157  1.0
  H  H31  1  0.17274333  0.05391360  0.62204467  1.0
  H  H32  1  0.47645970  0.05804295  0.26626279  1.0
  H  H33  1  0.52355404  0.94195532  0.73372933  1.0
  H  H34  1  0.67916420  0.36182752  0.20276188  1.0
  H  H35  1  0.32082708  0.63816154  0.79725008  1.0
  H  H36  1  0.51353508  0.61979153  0.34024290  1.0
  H  H37  1  0.48647305  0.38019668  0.65975593  1.0
  H  H38  1  0.23879999  0.64302248  0.54870498  1.0
  H  H39  1  0.76120159  0.35697541  0.45129687  1.0
  H  H40  1  0.95831678  0.03970788  0.24998124  1.0
  H  H41  1  0.04168090  0.96030557  0.75002764  1.0
  H  H42  1  0.15591864  0.38668466  0.42405924  1.0
  H  H43  1  0.84407856  0.61332812  0.57593297  1.0
  H  H44  1  0.54284218  0.20361672  0.46962088  1.0
  H  H45  1  0.45716220  0.79638516  0.53038142  1.0
  H  H46  1  0.39864541  0.59485137  0.47509900  1.0
  H  H47  1  0.60136253  0.40515001  0.52490010  1.0
  H  H48  1  0.14335387  0.61660827  0.68840730  1.0
  H  H49  1  0.85664546  0.38338526  0.31159173  1.0
  H  H50  1  0.13819448  0.31070730  0.55929249  1.0
  H  H51  1  0.86178850  0.68930499  0.44070045  1.0
  H  H52  1  0.27527533  0.40490916  0.29190516  1.0
  H  H53  1  0.72473361  0.59509051  0.70809567  1.0
  H  H54  1  0.13472997  0.53186957  0.82758113  1.0
  H  H55  1  0.86527279  0.46812419  0.17241944  1.0
  H  H56  1  0.03698166  0.28696568  0.69849174  1.0
  H  H57  1  0.96301380  0.71303740  0.30150126  1.0
  H  H58  1  0.57591630  0.69644895  0.45394573  1.0
  H  H59  1  0.42408475  0.30355188  0.54607050  1.0
  H  H60  1  0.61849679  0.74893662  0.34607365  1.0
  H  H61  1  0.38148668  0.25104590  0.65394237  1.0
  H  H62  1  0.46343174  0.80783830  0.38643689  1.0
  H  H63  1  0.53656062  0.19214680  0.61357910  1.0
  H  H64  1  0.04434616  0.80987672  0.37178681  1.0
  H  H65  1  0.95565002  0.19013279  0.62820966  1.0
  H  H66  1  0.21341386  0.76490825  0.34725252  1.0
  H  H67  1  0.78658908  0.23509784  0.65274733  1.0
  H  H68  1  0.14096099  0.91974604  0.31165601  1.0
  H  H69  1  0.85904145  0.08025731  0.68833477  1.0
  C  C70  1  0.91736009  0.38082791  0.81929319  1.0
  C  C71  1  0.08264532  0.61916420  0.18070536  1.0
  C  C72  1  0.57616352  0.58864176  0.19573005  1.0
  C  C73  1  0.42383235  0.41135937  0.80426310  1.0
  C  C74  1  0.19941862  0.26249788  0.23057815  1.0
  C  C75  1  0.80058602  0.73749675  0.76941144  1.0
  C  C76  1  0.90213510  0.26026046  0.13919930  1.0
  C  C77  1  0.09785634  0.73973861  0.86080974  1.0
  C  C78  1  0.59143690  0.04672917  0.43420276  1.0
  C  C79  1  0.40856274  0.95326228  0.56581211  1.0
  C  C80  1  0.43270259  0.50334521  0.16441667  1.0
  C  C81  1  0.56729881  0.49665049  0.83558376  1.0
  C  C82  1  0.60424953  0.58673128  0.11682916  1.0
  C  C83  1  0.39574275  0.41327151  0.88316602  1.0
  C  C84  1  0.08782476  0.04861957  0.43157379  1.0
  C  C85  1  0.91216941  0.95141132  0.56841276  1.0
  C  C86  1  0.99576479  0.12110726  0.46771950  1.0
  C  C87  1  0.00423117  0.87891686  0.53226571  1.0
  C  C88  1  0.40114446  0.51753931  0.30484247  1.0
  C  C89  1  0.59885088  0.48246220  0.69515305  1.0
  C  C90  1  0.08134596  0.45064845  0.70269291  1.0
  C  C91  1  0.91865311  0.54934746  0.29730461  1.0
  C  C92  1  0.09012384  0.92456442  0.46643653  1.0
  C  C93  1  0.90986866  0.07546236  0.53354877  1.0
  C  C94  1  0.88971038  0.39558158  0.89488500  1.0
  C  C95  1  0.11029061  0.60441112  0.10512125  1.0
  C  C96  1  0.67681547  0.10116905  0.36271318  1.0
  C  C97  1  0.32318194  0.89882705  0.63729789  1.0
  C  C98  1  0.12364242  0.21213109  0.30072741  1.0
  C  C99  1  0.87636361  0.78787350  0.69926296  1.0
  C  C100  1  0.26553561  0.49104058  0.46068371  1.0
  C  C101  1  0.73445961  0.50896720  0.53930998  1.0
  C  C102  1  0.30085516  0.04987318  0.34643906  1.0
  C  C103  1  0.69914894  0.95012701  0.65355674  1.0
  C  C104  1  0.63866161  0.22018407  0.31354067  1.0
  C  C105  1  0.36134169  0.77980636  0.68647610  1.0
  C  C106  1  0.79421806  0.03716395  0.33949659  1.0
  C  C107  1  0.20579214  0.96283685  0.66051130  1.0
  C  C108  1  0.32598233  0.20617953  0.21661534  1.0
  C  C109  1  0.67402199  0.79382438  0.78337484  1.0
  C  C110  1  0.19759107  0.47852005  0.54243242  1.0
  C  C111  1  0.80240574  0.52148396  0.45756235  1.0
  C  C112  1  0.17208238  0.10360776  0.35953794  1.0
  C  C113  1  0.82793043  0.89640762  0.64045867  1.0
  C  C114  1  0.82613280  0.20576328  0.21802293  1.0
  C  C115  1  0.17386885  0.79423493  0.78199323  1.0
  C  C116  1  0.37673019  0.10004721  0.27626289  1.0
  C  C117  1  0.62327577  0.89994660  0.72372568  1.0
  C  C118  1  0.71177245  0.27122745  0.24219446  1.0
  C  C119  1  0.28822363  0.72877466  0.75782146  1.0
  C  C120  1  0.43507802  0.56885512  0.35818955  1.0
  C  C121  1  0.56492517  0.43114397  0.64180740  1.0
  C  C122  1  0.19788490  0.56278492  0.58146043  1.0
  C  C123  1  0.80210852  0.43721221  0.41854051  1.0
  C  C124  1  0.86770936  0.08883477  0.26852456  1.0
  C  C125  1  0.13229768  0.91117011  0.73148012  1.0
  C  C126  1  0.23465752  0.43784875  0.40690225  1.0
  C  C127  1  0.76533972  0.56215507  0.59309545  1.0
  C  C128  1  0.52273842  0.11435931  0.48254019  1.0
  C  C129  1  0.47725480  0.88563323  0.51747732  1.0
  C  C130  1  0.56648976  0.92997292  0.45314234  1.0
  C  C131  1  0.43350959  0.07001452  0.54686382  1.0
  C  C132  1  0.36865048  0.55522568  0.43456518  1.0
  C  C133  1  0.63134798  0.44478069  0.56542806  1.0
  C  C134  1  0.14144551  0.54922002  0.66043434  1.0
  C  C135  1  0.85854492  0.45077612  0.33956857  1.0
  C  C136  1  0.40540481  0.25832827  0.13889281  1.0
  C  C137  1  0.59461145  0.74166447  0.86109760  1.0
  C  C138  1  0.13630313  0.38040469  0.58590715  1.0
  C  C139  1  0.86368564  0.61960243  0.41408640  1.0
  C  C140  1  0.30153100  0.44961735  0.33057496  1.0
  C  C141  1  0.69846840  0.55038175  0.66942204  1.0
  C  C142  1  0.05452866  0.48469242  0.83702349  1.0
  C  C143  1  0.94546581  0.51530421  0.16298252  1.0
  C  C144  1  0.07942600  0.36599757  0.66498570  1.0
  C  C145  1  0.92057044  0.63400726  0.33501007  1.0
  C  C146  1  0.56665772  0.77480398  0.39790804  1.0
  C  C147  1  0.43333205  0.22518602  0.60210572  1.0
  C  C148  1  0.14102626  0.83490740  0.36219944  1.0
  C  C149  1  0.85897079  0.16510206  0.63779250  1.0
  N  N150  1  0.97579681  0.46072197  0.90465081  1.0
  N  N151  1  0.02421046  0.53927358  0.09534877  1.0
  N  N152  1  0.51423277  0.53275834  0.09872553  1.0
  N  N153  1  0.48576389  0.46723740  0.90127495  1.0
  N  N154  1  0.02193060  0.43792544  0.78267898  1.0
  N  N155  1  0.97806602  0.56207143  0.21732034  1.0
  N  N156  1  0.46698845  0.53512811  0.22599083  1.0
  N  N157  1  0.53300819  0.46487834  0.77400693  1.0
  O  O158  1  0.35087635  0.35217348  0.08472314  1.0
  O  O159  1  0.64912628  0.64783207  0.91526905  1.0
  O  O160  1  0.52260600  0.20912294  0.13235739  1.0
  O  O161  1  0.47740518  0.79086168  0.86763957  1.0
  O  O162  1  0.35930787  0.63612142  0.97300872  1.0
  O  O163  1  0.64069803  0.36387145  0.02698630  1.0
  O  O164  1  0.86142611  0.63937863  0.97720687  1.0
  O  O165  1  0.13857355  0.36061258  0.02279819  1.0
  O  O166  1  0.01365573  0.20493308  0.12540474  1.0
  O  O167  1  0.98632289  0.79507290  0.87459380  1.0
  O  O168  1  0.84995558  0.36227071  0.09139118  1.0
  O  O169  1  0.15004092  0.63772690  0.90861287  1.0
  O  O170  1  0.62782094  0.86614082  0.40261333  1.0
  O  O171  1  0.37217212  0.13386671  0.59738705  1.0
  O  O172  1  0.17683508  0.84257938  0.43684827  1.0
  O  O173  1  0.82316025  0.15744531  0.56314460  1.0
