# generated using pymatgen
data_ZnH8C18N3O4
_symmetry_space_group_name_H-M   'P 1'
_cell_length_a   9.77949532
_cell_length_b   11.07268043
_cell_length_c   13.30499143
_cell_angle_alpha   89.75267173
_cell_angle_beta   70.55939770
_cell_angle_gamma   88.57960251
_symmetry_Int_Tables_number   1
_chemical_formula_structural   ZnH8C18N3O4
_chemical_formula_sum   'Zn2 H16 C36 N6 O8'
_cell_volume   1358.16421476
_cell_formula_units_Z   2
loop_
 _symmetry_equiv_pos_site_id
 _symmetry_equiv_pos_as_xyz
  1  'x, y, z'
loop_
 _atom_site_type_symbol
 _atom_site_label
 _atom_site_symmetry_multiplicity
 _atom_site_fract_x
 _atom_site_fract_y
 _atom_site_fract_z
 _atom_site_occupancy
  Zn  Zn0  1  0.64857890  0.50175084  0.50236663  1.0
  Zn  Zn1  1  0.35278624  0.50844933  0.51162713  1.0
  H  H2  1  0.77482738  0.11837136  0.32514930  1.0
  H  H3  1  0.80885801  0.89667932  0.32419963  1.0
  H  H4  1  0.85193849  0.90208459  0.44539566  1.0
  H  H5  1  0.06783340  0.39638023  0.64448879  1.0
  H  H6  1  0.81498150  0.39205632  0.63867468  1.0
  H  H7  1  0.99223018  0.59253499  0.26441978  1.0
  H  H8  1  0.93258060  0.72403219  0.34610950  1.0
  H  H9  1  0.24353631  0.61205384  0.27552444  1.0
  H  H10  1  0.13885612  0.38330919  0.20565458  1.0
  H  H11  1  0.18186838  0.73991454  0.36273577  1.0
  H  H12  1  0.07145447  0.44582029  0.04870706  1.0
  H  H13  1  0.59059253  0.45360372  0.82408649  1.0
  H  H14  1  0.73246008  0.36312102  0.88774876  1.0
  H  H15  1  0.91216404  0.33472867  0.97757101  1.0
  H  H16  1  0.84289100  0.38321054  0.17358625  1.0
  H  H17  1  0.32468723  0.37654475  0.29281776  1.0
  C  C18  1  0.50485031  0.73913059  0.49865867  1.0
  C  C19  1  0.55082082  0.39597976  0.03343765  1.0
  C  C20  1  0.50748435  0.40000716  0.14713478  1.0
  C  C21  1  0.44150205  0.41834747  0.98335705  1.0
  C  C22  1  0.29174759  0.41873959  0.04717039  1.0
  C  C23  1  0.25295346  0.39529716  0.15885958  1.0
  C  C24  1  0.35606205  0.39090606  0.20736853  1.0
  C  C25  1  0.47766672  0.44765510  0.87467904  1.0
  C  C26  1  0.22362061  0.47227246  0.89149931  1.0
  C  C27  1  0.61767586  0.40685739  0.19534164  1.0
  C  C28  1  0.62158108  0.94375084  0.47017882  1.0
  C  C29  1  0.58486205  0.45311545  0.30675153  1.0
  C  C30  1  0.49946304  0.87384633  0.51147506  1.0
  C  C31  1  0.36854726  0.93886457  0.56611176  1.0
  C  C32  1  0.36517232  0.06721521  0.57679148  1.0
  C  C33  1  0.49082936  0.13570520  0.52966703  1.0
  C  C34  1  0.61592759  0.06922032  0.47780049  1.0
  C  C35  1  0.77178056  0.08258751  0.40327865  1.0
  C  C36  1  0.78075050  0.93850171  0.40332675  1.0
  C  C37  1  0.10222685  0.56693211  0.43890076  1.0
  C  C38  1  0.03878273  0.44614550  0.58350466  1.0
  C  C39  1  0.89764640  0.44314203  0.57990907  1.0
  C  C40  1  0.48973154  0.27086240  0.52732814  1.0
  C  C41  1  0.96280701  0.56135945  0.43415124  1.0
  C  C42  1  0.99634329  0.63948103  0.33585576  1.0
  C  C43  1  0.15475811  0.64921840  0.34341265  1.0
  C  C44  1  0.41940125  0.50335375  0.71187127  1.0
  C  C45  1  0.18566568  0.44464052  0.99946517  1.0
  C  C46  1  0.37312348  0.47496484  0.82819865  1.0
  C  C47  1  0.76139711  0.38159191  0.13410535  1.0
  C  C48  1  0.80044048  0.35808965  0.02459742  1.0
  C  C49  1  0.69800512  0.37209873  0.97412182  1.0
  C  C50  1  0.10848593  0.49974954  0.85060742  1.0
  C  C51  1  0.23299636  0.12786104  0.63767509  1.0
  C  C52  1  0.87663426  0.14724609  0.43666443  1.0
  C  C53  1  0.23285253  0.88028288  0.61052622  1.0
  N  N54  1  0.14440371  0.50938034  0.51197715  1.0
  N  N55  1  0.85697187  0.50116750  0.50410493  1.0
  N  N56  1  0.00469339  0.51952499  0.82764261  1.0
  N  N57  1  0.12687028  0.17750833  0.69059985  1.0
  N  N58  1  0.96650220  0.19775162  0.45809953  1.0
  N  N59  1  0.11531216  0.84427573  0.64721475  1.0
  O  O60  1  0.62908292  0.68670311  0.47416516  1.0
  O  O61  1  0.38401608  0.68999682  0.51413380  1.0
  O  O62  1  0.68474487  0.44375992  0.34877156  1.0
  O  O63  1  0.46130083  0.50441764  0.35114022  1.0
  O  O64  1  0.59664897  0.32004955  0.54305611  1.0
  O  O65  1  0.38573673  0.32132765  0.50517218  1.0
  O  O66  1  0.55067059  0.53133867  0.66453450  1.0
  O  O67  1  0.32194441  0.49417942  0.66872802  1.0
