# generated using pymatgen
data_AlH9C24(BrO2)3
_symmetry_space_group_name_H-M   'P 1'
_cell_length_a   4.01598178
_cell_length_b   29.01598685
_cell_length_c   29.01419912
_cell_angle_alpha   120.00075003
_cell_angle_beta   90.00258020
_cell_angle_gamma   89.99630491
_symmetry_Int_Tables_number   1
_chemical_formula_structural   AlH9C24(BrO2)3
_chemical_formula_sum   'Al2 H18 C48 Br6 O12'
_cell_volume   2927.97264630
_cell_formula_units_Z   2
loop_
 _symmetry_equiv_pos_site_id
 _symmetry_equiv_pos_as_xyz
  1  'x, y, z'
loop_
 _atom_site_type_symbol
 _atom_site_label
 _atom_site_symmetry_multiplicity
 _atom_site_fract_x
 _atom_site_fract_y
 _atom_site_fract_z
 _atom_site_occupancy
  Al  Al0  1  0.00598713  0.49999572  0.00001103  1.0
  Al  Al1  1  0.00606181  0.83335135  0.66670081  1.0
  H  H2  1  0.20674709  0.69844115  0.51985094  1.0
  H  H3  1  0.21369990  0.64837881  0.42033785  1.0
  H  H4  1  0.78182155  0.82376025  0.52030969  1.0
  H  H5  1  0.78083206  0.50949915  0.14638812  1.0
  H  H6  1  0.20754221  0.63499119  0.14685184  1.0
  H  H7  1  0.21452621  0.68505145  0.24636574  1.0
  H  H8  1  0.20680104  0.82140697  0.80160005  1.0
  H  H9  1  0.21373327  0.77195461  0.85165708  1.0
  H  H10  1  0.78172718  0.69652405  0.67624718  1.0
  H  H11  1  0.78084175  0.63685292  0.99049759  1.0
  H  H12  1  0.20752564  0.51183767  0.86500443  1.0
  H  H13  1  0.21453129  0.56127903  0.81493869  1.0
  H  H14  1  0.20676903  0.98015600  0.67857856  1.0
  H  H15  1  0.21360624  0.07966368  0.72799632  1.0
  H  H16  1  0.78168910  0.97976861  0.80350782  1.0
  H  H17  1  0.78018258  0.35362563  0.86305507  1.0
  H  H18  1  0.20772447  0.35316632  0.98815646  1.0
  H  H19  1  0.21447196  0.25365609  0.93867888  1.0
  C  C20  1  0.50455195  0.41833938  0.95915333  1.0
  C  C21  1  0.50458867  0.54082343  0.08167132  1.0
  C  C22  1  0.50456958  0.54082480  0.95917921  1.0
  C  C23  1  0.50466350  0.79252728  0.58503299  1.0
  C  C24  1  0.50467014  0.79249998  0.70751116  1.0
  C  C25  1  0.50466287  0.91501292  0.70753624  1.0
  C  C26  1  0.49722042  0.76365481  0.52586278  1.0
  C  C27  1  0.33350360  0.71452745  0.49779902  1.0
  C  C28  1  0.33593391  0.68693018  0.44260825  1.0
  C  C29  1  0.48923208  0.70857966  0.41377268  1.0
  C  C30  1  0.64181824  0.75913826  0.44303632  1.0
  C  C31  1  0.65357895  0.78577072  0.49825100  1.0
  C  C32  1  0.48741694  0.67989737  0.35758496  1.0
  C  C33  1  0.48736297  0.65344192  0.30911412  1.0
  C  C34  1  0.48910860  0.62476327  0.25292681  1.0
  C  C35  1  0.64124245  0.57416440  0.22365717  1.0
  C  C36  1  0.65297040  0.54752562  0.16844730  1.0
  C  C37  1  0.49708397  0.56968747  0.14083831  1.0
  C  C38  1  0.33383715  0.61885791  0.16890247  1.0
  C  C39  1  0.33628983  0.64645678  0.22409166  1.0
  C  C40  1  0.49719627  0.76219447  0.73637131  1.0
  C  C41  1  0.33350187  0.78326098  0.78550548  1.0
  C  C42  1  0.33591021  0.75566672  0.81309603  1.0
  C  C43  1  0.48917074  0.70517548  0.79143703  1.0
  C  C44  1  0.64175543  0.68388227  0.74087132  1.0
  C  C45  1  0.65350545  0.71246104  0.71424429  1.0
  C  C46  1  0.48734863  0.67766421  0.82010890  1.0
  C  C47  1  0.48731780  0.65563894  0.84655518  1.0
  C  C48  1  0.48909880  0.62812825  0.87522824  1.0
  C  C49  1  0.64122416  0.64945679  0.92583094  1.0
  C  C50  1  0.65298271  0.62088887  0.95246954  1.0
  C  C51  1  0.49707576  0.57112226  0.93031109  1.0
  C  C52  1  0.33383001  0.55002087  0.88113794  1.0
  C  C53  1  0.33629718  0.57760077  0.85353664  1.0
  C  C54  1  0.49716188  0.97417803  0.73781483  1.0
  C  C55  1  0.33345539  0.00222441  0.71672779  1.0
  C  C56  1  0.33581796  0.05740818  0.74430015  1.0
  C  C57  1  0.48904472  0.08626141  0.79479370  1.0
  C  C58  1  0.64163491  0.05701644  0.81611264  1.0
  C  C59  1  0.65345054  0.00180817  0.78755329  1.0
  C  C60  1  0.48710923  0.14244691  0.82228924  1.0
  C  C61  1  0.48698238  0.19091207  0.84429509  1.0
  C  C62  1  0.48869232  0.24709689  0.87179621  1.0
  C  C63  1  0.64064285  0.27636230  0.85045137  1.0
  C  C64  1  0.65245283  0.33156787  0.87903105  1.0
  C  C65  1  0.49683373  0.35917679  0.92882657  1.0
  C  C66  1  0.33375487  0.33111379  0.94994652  1.0
  C  C67  1  0.33609101  0.27592896  0.92234590  1.0
  Br  Br68  1  0.83711506  0.79135916  0.40657210  1.0
  Br  Br69  1  0.83605200  0.54190944  0.26012584  1.0
  Br  Br70  1  0.83703298  0.61519111  0.70864257  1.0
  Br  Br71  1  0.83606541  0.71817514  0.95809082  1.0
  Br  Br72  1  0.83683013  0.09350877  0.88481109  1.0
  Br  Br73  1  0.83517299  0.23989213  0.78170644  1.0
  O  O74  1  0.74204871  0.55065797  0.99209697  1.0
  O  O75  1  0.74209120  0.44141483  0.94933229  1.0
  O  O76  1  0.74206856  0.50790838  0.05858701  1.0
  O  O77  1  0.27268951  0.50692125  0.94898901  1.0
  O  O78  1  0.27268425  0.55101407  0.05795428  1.0
  O  O79  1  0.27274066  0.44206079  0.99308003  1.0
  O  O80  1  0.74212329  0.89192862  0.71737298  1.0
  O  O81  1  0.74211107  0.82544574  0.60812304  1.0
  O  O82  1  0.74214088  0.78267483  0.67459596  1.0
  O  O83  1  0.27273949  0.89129450  0.67363325  1.0
  O  O84  1  0.27276076  0.82640563  0.71770398  1.0
  O  O85  1  0.27275606  0.78233782  0.60874668  1.0
