# generated using pymatgen
data_AlH7C14N2O5F2
_symmetry_space_group_name_H-M   'P 1'
_cell_length_a   6.76008517
_cell_length_b   16.89014013
_cell_length_c   16.89028352
_cell_angle_alpha   83.41291280
_cell_angle_beta   84.13441632
_cell_angle_gamma   84.13389614
_symmetry_Int_Tables_number   1
_chemical_formula_structural   AlH7C14N2O5F2
_chemical_formula_sum   'Al2 H14 C28 N4 O10 F4'
_cell_volume   1897.74570607
_cell_formula_units_Z   2
loop_
 _symmetry_equiv_pos_site_id
 _symmetry_equiv_pos_as_xyz
  1  'x, y, z'
loop_
 _atom_site_type_symbol
 _atom_site_label
 _atom_site_symmetry_multiplicity
 _atom_site_fract_x
 _atom_site_fract_y
 _atom_site_fract_z
 _atom_site_occupancy
  Al  Al0  1  0.50000833  0.49999680  0.49999843  1.0
  Al  Al1  1  0.00001381  0.49999936  0.50000348  1.0
  H  H2  1  0.75002380  0.42111698  0.57886536  1.0
  H  H3  1  0.24997357  0.57886437  0.42112031  1.0
  H  H4  1  0.36456464  0.73245340  0.50691753  1.0
  H  H5  1  0.29607808  0.88113876  0.50584224  1.0
  H  H6  1  0.92839405  0.90036740  0.49857997  1.0
  H  H7  1  0.07160519  0.09963413  0.50140939  1.0
  H  H8  1  0.70390258  0.11885620  0.49415857  1.0
  H  H9  1  0.63541930  0.26754041  0.49308262  1.0
  H  H10  1  0.86455778  0.50688713  0.73246971  1.0
  H  H11  1  0.79609497  0.50579037  0.88115053  1.0
  H  H12  1  0.42837301  0.49858063  0.90035867  1.0
  H  H13  1  0.57161021  0.50144281  0.09964754  1.0
  H  H14  1  0.20392903  0.49418776  0.11884598  1.0
  H  H15  1  0.13546496  0.49309170  0.26753866  1.0
  C  C16  1  0.20926259  0.50089112  0.64344596  1.0
  C  C17  1  0.29063877  0.35655918  0.49911567  1.0
  C  C18  1  0.79076178  0.49911209  0.35655098  1.0
  C  C19  1  0.70935417  0.64344489  0.50088387  1.0
  C  C20  1  0.68165575  0.73221240  0.50240529  1.0
  C  C21  1  0.48596783  0.77039695  0.50480539  1.0
  C  C22  1  0.44770843  0.85242935  0.50432240  1.0
  C  C23  1  0.60810608  0.89987426  0.50181321  1.0
  C  C24  1  0.80421706  0.86370931  0.50029614  1.0
  C  C25  1  0.83796158  0.78123751  0.50037270  1.0
  C  C26  1  0.19576509  0.13629056  0.49970186  1.0
  C  C27  1  0.39187515  0.10012329  0.49818264  1.0
  C  C28  1  0.55228118  0.14756428  0.49566861  1.0
  C  C29  1  0.51401902  0.22959603  0.49518640  1.0
  C  C30  1  0.31833529  0.26778755  0.49759228  1.0
  C  C31  1  0.16202824  0.21875686  0.49962951  1.0
  C  C32  1  0.18163638  0.50239317  0.73220869  1.0
  C  C33  1  0.98596844  0.50477567  0.77040477  1.0
  C  C34  1  0.94771368  0.50431765  0.85243330  1.0
  C  C35  1  0.10812554  0.50183144  0.89987417  1.0
  C  C36  1  0.30421371  0.50031317  0.86369779  1.0
  C  C37  1  0.33793307  0.50037945  0.78123348  1.0
  C  C38  1  0.69577681  0.49970509  0.13630493  1.0
  C  C39  1  0.89186029  0.49817184  0.10012873  1.0
  C  C40  1  0.05229010  0.49565892  0.14756843  1.0
  C  C41  1  0.01404603  0.49519493  0.22959869  1.0
  C  C42  1  0.81836572  0.49760005  0.26779481  1.0
  C  C43  1  0.66206794  0.49963346  0.21877034  1.0
  N  N44  1  0.58897362  0.98409517  0.50063267  1.0
  N  N45  1  0.41102465  0.01590991  0.49935765  1.0
  N  N46  1  0.08898421  0.50062783  0.98410041  1.0
  N  N47  1  0.91101751  0.49937687  0.01589985  1.0
  O  O48  1  0.38617664  0.49391052  0.60966927  1.0
  O  O49  1  0.11371468  0.39031770  0.50610281  1.0
  O  O50  1  0.95112759  0.49459121  0.39115462  1.0
  O  O51  1  0.54899769  0.60883509  0.50541855  1.0
  O  O52  1  0.61385085  0.50608768  0.39033384  1.0
  O  O53  1  0.88627620  0.60968194  0.49388768  1.0
  O  O54  1  0.04888997  0.50542030  0.60884259  1.0
  O  O55  1  0.45100764  0.39115794  0.49459014  1.0
  O  O56  1  0.74999641  0.46417037  0.53579034  1.0
  O  O57  1  0.25001152  0.53582254  0.46420697  1.0
  F  F58  1  0.03101093  0.74961662  0.49828058  1.0
  F  F59  1  0.96898463  0.25039174  0.50170192  1.0
  F  F60  1  0.53097756  0.49830927  0.74961414  1.0
  F  F61  1  0.46902812  0.50172889  0.25038692  1.0
