# generated using pymatgen
data_Zn4H18C41O30
_symmetry_space_group_name_H-M   'P 1'
_cell_length_a   15.19724569
_cell_length_b   20.09035982
_cell_length_c   22.66502962
_cell_angle_alpha   89.85826009
_cell_angle_beta   90.72453527
_cell_angle_gamma   89.65817388
_symmetry_Int_Tables_number   1
_chemical_formula_structural   Zn4H18C41O30
_chemical_formula_sum   'Zn8 H36 C82 O60'
_cell_volume   6919.34564174
_cell_formula_units_Z   2
loop_
 _symmetry_equiv_pos_site_id
 _symmetry_equiv_pos_as_xyz
  1  'x, y, z'
loop_
 _atom_site_type_symbol
 _atom_site_label
 _atom_site_symmetry_multiplicity
 _atom_site_fract_x
 _atom_site_fract_y
 _atom_site_fract_z
 _atom_site_occupancy
  Zn  Zn0  1  0.56922828  0.58303377  0.00018233  1.0
  Zn  Zn1  1  0.57054277  0.08227088  0.49700038  1.0
  Zn  Zn2  1  0.58051740  0.42412686  0.99505992  1.0
  Zn  Zn3  1  0.58481778  0.92317386  0.49820020  1.0
  Zn  Zn4  1  0.42373259  0.49454517  0.92873995  1.0
  Zn  Zn5  1  0.42806928  0.49666284  0.06913497  1.0
  Zn  Zn6  1  0.42525272  0.99368380  0.42842541  1.0
  Zn  Zn7  1  0.42891341  0.99664343  0.56771010  1.0
  H  H8  1  0.14833213  0.55365553  0.06119125  1.0
  H  H9  1  0.24687286  0.87596154  0.43433117  1.0
  H  H10  1  0.49848178  0.17626481  0.93644013  1.0
  H  H11  1  0.69346269  0.36970456  0.12118373  1.0
  H  H12  1  0.50262762  0.67723229  0.43682259  1.0
  H  H13  1  0.68638300  0.87387547  0.62061799  1.0
  H  H14  1  0.47056940  0.37473293  0.62483958  1.0
  H  H15  1  0.25896755  0.24839281  0.27067865  1.0
  H  H16  1  0.47129041  0.87629701  0.12595429  1.0
  H  H17  1  0.26042915  0.74458039  0.77654780  1.0
  H  H18  1  0.52092635  0.62823375  0.37558908  1.0
  H  H19  1  0.15097738  0.05619118  0.55893988  1.0
  H  H20  1  0.74815885  0.77557507  0.72432304  1.0
  H  H21  1  0.51818156  0.12758757  0.87537776  1.0
  H  H22  1  0.74884384  0.26484540  0.22137249  1.0
  H  H23  1  0.46403615  0.82634705  0.06335740  1.0
  H  H24  1  0.25213208  0.68552005  0.83094593  1.0
  H  H25  1  0.47050673  0.32503843  0.56236739  1.0
  H  H26  1  0.24709156  0.18890102  0.32450831  1.0
  H  H27  1  0.46413340  0.57659745  0.19142843  1.0
  H  H28  1  0.62699066  0.66857080  0.87788405  1.0
  H  H29  1  0.46848763  0.07527480  0.69038016  1.0
  H  H30  1  0.50433049  0.40639383  0.73126597  1.0
  H  H31  1  0.62069166  0.16439406  0.37523129  1.0
  H  H32  1  0.78256848  0.42005512  0.96702362  1.0
  H  H33  1  0.89414565  0.89227236  0.43930610  1.0
  H  H34  1  0.87795346  0.64263178  0.09644041  1.0
  H  H35  1  0.87249147  0.14270265  0.59798618  1.0
  H  H36  1  0.05187590  0.34695702  0.91010198  1.0
  H  H37  1  0.06953776  0.83856156  0.40756766  1.0
  H  H38  1  0.33198379  0.30320486  0.18347926  1.0
  H  H39  1  0.51312681  0.90704382  0.23151636  1.0
  H  H40  1  0.32920553  0.80052107  0.68846983  1.0
  H  H41  1  0.06385953  0.62598710  0.07784999  1.0
  H  H42  1  0.06518325  0.12368553  0.58427592  1.0
  H  H43  1  0.25215600  0.37758221  0.93839278  1.0
  C  C44  1  0.52496250  0.37643469  0.11058118  1.0
  C  C45  1  0.46352423  0.26097387  0.23712061  1.0
  C  C46  1  0.50015409  0.78437402  0.24113420  1.0
  C  C47  1  0.46359611  0.76241835  0.74140492  1.0
  C  C48  1  0.50334298  0.33333333  0.78566109  1.0
  C  C49  1  0.45798434  0.30311297  0.18571286  1.0
  C  C50  1  0.51130927  0.83406731  0.28594959  1.0
  C  C51  1  0.45510712  0.80313135  0.68934548  1.0
  C  C52  1  0.50072899  0.24721588  0.86152621  1.0
  C  C53  1  0.61851068  0.30664559  0.18154617  1.0
  C  C54  1  0.50683541  0.74813420  0.36186671  1.0
  C  C55  1  0.50383472  0.36982684  0.88966802  1.0
  C  C56  1  0.61519892  0.81106754  0.68375053  1.0
  C  C57  1  0.50353854  0.19709698  0.81810877  1.0
  C  C58  1  0.62573604  0.26270394  0.23068065  1.0
  C  C59  1  0.50688364  0.69793769  0.31842891  1.0
  C  C60  1  0.62544454  0.76909014  0.73404689  1.0
  C  C61  1  0.83441468  0.51496608  0.01733915  1.0
  C  C62  1  0.83489394  0.01553195  0.51807451  1.0
  C  C63  1  0.16680564  0.47440119  0.00102090  1.0
  C  C64  1  0.16713321  0.97585388  0.50045901  1.0
  C  C65  1  0.03433432  0.42002813  0.96093126  1.0
  C  C66  1  0.51760559  0.87514341  0.61126415  1.0
  C  C67  1  0.03177508  0.92136185  0.46172888  1.0
  C  C68  1  0.12809357  0.42452309  0.96440597  1.0
  C  C69  1  0.12692701  0.92498135  0.46439620  1.0
  C  C70  1  0.11551800  0.51764827  0.03263877  1.0
  C  C71  1  0.11663763  0.01967917  0.53164222  1.0
  C  C72  1  0.49215804  0.62158938  0.88409243  1.0
  C  C73  1  0.48279675  0.63314813  0.10645421  1.0
  C  C74  1  0.48384120  0.12189999  0.38237940  1.0
  C  C75  1  0.49046107  0.13171888  0.60582595  1.0
  C  C76  1  0.02214338  0.51659149  0.02723826  1.0
  C  C77  1  0.51204697  0.87084879  0.39007179  1.0
  C  C78  1  0.02253073  0.01936887  0.52749927  1.0
  C  C79  1  0.97980394  0.46624046  0.99218545  1.0
  C  C80  1  0.97972185  0.96901122  0.49297090  1.0
  C  C81  1  0.88578898  0.46429975  0.98998164  1.0
  C  C82  1  0.88602016  0.96697267  0.48923368  1.0
  C  C83  1  0.87877509  0.56576606  0.04951155  1.0
  C  C84  1  0.87796315  0.06593893  0.55009523  1.0
  C  C85  1  0.97017798  0.56512138  0.05492668  1.0
  C  C86  1  0.97034337  0.06736219  0.55508368  1.0
  C  C87  1  0.73806840  0.51484496  0.01040683  1.0
  C  C88  1  0.49795723  0.71509792  0.25743701  1.0
  C  C89  1  0.73710409  0.01361247  0.51299975  1.0
  C  C90  1  0.26424417  0.48471843  0.00238564  1.0
  C  C91  1  0.26469503  0.98489530  0.50153374  1.0
  C  C92  1  0.50165093  0.31507602  0.84463302  1.0
  C  C93  1  0.53418883  0.32733542  0.16021615  1.0
  C  C94  1  0.51029949  0.81592267  0.34504118  1.0
  C  C95  1  0.52963333  0.82830017  0.66244879  1.0
  C  C96  1  0.47730074  0.68508776  0.15259132  1.0
  C  C97  1  0.48133958  0.67697220  0.84138812  1.0
  C  C98  1  0.48248634  0.18379932  0.65171566  1.0
  C  C99  1  0.54951340  0.74571355  0.76456234  1.0
  C  C100  1  0.47551582  0.17577532  0.33776912  1.0
  C  C101  1  0.48654638  0.80167359  0.18051855  1.0
  C  C102  1  0.38844604  0.73920397  0.77253046  1.0
  C  C103  1  0.48579344  0.30048986  0.67980644  1.0
  C  C104  1  0.38682539  0.23948491  0.26744445  1.0
  C  C105  1  0.47382092  0.75390215  0.13698160  1.0
  C  C106  1  0.39589524  0.69673158  0.82103705  1.0
  C  C107  1  0.47776982  0.25249247  0.63594433  1.0
  C  C108  1  0.39150774  0.19731625  0.31635951  1.0
  C  C109  1  0.48459991  0.66580567  0.21200498  1.0
  C  C110  1  0.49634524  0.21413440  0.75696182  1.0
  C  C111  1  0.55674297  0.70521090  0.81695781  1.0
  C  C112  1  0.48679750  0.16464576  0.71129704  1.0
  C  C113  1  0.55269472  0.20119883  0.31327061  1.0
  C  C114  1  0.17986494  0.37591314  0.93350151  1.0
  C  C115  1  0.17501518  0.87683162  0.43396436  1.0
  C  C116  1  0.48895808  0.22989858  0.92376235  1.0
  C  C117  1  0.69906861  0.33165269  0.15620127  1.0
  C  C118  1  0.49353837  0.73087692  0.42400007  1.0
  C  C119  1  0.69401372  0.83768753  0.65703366  1.0
  C  C120  1  0.44257072  0.77539307  0.07811688  1.0
  C  C121  1  0.54815630  0.24148241  0.26066669  1.0
  C  C122  1  0.31702737  0.68090066  0.85528338  1.0
  C  C123  1  0.44989548  0.27354508  0.57621957  1.0
  C  C124  1  0.31111353  0.18353181  0.34975812  1.0
  C  C125  1  0.49650258  0.28344624  0.74067795  1.0
  O  O126  1  0.50066075  0.50093253  0.99873208  1.0
  O  O127  1  0.53421350  0.14406016  0.55986288  1.0
  O  O128  1  0.70256294  0.45922235  0.99303121  1.0
  O  O129  1  0.70067021  0.95766706  0.52237061  1.0
  O  O130  1  0.30029999  0.48983540  0.95232795  1.0
  O  O131  1  0.30183968  0.48903101  0.05299792  1.0
  O  O132  1  0.30224798  0.98097937  0.45180953  1.0
  O  O133  1  0.30175954  0.99660609  0.55134990  1.0
  O  O134  1  0.57418644  0.37564983  0.92032720  1.0
  O  O135  1  0.56816044  0.36499839  0.06360328  1.0
  O  O136  1  0.58102582  0.87688280  0.42207037  1.0
  O  O137  1  0.50245139  0.00003322  0.49783854  1.0
  O  O138  1  0.55821213  0.86173792  0.56392118  1.0
  O  O139  1  0.44961081  0.57577112  0.11970287  1.0
  O  O140  1  0.44205802  0.57177290  0.87821446  1.0
  O  O141  1  0.45614111  0.07465958  0.61850017  1.0
  O  O142  1  0.43314457  0.07219430  0.37772746  1.0
  O  O143  1  0.69365811  0.56750666  0.02002710  1.0
  O  O144  1  0.69780601  0.06806028  0.49947201  1.0
  O  O145  1  0.51275706  0.39919623  0.77386855  1.0
  O  O146  1  0.38040781  0.31905106  0.15889099  1.0
  O  O147  1  0.52319271  0.89958255  0.27393709  1.0
  O  O148  1  0.47611382  0.42656969  0.12066150  1.0
  O  O149  1  0.37635638  0.81666654  0.66294658  1.0
  O  O150  1  0.00434197  0.61543397  0.09003733  1.0
  O  O151  1  0.00202679  0.11899221  0.58924179  1.0
  O  O152  1  0.14678416  0.33109209  0.90151906  1.0
  O  O153  1  0.13774776  0.82968149  0.40284611  1.0
  O  O154  1  0.46740147  0.26923944  0.96241044  1.0
  O  O155  1  0.77430747  0.31253432  0.17237764  1.0
  O  O156  1  0.47065729  0.77028118  0.46221856  1.0
  O  O157  1  0.77029650  0.82178158  0.67372976  1.0
  O  O158  1  0.47650148  0.36762539  0.66729846  1.0
  O  O159  1  0.43645804  0.40756292  0.89068604  1.0
  O  O160  1  0.30761936  0.26618000  0.24794191  1.0
  O  O161  1  0.47912141  0.86898550  0.16826435  1.0
  O  O162  1  0.30791055  0.76452266  0.75407746  1.0
  O  O163  1  0.51223265  0.63240353  0.33301940  1.0
  O  O164  1  0.70585181  0.75208361  0.75270606  1.0
  O  O165  1  0.51084232  0.13168788  0.83269876  1.0
  O  O166  1  0.70483620  0.24199726  0.24891068  1.0
  O  O167  1  0.39380637  0.74358099  0.04560753  1.0
  O  O168  1  0.31600623  0.66464850  0.90733189  1.0
  O  O169  1  0.40482712  0.24091172  0.54199918  1.0
  O  O170  1  0.46869942  0.92555511  0.62087265  1.0
  O  O171  1  0.30816076  0.16815013  0.40194926  1.0
  O  O172  1  0.48092436  0.60162838  0.22802117  1.0
  O  O173  1  0.63688807  0.69302143  0.84020048  1.0
  O  O174  1  0.48349120  0.10043255  0.72725240  1.0
  O  O175  1  0.63202408  0.18713799  0.33690095  1.0
  O  O176  1  0.84765436  0.41442631  0.96076690  1.0
  O  O177  1  0.84553745  0.92061687  0.45661267  1.0
  O  O178  1  0.83346330  0.61465700  0.07704503  1.0
  O  O179  1  0.83043700  0.11315044  0.57819748  1.0
  O  O180  1  0.99886839  0.37288931  0.92779385  1.0
  O  O181  1  0.44425369  0.90818103  0.38941251  1.0
  O  O182  1  0.99458880  0.87472238  0.43042542  1.0
  O  O183  1  0.55718369  0.62602265  0.92153934  1.0
  O  O184  1  0.52392067  0.64580984  0.05947589  1.0
  O  O185  1  0.54791474  0.12755897  0.42009996  1.0
