# generated using pymatgen
data_Zn3H4(C5O3)4
_symmetry_space_group_name_H-M   'P 1'
_cell_length_a   18.53746253
_cell_length_b   18.53755580
_cell_length_c   20.77746661
_cell_angle_alpha   63.51967074
_cell_angle_beta   63.51520774
_cell_angle_gamma   90.02290752
_symmetry_Int_Tables_number   1
_chemical_formula_structural   Zn3H4(C5O3)4
_chemical_formula_sum   'Zn6 H8 C40 O24'
_cell_volume   5540.44666667
_cell_formula_units_Z   2
loop_
 _symmetry_equiv_pos_site_id
 _symmetry_equiv_pos_as_xyz
  1  'x, y, z'
loop_
 _atom_site_type_symbol
 _atom_site_label
 _atom_site_symmetry_multiplicity
 _atom_site_fract_x
 _atom_site_fract_y
 _atom_site_fract_z
 _atom_site_occupancy
  Zn  Zn0  1  0.57003707  0.00001447  0.99997707  1.0
  Zn  Zn1  1  0.45963624  0.45965033  0.08071261  1.0
  Zn  Zn2  1  0.54036002  0.54035129  0.91928846  1.0
  Zn  Zn3  1  0.99999162  0.57001943  0.00001863  1.0
  Zn  Zn4  1  0.42995541  0.99999019  0.00002032  1.0
  Zn  Zn5  1  0.00000990  0.42997922  0.99997528  1.0
  H  H6  1  0.62786684  0.29243063  0.57716943  1.0
  H  H7  1  0.12928764  0.62889292  0.57716459  1.0
  H  H8  1  0.79498621  0.13037414  0.57715580  1.0
  H  H9  1  0.29357952  0.79392543  0.57716067  1.0
  H  H10  1  0.37148795  0.87036201  0.42281901  1.0
  H  H11  1  0.87136987  0.20679984  0.42283328  1.0
  H  H12  1  0.20568671  0.70682822  0.42283065  1.0
  H  H13  1  0.70575481  0.37039338  0.42284429  1.0
  C  C14  1  0.49997975  0.13970627  0.99999501  1.0
  C  C15  1  0.08007377  0.58015942  0.83981223  1.0
  C  C16  1  0.41996989  0.91989514  0.16017982  1.0
  C  C17  1  0.91993011  0.41983517  0.16018305  1.0
  C  C18  1  0.58001714  0.08011612  0.83981743  1.0
  C  C19  1  0.72478250  0.31770235  0.45700218  1.0
  C  C20  1  0.22472888  0.72535851  0.45700340  1.0
  C  C21  1  0.81818020  0.22532320  0.45700737  1.0
  C  C22  1  0.86030379  0.50002345  0.99999257  1.0
  C  C23  1  0.31829019  0.81764449  0.45698554  1.0
  C  C24  1  0.27488156  0.77505936  0.54298310  1.0
  C  C25  1  0.77563612  0.18274084  0.54299936  1.0
  C  C26  1  0.18218391  0.68190568  0.54299548  1.0
  C  C27  1  0.68137673  0.27423083  0.54299981  1.0
  C  C28  1  0.50001002  0.86029167  0.00001445  1.0
  C  C29  1  0.79364058  0.29366369  0.41269635  1.0
  C  C30  1  0.29367671  0.79364100  0.41268180  1.0
  C  C31  1  0.20635924  0.70634797  0.58730052  1.0
  C  C32  1  0.70634798  0.20633493  0.58731066  1.0
  C  C33  1  0.13969229  0.49997491  0.00001118  1.0
  C  C34  1  0.83757567  0.33754391  0.32488651  1.0
  C  C35  1  0.33758039  0.83753477  0.32487733  1.0
  C  C36  1  0.16242280  0.66246794  0.67511047  1.0
  C  C37  1  0.66241751  0.16245625  0.67511835  1.0
  C  C38  1  0.62459560  0.12467623  0.75070531  1.0
  C  C39  1  0.12460979  0.62469073  0.75069659  1.0
  C  C40  1  0.37538651  0.87531835  0.24929251  1.0
  C  C41  1  0.87537746  0.37529983  0.24930105  1.0
  C  C42  1  0.50000083  0.21742866  0.00000057  1.0
  C  C43  1  0.78257398  0.50000106  0.99999906  1.0
  C  C44  1  0.49999596  0.78257201  0.00000404  1.0
  C  C45  1  0.21742155  0.49999902  0.00000462  1.0
  C  C46  1  0.49998824  0.28301228  0.00000278  1.0
  C  C47  1  0.71698479  0.50000158  0.00000849  1.0
  C  C48  1  0.50000726  0.71699185  0.99999470  1.0
  C  C49  1  0.28300749  0.49999028  0.00000315  1.0
  C  C50  1  0.36064769  0.50000410  0.99998159  1.0
  C  C51  1  0.49998052  0.36062880  0.00002322  1.0
  C  C52  1  0.63934536  0.49999778  0.00002770  1.0
  C  C53  1  0.50002075  0.63937200  0.99997656  1.0
  O  O54  1  0.56181248  0.10940485  0.99983748  1.0
  O  O55  1  0.89077732  0.56188264  0.99981936  1.0
  O  O56  1  0.43834409  0.89075413  0.99983932  1.0
  O  O57  1  0.10939166  0.43827810  0.99985433  1.0
  O  O58  1  0.43812512  0.10925121  0.00015453  1.0
  O  O59  1  0.10923275  0.56164833  0.00016839  1.0
  O  O60  1  0.56169748  0.89059024  0.00018860  1.0
  O  O61  1  0.89059084  0.43818022  0.00017062  1.0
  O  O62  1  0.62389251  0.06181103  0.87549221  1.0
  O  O63  1  0.06268373  0.62401753  0.87550089  1.0
  O  O64  1  0.50046506  0.06269150  0.87552232  1.0
  O  O65  1  0.06184761  0.50061299  0.87549109  1.0
  O  O66  1  0.37610149  0.93734469  0.12450222  1.0
  O  O67  1  0.93729823  0.49938023  0.12451322  1.0
  O  O68  1  0.49951953  0.93819042  0.12449192  1.0
  O  O69  1  0.93820490  0.37598545  0.12448472  1.0
  O  O70  1  0.42671203  0.53561703  0.92899355  1.0
  O  O71  1  0.53535470  0.42669952  0.92904982  1.0
  O  O72  1  0.64425402  0.53534565  0.92905260  1.0
  O  O73  1  0.53565429  0.64428846  0.92899186  1.0
  O  O74  1  0.57327675  0.46464935  0.07101073  1.0
  O  O75  1  0.46460553  0.35570629  0.07101130  1.0
  O  O76  1  0.35574346  0.46440487  0.07095467  1.0
  O  O77  1  0.46439417  0.57330626  0.07095162  1.0
