# generated using pymatgen
data_Zn2H14C29N8Cl
_symmetry_space_group_name_H-M   'P 1'
_cell_length_a   18.50901850
_cell_length_b   18.52121946
_cell_length_c   18.55934262
_cell_angle_alpha   109.81176721
_cell_angle_beta   101.12566725
_cell_angle_gamma   111.11850995
_symmetry_Int_Tables_number   1
_chemical_formula_structural   Zn2H14C29N8Cl
_chemical_formula_sum   'Zn4 H28 C58 N16 Cl2'
_cell_volume   5211.47177569
_cell_formula_units_Z   2
loop_
 _symmetry_equiv_pos_site_id
 _symmetry_equiv_pos_as_xyz
  1  'x, y, z'
loop_
 _atom_site_type_symbol
 _atom_site_label
 _atom_site_symmetry_multiplicity
 _atom_site_fract_x
 _atom_site_fract_y
 _atom_site_fract_z
 _atom_site_occupancy
  Zn  Zn0  1  0.99448878  0.10404175  0.61676733  1.0
  Zn  Zn1  1  0.00842378  0.89172703  0.41063325  1.0
  Zn  Zn2  1  0.88751040  0.88690574  0.51760862  1.0
  Zn  Zn3  1  0.10844923  0.10540186  0.49836127  1.0
  H  H4  1  0.10856933  0.12143806  0.78389239  1.0
  H  H5  1  0.03196942  0.85313407  0.23014819  1.0
  H  H6  1  0.54517182  0.44311296  0.11330820  1.0
  H  H7  1  0.51770987  0.52882606  0.89082789  1.0
  H  H8  1  0.13888279  0.85259867  0.50903918  1.0
  H  H9  1  0.84452491  0.14448366  0.67417289  1.0
  H  H10  1  0.83673143  0.68215818  0.50350431  1.0
  H  H11  1  0.01105273  0.14871206  0.36935904  1.0
  H  H12  1  0.99246172  0.69289347  0.35648549  1.0
  H  H13  1  0.86385970  0.14782635  0.52521420  1.0
  H  H14  1  0.14492984  0.25731216  0.79105794  1.0
  H  H15  1  0.88980296  0.83288132  0.23652585  1.0
  H  H16  1  0.27678841  0.13231332  0.61951412  1.0
  H  H17  1  0.70858159  0.86569979  0.53426355  1.0
  H  H18  1  0.97544952  0.84187526  0.64846481  1.0
  H  H19  1  0.15721575  0.13315430  0.34119353  1.0
  H  H20  1  0.54574043  0.35322101  0.95657895  1.0
  H  H21  1  0.51649315  0.61932576  0.04849065  1.0
  H  H22  1  0.63196412  0.38223997  0.86900408  1.0
  H  H23  1  0.61575380  0.45118075  0.82801432  1.0
  H  H24  1  0.71656772  0.46006534  0.86141181  1.0
  H  H25  1  0.70751369  0.58085106  0.96806849  1.0
  H  H26  1  0.72124597  0.51046946  0.00745113  1.0
  H  H27  1  0.45079314  0.49249024  0.17528939  1.0
  H  H28  1  0.43883988  0.57578262  0.15608217  1.0
  H  H29  1  0.35249470  0.49109559  0.15448486  1.0
  H  H30  1  0.34247878  0.46485362  0.00920202  1.0
  H  H31  1  0.35568082  0.38316715  0.02972856  1.0
  C  C32  1  0.07101672  0.05462281  0.73817944  1.0
  C  C33  1  0.06135342  0.92202890  0.27040949  1.0
  C  C34  1  0.24075219  0.99084501  0.57716531  1.0
  C  C35  1  0.74369224  0.00607838  0.60781104  1.0
  C  C36  1  0.90997630  0.65017819  0.42439736  1.0
  C  C37  1  0.92282659  0.16885493  0.43342552  1.0
  C  C38  1  0.24721276  0.28587977  0.74045080  1.0
  C  C39  1  0.77890450  0.76920597  0.26673113  1.0
  C  C40  1  0.60025393  0.50034414  0.98186050  1.0
  C  C41  1  0.46238061  0.47196979  0.02341031  1.0
  C  C42  1  0.53911482  0.41254320  0.97699811  1.0
  C  C43  1  0.52195603  0.55941287  0.02697005  1.0
  C  C44  1  0.32231434  0.32967561  0.80755781  1.0
  C  C45  1  0.71955955  0.69383722  0.19586992  1.0
  C  C46  1  0.52454544  0.51100772  0.94133107  1.0
  C  C47  1  0.53866523  0.46213129  0.06358037  1.0
  C  C48  1  0.46216236  0.42204146  0.93452036  1.0
  C  C49  1  0.59959242  0.55181459  0.06994016  1.0
  C  C50  1  0.38789588  0.36501207  0.86513856  1.0
  C  C51  1  0.66703965  0.62475638  0.13858441  1.0
  C  C52  1  0.31657803  0.98874013  0.59773090  1.0
  C  C53  1  0.66961110  0.00683808  0.61314307  1.0
  C  C54  1  0.15996547  0.92160507  0.53085692  1.0
  C  C55  1  0.82414369  0.07586847  0.63918166  1.0
  C  C56  1  0.38545986  0.99161334  0.60770648  1.0
  C  C57  1  0.60249271  0.00375891  0.61506606  1.0
  C  C58  1  0.46015462  0.99533449  0.61362560  1.0
  C  C59  1  0.52884616  0.99979285  0.61544335  1.0
  C  C60  1  0.89894405  0.22400179  0.41056546  1.0
  C  C61  1  0.89965040  0.56774447  0.41235860  1.0
  C  C62  1  0.88894108  0.28265695  0.40056395  1.0
  C  C63  1  0.89188285  0.49617011  0.40400644  1.0
  C  C64  1  0.88467324  0.35196240  0.39628332  1.0
  C  C65  1  0.88641181  0.42001988  0.39810326  1.0
  C  C66  1  0.07207065  0.97445168  0.82349584  1.0
  C  C67  1  0.09769856  0.98796331  0.17541884  1.0
  C  C68  1  0.08243655  0.97486655  0.89121663  1.0
  C  C69  1  0.09661992  0.98392318  0.10761355  1.0
  C  C70  1  0.08986387  0.97668975  0.96517741  1.0
  C  C71  1  0.09394086  0.97985582  0.03358694  1.0
  C  C72  1  0.87707743  0.69940097  0.47030292  1.0
  C  C73  1  0.98130283  0.14127348  0.41320117  1.0
  C  C74  1  0.23460778  0.26093598  0.65639747  1.0
  C  C75  1  0.77367996  0.79883222  0.34554620  1.0
  C  C76  1  0.95662179  0.70479102  0.39493323  1.0
  C  C77  1  0.90591291  0.14089381  0.49304468  1.0
  C  C78  1  0.16520063  0.25143500  0.73912496  1.0
  C  C79  1  0.85902022  0.82949558  0.28038840  1.0
  C  C80  1  0.23015558  0.06506436  0.58760374  1.0
  C  C81  1  0.75465749  0.93317086  0.56780818  1.0
  C  C82  1  0.00285217  0.91129299  0.66917478  1.0
  C  C83  1  0.12554725  0.06529728  0.32712723  1.0
  C  C84  1  0.05297930  0.97889962  0.74887179  1.0
  C  C85  1  0.09586400  0.99165379  0.25153583  1.0
  C  C86  1  0.67714473  0.51440395  0.96133585  1.0
  C  C87  1  0.65946162  0.44846176  0.87516236  1.0
  C  C88  1  0.38679898  0.45290566  0.04646256  1.0
  C  C89  1  0.40823726  0.50603611  0.13811740  1.0
  N  N90  1  0.03294607  0.03299314  0.65924330  1.0
  N  N91  1  0.06965044  0.95194762  0.34985049  1.0
  N  N92  1  0.10707681  0.95305791  0.51395355  1.0
  N  N93  1  0.87768408  0.04645106  0.61967938  1.0
  N  N94  1  0.90223646  0.77584917  0.46808579  1.0
  N  N95  1  0.99886315  0.10291411  0.45907980  1.0
  N  N96  1  0.15348640  0.21360764  0.60946498  1.0
  N  N97  1  0.84447810  0.86892801  0.40083331  1.0
  N  N98  1  0.95151107  0.77923261  0.42117057  1.0
  N  N99  1  0.95268356  0.10260832  0.50811074  1.0
  N  N100  1  0.11003414  0.20815780  0.66173007  1.0
  N  N101  1  0.89823759  0.88781391  0.36067629  1.0
  N  N102  1  0.15018396  0.04105068  0.54874584  1.0
  N  N103  1  0.83432244  0.95772581  0.57512788  1.0
  N  N104  1  0.99107756  0.94516722  0.61691070  1.0
  N  N105  1  0.10969907  0.04095158  0.38506836  1.0
  Cl  Cl106  1  0.30743890  0.28307501  0.61229536  1.0
  Cl  Cl107  1  0.69323527  0.75259733  0.37354906  1.0
