# generated using pymatgen
data_Zn2H37C43(N2O)4
_symmetry_space_group_name_H-M   'P 1'
_cell_length_a   19.61118331
_cell_length_b   19.87553963
_cell_length_c   19.91033202
_cell_angle_alpha   110.79435345
_cell_angle_beta   105.08444777
_cell_angle_gamma   112.21631330
_symmetry_Int_Tables_number   1
_chemical_formula_structural   Zn2H37C43(N2O)4
_chemical_formula_sum   'Zn4 H74 C86 N16 O8'
_cell_volume   5978.30986484
_cell_formula_units_Z   2
loop_
 _symmetry_equiv_pos_site_id
 _symmetry_equiv_pos_as_xyz
  1  'x, y, z'
loop_
 _atom_site_type_symbol
 _atom_site_label
 _atom_site_symmetry_multiplicity
 _atom_site_fract_x
 _atom_site_fract_y
 _atom_site_fract_z
 _atom_site_occupancy
  Zn  Zn0  1  0.11913697  0.10898116  0.50464165  1.0
  Zn  Zn1  1  0.89406106  0.89319508  0.50266170  1.0
  Zn  Zn2  1  0.99331941  0.90084581  0.39088670  1.0
  Zn  Zn3  1  0.01859116  0.10085235  0.61343422  1.0
  H  H4  1  0.22952894  0.67823363  0.59833353  1.0
  H  H5  1  0.39006361  0.27712107  0.01924609  1.0
  H  H6  1  0.95268117  0.15994907  0.12561320  1.0
  H  H7  1  0.75769125  0.88799210  0.86659448  1.0
  H  H8  1  0.94519769  0.15218535  0.99647433  1.0
  H  H9  1  0.76539305  0.89559369  0.99566997  1.0
  H  H10  1  0.74501710  0.88146293  0.37580746  1.0
  H  H11  1  0.28781650  0.11206256  0.49355719  1.0
  H  H12  1  0.85552907  0.70962283  0.22625918  1.0
  H  H13  1  0.14031432  0.09449428  0.75735534  1.0
  H  H14  1  0.04709056  0.29436059  0.68946650  1.0
  H  H15  1  0.97615838  0.52209631  0.61483031  1.0
  H  H16  1  0.12895463  0.86724738  0.47848115  1.0
  H  H17  1  0.13686286  0.28690312  0.51151410  1.0
  H  H18  1  0.99700925  0.85589392  0.62224909  1.0
  H  H19  1  0.91080054  0.15335399  0.51291591  1.0
  H  H20  1  0.11171803  0.85146610  0.30503165  1.0
  H  H21  1  0.85199935  0.88973274  0.24917040  1.0
  H  H22  1  0.98175735  0.13442991  0.77227767  1.0
  H  H23  1  0.13543669  0.23305409  0.33070389  1.0
  H  H24  1  0.07915505  0.12165417  0.26341746  1.0
  H  H25  1  0.22022348  0.21716314  0.43539976  1.0
  H  H26  1  0.51487542  0.88220136  0.29119405  1.0
  H  H27  1  0.16264850  0.10651922  0.37015758  1.0
  H  H28  1  0.21714240  0.12229615  0.27232775  1.0
  H  H29  1  0.29830301  0.16888658  0.36914514  1.0
  H  H30  1  0.27591746  0.23382137  0.33650458  1.0
  H  H31  1  0.75465958  0.74658300  0.63340509  1.0
  H  H32  1  0.79987934  0.84658029  0.72147221  1.0
  H  H33  1  0.89417284  0.77238733  0.65172340  1.0
  H  H34  1  0.94146017  0.87532790  0.73479426  1.0
  H  H35  1  0.88649278  0.81512759  0.81385487  1.0
  H  H36  1  0.94648436  0.77505815  0.78205406  1.0
  H  H37  1  0.50114285  0.12787532  0.45555635  1.0
  H  H38  1  0.83691600  0.71111852  0.73100722  1.0
  H  H39  1  0.87684444  0.44852801  0.46345805  1.0
  H  H40  1  0.93655395  0.43009154  0.41319027  1.0
  H  H41  1  0.81658551  0.48895039  0.36772679  1.0
  H  H42  1  0.87632075  0.47134191  0.31861005  1.0
  H  H43  1  0.80266683  0.31734412  0.27933578  1.0
  H  H44  1  0.73145826  0.34533127  0.24209374  1.0
  H  H45  1  0.74224181  0.33454933  0.32838254  1.0
  H  H46  1  0.31566012  0.74488731  0.84955437  1.0
  H  H47  1  0.27987618  0.76926126  0.77492003  1.0
  H  H48  1  0.38038580  0.86242944  0.28639168  1.0
  H  H49  1  0.39289387  0.69643899  0.78148731  1.0
  H  H50  1  0.36186698  0.72599542  0.71065056  1.0
  H  H51  1  0.43583562  0.87782960  0.82422775  1.0
  H  H52  1  0.50520376  0.84102451  0.82225227  1.0
  H  H53  1  0.46773322  0.84788191  0.89502682  1.0
  H  H54  1  0.62115997  0.58099722  0.30534263  1.0
  H  H55  1  0.62123108  0.66829018  0.29899007  1.0
  H  H56  1  0.62138360  0.72503863  0.43440477  1.0
  H  H57  1  0.53369538  0.62117172  0.36482380  1.0
  H  H58  1  0.62061861  0.63754757  0.44046735  1.0
  H  H59  1  0.63572573  0.14776727  0.46055657  1.0
  H  H60  1  0.40719876  0.18629589  0.70940097  1.0
  H  H61  1  0.39577010  0.27427758  0.75266044  1.0
  H  H62  1  0.41844501  0.31193184  0.64940714  1.0
  H  H63  1  0.50374700  0.30877435  0.70411056  1.0
  H  H64  1  0.42956975  0.22378373  0.60465803  1.0
  H  H65  1  0.16457498  0.57642789  0.44177608  1.0
  H  H66  1  0.05504297  0.52975360  0.39539546  1.0
  H  H67  1  0.03714218  0.38823942  0.31563989  1.0
  H  H68  1  0.10082486  0.46386614  0.29688022  1.0
  H  H69  1  0.14645374  0.43437724  0.36246985  1.0
  H  H70  1  0.53407841  0.30944295  0.88981554  1.0
  H  H71  1  0.14550728  0.66104928  0.81271206  1.0
  H  H72  1  0.03647591  0.61688404  0.76486467  1.0
  H  H73  1  0.05605713  0.75724913  0.85219984  1.0
  H  H74  1  0.09863045  0.72125175  0.91218788  1.0
  H  H75  1  0.16508006  0.80157231  0.89992080  1.0
  H  H76  1  0.50933467  0.40539958  0.14471898  1.0
  H  H77  1  0.65304356  0.43808294  0.01514634  1.0
  C  C78  1  0.00815807  0.08559417  0.34607121  1.0
  C  C79  1  0.17035731  0.62446005  0.67213312  1.0
  C  C80  1  0.10189089  0.54841779  0.53874690  1.0
  C  C81  1  0.10367933  0.65151045  0.67416347  1.0
  C  C82  1  0.09262045  0.39633824  0.61028311  1.0
  C  C83  1  0.10276176  0.79260685  0.58459787  1.0
  C  C84  1  0.03199338  0.55737398  0.61112641  1.0
  C  C85  1  0.17366232  0.64264156  0.60184317  1.0
  C  C86  1  0.09774730  0.53009762  0.60909279  1.0
  C  C87  1  0.10788532  0.67000527  0.60380094  1.0
  C  C88  1  0.09358222  0.45811018  0.61049337  1.0
  C  C89  1  0.86269190  0.92887490  0.65327187  1.0
  C  C90  1  0.11011836  0.73961138  0.59777654  1.0
  C  C91  1  0.43642218  0.92482924  0.32404845  1.0
  C  C92  1  0.57957419  0.08552610  0.42195268  1.0
  C  C93  1  0.79665659  0.94611583  0.41503435  1.0
  C  C94  1  0.23375377  0.04983736  0.44984692  1.0
  C  C95  1  0.43161148  0.99364777  0.37125636  1.0
  C  C96  1  0.58495343  0.01619833  0.37678273  1.0
  C  C97  1  0.50459388  0.07442085  0.41934732  1.0
  C  C98  1  0.51141526  0.93593630  0.32664866  1.0
  C  C99  1  0.35690440  0.98309168  0.37299413  1.0
  C  C100  1  0.79842822  0.02160524  0.42859170  1.0
  C  C101  1  0.66216953  0.02445092  0.38626615  1.0
  C  C102  1  0.72818307  0.02745223  0.40218041  1.0
  C  C103  1  0.29460914  0.97705285  0.37875772  1.0
  C  C104  1  0.59543721  0.40249506  0.01589013  1.0
  C  C105  1  0.44790336  0.31219240  0.01863749  1.0
  C  C106  1  0.58878840  0.43254798  0.08833486  1.0
  C  C107  1  0.45239535  0.28580747  0.94480340  1.0
  C  C108  1  0.51459654  0.38405379  0.08877180  1.0
  C  C109  1  0.52882276  0.33055515  0.94578666  1.0
  C  C110  1  0.65256395  0.51151964  0.15664665  1.0
  C  C111  1  0.22838084  0.97912953  0.39191126  1.0
  C  C112  1  0.38095069  0.22303500  0.87061909  1.0
  C  C113  1  0.31930539  0.18234218  0.80548861  1.0
  C  C114  1  0.70458165  0.58314646  0.21274077  1.0
  C  C115  1  0.90586023  0.09617125  0.99661922  1.0
  C  C116  1  0.80464451  0.95168976  0.99562217  1.0
  C  C117  1  0.83690500  0.72116092  0.27403438  1.0
  C  C118  1  0.16558442  0.10706788  0.71775477  1.0
  C  C119  1  0.85346888  0.01867578  0.92273809  1.0
  C  C120  1  0.86241573  0.02737629  0.07019953  1.0
  C  C121  1  0.80038611  0.94745124  0.92351307  1.0
  C  C122  1  0.76581038  0.66605974  0.27432688  1.0
  C  C123  1  0.91009267  0.10043796  0.06873466  1.0
  C  C124  1  0.85899763  0.01148418  0.85146087  1.0
  C  C125  1  0.87808904  0.02790723  0.14385876  1.0
  C  C126  1  0.90024364  0.02442952  0.20530652  1.0
  C  C127  1  0.87125864  0.00375689  0.79272798  1.0
  C  C128  1  0.07008504  0.28064125  0.64530197  1.0
  C  C129  1  0.09055503  0.87097548  0.50863762  1.0
  C  C130  1  0.77433723  0.71488971  0.35158850  1.0
  C  C131  1  0.24458674  0.14637682  0.66059525  1.0
  C  C132  1  0.11683380  0.27710366  0.55488867  1.0
  C  C133  1  0.24930006  0.14496513  0.73268555  1.0
  C  C134  1  0.02310903  0.86551230  0.58227172  1.0
  C  C135  1  0.88126872  0.08536125  0.48533698  1.0
  C  C136  1  0.14376581  0.91648535  0.35336566  1.0
  C  C137  1  0.90670793  0.95259719  0.28815604  1.0
  C  C138  1  0.94577286  0.06800532  0.72636326  1.0
  C  C139  1  0.93321387  0.02105026  0.27469028  1.0
  C  C140  1  0.89064703  0.99942926  0.72891683  1.0
  C  C141  1  0.11514113  0.17184035  0.32745975  1.0
  C  C142  1  0.18745645  0.16684070  0.37143809  1.0
  C  C143  1  0.24793282  0.17362236  0.33529118  1.0
  C  C144  1  0.09302951  0.32402071  0.60488033  1.0
  C  C145  1  0.80899735  0.81090663  0.67153292  1.0
  C  C146  1  0.88816776  0.81040453  0.70311279  1.0
  C  C147  1  0.88945175  0.77599189  0.76069621  1.0
  C  C148  1  0.90683379  0.46691519  0.42779349  1.0
  C  C149  1  0.84393308  0.45020222  0.35134853  1.0
  C  C150  1  0.77641006  0.35679178  0.29738023  1.0
  C  C151  1  0.30117881  0.72870467  0.78658619  1.0
  C  C152  1  0.37723902  0.74169010  0.77357730  1.0
  C  C153  1  0.45049289  0.83198878  0.83188654  1.0
  C  C154  1  0.63904681  0.64702207  0.34110754  1.0
  C  C155  1  0.07881318  0.84349884  0.56323241  1.0
  C  C156  1  0.60154297  0.65847426  0.39870051  1.0
  C  C157  1  0.38852964  0.22782321  0.69646438  1.0
  C  C158  1  0.43757149  0.27032814  0.66121630  1.0
  C  C159  1  0.10488455  0.51715818  0.41392460  1.0
  C  C160  1  0.09685407  0.44667559  0.34303829  1.0
  C  C161  1  0.09713791  0.67595371  0.79599871  1.0
  C  C162  1  0.10467442  0.74308118  0.86931478  1.0
  C  C163  1  0.03503599  0.57501376  0.54067419  1.0
  N  N164  1  0.02316364  0.05683816  0.39653535  1.0
  N  N165  1  0.16541445  0.11127962  0.60895585  1.0
  N  N166  1  0.10903157  0.21197815  0.56520887  1.0
  N  N167  1  0.00232923  0.90081320  0.54062398  1.0
  N  N168  1  0.92364915  0.04966668  0.50482547  1.0
  N  N169  1  0.10299243  0.94833623  0.38552925  1.0
  N  N170  1  0.96118861  0.97488493  0.36077318  1.0
  N  N171  1  0.94941655  0.04124406  0.65622859  1.0
  N  N172  1  0.89808790  0.95459935  0.61086427  1.0
  N  N173  1  0.87148359  0.96443884  0.46161722  1.0
  N  N174  1  0.15903830  0.03104959  0.44537770  1.0
  N  N175  1  0.88312046  0.79458890  0.34416910  1.0
  N  N176  1  0.11677657  0.08801984  0.64445052  1.0
  N  N177  1  0.08004565  0.21399682  0.62149448  1.0
  N  N178  1  0.04347012  0.90436381  0.49529569  1.0
  N  N179  1  0.84387559  0.79077109  0.39214536  1.0
  O  O180  1  0.06010709  0.16531057  0.36538184  1.0
  O  O181  1  0.80799049  0.84569209  0.61836145  1.0
  O  O182  1  0.96906398  0.55588220  0.47575200  1.0
  O  O183  1  0.23484465  0.64119338  0.73665778  1.0
  O  O184  1  0.72831258  0.69857858  0.38997098  1.0
  O  O185  1  0.30217016  0.17736820  0.63718864  1.0
  O  O186  1  0.10023445  0.49155054  0.47278408  1.0
  O  O187  1  0.10529668  0.70694020  0.74115578  1.0
