# generated using pymatgen
data_Zn2H20C25SN8O3
_symmetry_space_group_name_H-M   'P 1'
_cell_length_a   14.83144050
_cell_length_b   14.86162210
_cell_length_c   14.89395143
_cell_angle_alpha   67.95858561
_cell_angle_beta   67.66664465
_cell_angle_gamma   103.94552971
_symmetry_Int_Tables_number   1
_chemical_formula_structural   Zn2H20C25SN8O3
_chemical_formula_sum   'Zn4 H40 C50 S2 N16 O6'
_cell_volume   2517.28259876
_cell_formula_units_Z   2
loop_
 _symmetry_equiv_pos_site_id
 _symmetry_equiv_pos_as_xyz
  1  'x, y, z'
loop_
 _atom_site_type_symbol
 _atom_site_label
 _atom_site_symmetry_multiplicity
 _atom_site_fract_x
 _atom_site_fract_y
 _atom_site_fract_z
 _atom_site_occupancy
  Zn  Zn0  1  0.51098520  0.62589803  0.84528306  1.0
  Zn  Zn1  1  0.64654437  0.48175341  0.84507860  1.0
  Zn  Zn2  1  0.50674559  0.35055968  0.12229229  1.0
  Zn  Zn3  1  0.36596103  0.48664040  0.12089424  1.0
  H  H4  1  0.33681456  0.71764196  0.79543992  1.0
  H  H5  1  0.26099983  0.43296307  0.54854076  1.0
  H  H6  1  0.45508125  0.26512639  0.55320314  1.0
  H  H7  1  0.55338643  0.43640709  0.56741227  1.0
  H  H8  1  0.50551267  0.53451160  0.56160376  1.0
  H  H9  1  0.52848269  0.44944674  0.41662482  1.0
  H  H10  1  0.44951641  0.51901828  0.43760540  1.0
  H  H11  1  0.72991098  0.29883181  0.80946825  1.0
  H  H12  1  0.79703510  0.15550176  0.83140548  1.0
  H  H13  1  0.18843528  0.75982386  0.79936707  1.0
  H  H14  1  0.78208178  0.98688555  0.83207313  1.0
  H  H15  1  0.01957621  0.74265845  0.80048226  1.0
  H  H16  1  0.50369364  0.80149570  0.17408848  1.0
  H  H17  1  0.83400888  0.52680853  0.16427275  1.0
  H  H18  1  0.51902279  0.96918281  0.17387448  1.0
  H  H19  1  0.00230693  0.54430525  0.16316786  1.0
  H  H20  1  0.01821622  0.80901078  0.40364441  1.0
  H  H21  1  0.83306280  0.99174341  0.42443385  1.0
  H  H22  1  0.55061508  0.13115513  0.17669668  1.0
  H  H23  1  0.15319870  0.53849215  0.16311841  1.0
  H  H24  1  0.18360310  0.97692394  0.24903383  1.0
  H  H25  1  0.99809883  0.15920259  0.27093584  1.0
  H  H26  1  0.15532380  0.31960854  0.15485315  1.0
  H  H27  1  0.28064080  0.19473187  0.78858738  1.0
  H  H28  1  0.34387572  0.13742172  0.15863659  1.0
  H  H29  1  0.51762371  0.31465473  0.79668329  1.0
  H  H30  1  0.33678149  0.50441450  0.80072581  1.0
  H  H31  1  0.68685986  0.84432026  0.58843179  1.0
  H  H32  1  0.86946269  0.65716707  0.58104847  1.0
  H  H33  1  0.21162221  0.32732645  0.78101795  1.0
  H  H34  1  0.46339138  0.26602965  0.38292446  1.0
  H  H35  1  0.26405349  0.43609586  0.38796084  1.0
  H  H36  1  0.49541603  0.64142182  0.17672763  1.0
  H  H37  1  0.67446243  0.48465207  0.16545877  1.0
  H  H38  1  0.86109106  0.65931130  0.79707701  1.0
  H  H39  1  0.68312541  0.83993666  0.80874154  1.0
  H  H40  1  0.42071483  0.23038534  0.73225712  1.0
  H  H41  1  0.29419593  0.46605432  0.67411909  1.0
  H  H42  1  0.40469654  0.04241483  0.62654899  1.0
  H  H43  1  0.02291008  0.27614665  0.81127933  1.0
  C  C44  1  0.30615161  0.67113139  0.88576461  1.0
  C  C45  1  0.63010102  0.77658610  0.89792824  1.0
  C  C46  1  0.31844156  0.39975238  0.36834885  1.0
  C  C47  1  0.80055647  0.60888717  0.88741990  1.0
  C  C48  1  0.81862942  0.79135876  0.53518663  1.0
  C  C49  1  0.35634522  0.34466559  0.43314689  1.0
  C  C50  1  0.60954003  0.78282952  0.99531049  1.0
  C  C51  1  0.81164820  0.59437439  0.98102929  1.0
  C  C52  1  0.68394733  0.27299357  0.89868705  1.0
  C  C53  1  0.36223236  0.25390951  0.71393467  1.0
  C  C54  1  0.28263024  0.38352222  0.69446913  1.0
  C  C55  1  0.37216700  0.25096033  0.60807803  1.0
  C  C56  1  0.26223790  0.36216665  0.60764376  1.0
  C  C57  1  0.48394284  0.45340755  0.57266435  1.0
  C  C58  1  0.38252797  0.36891872  0.69272467  1.0
  C  C59  1  0.35518587  0.34399018  0.53474279  1.0
  C  C60  1  0.59160529  0.18692154  0.08574435  1.0
  C  C61  1  0.21236755  0.57955721  0.07290402  1.0
  C  C62  1  0.46085590  0.44875461  0.48234913  1.0
  C  C63  1  0.73198553  0.07785688  0.90702495  1.0
  C  C64  1  0.11072916  0.70759275  0.88003298  1.0
  C  C65  1  0.72344178  0.98229063  0.90732403  1.0
  C  C66  1  0.01484889  0.69796766  0.88062173  1.0
  C  C67  1  0.63849206  0.88080080  0.00140591  1.0
  C  C68  1  0.53375385  0.67598423  0.08555943  1.0
  C  C69  1  0.91236427  0.62808728  0.98169056  1.0
  C  C70  1  0.56999455  0.87874744  0.09926282  1.0
  C  C71  1  0.91150580  0.57880988  0.08347760  1.0
  C  C72  1  0.57853306  0.97386495  0.09904178  1.0
  C  C73  1  0.00718907  0.58854815  0.08284404  1.0
  C  C74  1  0.70567887  0.51964002  0.07516898  1.0
  C  C75  1  0.65624760  0.07602087  0.00089594  1.0
  C  C76  1  0.10882941  0.64825108  0.98036032  1.0
  C  C77  1  0.01289970  0.88570025  0.37489183  1.0
  C  C78  1  0.90958390  0.98731238  0.38616197  1.0
  C  C79  1  0.10683301  0.98105758  0.28700687  1.0
  C  C80  1  0.00335186  0.08253543  0.29852845  1.0
  C  C81  1  0.10552262  0.08265329  0.25052032  1.0
  C  C82  1  0.21621656  0.28976803  0.14791794  1.0
  C  C83  1  0.31242184  0.19707712  0.14950073  1.0
  C  C84  1  0.91287792  0.88704334  0.43036260  1.0
  C  C85  1  0.48072844  0.36815941  0.80518102  1.0
  C  C86  1  0.38882315  0.46491907  0.80693942  1.0
  C  C87  1  0.20481988  0.63837386  0.97911030  1.0
  C  C88  1  0.64900950  0.17407619  0.99525503  1.0
  C  C89  1  0.20597372  0.18415874  0.17958261  1.0
  C  C90  1  0.40682163  0.39075187  0.77408232  1.0
  C  C91  1  0.71723448  0.78391683  0.60308612  1.0
  C  C92  1  0.81012791  0.68865501  0.59933033  1.0
  C  C93  1  0.41961716  0.31280701  0.36582951  1.0
  S  S94  1  0.29241733  0.11065319  0.64799670  1.0
  S  S95  1  0.12388677  0.25831552  0.67786253  1.0
  N  N96  1  0.36806606  0.63447341  0.92143927  1.0
  N  N97  1  0.37876978  0.30117075  0.10649150  1.0
  N  N98  1  0.31959369  0.35813929  0.10551325  1.0
  N  N99  1  0.50554389  0.42618725  0.85099451  1.0
  N  N100  1  0.44908189  0.48555659  0.85216968  1.0
  N  N101  1  0.65429679  0.68553025  0.69890620  1.0
  N  N102  1  0.71207359  0.62596195  0.69669541  1.0
  N  N103  1  0.64958827  0.33851273  0.92955975  1.0
  N  N104  1  0.41862733  0.34577855  0.26891296  1.0
  N  N105  1  0.35581050  0.40001599  0.27032840  1.0
  N  N106  1  0.50999990  0.61303302  0.04433478  1.0
  N  N107  1  0.63892666  0.49101326  0.03948128  1.0
  N  N108  1  0.69707232  0.54571448  0.92414970  1.0
  N  N109  1  0.56895796  0.67480654  0.92903102  1.0
  N  N110  1  0.59231354  0.28480915  0.04616779  1.0
  N  N111  1  0.30939033  0.57744458  0.03806986  1.0
  O  O112  1  0.25407331  0.03633648  0.76503601  1.0
  O  O113  1  0.09968734  0.25446815  0.59454653  1.0
  O  O114  1  0.10150055  0.16214879  0.77423180  1.0
  O  O115  1  0.05649656  0.31726422  0.72868312  1.0
  O  O116  1  0.22323316  0.10705191  0.60237953  1.0
  O  O117  1  0.39202405  0.09109237  0.57209907  1.0
