# generated using pymatgen
data_Zn2H33C41N2O11
_symmetry_space_group_name_H-M   'P 1'
_cell_length_a   10.94810153
_cell_length_b   13.99820376
_cell_length_c   26.50482841
_cell_angle_alpha   89.19784241
_cell_angle_beta   87.98317142
_cell_angle_gamma   89.08630969
_symmetry_Int_Tables_number   1
_chemical_formula_structural   Zn2H33C41N2O11
_chemical_formula_sum   'Zn4 H66 C82 N4 O22'
_cell_volume   4058.56501941
_cell_formula_units_Z   2
loop_
 _symmetry_equiv_pos_site_id
 _symmetry_equiv_pos_as_xyz
  1  'x, y, z'
loop_
 _atom_site_type_symbol
 _atom_site_label
 _atom_site_symmetry_multiplicity
 _atom_site_fract_x
 _atom_site_fract_y
 _atom_site_fract_z
 _atom_site_occupancy
  Zn  Zn0  1  0.47025314  0.39401520  0.49963572  1.0
  Zn  Zn1  1  0.46430619  0.59772966  0.50125984  1.0
  Zn  Zn2  1  0.52533176  0.61239082  0.91771169  1.0
  Zn  Zn3  1  0.53421009  0.40915903  0.91247649  1.0
  H  H4  1  0.27704717  0.06068438  0.53000992  1.0
  H  H5  1  0.54150055  0.93393549  0.42346512  1.0
  H  H6  1  0.39450296  0.74414755  0.57004530  1.0
  H  H7  1  0.38833321  0.92259475  0.57636740  1.0
  H  H8  1  0.63651002  0.24387225  0.47293455  1.0
  H  H9  1  0.65117679  0.06533541  0.47122021  1.0
  H  H10  1  0.36255689  0.39320658  0.81067579  1.0
  H  H11  1  0.35381554  0.35481468  0.62532018  1.0
  H  H12  1  0.42424695  0.35614642  0.24270004  1.0
  H  H13  1  0.50223436  0.65271824  0.17626864  1.0
  H  H14  1  0.53523382  0.35298832  0.07877362  1.0
  H  H15  1  0.53571736  0.34445040  0.17141976  1.0
  H  H16  1  0.56578322  0.63370026  0.33794767  1.0
  H  H17  1  0.59483638  0.63285193  0.24563428  1.0
  H  H18  1  0.20287038  0.57489138  0.41609853  1.0
  H  H19  1  0.75032527  0.58509664  0.41389727  1.0
  H  H20  1  0.42889263  0.94671523  0.84051971  1.0
  H  H21  1  0.48749464  0.07281558  0.99449255  1.0
  H  H22  1  0.54644029  0.26340848  0.83879141  1.0
  H  H23  1  0.54390407  0.08596829  0.83180329  1.0
  H  H24  1  0.61640982  0.76233669  0.97718531  1.0
  H  H25  1  0.61352346  0.93946138  0.98258495  1.0
  H  H26  1  0.26099312  0.40787918  0.99098804  1.0
  H  H27  1  0.80796733  0.41170794  0.00220283  1.0
  H  H28  1  0.25641574  0.31497356  0.52343217  1.0
  H  H29  1  0.52338008  0.68090779  0.41426329  1.0
  H  H30  1  0.39787337  0.35015103  0.37557500  1.0
  H  H31  1  0.51500706  0.66741567  0.04392992  1.0
  H  H32  1  0.45813683  0.69481677  0.83070750  1.0
  H  H33  1  0.49618824  0.32643614  0.00174251  1.0
  H  H34  1  0.75199832  0.62689095  0.65114105  1.0
  H  H35  1  0.65588673  0.61013423  0.59966110  1.0
  H  H36  1  0.62701236  0.70534114  0.64196934  1.0
  H  H37  1  0.64462611  0.71984993  0.73142388  1.0
  H  H38  1  0.66461511  0.65231599  0.78752682  1.0
  H  H39  1  0.76496039  0.63490220  0.73435349  1.0
  H  H40  1  0.22760719  0.18159671  0.78234320  1.0
  H  H41  1  0.21650100  0.27895999  0.82494062  1.0
  H  H42  1  0.10921493  0.26756262  0.77661932  1.0
  H  H43  1  0.11097740  0.24081548  0.68364184  1.0
  H  H44  1  0.22236656  0.22716062  0.63363053  1.0
  H  H45  1  0.23232926  0.15767836  0.69014772  1.0
  H  H46  1  0.82190842  0.44073518  0.61402707  1.0
  H  H47  1  0.72456429  0.39138029  0.56975724  1.0
  H  H48  1  0.85875838  0.32865164  0.58744381  1.0
  H  H49  1  0.08171437  0.33908392  0.59053492  1.0
  H  H50  1  0.17251937  0.44237420  0.59274569  1.0
  H  H51  1  0.02430643  0.44160681  0.62166630  1.0
  H  H52  1  0.10964800  0.74027616  0.33001130  1.0
  H  H53  1  0.22094525  0.64779882  0.33780651  1.0
  H  H54  1  0.09864754  0.63309448  0.29630854  1.0
  H  H55  1  0.86562923  0.63933850  0.29743496  1.0
  H  H56  1  0.75557912  0.68521675  0.34212422  1.0
  H  H57  1  0.89106797  0.74918028  0.32704407  1.0
  H  H58  1  0.93323208  0.56359910  0.79775078  1.0
  H  H59  1  0.79932639  0.58086786  0.83647975  1.0
  H  H60  1  0.91049737  0.67097177  0.83124154  1.0
  H  H61  1  0.13478989  0.67368595  0.82785563  1.0
  H  H62  1  0.25900125  0.59214448  0.83358090  1.0
  H  H63  1  0.13528324  0.56414207  0.79543826  1.0
  H  H64  1  0.14937836  0.23099249  0.07299750  1.0
  H  H65  1  0.27334449  0.30978024  0.06182751  1.0
  H  H66  1  0.15918170  0.33501623  0.10942819  1.0
  H  H67  1  0.93419907  0.33766242  0.11597900  1.0
  H  H68  1  0.80582384  0.32526199  0.07741007  1.0
  H  H69  1  0.92274086  0.23548017  0.07830473  1.0
  C  C70  1  0.46773381  0.49691372  0.39885462  1.0
  C  C71  1  0.70147802  0.49096910  0.49384554  1.0
  C  C72  1  0.48403178  0.49708078  0.59739674  1.0
  C  C73  1  0.22813433  0.49869726  0.50372878  1.0
  C  C74  1  0.51773030  0.51186960  0.01863118  1.0
  C  C75  1  0.76424820  0.50522047  0.91955171  1.0
  C  C76  1  0.53280064  0.51283672  0.81427687  1.0
  C  C77  1  0.29480796  0.51034581  0.91337685  1.0
  C  C78  1  0.35710227  0.19819310  0.51573762  1.0
  C  C79  1  0.35972776  0.09764391  0.51753448  1.0
  C  C80  1  0.50484901  0.79512221  0.45588627  1.0
  C  C81  1  0.50904299  0.89542732  0.45716421  1.0
  C  C82  1  0.42432554  0.79004720  0.53852384  1.0
  C  C83  1  0.42161773  0.88842356  0.54178574  1.0
  C  C84  1  0.55922774  0.19950052  0.48462553  1.0
  C  C85  1  0.56672188  0.10099951  0.48383932  1.0
  C  C86  1  0.46427887  0.04834744  0.50094150  1.0
  C  C87  1  0.46598140  0.94281149  0.50008050  1.0
  C  C88  1  0.51910628  0.51261139  0.75825813  1.0
  C  C89  1  0.43935520  0.44334186  0.73855691  1.0
  C  C90  1  0.58610675  0.57407358  0.72656354  1.0
  C  C91  1  0.36292744  0.38463784  0.76986785  1.0
  C  C92  1  0.28685205  0.31737269  0.75054042  1.0
  C  C93  1  0.50116914  0.49910271  0.65327387  1.0
  C  C94  1  0.57784072  0.56641220  0.67301290  1.0
  C  C95  1  0.43225949  0.43506347  0.68507771  1.0
  C  C96  1  0.35562493  0.36408793  0.66598663  1.0
  C  C97  1  0.28564641  0.30498914  0.69709759  1.0
  C  C98  1  0.48262786  0.49543770  0.34354716  1.0
  C  C99  1  0.52073732  0.50681104  0.07416029  1.0
  C  C100  1  0.44589142  0.41528270  0.31575751  1.0
  C  C101  1  0.45834957  0.41698140  0.26288668  1.0
  C  C102  1  0.51537745  0.59195709  0.10288820  1.0
  C  C103  1  0.51202088  0.58605421  0.15569325  1.0
  C  C104  1  0.52779159  0.41870445  0.10027260  1.0
  C  C105  1  0.52704823  0.41369417  0.15249912  1.0
  C  C106  1  0.53511325  0.57295668  0.31686279  1.0
  C  C107  1  0.55002198  0.57304547  0.26489199  1.0
  C  C108  1  0.50929859  0.49515103  0.23691328  1.0
  C  C109  1  0.51710638  0.49807553  0.18112062  1.0
  C  C110  1  0.09258468  0.49512733  0.50121702  1.0
  C  C111  1  0.03663754  0.53621814  0.45776763  1.0
  C  C112  1  0.02342050  0.45361856  0.54058901  1.0
  C  C113  1  0.10349972  0.57653992  0.41607442  1.0
  C  C114  1  0.04728383  0.62006038  0.37574176  1.0
  C  C115  1  0.83825584  0.49000102  0.49566475  1.0
  C  C116  1  0.89381886  0.44815466  0.53692896  1.0
  C  C117  1  0.90637241  0.53634054  0.45590955  1.0
  C  C118  1  0.84991719  0.58248432  0.41455314  1.0
  C  C119  1  0.91676038  0.62548147  0.37554727  1.0
  C  C120  1  0.47835484  0.80913164  0.87109486  1.0
  C  C121  1  0.47178663  0.90964668  0.87181177  1.0
  C  C122  1  0.50493303  0.21147395  0.95961220  1.0
  C  C123  1  0.50211809  0.11110677  0.95882184  1.0
  C  C124  1  0.53348742  0.21744653  0.87207338  1.0
  C  C125  1  0.53080920  0.11923461  0.86849022  1.0
  C  C126  1  0.57465709  0.80653424  0.94809989  1.0
  C  C127  1  0.57215602  0.90481927  0.95106161  1.0
  C  C128  1  0.51873079  0.95849972  0.91190632  1.0
  C  C129  1  0.51621007  0.06394390  0.91314107  1.0
  C  C130  1  0.15778084  0.50681896  0.91400541  1.0
  C  C131  1  0.09682568  0.45815490  0.95496613  1.0
  C  C132  1  0.09404676  0.55057721  0.87550718  1.0
  C  C133  1  0.16133316  0.40918996  0.99326108  1.0
  C  C134  1  0.10248262  0.36124594  0.03275137  1.0
  C  C135  1  0.90145670  0.50585773  0.91810696  1.0
  C  C136  1  0.96343490  0.54947839  0.87740708  1.0
  C  C137  1  0.96605587  0.45839539  0.95749526  1.0
  C  C138  1  0.90746971  0.41160352  0.99939894  1.0
  C  C139  1  0.97180027  0.36359089  0.03617607  1.0
  C  C140  1  0.65657372  0.62991270  0.63941715  1.0
  C  C141  1  0.66911439  0.64858839  0.74638627  1.0
  C  C142  1  0.20623140  0.25848973  0.78553220  1.0
  C  C143  1  0.20909156  0.22898185  0.67484073  1.0
  C  C144  1  0.82044049  0.39991010  0.57883062  1.0
  C  C145  1  0.07921669  0.41771678  0.58857088  1.0
  C  C146  1  0.12324061  0.66227641  0.33286774  1.0
  C  C147  1  0.85380526  0.67727913  0.33346661  1.0
  C  C148  1  0.89748383  0.59314591  0.83366884  1.0
  C  C149  1  0.15957968  0.59737566  0.83104558  1.0
  C  C150  1  0.17503535  0.30677409  0.07114357  1.0
  C  C151  1  0.90488792  0.31316340  0.07908418  1.0
  N  N152  1  0.45672799  0.24806836  0.50004936  1.0
  N  N153  1  0.46488524  0.74359806  0.49651427  1.0
  N  N154  1  0.52755660  0.75849763  0.90943958  1.0
  N  N155  1  0.52178448  0.26343438  0.91667420  1.0
  O  O156  1  0.43079192  0.42096807  0.42216516  1.0
  O  O157  1  0.49178188  0.57325022  0.42269693  1.0
  O  O158  1  0.64766660  0.56888438  0.50591260  1.0
  O  O159  1  0.64936188  0.41456316  0.48093736  1.0
  O  O160  1  0.44497743  0.57443310  0.57720089  1.0
  O  O161  1  0.50746614  0.41950196  0.57412854  1.0
  O  O162  1  0.28670975  0.42053180  0.51443502  1.0
  O  O163  1  0.28111417  0.57686511  0.49455606  1.0
  O  O164  1  0.52634932  0.59472969  0.99724776  1.0
  O  O165  1  0.50570310  0.43569129  0.99304945  1.0
  O  O166  1  0.71318527  0.42416160  0.92327063  1.0
  O  O167  1  0.70758342  0.58550848  0.91640296  1.0
  O  O168  1  0.56638154  0.43562927  0.83538313  1.0
  O  O169  1  0.50915769  0.59022361  0.83868671  1.0
  O  O170  1  0.34258637  0.58953635  0.92377006  1.0
  O  O171  1  0.35352054  0.43323146  0.90287532  1.0
  O  O172  1  0.25355095  0.24266776  0.52969504  1.0
  O  O173  1  0.54047262  0.75208500  0.41331950  1.0
  O  O174  1  0.39688382  0.33729704  0.33839653  1.0
  O  O175  1  0.51089402  0.67966669  0.08127498  1.0
  O  O176  1  0.43515938  0.76544069  0.83139099  1.0
  O  O177  1  0.49089515  0.25383058  0.00407952  1.0
