# generated using pymatgen
data_ZnH17C24N5O4
_symmetry_space_group_name_H-M   'P 1'
_cell_length_a   21.54978899
_cell_length_b   21.56200525
_cell_length_c   21.96145582
_cell_angle_alpha   60.65584671
_cell_angle_beta   63.37062545
_cell_angle_gamma   89.99141055
_symmetry_Int_Tables_number   1
_chemical_formula_structural   ZnH17C24N5O4
_chemical_formula_sum   'Zn4 H68 C96 N20 O16'
_cell_volume   7629.64833367
_cell_formula_units_Z   4
loop_
 _symmetry_equiv_pos_site_id
 _symmetry_equiv_pos_as_xyz
  1  'x, y, z'
loop_
 _atom_site_type_symbol
 _atom_site_label
 _atom_site_symmetry_multiplicity
 _atom_site_fract_x
 _atom_site_fract_y
 _atom_site_fract_z
 _atom_site_occupancy
  Zn  Zn0  1  0.54058019  0.04394452  0.91093778  1.0
  Zn  Zn1  1  0.45836898  0.95411268  0.09085486  1.0
  Zn  Zn2  1  0.95945471  0.45654024  0.08690242  1.0
  Zn  Zn3  1  0.04100589  0.54410634  0.91164955  1.0
  H  H4  1  0.80992665  0.38716666  0.21716192  1.0
  H  H5  1  0.73550233  0.31730531  0.36816469  1.0
  H  H6  1  0.57206544  0.19346766  0.62414698  1.0
  H  H7  1  0.77204993  0.18813800  0.62607083  1.0
  H  H8  1  0.82035283  0.24853686  0.50218604  1.0
  H  H9  1  0.68077467  0.26018601  0.49757637  1.0
  H  H10  1  0.19026313  0.60516653  0.78244117  1.0
  H  H11  1  0.26461997  0.68678602  0.63153935  1.0
  H  H12  1  0.42799383  0.81568255  0.37649906  1.0
  H  H13  1  0.22789059  0.81545817  0.37487649  1.0
  H  H14  1  0.17996831  0.75150702  0.49754344  1.0
  H  H15  1  0.31912924  0.75722501  0.50318399  1.0
  H  H16  1  0.57666096  0.07437726  0.12994324  1.0
  H  H17  1  0.61211679  0.10499899  0.20670121  1.0
  H  H18  1  0.69529652  0.20350237  0.86995410  1.0
  H  H19  1  0.91817891  0.42677655  0.87158129  1.0
  H  H20  1  0.88411618  0.39491033  0.79466808  1.0
  H  H21  1  0.79949882  0.29746534  0.13154173  1.0
  H  H22  1  0.30389717  0.79374618  0.13024408  1.0
  H  H23  1  0.19847543  0.68623142  0.20561653  1.0
  H  H24  1  0.42347276  0.92619136  0.87026549  1.0
  H  H25  1  0.20150485  0.70399630  0.86691560  1.0
  H  H26  1  0.30522112  0.81255329  0.79170509  1.0
  H  H27  1  0.08067882  0.57236024  0.12672029  1.0
  H  H28  1  0.29891484  0.07141894  0.13220421  1.0
  H  H29  1  0.19490273  0.10527653  0.20675538  1.0
  H  H30  1  0.42068270  0.19825974  0.87220866  1.0
  H  H31  1  0.19976858  0.42506407  0.86613634  1.0
  H  H32  1  0.30501550  0.39260254  0.79185085  1.0
  H  H33  1  0.07805249  0.29849014  0.12600396  1.0
  H  H34  1  0.57893204  0.79616895  0.13173742  1.0
  H  H35  1  0.61319108  0.68760730  0.20768457  1.0
  H  H36  1  0.69685511  0.92805546  0.87165174  1.0
  H  H37  1  0.92201252  0.70508435  0.87108585  1.0
  H  H38  1  0.88536713  0.81188469  0.79474680  1.0
  H  H39  1  0.80318657  0.57299807  0.13074940  1.0
  H  H40  1  0.04152220  0.40749323  0.15153181  1.0
  H  H41  1  0.04427949  0.40750892  0.22844009  1.0
  H  H42  1  0.92148002  0.28042128  0.43726915  1.0
  H  H43  1  0.99397498  0.30708264  0.34596289  1.0
  H  H44  1  0.67959988  0.09133856  0.84423671  1.0
  H  H45  1  0.76083487  0.12562419  0.75421795  1.0
  H  H46  1  0.46326353  0.06293769  0.84342947  1.0
  H  H47  1  0.46431508  0.12164420  0.75340846  1.0
  H  H48  1  0.95809384  0.56027481  0.84785238  1.0
  H  H49  1  0.95625181  0.63670140  0.76931026  1.0
  H  H50  1  0.07904045  0.71806699  0.56220752  1.0
  H  H51  1  0.00732000  0.65173644  0.65268497  1.0
  H  H52  1  0.31966118  0.93702615  0.15732658  1.0
  H  H53  1  0.23883754  0.88319130  0.24766327  1.0
  H  H54  1  0.53621133  0.90349224  0.15760710  1.0
  H  H55  1  0.53485295  0.86970672  0.24792614  1.0
  H  H56  1  0.73166634  0.20064246  0.22628534  1.0
  H  H57  1  0.65599518  0.13233733  0.27580603  1.0
  H  H58  1  0.78576288  0.27803036  0.77438735  1.0
  H  H59  1  0.85389175  0.35431200  0.72519745  1.0
  H  H60  1  0.06032141  0.57550796  0.22283928  1.0
  H  H61  1  0.09249755  0.59046235  0.27301141  1.0
  H  H62  1  0.42053223  0.94860052  0.77422012  1.0
  H  H63  1  0.39840800  0.92211937  0.72395290  1.0
  H  H64  1  0.08129757  0.22567349  0.22257925  1.0
  H  H65  1  0.10240288  0.14833879  0.27353263  1.0
  H  H66  1  0.44109631  0.29542320  0.77619702  1.0
  H  H67  1  0.41172470  0.36390536  0.72533146  1.0
  H  H68  1  0.71118683  0.55047090  0.22621779  1.0
  H  H69  1  0.64338383  0.57746232  0.27602769  1.0
  H  H70  1  0.76430304  0.92527063  0.77655786  1.0
  H  H71  1  0.83970967  0.90647606  0.72669694  1.0
  C  C72  1  0.41501760  0.91395920  0.00027585  1.0
  C  C73  1  0.41350015  0.08319565  0.00140680  1.0
  C  C74  1  0.58461972  0.08519101  0.99971800  1.0
  C  C75  1  0.58525309  0.91482053  0.00059424  1.0
  C  C76  1  0.08776491  0.41616968  0.99487014  1.0
  C  C77  1  0.08782975  0.58567714  0.99687228  1.0
  C  C78  1  0.91400474  0.58475571  0.00190911  1.0
  C  C79  1  0.91093470  0.41323240  0.00398591  1.0
  C  C80  1  0.83470995  0.37019976  0.25444535  1.0
  C  C81  1  0.79424818  0.33199629  0.33802889  1.0
  C  C82  1  0.82860577  0.31075150  0.38432516  1.0
  C  C83  1  0.90489418  0.33145249  0.34078338  1.0
  C  C84  1  0.94307800  0.37083339  0.25388041  1.0
  C  C85  1  0.78838163  0.26652175  0.47284178  1.0
  C  C86  1  0.71573781  0.24384816  0.52322482  1.0
  C  C87  1  0.60204853  0.17621896  0.65582097  1.0
  C  C88  1  0.67776004  0.19753091  0.61210128  1.0
  C  C89  1  0.71328408  0.17298482  0.65616743  1.0
  C  C90  1  0.67274937  0.12920605  0.74155617  1.0
  C  C91  1  0.56389849  0.13049447  0.74153262  1.0
  C  C92  1  0.16547853  0.62539329  0.74517485  1.0
  C  C93  1  0.20589004  0.67095059  0.66171275  1.0
  C  C94  1  0.17140945  0.69569379  0.61554363  1.0
  C  C95  1  0.09523699  0.67270692  0.65884813  1.0
  C  C96  1  0.05704349  0.62541734  0.74569128  1.0
  C  C97  1  0.21169962  0.73984391  0.52717593  1.0
  C  C98  1  0.28436728  0.76698112  0.47726932  1.0
  C  C99  1  0.39798864  0.83072571  0.34484407  1.0
  C  C100  1  0.32234645  0.80937355  0.38852089  1.0
  C  C101  1  0.28664499  0.82969189  0.34465991  1.0
  C  C102  1  0.32694816  0.87121353  0.25937897  1.0
  C  C103  1  0.43599835  0.87067877  0.25919359  1.0
  C  C104  1  0.62160524  0.12103648  0.07341392  1.0
  C  C105  1  0.66693637  0.16618329  0.07510741  1.0
  C  C106  1  0.65662629  0.15223723  0.14998487  1.0
  C  C107  1  0.68998519  0.19450899  0.92561445  1.0
  C  C108  1  0.73628785  0.24149495  0.92416988  1.0
  C  C109  1  0.79551890  0.30404408  0.84876039  1.0
  C  C110  1  0.87362884  0.37981206  0.92823743  1.0
  C  C111  1  0.82866396  0.33447841  0.92629295  1.0
  C  C112  1  0.83941779  0.34787575  0.85143307  1.0
  C  C113  1  0.80583821  0.30529788  0.07595764  1.0
  C  C114  1  0.75952017  0.25870472  0.07712031  1.0
  C  C115  1  0.70061521  0.19601420  0.15258663  1.0
  C  C116  1  0.63327556  0.13475467  0.99954293  1.0
  C  C117  1  0.72510982  0.22731777  0.99969099  1.0
  C  C118  1  0.86241735  0.36522585  0.00230263  1.0
  C  C119  1  0.77070400  0.27305631  0.00155868  1.0
  C  C120  1  0.31100302  0.80406880  0.07334569  1.0
  C  C121  1  0.26461163  0.75758011  0.07410813  1.0
  C  C122  1  0.20629091  0.69636962  0.14842559  1.0
  C  C123  1  0.37801268  0.87930891  0.92554711  1.0
  C  C124  1  0.33354050  0.83419708  0.92318930  1.0
  C  C125  1  0.34374472  0.84803823  0.84719565  1.0
  C  C126  1  0.19379093  0.69399234  0.92389510  1.0
  C  C127  1  0.24013155  0.74050628  0.92314088  1.0
  C  C128  1  0.29783498  0.80211342  0.84883377  1.0
  C  C129  1  0.12558863  0.61988116  0.07154676  1.0
  C  C130  1  0.17060251  0.66443401  0.07394194  1.0
  C  C131  1  0.16013834  0.65084216  0.14991101  1.0
  C  C132  1  0.36676433  0.86457487  0.99984246  1.0
  C  C133  1  0.27572567  0.77260490  0.99823706  1.0
  C  C134  1  0.13703225  0.63447444  0.99722370  1.0
  C  C135  1  0.22874664  0.72571847  0.99899723  1.0
  C  C136  1  0.30682500  0.11792871  0.07487977  1.0
  C  C137  1  0.26066059  0.16394107  0.07530163  1.0
  C  C138  1  0.20278860  0.15187774  0.14930205  1.0
  C  C139  1  0.37582985  0.19121717  0.92709571  1.0
  C  C140  1  0.33105655  0.23836826  0.92438699  1.0
  C  C141  1  0.34232651  0.30086648  0.84809986  1.0
  C  C142  1  0.19208104  0.37860751  0.92333227  1.0
  C  C143  1  0.23808687  0.33252402  0.92322185  1.0
  C  C144  1  0.29662611  0.34539269  0.84918506  1.0
  C  C145  1  0.12375318  0.30645261  0.07105867  1.0
  C  C146  1  0.16804765  0.25875824  0.07406562  1.0
  C  C147  1  0.15737737  0.19677964  0.15037356  1.0
  C  C148  1  0.36392160  0.13164346  0.00162239  1.0
  C  C149  1  0.27267822  0.22503793  0.99915294  1.0
  C  C150  1  0.13577927  0.36596410  0.99636103  1.0
  C  C151  1  0.22614951  0.27164432  0.99941297  1.0
  C  C152  1  0.62367502  0.80649285  0.07477773  1.0
  C  C153  1  0.66897989  0.75961829  0.07614781  1.0
  C  C154  1  0.65822456  0.69792308  0.15073399  1.0
  C  C155  1  0.69086050  0.88020902  0.92695284  1.0
  C  C156  1  0.73769326  0.83521188  0.92524303  1.0
  C  C157  1  0.79649550  0.84808794  0.84956505  1.0
  C  C158  1  0.87670913  0.69462507  0.92780197  1.0
  C  C159  1  0.83111959  0.74125845  0.92634346  1.0
  C  C160  1  0.84093749  0.80215117  0.85172496  1.0
  C  C161  1  0.80843904  0.62006348  0.07544232  1.0
  C  C162  1  0.76183818  0.66524540  0.07718267  1.0
  C  C163  1  0.70225501  0.65155858  0.15289921  1.0
  C  C164  1  0.63434797  0.86590383  0.00107954  1.0
  C  C165  1  0.72698036  0.77402807  0.00051276  1.0
  C  C166  1  0.86529977  0.63445347  0.00149499  1.0
  C  C167  1  0.77289449  0.72672951  0.00190213  1.0
  N  N168  1  0.90818140  0.38998042  0.21262274  1.0
  N  N169  1  0.59878988  0.10785215  0.78404376  1.0
  N  N170  1  0.09201345  0.60323512  0.78687295  1.0
  N  N171  1  0.40092160  0.89143799  0.21683665  1.0
  N  N172  1  0.01723953  0.38492570  0.21290880  1.0
  N  N173  1  0.94723775  0.31688324  0.37614039  1.0
  N  N174  1  0.70647025  0.10498430  0.78536979  1.0
  N  N175  1  0.49031509  0.10833523  0.78471741  1.0
  N  N176  1  0.98307439  0.59904001  0.78649467  1.0
  N  N177  1  0.05277072  0.69293677  0.62346895  1.0
  N  N178  1  0.29282359  0.89144164  0.21593342  1.0
  N  N179  1  0.50959179  0.89092528  0.21610102  1.0
  N  N180  1  0.68806672  0.18337556  0.22606462  1.0
  N  N181  1  0.80492655  0.32042792  0.77508078  1.0
  N  N182  1  0.10509208  0.58969542  0.22304066  1.0
  N  N183  1  0.40161892  0.90572093  0.77404458  1.0
  N  N184  1  0.09959240  0.18218099  0.22320730  1.0
  N  N185  1  0.39757023  0.31270234  0.77526103  1.0
  N  N186  1  0.69254782  0.59359685  0.22628097  1.0
  N  N187  1  0.80845514  0.90864974  0.77611741  1.0
  O  O188  1  0.45393039  0.97718740  0.93358389  1.0
  O  O189  1  0.41442065  0.89046604  0.06600095  1.0
  O  O190  1  0.39234858  0.02049442  0.06803559  1.0
  O  O191  1  0.47313097  0.10720245  0.93551149  1.0
  O  O192  1  0.52526164  0.04289165  0.06545283  1.0
  O  O193  1  0.60658609  0.08885819  0.93289131  1.0
  O  O194  1  0.58578458  0.95649537  0.93470112  1.0
  O  O195  1  0.54573633  0.91135051  0.06708905  1.0
  O  O196  1  0.04429103  0.40904827  0.06258181  1.0
  O  O197  1  0.09307658  0.46214031  0.92712775  1.0
  O  O198  1  0.10624351  0.59462082  0.92863978  1.0
  O  O199  1  0.03136926  0.53885085  0.06507736  1.0
  O  O200  1  0.97027115  0.60555757  0.93395600  1.0
  O  O201  1  0.89504750  0.52525810  0.07033015  1.0
  O  O202  1  0.90565912  0.39090760  0.07197958  1.0
  O  O203  1  0.95481719  0.47344643  0.93659255  1.0
