# generated using pymatgen
data_Zn4H6C24S6Cl2O19
_symmetry_space_group_name_H-M   'P 1'
_cell_length_a   19.58821692
_cell_length_b   19.67688687
_cell_length_c   33.25911905
_cell_angle_alpha   79.19415250
_cell_angle_beta   79.46467744
_cell_angle_gamma   64.08089230
_symmetry_Int_Tables_number   1
_chemical_formula_structural   Zn4H6C24S6Cl2O19
_chemical_formula_sum   'Zn16 H24 C96 S24 Cl8 O76'
_cell_volume   11251.23294702
_cell_formula_units_Z   4
loop_
 _symmetry_equiv_pos_site_id
 _symmetry_equiv_pos_as_xyz
  1  'x, y, z'
loop_
 _atom_site_type_symbol
 _atom_site_label
 _atom_site_symmetry_multiplicity
 _atom_site_fract_x
 _atom_site_fract_y
 _atom_site_fract_z
 _atom_site_occupancy
  Zn  Zn0  1  0.05701096  0.39746288  0.47971360  1.0
  Zn  Zn1  1  0.98705023  0.48038364  0.56059630  1.0
  Zn  Zn2  1  0.05596692  0.56269425  0.48132654  1.0
  Zn  Zn3  1  0.90192850  0.55613776  0.47912747  1.0
  Zn  Zn4  1  0.69203455  0.34971742  0.27226611  1.0
  Zn  Zn5  1  0.68559477  0.19240606  0.26722292  1.0
  Zn  Zn6  1  0.77183081  0.26475335  0.19057898  1.0
  Zn  Zn7  1  0.84815803  0.19404435  0.27072417  1.0
  Zn  Zn8  1  0.26969745  0.76527252  0.68883272  1.0
  Zn  Zn9  1  0.35195299  0.69708851  0.76991135  1.0
  Zn  Zn10  1  0.19032913  0.84675591  0.77175977  1.0
  Zn  Zn11  1  0.19054865  0.69071361  0.76828876  1.0
  Zn  Zn12  1  0.55798131  0.06387658  0.98247043  1.0
  Zn  Zn13  1  0.40049518  0.05834245  0.97645797  1.0
  Zn  Zn14  1  0.55591231  0.90149470  0.98030693  1.0
  Zn  Zn15  1  0.48347066  0.97958579  0.05926770  1.0
  H  H16  1  0.74936230  0.44931352  0.34924773  1.0
  H  H17  1  0.00091901  0.29978840  0.40093044  1.0
  H  H18  1  0.19991509  0.70202098  0.60083796  1.0
  H  H19  1  0.04998114  0.54922835  0.64888563  1.0
  H  H20  1  0.46096833  0.24066254  0.34203642  1.0
  H  H21  1  0.48177266  0.69918769  0.59943749  1.0
  H  H22  1  0.20120384  0.97694521  0.60215258  1.0
  H  H23  1  0.94432633  0.97639963  0.35074408  1.0
  H  H24  1  0.65048806  0.14782158  0.04923555  1.0
  H  H25  1  0.60110142  0.09981079  0.20064831  1.0
  H  H26  1  0.54864242  0.76777058  0.14977847  1.0
  H  H27  1  0.16351908  0.13847294  0.03916737  1.0
  H  H28  1  0.29970134  0.00020155  0.90100263  1.0
  H  H29  1  0.44897641  0.75037193  0.84944021  1.0
  H  H30  1  0.29941021  0.28323056  0.89941398  1.0
  H  H31  1  0.78692410  0.01019272  0.91091534  1.0
  H  H32  1  0.84343022  0.57201595  0.39985712  1.0
  H  H33  1  0.96495242  0.23569378  0.29206818  1.0
  H  H34  1  0.06983746  0.68684015  0.51363079  1.0
  H  H35  1  0.06372275  0.67808511  0.73668250  1.0
  H  H36  1  0.79503235  0.17713606  0.12193693  1.0
  H  H37  1  0.57122369  0.95633476  0.12824608  1.0
  H  H38  1  0.17692912  0.90637579  0.84989870  1.0
  H  H39  1  0.51450895  0.78519486  0.95838820  1.0
  C  C40  1  0.06211532  0.31376169  0.56288056  1.0
  C  C41  1  0.06550400  0.57387254  0.56817061  1.0
  C  C42  1  0.18189780  0.44022448  0.43943126  1.0
  C  C43  1  0.93535440  0.68699332  0.43818333  1.0
  C  C44  1  0.93387197  0.43282796  0.42898332  1.0
  C  C45  1  0.81972772  0.55995926  0.56150028  1.0
  C  C46  1  0.56291605  0.31252538  0.31172776  1.0
  C  C47  1  0.68652129  0.17600156  0.18087385  1.0
  C  C48  1  0.69078907  0.43090500  0.18847294  1.0
  C  C49  1  0.93783342  0.18544083  0.18893573  1.0
  C  C50  1  0.82122668  0.32127731  0.31632958  1.0
  C  C51  1  0.80899789  0.06884495  0.31122434  1.0
  C  C52  1  0.43632514  0.68905955  0.68670067  1.0
  C  C53  1  0.31565453  0.81818969  0.82080388  1.0
  C  C54  1  0.18888258  0.93138666  0.68909894  1.0
  C  C55  1  0.06386323  0.80898309  0.81301062  1.0
  C  C56  1  0.17628296  0.68538598  0.68158773  1.0
  C  C57  1  0.31447243  0.56868173  0.81025647  1.0
  C  C58  1  0.43592498  0.18736304  0.93760975  1.0
  C  C59  1  0.42889619  0.92848321  0.93364334  1.0
  C  C60  1  0.68142066  0.94158989  0.93918188  1.0
  C  C61  1  0.56232889  0.81384233  0.06270028  1.0
  C  C62  1  0.57334429  0.06358845  0.06896493  1.0
  C  C63  1  0.31725107  0.06159265  0.05976520  1.0
  C  C64  1  0.90036614  0.40548336  0.40157303  1.0
  C  C65  1  0.85163155  0.34529310  0.34688294  1.0
  C  C66  1  0.82800461  0.44678607  0.38722161  1.0
  C  C67  1  0.92260797  0.30259351  0.36261608  1.0
  C  C68  1  0.80514815  0.41661323  0.36023346  1.0
  C  C69  1  0.94584028  0.33314611  0.38923241  1.0
  C  C70  1  0.09802610  0.60169129  0.59578704  1.0
  C  C71  1  0.14887037  0.65255380  0.65396160  1.0
  C  C72  1  0.14190830  0.64433775  0.58254434  1.0
  C  C73  1  0.10712075  0.60778106  0.66720226  1.0
  C  C74  1  0.16618984  0.66908826  0.61149379  1.0
  C  C75  1  0.08230848  0.58355706  0.63824249  1.0
  C  C76  1  0.30246506  0.45631123  0.40141267  1.0
  C  C77  1  0.44377024  0.29766406  0.34968969  1.0
  C  C78  1  0.25643281  0.41683244  0.41456465  1.0
  C  C79  1  0.48837377  0.33798631  0.33680876  1.0
  C  C80  1  0.37562154  0.34084581  0.37316804  1.0
  C  C81  1  0.37039692  0.41282759  0.37768476  1.0
  C  C82  1  0.72892256  0.57607854  0.62942041  1.0
  C  C83  1  0.52659851  0.67132555  0.61968458  1.0
  C  C84  1  0.74548900  0.58369293  0.58662950  1.0
  C  C85  1  0.51146314  0.66307499  0.66221446  1.0
  C  C86  1  0.60607073  0.63914971  0.60755941  1.0
  C  C87  1  0.64926369  0.60758669  0.64131445  1.0
  C  C88  1  0.07778869  0.22317521  0.63113283  1.0
  C  C89  1  0.17344176  0.02165341  0.62217088  1.0
  C  C90  1  0.08644899  0.23979236  0.58834638  1.0
  C  C91  1  0.16436914  0.00656304  0.66471818  1.0
  C  C92  1  0.14219561  0.10079185  0.60979811  1.0
  C  C93  1  0.10983865  0.14376030  0.64333543  1.0
  C  C94  1  0.84120836  0.80310905  0.39567639  1.0
  C  C95  1  0.90120302  0.95440889  0.35376537  1.0
  C  C96  1  0.90928253  0.76161254  0.41339172  1.0
  C  C97  1  0.83347817  0.99416941  0.33617519  1.0
  C  C98  1  0.90445863  0.88424316  0.37531380  1.0
  C  C99  1  0.83874385  0.87290225  0.37381652  1.0
  C  C100  1  0.65646604  0.15099108  0.15057595  1.0
  C  C101  1  0.59817634  0.09360928  0.09930636  1.0
  C  C102  1  0.66894366  0.16533182  0.10728211  1.0
  C  C103  1  0.58338789  0.08154874  0.14258776  1.0
  C  C104  1  0.64025487  0.13645606  0.08257702  1.0
  C  C105  1  0.61274965  0.10975187  0.16731195  1.0
  C  C106  1  0.67515407  0.52178774  0.12022381  1.0
  C  C107  1  0.57756303  0.72329550  0.12964999  1.0
  C  C108  1  0.66628284  0.50490014  0.16300712  1.0
  C  C109  1  0.58757293  0.73874254  0.08713729  1.0
  C  C110  1  0.60985019  0.64406252  0.14185981  1.0
  C  C111  1  0.64312603  0.60131591  0.10825734  1.0
  C  C112  1  0.08545517  0.12332960  0.17753217  1.0
  C  C113  1  0.17160557  0.12332706  0.07165341  1.0
  C  C114  1  0.01274495  0.16072976  0.16451579  1.0
  C  C115  1  0.24318382  0.08641768  0.08532054  1.0
  C  C116  1  0.11379455  0.13729449  0.10529269  1.0
  C  C117  1  0.14309142  0.11022436  0.14367311  1.0
  C  C118  1  0.34299405  0.85079919  0.84861351  1.0
  C  C119  1  0.40414357  0.89828095  0.90337384  1.0
  C  C120  1  0.30159446  0.92249977  0.86305203  1.0
  C  C121  1  0.44664211  0.82763926  0.88785359  1.0
  C  C122  1  0.33230940  0.94478715  0.89004828  1.0
  C  C123  1  0.41565814  0.80505406  0.86112316  1.0
  C  C124  1  0.40791061  0.45149490  0.85260108  1.0
  C  C125  1  0.34408445  0.30334368  0.89561762  1.0
  C  C126  1  0.33992417  0.49393941  0.83493317  1.0
  C  C127  1  0.41215423  0.26207476  0.91270498  1.0
  C  C128  1  0.34245554  0.37250968  0.87342860  1.0
  C  C129  1  0.40934606  0.38208351  0.87445825  1.0
  C  C130  1  0.94169714  0.79518166  0.85021868  1.0
  C  C131  1  0.80260905  0.95399719  0.90254334  1.0
  C  C132  1  0.98925580  0.83311373  0.83778365  1.0
  C  C133  1  0.75611030  0.91546726  0.91426606  1.0
  C  C134  1  0.87035582  0.91031813  0.87896165  1.0
  C  C135  1  0.87368183  0.83946970  0.87360214  1.0
  S  S136  1  0.29648508  0.32711084  0.39782891  1.0
  S  S137  1  0.44849032  0.42794228  0.35302026  1.0
  S  S138  1  0.66367921  0.62877610  0.56126159  1.0
  S  S139  1  0.59284466  0.61652780  0.68777676  1.0
  S  S140  1  0.13368049  0.15831664  0.56337629  1.0
  S  S141  1  0.11840517  0.08755297  0.68999097  1.0
  S  S142  1  0.96960603  0.80830915  0.40323092  1.0
  S  S143  1  0.77339647  0.94744774  0.34567184  1.0
  S  S144  1  0.61887029  0.58619799  0.18818183  1.0
  S  S145  1  0.63563232  0.65792244  0.06175411  1.0
  S  S146  1  0.01537225  0.17958734  0.11102034  1.0
  S  S147  1  0.24120018  0.06864548  0.13869648  1.0
  S  S148  1  0.27847808  0.44853807  0.84497330  1.0
  S  S149  1  0.47443452  0.30638958  0.90216379  1.0
  S  S150  1  0.95054023  0.92256506  0.85477958  1.0
  S  S151  1  0.79364345  0.82664334  0.89686481  1.0
  S  S152  1  0.75689554  0.53614119  0.40351631  1.0
  S  S153  1  0.98623043  0.20609239  0.35340157  1.0
  S  S154  1  0.17580159  0.66558189  0.52956892  1.0
  S  S155  1  0.08699684  0.57260159  0.72014664  1.0
  S  S156  1  0.71505228  0.22516664  0.07981228  1.0
  S  S157  1  0.52263044  0.03627083  0.16985059  1.0
  S  S158  1  0.21161553  0.99333763  0.84671466  1.0
  S  S159  1  0.54359287  0.76386508  0.89723515  1.0
  Cl  Cl160  1  0.28323293  0.54504273  0.41135329  1.0
  Cl  Cl161  1  0.79302383  0.53446593  0.66474465  1.0
  Cl  Cl162  1  0.03536995  0.28690070  0.66618754  1.0
  Cl  Cl163  1  0.76856701  0.77636764  0.39822447  1.0
  Cl  Cl164  1  0.71813747  0.45828402  0.08519894  1.0
  Cl  Cl165  1  0.10645726  0.09613825  0.22713708  1.0
  Cl  Cl166  1  0.48234056  0.47598979  0.84936622  1.0
  Cl  Cl167  1  0.95890934  0.70761939  0.83916711  1.0
  O  O168  1  0.00129148  0.49757286  0.50007656  1.0
  O  O169  1  0.08119919  0.31231159  0.52389886  1.0
  O  O170  1  0.04829233  0.51875107  0.58372725  1.0
  O  O171  1  0.15517541  0.50406400  0.45358932  1.0
  O  O172  1  0.02423577  0.37288121  0.58134101  1.0
  O  O173  1  0.15016712  0.39370699  0.44471046  1.0
  O  O174  1  0.05504305  0.60791361  0.53138312  1.0
  O  O175  1  0.00351836  0.65981574  0.44819984  1.0
  O  O176  1  0.90738049  0.50473752  0.43074314  1.0
  O  O177  1  0.88922175  0.65505841  0.44791382  1.0
  O  O178  1  0.98816619  0.38249161  0.44802348  1.0
  O  O179  1  0.87926552  0.53341040  0.58016264  1.0
  O  O180  1  0.81778269  0.56886454  0.52236360  1.0
  O  O181  1  0.74792368  0.25088600  0.25055113  1.0
  O  O182  1  0.59309714  0.36035380  0.30225323  1.0
  O  O183  1  0.65249795  0.17881183  0.21717560  1.0
  O  O184  1  0.72125694  0.37146162  0.16991402  1.0
  O  O185  1  0.59104610  0.24518713  0.30156146  1.0
  O  O186  1  0.67903129  0.43295663  0.22761240  1.0
  O  O187  1  0.74525343  0.19093970  0.16892601  1.0
  O  O188  1  0.87993175  0.22300466  0.16856306  1.0
  O  O189  1  0.86856313  0.27077192  0.29330641  1.0
  O  O190  1  0.93549997  0.16812486  0.22797043  1.0
  O  O191  1  0.74983999  0.35440320  0.31443501  1.0
  O  O192  1  0.74548777  0.09309416  0.29619617  1.0
  O  O193  1  0.85319773  0.10273192  0.30670019  1.0
  O  O194  1  0.25140288  0.74995711  0.74925960  1.0
  O  O195  1  0.37777407  0.72570153  0.66711892  1.0
  O  O196  1  0.36660090  0.76587046  0.80103918  1.0
  O  O197  1  0.17685389  0.93091983  0.72835509  1.0
  O  O198  1  0.43641031  0.67252483  0.72584853  1.0
  O  O199  1  0.21956416  0.87355852  0.66913654  1.0
  O  O200  1  0.24345732  0.84305559  0.81941615  1.0
  O  O201  1  0.09233297  0.85845022  0.80382624  1.0
  O  O202  1  0.14331652  0.69358426  0.71860660  1.0
  O  O203  1  0.09469030  0.74182453  0.80255790  1.0
  O  O204  1  0.22987359  0.70508042  0.66583681  1.0
  O  O205  1  0.35667780  0.60459878  0.80551235  1.0
  O  O206  1  0.25052398  0.59146160  0.79573794  1.0
  O  O207  1  0.49889047  0.00207768  0.99928131  1.0
  O  O208  1  0.50335493  0.15869555  0.94856288  1.0
  O  O209  1  0.39595847  0.99968480  0.93506548  1.0
  O  O210  1  0.64744105  0.89712954  0.94478193  1.0
  O  O211  1  0.38790287  0.15748550  0.94615687  1.0
  O  O212  1  0.65717781  0.00547444  0.95310446  1.0
  O  O213  1  0.47967144  0.88126900  0.95685992  1.0
  O  O214  1  0.58091394  0.81478360  0.02364052  1.0
  O  O215  1  0.55802119  0.00525185  0.08103011  1.0
  O  O216  1  0.52405204  0.87195718  0.08211409  1.0
  O  O217  1  0.57124919  0.09703586  0.03246138  1.0
  O  O218  1  0.31625411  0.07253821  0.02071174  1.0
  O  O219  1  0.37635574  0.03070178  0.07933341  1.0
  O  O220  1  0.79661146  0.59237079  0.38516447  1.0
  O  O221  1  0.69235213  0.56026439  0.38132336  1.0
  O  O222  1  0.74838143  0.52737114  0.44785346  1.0
  O  O223  1  0.01313910  0.21640689  0.30545075  1.0
  O  O224  1  0.05259523  0.18324841  0.37386999  1.0
  O  O225  1  0.94150193  0.16218374  0.36165592  1.0
  O  O226  1  0.09834360  0.71980254  0.51051479  1.0
  O  O227  1  0.21595603  0.71185078  0.52860807  1.0
  O  O228  1  0.21205329  0.59505784  0.51179968  1.0
  O  O229  1  0.03151274  0.64900701  0.73933367  1.0
  O  O230  1  0.04162992  0.53157270  0.72087511  1.0
  O  O231  1  0.15793122  0.53728881  0.73807182  1.0
  O  O232  1  0.80013713  0.17851164  0.09116585  1.0
  O  O233  1  0.71871280  0.22364359  0.03654177  1.0
  O  O234  1  0.67927644  0.29600254  0.09726952  1.0
  O  O235  1  0.56933168  0.95128995  0.15907818  1.0
  O  O236  1  0.52359037  0.03295368  0.21316112  1.0
  O  O237  1  0.45186347  0.07194581  0.15175217  1.0
  O  O238  1  0.15575092  0.95296847  0.86457801  1.0
  O  O239  1  0.18716861  0.05702864  0.86919538  1.0
  O  O240  1  0.22027808  0.00282142  0.80237936  1.0
  O  O241  1  0.53365302  0.73714621  0.94529568  1.0
  O  O242  1  0.56577820  0.69782991  0.87708502  1.0
  O  O243  1  0.58777215  0.80829642  0.88870046  1.0
