# generated using pymatgen
data_Al2H17C30N3O13
_symmetry_space_group_name_H-M   'P 1'
_cell_length_a   6.60891529
_cell_length_b   20.54851200
_cell_length_c   21.67435501
_cell_angle_alpha   90.03081625
_cell_angle_beta   90.55859646
_cell_angle_gamma   98.00580255
_symmetry_Int_Tables_number   1
_chemical_formula_structural   Al2H17C30N3O13
_chemical_formula_sum   'Al4 H34 C60 N6 O26'
_cell_volume   2914.61974063
_cell_formula_units_Z   2
loop_
 _symmetry_equiv_pos_site_id
 _symmetry_equiv_pos_as_xyz
  1  'x, y, z'
loop_
 _atom_site_type_symbol
 _atom_site_label
 _atom_site_symmetry_multiplicity
 _atom_site_fract_x
 _atom_site_fract_y
 _atom_site_fract_z
 _atom_site_occupancy
  Al  Al0  1  0.10461302  0.31561509  0.50121383  1.0
  Al  Al1  1  0.90607155  0.68533737  0.00057774  1.0
  Al  Al2  1  0.60400696  0.31324747  0.50054345  1.0
  Al  Al3  1  0.40628784  0.68690654  0.99972537  1.0
  H  H4  1  0.79047291  0.50317202  0.09022579  1.0
  H  H5  1  0.22640507  0.49322641  0.59481666  1.0
  H  H6  1  0.87030107  0.36177236  0.25724782  1.0
  H  H7  1  0.14114095  0.63845963  0.75854379  1.0
  H  H8  1  0.74751069  0.41458303  0.17018441  1.0
  H  H9  1  0.26866160  0.58335197  0.67377926  1.0
  H  H10  1  0.69727254  0.49795587  0.42197027  1.0
  H  H11  1  0.31339305  0.50212763  0.91779683  1.0
  H  H12  1  0.53687311  0.59066023  0.25463104  1.0
  H  H13  1  0.47534084  0.40997279  0.75108289  1.0
  H  H14  1  0.75987680  0.58917781  0.34535592  1.0
  H  H15  1  0.25503632  0.41002902  0.84149386  1.0
  H  H16  1  0.10836326  0.35758552  0.34404774  1.0
  H  H17  1  0.89868884  0.64416785  0.84252967  1.0
  H  H18  1  0.58260961  0.18392349  0.35293476  1.0
  H  H19  1  0.42100568  0.81853553  0.85536066  1.0
  H  H20  1  0.54106618  0.97559209  0.14573120  1.0
  H  H21  1  0.47073079  0.02423981  0.64454202  1.0
  H  H22  1  0.51883980  0.87414549  0.07868206  1.0
  H  H23  1  0.49841189  0.12420548  0.57593917  1.0
  H  H24  1  0.97234846  0.12996898  0.42049234  1.0
  H  H25  1  0.03476390  0.87120514  0.92438998  1.0
  H  H26  1  0.95141335  0.90546021  0.22119748  1.0
  H  H27  1  0.05242824  0.09632169  0.72763358  1.0
  H  H28  1  0.93528535  0.02803912  0.35423566  1.0
  H  H29  1  0.07151591  0.97310235  0.85831877  1.0
  H  H30  1  0.92023766  0.80755572  0.14957302  1.0
  H  H31  1  0.08811426  0.19328158  0.65565864  1.0
  H  H32  1  0.39416014  0.61393643  0.13006392  1.0
  H  H33  1  0.59903195  0.39170635  0.62436256  1.0
  H  H34  1  0.86418033  0.34660024  0.42732823  1.0
  H  H35  1  0.14044178  0.65273442  0.92695383  1.0
  H  H36  1  0.33816292  0.28235551  0.57542928  1.0
  H  H37  1  0.65187165  0.65805266  0.07689761  1.0
  C  C38  1  0.90699257  0.40157904  0.57831955  1.0
  C  C39  1  0.10344928  0.59784333  0.07773718  1.0
  C  C40  1  0.81097795  0.22303483  0.57138437  1.0
  C  C41  1  0.20411442  0.77588336  0.07095917  1.0
  C  C42  1  0.30125638  0.22340736  0.42946995  1.0
  C  C43  1  0.70594069  0.77821979  0.93195874  1.0
  C  C44  1  0.40212313  0.40029131  0.42482006  1.0
  C  C45  1  0.60425638  0.60129434  0.92166614  1.0
  C  C46  1  0.88009253  0.45263585  0.17086174  1.0
  C  C47  1  0.13340266  0.54632525  0.67294748  1.0
  C  C48  1  0.08219053  0.54748307  0.12634404  1.0
  C  C49  1  0.92750945  0.45259640  0.62633081  1.0
  C  C50  1  0.59792869  0.49918169  0.38171310  1.0
  C  C51  1  0.41210620  0.50127613  0.87794734  1.0
  C  C52  1  0.63279440  0.54984577  0.33859930  1.0
  C  C53  1  0.37929003  0.45017796  0.83492697  1.0
  C  C54  1  0.50659931  0.55071693  0.28730445  1.0
  C  C55  1  0.50402839  0.44998748  0.78397802  1.0
  C  C56  1  0.33883111  0.50085511  0.27658973  1.0
  C  C57  1  0.66888659  0.50070240  0.77381910  1.0
  C  C58  1  0.29890606  0.44954229  0.32192080  1.0
  C  C59  1  0.70819084  0.55209663  0.81937479  1.0
  C  C60  1  0.20327531  0.50070309  0.22301100  1.0
  C  C61  1  0.80440783  0.50088088  0.72108256  1.0
  C  C62  1  0.02694320  0.45191285  0.21886829  1.0
  C  C63  1  0.98356564  0.54851841  0.71894083  1.0
  C  C64  1  0.99962209  0.40052583  0.26342307  1.0
  C  C65  1  0.01025230  0.60016439  0.76347810  1.0
  C  C66  1  0.13121743  0.39840091  0.31191569  1.0
  C  C67  1  0.87630899  0.60312401  0.81047808  1.0
  C  C68  1  0.23358887  0.54640563  0.17291194  1.0
  C  C69  1  0.77132227  0.45591216  0.67012784  1.0
  C  C70  1  0.90396113  0.50068582  0.12661602  1.0
  C  C71  1  0.10959307  0.49767647  0.62906775  1.0
  C  C72  1  0.43154906  0.45003942  0.37457394  1.0
  C  C73  1  0.57591013  0.55125961  0.87137715  1.0
  C  C74  1  0.21948778  0.83500771  0.11122052  1.0
  C  C75  1  0.79380096  0.16461679  0.61245188  1.0
  C  C76  1  0.05696117  0.84396907  0.15034374  1.0
  C  C77  1  0.95225677  0.15653616  0.65432005  1.0
  C  C78  1  0.07313930  0.89787156  0.18954777  1.0
  C  C79  1  0.93341264  0.10320270  0.69407677  1.0
  C  C80  1  0.25029140  0.94454560  0.18775728  1.0
  C  C81  1  0.75718368  0.05622290  0.69041576  1.0
  C  C82  1  0.40829357  0.93763626  0.14642489  1.0
  C  C83  1  0.60292158  0.06235523  0.64669158  1.0
  C  C84  1  0.39522659  0.88192567  0.10949607  1.0
  C  C85  1  0.61893234  0.11738454  0.60894944  1.0
  C  C86  1  0.41493918  0.09519038  0.31490368  1.0
  C  C87  1  0.58868518  0.90709501  0.81807945  1.0
  C  C88  1  0.43907649  0.15059665  0.35233899  1.0
  C  C89  1  0.56511703  0.85157056  0.85518011  1.0
  C  C90  1  0.23074419  0.05096030  0.31438077  1.0
  C  C91  1  0.77390908  0.95083334  0.81796682  1.0
  C  C92  1  0.27792307  0.16333859  0.38991362  1.0
  C  C93  1  0.72772390  0.83840290  0.89289825  1.0
  C  C94  1  0.09586461  0.11925278  0.39088389  1.0
  C  C95  1  0.91055720  0.88214923  0.89445124  1.0
  C  C96  1  0.07503953  0.06300259  0.35457517  1.0
  C  C97  1  0.93112413  0.93840703  0.85834625  1.0
  N  N98  1  0.28256402  0.00077545  0.22569423  1.0
  N  N99  1  0.72263877  0.00040370  0.72864077  1.0
  N  N100  1  0.18892199  0.99529569  0.27639301  1.0
  N  N101  1  0.81597993  0.00621921  0.77993156  1.0
  N  N102  1  0.59552579  0.08268609  0.27984243  1.0
  N  N103  1  0.40692172  0.92046984  0.78296614  1.0
  O  O104  1  0.64659513  0.23661189  0.54627636  1.0
  O  O105  1  0.36705550  0.76325811  0.04536999  1.0
  O  O106  1  0.06608970  0.39056922  0.54982891  1.0
  O  O107  1  0.94389044  0.60851539  0.04831813  1.0
  O  O108  1  0.22249143  0.37274142  0.43782717  1.0
  O  O109  1  0.78400883  0.62946647  0.93505741  1.0
  O  O110  1  0.98735280  0.25605057  0.56430958  1.0
  O  O111  1  0.02942925  0.74124673  0.06509837  1.0
  O  O112  1  0.13880048  0.23864909  0.45318172  1.0
  O  O113  1  0.86862585  0.76317341  0.95650695  1.0
  O  O114  1  0.72650915  0.36887135  0.56820482  1.0
  O  O115  1  0.28432595  0.63012409  0.06794409  1.0
  O  O116  1  0.85364201  0.31608024  0.46170510  1.0
  O  O117  1  0.15373382  0.68380397  0.96104114  1.0
  O  O118  1  0.48030376  0.25501456  0.43596366  1.0
  O  O119  1  0.52821917  0.74592543  0.93741306  1.0
  O  O120  1  0.56298908  0.38831463  0.45344303  1.0
  O  O121  1  0.44243877  0.61264525  0.94942430  1.0
  O  O122  1  0.35574639  0.31247849  0.54081251  1.0
  O  O123  1  0.65560033  0.68435135  0.03974659  1.0
  O  O124  1  0.68115917  0.12838214  0.24828362  1.0
  O  O125  1  0.65685222  0.02883501  0.28754268  1.0
  O  O126  1  0.31660610  0.87499293  0.75154160  1.0
  O  O127  1  0.34963329  0.97493559  0.79048700  1.0
  O  O128  1  0.40675693  0.58982930  0.17011489  1.0
  O  O129  1  0.59113322  0.41656889  0.66423501  1.0
