# generated using pymatgen
data_Al2H10C14BrO10
_symmetry_space_group_name_H-M   'P 1'
_cell_length_a   6.66849232
_cell_length_b   13.49851545
_cell_length_c   16.79064756
_cell_angle_alpha   89.12042754
_cell_angle_beta   88.86830125
_cell_angle_gamma   89.73309653
_symmetry_Int_Tables_number   1
_chemical_formula_structural   Al2H10C14BrO10
_chemical_formula_sum   'Al4 H20 C28 Br2 O20'
_cell_volume   1510.91867409
_cell_formula_units_Z   2
loop_
 _symmetry_equiv_pos_site_id
 _symmetry_equiv_pos_as_xyz
  1  'x, y, z'
loop_
 _atom_site_type_symbol
 _atom_site_label
 _atom_site_symmetry_multiplicity
 _atom_site_fract_x
 _atom_site_fract_y
 _atom_site_fract_z
 _atom_site_occupancy
  Al  Al0  1  0.10031136  0.49761303  0.49740060  1.0
  Al  Al1  1  0.60029166  0.49238500  0.49714190  1.0
  Al  Al2  1  0.62801456  0.01400248  0.99320861  1.0
  Al  Al3  1  0.12591474  0.01005957  0.99430748  1.0
  H  H4  1  0.03088602  0.41324542  0.76767671  1.0
  H  H5  1  0.22155079  0.22365777  0.77740122  1.0
  H  H6  1  0.70325719  0.09437431  0.72544221  1.0
  H  H7  1  0.51227786  0.28404553  0.71542724  1.0
  H  H8  1  0.16817765  0.31673013  0.29700379  1.0
  H  H9  1  0.71083923  0.28487462  0.30799280  1.0
  H  H10  1  0.17051225  0.20523137  0.18175997  1.0
  H  H11  1  0.10609661  0.79602749  0.82237203  1.0
  H  H12  1  0.52038640  0.70043491  0.68369639  1.0
  H  H13  1  0.09528836  0.79671315  0.17856195  1.0
  H  H14  1  0.06966982  0.70535925  0.30500114  1.0
  H  H15  1  0.52986972  0.68695874  0.29401468  1.0
  H  H16  1  0.70160736  0.33469951  0.86013771  1.0
  H  H17  1  0.70963723  0.20049865  0.19921636  1.0
  H  H18  1  0.06050416  0.70070759  0.70293470  1.0
  H  H19  1  0.03167249  0.17290097  0.63296658  1.0
  H  H20  1  0.34074368  0.37453566  0.53450925  1.0
  H  H21  1  0.84099395  0.61833941  0.52648792  1.0
  H  H22  1  0.37216833  0.13580456  0.96580090  1.0
  H  H23  1  0.87374635  0.87941311  0.99093452  1.0
  C  C24  1  0.34255521  0.61540142  0.60437760  1.0
  C  C25  1  0.36203404  0.60954184  0.38651774  1.0
  C  C26  1  0.86426108  0.37897716  0.39037848  1.0
  C  C27  1  0.84326976  0.37739408  0.60876235  1.0
  C  C28  1  0.95841327  0.34161903  0.75944799  1.0
  C  C29  1  0.77427291  0.29978139  0.80865696  1.0
  C  C30  1  0.88276016  0.19596935  0.81281367  1.0
  C  C31  1  0.06446168  0.23775669  0.76310659  1.0
  C  C32  1  0.95913691  0.20806472  0.68436278  1.0
  C  C33  1  0.77509910  0.16618622  0.73355638  1.0
  C  C34  1  0.66917684  0.26997826  0.72995631  1.0
  C  C35  1  0.85071674  0.31200135  0.68032266  1.0
  C  C36  1  0.02450036  0.28680700  0.27857997  1.0
  C  C37  1  0.85970676  0.31209497  0.32179852  1.0
  C  C38  1  0.02535497  0.22334656  0.20942520  1.0
  C  C39  1  0.86038350  0.18580724  0.17583024  1.0
  C  C40  1  0.23708325  0.78811583  0.78253560  1.0
  C  C41  1  0.39447386  0.84354913  0.80527370  1.0
  C  C42  1  0.21400950  0.72252204  0.71602421  1.0
  C  C43  1  0.36503882  0.68338195  0.67165420  1.0
  C  C44  1  0.23283023  0.78725268  0.21252997  1.0
  C  C45  1  0.38822561  0.84079191  0.18183609  1.0
  C  C46  1  0.22022999  0.72203067  0.28160409  1.0
  C  C47  1  0.37744832  0.67680502  0.31662873  1.0
  C  C48  1  0.37313248  0.89806448  0.10500812  1.0
  C  C49  1  0.38899637  0.90106710  0.88125992  1.0
  C  C50  1  0.88695860  0.13105538  0.88446684  1.0
  C  C51  1  0.86697947  0.12328995  0.10470761  1.0
  Br  Br52  1  0.64087004  0.85719679  0.74692200  1.0
  Br  Br53  1  0.64324983  0.85231766  0.22943814  1.0
  O  O54  1  0.52910031  0.57212463  0.40781806  1.0
  O  O55  1  0.16938520  0.58547808  0.58480922  1.0
  O  O56  1  0.01192045  0.39816090  0.57533794  1.0
  O  O57  1  0.19239479  0.59450395  0.42080247  1.0
  O  O58  1  0.03141979  0.41501081  0.41060673  1.0
  O  O59  1  0.50963443  0.59286802  0.57025558  1.0
  O  O60  1  0.34828980  0.43414039  0.50163585  1.0
  O  O61  1  0.69458006  0.39511075  0.42461729  1.0
  O  O62  1  0.67146453  0.40788313  0.58674539  1.0
  O  O63  1  0.84839084  0.55595856  0.49873918  1.0
  O  O64  1  0.21858149  0.91271445  0.91558826  1.0
  O  O65  1  0.53717428  0.91626834  0.06836497  1.0
  O  O66  1  0.69638150  0.09481984  0.08051896  1.0
  O  O67  1  0.55656996  0.93169779  0.90512621  1.0
  O  O68  1  0.71705359  0.11271649  0.91798599  1.0
  O  O69  1  0.19910556  0.92262486  0.08181957  1.0
  O  O70  1  0.37451820  0.07154895  0.99233717  1.0
  O  O71  1  0.05624566  0.09820416  0.90727527  1.0
  O  O72  1  0.03642135  0.10342768  0.07197716  1.0
  O  O73  1  0.87694143  0.95097974  0.99223287  1.0
