# generated using pymatgen
data_ZnH17C26N2(ClO2)3
_symmetry_space_group_name_H-M   'P 1'
_cell_length_a   12.66845884
_cell_length_b   13.88046176
_cell_length_c   23.51628886
_cell_angle_alpha   89.81128681
_cell_angle_beta   88.08590737
_cell_angle_gamma   85.75572220
_symmetry_Int_Tables_number   1
_chemical_formula_structural   ZnH17C26N2(ClO2)3
_chemical_formula_sum   'Zn2 H34 C52 N4 Cl6 O12'
_cell_volume   4121.55683815
_cell_formula_units_Z   2
loop_
 _symmetry_equiv_pos_site_id
 _symmetry_equiv_pos_as_xyz
  1  'x, y, z'
loop_
 _atom_site_type_symbol
 _atom_site_label
 _atom_site_symmetry_multiplicity
 _atom_site_fract_x
 _atom_site_fract_y
 _atom_site_fract_z
 _atom_site_occupancy
  Zn  Zn0  1  0.60960971  0.50489174  0.49440825  1.0
  Zn  Zn1  1  0.39038806  0.49510024  0.50559281  1.0
  H  H2  1  0.55727576  0.67855941  0.78104805  1.0
  H  H3  1  0.44274371  0.32143762  0.21895216  1.0
  H  H4  1  0.99315042  0.42258129  0.54796148  1.0
  H  H5  1  0.00685052  0.57742145  0.45205482  1.0
  H  H6  1  0.72670627  0.24677000  0.07587794  1.0
  H  H7  1  0.80540559  0.25931122  0.01250241  1.0
  H  H8  1  0.86569345  0.25366472  0.07985503  1.0
  H  H9  1  0.84875783  0.42522436  0.04697178  1.0
  H  H10  1  0.76912501  0.40929264  0.10875901  1.0
  H  H11  1  0.19459767  0.74067137  0.98749685  1.0
  H  H12  1  0.27329957  0.75321981  0.92412253  1.0
  H  H13  1  0.13431431  0.74632077  0.92014286  1.0
  H  H14  1  0.23088724  0.59069575  0.89123751  1.0
  H  H15  1  0.15125635  0.57475969  0.95302385  1.0
  H  H16  1  0.81257960  0.60047933  0.92914591  1.0
  H  H17  1  0.85690516  0.56584392  0.99754210  1.0
  H  H18  1  0.93873448  0.53714545  0.93599888  1.0
  H  H19  1  0.85486140  0.38848321  0.96668629  1.0
  H  H20  1  0.80330617  0.42839494  0.90129794  1.0
  H  H21  1  0.14310924  0.43412716  0.00244716  1.0
  H  H22  1  0.18743227  0.39948381  0.07084127  1.0
  H  H23  1  0.06127790  0.46282130  0.06398957  1.0
  H  H24  1  0.19670294  0.57156383  0.09869780  1.0
  H  H25  1  0.14514769  0.61148567  0.03331073  1.0
  H  H26  1  0.39725332  0.71173555  0.62809808  1.0
  H  H27  1  0.40183098  0.77721310  0.69260709  1.0
  H  H28  1  0.45891852  0.82270302  0.62853954  1.0
  H  H29  1  0.60108238  0.74940499  0.69032439  1.0
  H  H30  1  0.59746817  0.68489200  0.62585513  1.0
  H  H31  1  0.59818275  0.22278614  0.30738557  1.0
  H  H32  1  0.60276988  0.28826369  0.37189397  1.0
  H  H33  1  0.54110792  0.17729547  0.37145628  1.0
  H  H34  1  0.40255477  0.31510141  0.37414713  1.0
  H  H35  1  0.39893249  0.25059059  0.30967803  1.0
  C  C36  1  0.53759939  0.31401725  0.50950311  1.0
  C  C37  1  0.46239586  0.68597689  0.49050054  1.0
  C  C38  1  0.54193277  0.61227960  0.75903299  1.0
  C  C39  1  0.45808010  0.38772105  0.24096776  1.0
  C  C40  1  0.53959574  0.61094529  0.69964103  1.0
  C  C41  1  0.46041178  0.38905319  0.30035984  1.0
  C  C42  1  0.51915609  0.52409875  0.67288901  1.0
  C  C43  1  0.48083775  0.47590264  0.32710957  1.0
  C  C44  1  0.50093677  0.44134040  0.70504002  1.0
  C  C45  1  0.49904241  0.55866676  0.29496139  1.0
  C  C46  1  0.50140294  0.44440818  0.76465408  1.0
  C  C47  1  0.49858224  0.55559318  0.23534935  1.0
  C  C48  1  0.52339365  0.53070600  0.79120714  1.0
  C  C49  1  0.47661052  0.46929465  0.20879209  1.0
  C  C50  1  0.45287545  0.79007663  0.48795794  1.0
  C  C51  1  0.54710160  0.20991821  0.51205160  1.0
  C  C52  1  0.45721995  0.97781933  0.49029628  1.0
  C  C53  1  0.54269496  0.02218272  0.50972170  1.0
  C  C54  1  0.54746961  0.12203907  0.51146545  1.0
  C  C55  1  0.45246532  0.87795937  0.48855129  1.0
  C  C56  1  0.97082733  0.52844114  0.48212189  1.0
  C  C57  1  0.02917569  0.47156522  0.51789521  1.0
  C  C58  1  0.51502333  0.51846845  0.60905783  1.0
  C  C59  1  0.48496900  0.48153220  0.39094333  1.0
  C  C60  1  0.14045082  0.47386561  0.51747481  1.0
  C  C61  1  0.85954853  0.52613715  0.48253939  1.0
  C  C62  1  0.38819364  0.51144674  0.12148974  1.0
  C  C63  1  0.61181499  0.48854743  0.87850643  1.0
  C  C64  1  0.56618876  0.42022412  0.11956106  1.0
  C  C65  1  0.43382861  0.57977001  0.88044259  1.0
  C  C66  1  0.58227035  0.44782284  0.05912843  1.0
  C  C67  1  0.41774675  0.55217420  0.94087097  1.0
  C  C68  1  0.49404888  0.49117299  0.02976367  1.0
  C  C69  1  0.50596901  0.50882405  0.97023529  1.0
  C  C70  1  0.39378455  0.51488965  0.05809542  1.0
  C  C71  1  0.60623217  0.48510234  0.94190314  1.0
  C  C72  1  0.68262354  0.43244051  0.03219800  1.0
  C  C73  1  0.31739097  0.56754931  0.96779890  1.0
  C  C74  1  0.69529299  0.45353478  0.97286332  1.0
  C  C75  1  0.30472047  0.54644855  0.02713319  1.0
  C  C76  1  0.77825949  0.39161554  0.06351260  1.0
  C  C77  1  0.79505904  0.28120437  0.05734911  1.0
  C  C78  1  0.22175126  0.60837212  0.93648522  1.0
  C  C79  1  0.20494713  0.71878112  0.94264796  1.0
  C  C80  1  0.80593500  0.44626912  0.94633915  1.0
  C  C81  1  0.85654360  0.54304290  0.95279776  1.0
  C  C82  1  0.19407668  0.55369688  0.05365484  1.0
  C  C83  1  0.14347350  0.45692387  0.04718762  1.0
  C  C84  1  0.55310026  0.70227011  0.66594280  1.0
  C  C85  1  0.44643683  0.75674639  0.65304909  1.0
  C  C86  1  0.44691606  0.29772692  0.33405789  1.0
  C  C87  1  0.55358493  0.24325139  0.34694724  1.0
  N  N88  1  0.47674978  0.46653579  0.14776485  1.0
  N  N89  1  0.52326476  0.53346343  0.85223290  1.0
  N  N90  1  0.76817230  0.52377554  0.48308510  1.0
  N  N91  1  0.23182844  0.47621930  0.51692270  1.0
  Cl  Cl92  1  0.47925644  0.33505965  0.67104974  1.0
  Cl  Cl93  1  0.52070767  0.66494823  0.32895239  1.0
  Cl  Cl94  1  0.47461895  0.34478004  0.80473207  1.0
  Cl  Cl95  1  0.52535823  0.65523218  0.19526896  1.0
  Cl  Cl96  1  0.65083491  0.95148487  0.53344976  1.0
  Cl  Cl97  1  0.34907885  0.04850133  0.46655890  1.0
  O  O98  1  0.62267858  0.35700617  0.50498855  1.0
  O  O99  1  0.37731945  0.64298291  0.49501591  1.0
  O  O100  1  0.44277756  0.35183832  0.51126964  1.0
  O  O101  1  0.55721967  0.64816018  0.48872760  1.0
  O  O102  1  0.60285375  0.51704451  0.58127069  1.0
  O  O103  1  0.39713683  0.48295832  0.41873008  1.0
  O  O104  1  0.42363733  0.51613902  0.58870569  1.0
  O  O105  1  0.57635571  0.48385296  0.41129716  1.0
  O  O106  1  0.31452176  0.54613518  0.15223749  1.0
  O  O107  1  0.68549054  0.45385250  0.84775606  1.0
  O  O108  1  0.62523450  0.36345448  0.14615597  1.0
  O  O109  1  0.37477453  0.63654473  0.85384444  1.0
