# generated using pymatgen
data_Eu2H40C52O19
_symmetry_space_group_name_H-M   'P 1'
_cell_length_a   7.08339527
_cell_length_b   14.46566107
_cell_length_c   16.90835329
_cell_angle_alpha   75.65134773
_cell_angle_beta   77.90927450
_cell_angle_gamma   89.99978940
_symmetry_Int_Tables_number   1
_chemical_formula_structural   Eu2H40C52O19
_chemical_formula_sum   'Eu2 H40 C52 O19'
_cell_volume   1638.78696303
_cell_formula_units_Z   1
loop_
 _symmetry_equiv_pos_site_id
 _symmetry_equiv_pos_as_xyz
  1  'x, y, z'
loop_
 _atom_site_type_symbol
 _atom_site_label
 _atom_site_symmetry_multiplicity
 _atom_site_fract_x
 _atom_site_fract_y
 _atom_site_fract_z
 _atom_site_occupancy
  Eu  Eu52  1  0.49970686  0.03001754  0.50278879  1.0
  Eu  Eu53  1  0.00249331  0.96997954  0.49721221  1.0
  H  H54  1  0.69947093  0.46421428  0.10648198  1.0
  H  H55  1  0.80598007  0.53578232  0.89351275  1.0
  H  H56  1  0.67174763  0.57145272  0.02989482  1.0
  H  H57  1  0.70165412  0.42854723  0.97009341  1.0
  H  H58  1  0.11854719  0.50074877  0.10716852  1.0
  H  H59  1  0.22572822  0.49924840  0.89282781  1.0
  H  H60  1  0.09759057  0.57712944  0.17737290  1.0
  H  H61  1  0.27497351  0.42287047  0.82262348  1.0
  H  H62  1  0.61025254  0.66265444  0.12943539  1.0
  H  H63  1  0.73966980  0.33736227  0.87055961  1.0
  H  H64  1  0.62918648  0.55847592  0.21079383  1.0
  H  H65  1  0.84000839  0.44152526  0.78919707  1.0
  H  H66  1  0.03949213  0.72407034  0.07404934  1.0
  H  H67  1  0.11358999  0.27593008  0.92594351  1.0
  H  H68  1  0.12082864  0.64733496  0.00624929  1.0
  H  H69  1  0.12708550  0.35265765  0.99375126  1.0
  H  H70  1  0.39735839  0.64739607  0.25270257  1.0
  H  H71  1  0.65008970  0.35263781  0.74727682  1.0
  H  H72  1  0.18131475  0.73101202  0.34396139  1.0
  H  H73  1  0.52526385  0.26901810  0.65602739  1.0
  H  H74  1  0.67155423  0.88579424  0.37164624  1.0
  H  H75  1  0.04314222  0.11419178  0.62835894  1.0
  H  H76  1  0.89212681  0.80260468  0.28001745  1.0
  H  H77  1  0.17211073  0.19737600  0.71998839  1.0
  H  H78  1  0.71698027  0.78117890  0.86107457  1.0
  H  H79  1  0.57808535  0.21883840  0.13892095  1.0
  H  H80  1  0.87939118  0.87881902  0.71929096  1.0
  H  H81  1  0.59870499  0.12119574  0.28070803  1.0
  H  H82  1  0.41086380  0.88776766  0.80214535  1.0
  H  H83  1  0.21301734  0.11220421  0.19785158  1.0
  H  H84  1  0.25180312  0.79182198  0.94382703  1.0
  H  H85  1  0.19564505  0.20815465  0.05616832  1.0
  H  H86  1  0.30379863  0.44429424  0.19151315  1.0
  H  H87  1  0.49530726  0.55572014  0.80849896  1.0
  H  H88  1  0.46673738  0.32026407  0.27891324  1.0
  H  H89  1  0.74562650  0.67975337  0.72109899  1.0
  H  H90  1  0.91607978  0.20428209  0.43475661  1.0
  H  H91  1  0.35081901  0.79571326  0.56524081  1.0
  H  H92  1  0.74851740  0.32446719  0.34649003  1.0
  H  H93  1  0.09500979  0.67552048  0.65350413  1.0
  C  C0  1  0.87317682  0.58891288  0.10534952  1.0
  C  C1  1  0.97854080  0.41107941  0.89464710  1.0
  C  C2  1  0.77686629  0.52821890  0.06074288  1.0
  C  C3  1  0.83762555  0.47177477  0.93925205  1.0
  C  C4  1  0.01616836  0.53091992  0.15159901  1.0
  C  C5  1  0.16777496  0.46907695  0.84839890  1.0
  C  C6  1  0.70958249  0.62140495  0.16526514  1.0
  C  C7  1  0.87484940  0.37859307  0.83473160  1.0
  C  C8  1  0.99269304  0.67386664  0.04154162  1.0
  C  C9  1  0.03425984  0.32612543  0.95845349  1.0
  C  C10  1  0.65930687  0.72153761  0.25921736  1.0
  C  C11  1  0.91850815  0.27846181  0.74077936  1.0
  C  C12  1  0.45896042  0.70022593  0.27738771  1.0
  C  C13  1  0.73635196  0.29979662  0.72259698  1.0
  C  C14  1  0.33710553  0.74674028  0.32881942  1.0
  C  C15  1  0.66591380  0.25328322  0.67116742  1.0
  C  C16  1  0.41188606  0.81451923  0.36224083  1.0
  C  C17  1  0.77409560  0.18548867  0.63775889  1.0
  C  C18  1  0.61280512  0.83411741  0.34483961  1.0
  C  C19  1  0.95761044  0.16587956  0.65516086  1.0
  C  C20  1  0.73614469  0.78781129  0.29390445  1.0
  C  C21  1  0.03002248  0.21218163  0.70609580  1.0
  C  C22  1  0.97456790  0.77851526  0.91031807  1.0
  C  C23  1  0.88491042  0.22147927  0.08967794  1.0
  C  C24  1  0.86862693  0.80580862  0.84758273  1.0
  C  C25  1  0.71623384  0.19420168  0.15241460  1.0
  C  C26  1  0.95907930  0.86066869  0.76898139  1.0
  C  C27  1  0.72808118  0.13933801  0.23101613  1.0
  C  C28  1  0.15607747  0.88912943  0.75186057  1.0
  C  C29  1  0.90795161  0.11086500  0.24813585  1.0
  C  C30  1  0.25874341  0.86419876  0.81580537  1.0
  C  C31  1  0.07456347  0.13578631  0.18419223  1.0
  C  C32  1  0.16973912  0.80951632  0.89487897  1.0
  C  C33  1  0.06463678  0.19046907  0.10511783  1.0
  C  C34  1  0.26272013  0.94006571  0.66721349  1.0
  C  C35  1  0.92994959  0.05993146  0.33278503  1.0
  C  C36  1  0.01463898  0.39240265  0.26365771  1.0
  C  C37  1  0.27829043  0.60759679  0.73634540  1.0
  C  C38  1  0.21747237  0.39201241  0.24459645  1.0
  C  C39  1  0.46205726  0.60799630  0.75541171  1.0
  C  C40  1  0.30970112  0.32272852  0.29385239  1.0
  C  C41  1  0.60353261  0.67728609  0.70615618  1.0
  C  C42  1  0.20264752  0.25448879  0.36251593  1.0
  C  C43  1  0.56514555  0.74551828  0.63748802  1.0
  C  C44  1  0.00015368  0.25689098  0.38142608  1.0
  C  C45  1  0.38156514  0.74310853  0.61857406  1.0
  C  C46  1  0.90588108  0.32452316  0.33246870  1.0
  C  C47  1  0.23834550  0.67547253  0.66753036  1.0
  C  C48  1  0.30281517  0.17941574  0.41188645  1.0
  C  C49  1  0.71468450  0.82059046  0.58811734  1.0
  C  C50  1  0.27597017  0.86361098  0.41446582  1.0
  C  C51  1  0.69039854  0.13638886  0.58554102  1.0
  O  O94  1  0.17697802  0.96073546  0.60466554  1.0
  O  O95  1  0.78165868  0.03926827  0.39533253  1.0
  O  O96  1  0.44132444  0.96228950  0.65477867  1.0
  O  O97  1  0.09612041  0.03770772  0.34522177  1.0
  O  O98  1  0.09600157  0.84183648  0.43180200  1.0
  O  O99  1  0.52775210  0.15815025  0.56821550  1.0
  O  O100  1  0.34023364  0.93050192  0.44311168  1.0
  O  O101  1  0.78332995  0.06950520  0.55688855  1.0
  O  O102  1  0.20289945  0.11233989  0.47228262  1.0
  O  O103  1  0.67518412  0.88765726  0.52770970  1.0
  O  O104  1  0.48580079  0.17846736  0.39592529  1.0
  O  O105  1  0.88169805  0.82154379  0.60408912  1.0
  O  O106  1  0.78933717  0.68046527  0.20791840  1.0
  O  O107  1  0.99722862  0.31951575  0.79209126  1.0
  O  O108  1  0.91061129  0.45606838  0.21802624  1.0
  O  O109  1  0.12863029  0.54393140  0.78197573  1.0
  O  O110  1  0.87749521  0.72059190  0.98480398  1.0
  O  O111  1  0.86232792  0.27938885  0.01518498  1.0
  O  O112  1  0.92047091  0.49999362  0.00000135  1.0
