# generated using pymatgen
data_AlH9C16O7
_symmetry_space_group_name_H-M   'P 1'
_cell_length_a   6.77968247
_cell_length_b   23.76093344
_cell_length_c   25.69958200
_cell_angle_alpha   90.01870576
_cell_angle_beta   90.04631960
_cell_angle_gamma   89.97211699
_symmetry_Int_Tables_number   1
_chemical_formula_structural   AlH9C16O7
_chemical_formula_sum   'Al4 H36 C64 O28'
_cell_volume   4139.98430711
_cell_formula_units_Z   4
loop_
 _symmetry_equiv_pos_site_id
 _symmetry_equiv_pos_as_xyz
  1  'x, y, z'
loop_
 _atom_site_type_symbol
 _atom_site_label
 _atom_site_symmetry_multiplicity
 _atom_site_fract_x
 _atom_site_fract_y
 _atom_site_fract_z
 _atom_site_occupancy
  Al  Al0  1  0.99803895  0.00084597  0.50082717  1.0
  Al  Al1  1  0.49805131  0.99924454  0.49920895  1.0
  Al  Al2  1  0.00187953  0.50076583  0.00078840  1.0
  Al  Al3  1  0.50188977  0.49916436  0.99915352  1.0
  H  H4  1  0.74983079  0.07536735  0.49897054  1.0
  H  H5  1  0.24564251  0.92475548  0.50076088  1.0
  H  H6  1  0.75007855  0.42464666  0.00105330  1.0
  H  H7  1  0.25428860  0.57525417  0.99923340  1.0
  H  H8  1  0.56522849  0.38488012  0.88175321  1.0
  H  H9  1  0.56602892  0.31337307  0.81157511  1.0
  H  H10  1  0.92802586  0.31361353  0.81201984  1.0
  H  H11  1  0.57174244  0.18627226  0.68811297  1.0
  H  H12  1  0.93460005  0.11508394  0.61827183  1.0
  H  H13  1  0.93373927  0.18653040  0.68850322  1.0
  H  H14  1  0.06372706  0.61530145  0.11768564  1.0
  H  H15  1  0.06587824  0.68669043  0.18790290  1.0
  H  H16  1  0.42785818  0.68620031  0.18845453  1.0
  H  H17  1  0.07209004  0.81394724  0.31141677  1.0
  H  H18  1  0.43621562  0.88467483  0.38232377  1.0
  H  H19  1  0.43407911  0.81332036  0.31207538  1.0
  H  H20  1  0.43625356  0.61490196  0.88205311  1.0
  H  H21  1  0.43326447  0.68630419  0.81193491  1.0
  H  H22  1  0.07125422  0.68665002  0.81170895  1.0
  H  H23  1  0.42872123  0.81351326  0.68839975  1.0
  H  H24  1  0.06375272  0.88505127  0.61789292  1.0
  H  H25  1  0.06670792  0.81367935  0.68803874  1.0
  H  H26  1  0.56647565  0.38401446  0.11743173  1.0
  H  H27  1  0.56815364  0.31271927  0.18769184  1.0
  H  H28  1  0.93025534  0.31409950  0.18861263  1.0
  H  H29  1  0.56977486  0.18578149  0.31130226  1.0
  H  H30  1  0.93349405  0.11592251  0.38249094  1.0
  H  H31  1  0.93186766  0.18719749  0.31221215  1.0
  H  H32  1  0.92202308  0.41627206  0.91184569  1.0
  H  H33  1  0.57784821  0.08373492  0.58818441  1.0
  H  H34  1  0.42009847  0.58259867  0.08951092  1.0
  H  H35  1  0.07984553  0.91745378  0.41043974  1.0
  H  H36  1  0.08044814  0.58324871  0.91060133  1.0
  H  H37  1  0.41952433  0.91684806  0.58946184  1.0
  H  H38  1  0.92262664  0.41768969  0.08994261  1.0
  H  H39  1  0.57735639  0.08225571  0.41002014  1.0
  C  C40  1  0.24580391  0.06866710  0.42934316  1.0
  C  C41  1  0.24536157  0.06863976  0.57067189  1.0
  C  C42  1  0.75058586  0.93147170  0.57068796  1.0
  C  C43  1  0.74859742  0.93145968  0.42935433  1.0
  C  C44  1  0.25414692  0.43129329  0.07061535  1.0
  C  C45  1  0.25451582  0.43136032  0.92932791  1.0
  C  C46  1  0.74938038  0.56855409  0.92930861  1.0
  C  C47  1  0.75135527  0.56854705  0.07063714  1.0
  C  C48  1  0.24866033  0.38990359  0.88708363  1.0
  C  C49  1  0.42653684  0.36905351  0.86637193  1.0
  C  C50  1  0.42763580  0.32922970  0.82726906  1.0
  C  C51  1  0.24677229  0.30856036  0.80721029  1.0
  C  C52  1  0.06798910  0.32902277  0.82717125  1.0
  C  C53  1  0.06704093  0.36947625  0.86672638  1.0
  C  C54  1  0.24757858  0.26760937  0.76729282  1.0
  C  C55  1  0.25217525  0.23224933  0.73284431  1.0
  C  C56  1  0.25299329  0.19132738  0.69290699  1.0
  C  C57  1  0.43178973  0.17087970  0.67293748  1.0
  C  C58  1  0.43277615  0.13047419  0.63334812  1.0
  C  C59  1  0.25118325  0.11005610  0.61295702  1.0
  C  C60  1  0.07328611  0.13089524  0.63368233  1.0
  C  C61  1  0.07215477  0.17068034  0.67281127  1.0
  C  C62  1  0.74694344  0.60997140  0.11293571  1.0
  C  C63  1  0.92524509  0.63102608  0.13327134  1.0
  C  C64  1  0.92711830  0.67083871  0.17240173  1.0
  C  C65  1  0.74666450  0.69146335  0.19275283  1.0
  C  C66  1  0.56755542  0.67086339  0.17310398  1.0
  C  C67  1  0.56579888  0.63022246  0.13372523  1.0
  C  C68  1  0.74789967  0.73239398  0.23269968  1.0
  C  C69  1  0.75207791  0.76769270  0.26721554  1.0
  C  C70  1  0.75329245  0.80861155  0.30717328  1.0
  C  C71  1  0.93240591  0.82923550  0.32680346  1.0
  C  C72  1  0.93415367  0.86984782  0.36621061  1.0
  C  C73  1  0.75300774  0.89005217  0.38703708  1.0
  C  C74  1  0.57469874  0.86898023  0.36671507  1.0
  C  C75  1  0.57284908  0.82918822  0.32756407  1.0
  C  C76  1  0.75308869  0.61001123  0.88704275  1.0
  C  C77  1  0.57458226  0.63080507  0.86659261  1.0
  C  C78  1  0.57220688  0.67063752  0.82748241  1.0
  C  C79  1  0.75240048  0.69148940  0.80722569  1.0
  C  C80  1  0.93170335  0.67114232  0.82697012  1.0
  C  C81  1  0.93396468  0.63054944  0.86635491  1.0
  C  C82  1  0.75136664  0.73240234  0.76728853  1.0
  C  C83  1  0.74859524  0.76769332  0.73277498  1.0
  C  C84  1  0.74755844  0.80858396  0.69282069  1.0
  C  C85  1  0.56826002  0.82896514  0.67310390  1.0
  C  C86  1  0.56601194  0.86953570  0.63369848  1.0
  C  C87  1  0.74688495  0.89002213  0.61296667  1.0
  C  C88  1  0.92539577  0.86918999  0.63338839  1.0
  C  C89  1  0.92774609  0.82937565  0.67251493  1.0
  C  C90  1  0.24972177  0.38983705  0.11288582  1.0
  C  C91  1  0.42789626  0.36851249  0.13309148  1.0
  C  C92  1  0.42954008  0.32875377  0.17224948  1.0
  C  C93  1  0.24898804  0.30842171  0.19270275  1.0
  C  C94  1  0.07001709  0.32924227  0.17318138  1.0
  C  C95  1  0.06847268  0.36986077  0.13384453  1.0
  C  C96  1  0.24915458  0.26754335  0.23265813  1.0
  C  C97  1  0.25091859  0.23230801  0.26720855  1.0
  C  C98  1  0.25105270  0.19145196  0.30718066  1.0
  C  C99  1  0.43000154  0.17064151  0.32671954  1.0
  C  C100  1  0.43152090  0.13004953  0.36607858  1.0
  C  C101  1  0.25025116  0.11008672  0.38704040  1.0
  C  C102  1  0.07209286  0.13140623  0.36681839  1.0
  C  C103  1  0.07047853  0.17114769  0.32764638  1.0
  O  O104  1  0.08127313  0.05313839  0.44822467  1.0
  O  O105  1  0.41355266  0.05173641  0.55205018  1.0
  O  O106  1  0.58092405  0.94934930  0.55365384  1.0
  O  O107  1  0.91717355  0.94981812  0.44638043  1.0
  O  O108  1  0.91508889  0.94755686  0.55218591  1.0
  O  O109  1  0.58298979  0.94698322  0.44784106  1.0
  O  O110  1  0.41533122  0.05024569  0.44599819  1.0
  O  O111  1  0.07917411  0.05173016  0.55374740  1.0
  O  O112  1  0.74663358  0.03461267  0.50001215  1.0
  O  O113  1  0.24772211  0.96552124  0.49998143  1.0
  O  O114  1  0.08462257  0.44972564  0.05397200  1.0
  O  O115  1  0.42070916  0.44828423  0.94624268  1.0
  O  O116  1  0.58485225  0.55244494  0.94778691  1.0
  O  O117  1  0.91696297  0.55299406  0.05217803  1.0
  O  O118  1  0.91901714  0.55068575  0.94636101  1.0
  O  O119  1  0.58277762  0.55020418  0.05359159  1.0
  O  O120  1  0.41866001  0.44685778  0.05175058  1.0
  O  O121  1  0.08635273  0.44828934  0.94794029  1.0
  O  O122  1  0.75327891  0.46540103  0.99996816  1.0
  O  O123  1  0.25221462  0.53449039  0.00001553  1.0
  O  O124  1  0.89063690  0.38784525  0.88427316  1.0
  O  O125  1  0.60920201  0.11213143  0.61578417  1.0
  O  O126  1  0.38911048  0.61153347  0.11668159  1.0
  O  O127  1  0.11084231  0.88854380  0.38324495  1.0
  O  O128  1  0.11106707  0.61221445  0.88345857  1.0
  O  O129  1  0.38891575  0.88790715  0.61663067  1.0
  O  O130  1  0.89163743  0.38874080  0.11705771  1.0
  O  O131  1  0.60833969  0.11118649  0.38288481  1.0
