# generated using pymatgen
data_ZnH21C20NO7
_symmetry_space_group_name_H-M   'P 1'
_cell_length_a   9.94920156
_cell_length_b   10.90330682
_cell_length_c   17.34647916
_cell_angle_alpha   93.92668611
_cell_angle_beta   92.54075384
_cell_angle_gamma   90.17192708
_symmetry_Int_Tables_number   1
_chemical_formula_structural   ZnH21C20NO7
_chemical_formula_sum   'Zn2 H42 C40 N2 O14'
_cell_volume   1875.43484639
_cell_formula_units_Z   2
loop_
 _symmetry_equiv_pos_site_id
 _symmetry_equiv_pos_as_xyz
  1  'x, y, z'
loop_
 _atom_site_type_symbol
 _atom_site_label
 _atom_site_symmetry_multiplicity
 _atom_site_fract_x
 _atom_site_fract_y
 _atom_site_fract_z
 _atom_site_occupancy
  Zn  Zn0  1  0.35973112  0.50228644  0.50228191  1.0
  Zn  Zn1  1  0.65371012  0.50684240  0.50501844  1.0
  H  H2  1  0.65037029  0.69404713  0.29527674  1.0
  H  H3  1  0.35536944  0.63058719  0.73723184  1.0
  H  H4  1  0.69888780  0.39762343  0.75691076  1.0
  H  H5  1  0.29507234  0.47594371  0.23973315  1.0
  H  H6  1  0.54038580  0.46268383  0.01215428  1.0
  H  H7  1  0.48681270  0.74016993  0.01477920  1.0
  H  H8  1  0.30754743  0.52159595  0.10046030  1.0
  H  H9  1  0.69054969  0.42075845  0.90109541  1.0
  H  H10  1  0.73160950  0.12025979  0.52672134  1.0
  H  H11  1  0.30439716  0.88922264  0.46527886  1.0
  H  H12  1  0.72100101  0.89103277  0.53963580  1.0
  H  H13  1  0.31070708  0.11944666  0.46147481  1.0
  H  H14  1  0.17897266  0.65387158  0.80959868  1.0
  H  H15  1  0.27150115  0.79394953  0.80890048  1.0
  H  H16  1  0.18090843  0.86499320  0.93787676  1.0
  H  H17  1  0.04795558  0.83009249  0.86755807  1.0
  H  H18  1  0.08899918  0.72459803  0.93886130  1.0
  H  H19  1  0.82565286  0.62593416  0.13855482  1.0
  H  H20  1  0.83714540  0.71831301  0.22768967  1.0
  H  H21  1  0.90125823  0.90150603  0.15749361  1.0
  H  H22  1  0.01397020  0.77763103  0.13789925  1.0
  H  H23  1  0.88585864  0.81192591  0.06755356  1.0
  H  H24  1  0.99709571  0.62752782  0.69628803  1.0
  H  H25  1  0.84483502  0.53664158  0.69050745  1.0
  H  H26  1  0.81967465  0.71477015  0.78595779  1.0
  H  H27  1  0.86023655  0.81931955  0.71536963  1.0
  H  H28  1  0.70920729  0.72986839  0.70372961  1.0
  H  H29  1  0.12923410  0.39489340  0.30427041  1.0
  H  H30  1  0.03538137  0.25723375  0.31681154  1.0
  H  H31  1  0.25123117  0.14016345  0.32911113  1.0
  H  H32  1  0.24229568  0.21384488  0.24075248  1.0
  H  H33  1  0.34446618  0.27846333  0.32078539  1.0
  H  H34  1  0.03035081  0.80253323  0.58580774  1.0
  H  H35  1  0.17439056  0.78919484  0.52660756  1.0
  H  H36  1  0.32550271  0.82327294  0.64706508  1.0
  H  H37  1  0.22123165  0.95163892  0.63019390  1.0
  H  H38  1  0.17975926  0.85143080  0.70250817  1.0
  H  H39  1  0.91105677  0.45504833  0.28582038  1.0
  H  H40  1  0.76866633  0.51386893  0.33708243  1.0
  H  H41  1  0.64211108  0.31945416  0.30045259  1.0
  H  H42  1  0.68953971  0.39279764  0.21703179  1.0
  H  H43  1  0.77947372  0.26127869  0.24647378  1.0
  C  C44  1  0.52242837  0.26951990  0.49164196  1.0
  C  C45  1  0.50492406  0.74152677  0.51170041  1.0
  C  C46  1  0.63804648  0.06875584  0.51479114  1.0
  C  C47  1  0.39646206  0.94120383  0.48065451  1.0
  C  C48  1  0.63253928  0.94224016  0.52139119  1.0
  C  C49  1  0.40039867  0.06798725  0.47709869  1.0
  C  C50  1  0.51153274  0.87760721  0.50454469  1.0
  C  C51  1  0.52137393  0.13253002  0.49397413  1.0
  C  C52  1  0.93912330  0.57241031  0.54859765  1.0
  C  C53  1  0.07661838  0.41732397  0.45130771  1.0
  C  C54  1  0.08110482  0.57131060  0.55108718  1.0
  C  C55  1  0.93525517  0.43176729  0.44139088  1.0
  C  C56  1  0.47503368  0.54226473  0.35674210  1.0
  C  C57  1  0.52497475  0.50091589  0.65261770  1.0
  C  C58  1  0.47365395  0.58007197  0.27528601  1.0
  C  C59  1  0.52782561  0.51508571  0.73934976  1.0
  C  C60  1  0.57528495  0.65700896  0.25215182  1.0
  C  C61  1  0.43014363  0.58904975  0.77482021  1.0
  C  C62  1  0.58035245  0.68477351  0.17497467  1.0
  C  C63  1  0.42918377  0.60679185  0.85530589  1.0
  C  C64  1  0.48564774  0.63328689  0.11896298  1.0
  C  C65  1  0.52425021  0.54545410  0.90226434  1.0
  C  C66  1  0.38204808  0.55957847  0.14372730  1.0
  C  C67  1  0.61905095  0.46976754  0.86495887  1.0
  C  C68  1  0.37482479  0.53401554  0.22093274  1.0
  C  C69  1  0.62398962  0.45606838  0.78473410  1.0
  C  C70  1  0.49722312  0.64838794  0.03574451  1.0
  C  C71  1  0.52004011  0.55032919  0.98667818  1.0
  C  C72  1  0.22896100  0.72818416  0.84693650  1.0
  C  C73  1  0.13122742  0.79056685  0.90126096  1.0
  C  C74  1  0.81535615  0.72043949  0.16487725  1.0
  C  C75  1  0.90947174  0.80834420  0.12981224  1.0
  C  C76  1  0.88865366  0.62664863  0.68098776  1.0
  C  C77  1  0.81526404  0.72932751  0.72382780  1.0
  C  C78  1  0.13130987  0.30557546  0.33023880  1.0
  C  C79  1  0.24991348  0.22989390  0.30407642  1.0
  C  C80  1  0.13781224  0.77941326  0.58463986  1.0
  C  C81  1  0.22105278  0.85532124  0.64509332  1.0
  C  C82  1  0.82128640  0.43039817  0.31671369  1.0
  C  C83  1  0.72790759  0.34527524  0.26727062  1.0
  N  N84  1  0.14649228  0.49177580  0.50405230  1.0
  N  N85  1  0.86936590  0.50598685  0.49210497  1.0
  O  O86  1  0.41004625  0.32211498  0.50180523  1.0
  O  O87  1  0.61344916  0.68892895  0.53225544  1.0
  O  O88  1  0.63370088  0.32197198  0.48016383  1.0
  O  O89  1  0.39101922  0.68920720  0.49666808  1.0
  O  O90  1  0.36653314  0.50077316  0.38146053  1.0
  O  O91  1  0.63443357  0.47174169  0.62045352  1.0
  O  O92  1  0.58753929  0.55287046  0.39487977  1.0
  O  O93  1  0.41254937  0.52133024  0.61829984  1.0
  O  O94  1  0.33581609  0.67759231  0.89295323  1.0
  O  O95  1  0.67895052  0.76014744  0.14993469  1.0
  O  O96  1  0.86839327  0.64389618  0.59808324  1.0
  O  O97  1  0.14868209  0.33039384  0.41394194  1.0
  O  O98  1  0.15473783  0.64914114  0.59995219  1.0
  O  O99  1  0.86688403  0.36507257  0.38430881  1.0
