# generated using pymatgen
data_Al4H34C57S2O27
_symmetry_space_group_name_H-M   'P 1'
_cell_length_a   6.67662217
_cell_length_b   21.18516709
_cell_length_c   22.17167042
_cell_angle_alpha   72.52860942
_cell_angle_beta   89.95254564
_cell_angle_gamma   89.11107876
_symmetry_Int_Tables_number   1
_chemical_formula_structural   Al4H34C57S2O27
_chemical_formula_sum   'Al4 H34 C57 S2 O27'
_cell_volume   2991.01887414
_cell_formula_units_Z   1
loop_
 _symmetry_equiv_pos_site_id
 _symmetry_equiv_pos_as_xyz
  1  'x, y, z'
loop_
 _atom_site_type_symbol
 _atom_site_label
 _atom_site_symmetry_multiplicity
 _atom_site_fract_x
 _atom_site_fract_y
 _atom_site_fract_z
 _atom_site_occupancy
  Al  Al0  1  0.89762417  0.49878697  0.49920821  1.0
  Al  Al1  1  0.39944290  0.49751842  0.50346294  1.0
  Al  Al2  1  0.30597629  0.99816155  0.00202323  1.0
  Al  Al3  1  0.80559690  0.99997314  0.99904739  1.0
  H  H4  1  0.76053305  0.80659218  0.81420633  1.0
  H  H5  1  0.74796415  0.87933894  0.88480475  1.0
  H  H6  1  0.38805927  0.89488144  0.87658331  1.0
  H  H7  1  0.40329296  0.82360119  0.80464157  1.0
  H  H8  1  0.79003529  0.67776857  0.69122422  1.0
  H  H9  1  0.81081329  0.60660532  0.61898755  1.0
  H  H10  1  0.45097672  0.62037973  0.61561654  1.0
  H  H11  1  0.43345785  0.69308092  0.68651712  1.0
  H  H12  1  0.42824661  0.61333533  0.32007582  1.0
  H  H13  1  0.72256087  0.79799752  0.28248773  1.0
  H  H14  1  0.46405654  0.70858181  0.22204878  1.0
  H  H15  1  0.74539396  0.88265965  0.17868304  1.0
  H  H16  1  0.33333333  0.81216553  0.14975529  1.0
  H  H17  1  0.36853092  0.32573028  0.65292880  1.0
  H  H18  1  0.21144160  0.22500766  0.72556770  1.0
  H  H19  1  0.99675004  0.27579451  0.78006809  1.0
  H  H20  1  0.23041057  0.12946184  0.82417769  1.0
  H  H21  1  0.84087798  0.17549680  0.85358497  1.0
  H  H22  1  0.25743122  0.19440879  0.18804175  1.0
  H  H23  1  0.24204701  0.12182652  0.11680141  1.0
  H  H24  1  0.88205186  0.09876626  0.12567012  1.0
  H  H25  1  0.90007466  0.17003413  0.19766432  1.0
  H  H26  1  0.32713846  0.35154325  0.28134419  1.0
  H  H27  1  0.34316586  0.42167893  0.35429066  1.0
  H  H28  1  0.94039293  0.34820894  0.41035602  1.0
  H  H29  1  0.01335212  0.42850719  0.74463094  1.0
  H  H30  1  0.91363244  0.46966059  0.66698891  1.0
  H  H31  1  0.17844981  0.45634641  0.67810431  1.0
  H  H32  1  0.79952515  0.18390298  0.32607378  1.0
  H  H33  1  0.93390436  0.80387943  0.40742150  1.0
  H  H34  1  0.63871611  0.58448323  0.46649067  1.0
  H  H35  1  0.14627919  0.41516636  0.54165240  1.0
  H  H36  1  0.56310408  0.91161517  0.02138172  1.0
  H  H37  1  0.05633638  0.08590585  0.97443170  1.0
  C  C38  1  0.65624418  0.40813138  0.59980296  1.0
  C  C39  1  0.64999492  0.43091070  0.43004518  1.0
  C  C40  1  0.14838377  0.59123284  0.40641959  1.0
  C  C41  1  0.14153522  0.56738837  0.57052835  1.0
  C  C42  1  0.89736769  0.82628693  0.82783435  1.0
  C  C43  1  0.89022436  0.86645308  0.86707129  1.0
  C  C44  1  0.06732452  0.89072603  0.88521154  1.0
  C  C45  1  0.25210539  0.87514039  0.86246605  1.0
  C  C46  1  0.26043037  0.83557031  0.82272458  1.0
  C  C47  1  0.08296554  0.80989439  0.80522521  1.0
  C  C48  1  0.09147195  0.76816432  0.76608383  1.0
  C  C49  1  0.09996421  0.73174690  0.73262306  1.0
  C  C50  1  0.93423029  0.66515865  0.67442200  1.0
  C  C51  1  0.94546179  0.62550759  0.63479511  1.0
  C  C52  1  0.13190545  0.60931495  0.61369727  1.0
  C  C53  1  0.30783851  0.63339057  0.63274430  1.0
  C  C54  1  0.29781027  0.67357160  0.67194043  1.0
  C  C55  1  0.11056744  0.69018807  0.69333705  1.0
  C  C56  1  0.15716620  0.65141552  0.34958414  1.0
  C  C57  1  0.04561905  0.85428591  0.15936616  1.0
  C  C58  1  0.85756231  0.80066074  0.25448618  1.0
  C  C59  1  0.86990049  0.84822803  0.19663563  1.0
  C  C60  1  0.20014077  0.80870055  0.17903153  1.0
  C  C61  1  0.18597329  0.75613169  0.23607786  1.0
  C  C62  1  0.01650592  0.75393218  0.27699027  1.0
  C  C63  1  0.01721948  0.70328528  0.33658188  1.0
  C  C64  1  0.31723254  0.65334674  0.30716202  1.0
  C  C65  1  0.33539447  0.70563915  0.25310227  1.0
  C  C66  1  0.67160656  0.35349522  0.66072436  1.0
  C  C67  1  0.53759095  0.14772771  0.84475487  1.0
  C  C68  1  0.34729771  0.21485251  0.75435080  1.0
  C  C69  1  0.35767386  0.16186832  0.80854656  1.0
  C  C70  1  0.70295435  0.18727128  0.82586373  1.0
  C  C71  1  0.69408279  0.24306929  0.77143593  1.0
  C  C72  1  0.51295714  0.25744590  0.73480503  1.0
  C  C73  1  0.50661065  0.31348092  0.68051468  1.0
  C  C74  1  0.85263891  0.33832119  0.69777656  1.0
  C  C75  1  0.85925645  0.28525804  0.75208258  1.0
  C  C76  1  0.39292062  0.17287758  0.17435031  1.0
  C  C77  1  0.38468986  0.13279045  0.13501554  1.0
  C  C78  1  0.56104615  0.10637521  0.11718166  1.0
  C  C79  1  0.74673271  0.11973144  0.14006543  1.0
  C  C80  1  0.75656250  0.15918791  0.17983527  1.0
  C  C81  1  0.57956409  0.18681606  0.19705857  1.0
  C  C82  1  0.59083266  0.22861008  0.23608645  1.0
  C  C83  1  0.60448877  0.26621429  0.26820481  1.0
  C  C84  1  0.46059973  0.35164693  0.30945945  1.0
  C  C85  1  0.47056594  0.39074113  0.34959840  1.0
  C  C86  1  0.64325999  0.39013868  0.38560398  1.0
  C  C87  1  0.80678986  0.34921000  0.38192222  1.0
  C  C88  1  0.79411089  0.30836921  0.34344826  1.0
  C  C89  1  0.62109684  0.30884859  0.30615032  1.0
  C  C90  1  0.55457240  0.06569996  0.07270400  1.0
  C  C91  1  0.54771891  0.09114150  0.90395929  1.0
  C  C92  1  0.06042851  0.93160945  0.92931591  1.0
  C  C93  1  0.05640987  0.90819439  0.09809280  1.0
  C  C94  1  0.03101672  0.43572313  0.69360152  1.0
  S  S95  1  0.99953576  0.25425647  0.34189236  1.0
  S  S96  1  0.85825531  0.70913425  0.40052269  1.0
  O  O97  1  0.48136647  0.44565804  0.44942097  1.0
  O  O98  1  0.81904436  0.42923761  0.57181993  1.0
  O  O99  1  0.97477711  0.55075161  0.55259820  1.0
  O  O100  1  0.82217925  0.44626600  0.44531982  1.0
  O  O101  1  0.97691186  0.56799772  0.42465892  1.0
  O  O102  1  0.48178929  0.42909594  0.57882389  1.0
  O  O103  1  0.64625484  0.53859544  0.49303454  1.0
  O  O104  1  0.31573841  0.56698973  0.42948787  1.0
  O  O105  1  0.31514650  0.55148942  0.55524596  1.0
  O  O106  1  0.15037796  0.45787078  0.50941000  1.0
  O  O107  1  0.72061280  0.07059254  0.92664636  1.0
  O  O108  1  0.38348044  0.05017530  0.05645958  1.0
  O  O109  1  0.22867708  0.92738435  0.07593636  1.0
  O  O110  1  0.38117589  0.06809796  0.92831941  1.0
  O  O111  1  0.22824146  0.94596193  0.94881222  1.0
  O  O112  1  0.72337867  0.05063000  0.05358663  1.0
  O  O113  1  0.55825103  0.95947614  0.00711340  1.0
  O  O114  1  0.88816627  0.94814253  0.94513033  1.0
  O  O115  1  0.88883748  0.93039827  0.07262525  1.0
  O  O116  1  0.05484242  0.03854715  0.99452869  1.0
  O  O117  1  0.02687458  0.37304215  0.68102172  1.0
  O  O118  1  0.07194744  0.26973304  0.27774547  1.0
  O  O119  1  0.13386094  0.25166655  0.39301460  1.0
  O  O120  1  0.89588338  0.18302382  0.36027873  1.0
  O  O121  1  0.66126228  0.68474644  0.39526878  1.0
  O  O122  1  0.97297584  0.68758224  0.45821841  1.0
  O  O123  1  0.82619355  0.78834544  0.38574052  1.0
