# generated using pymatgen
data_AlH11C14O5
_symmetry_space_group_name_H-M   'P 1'
_cell_length_a   6.62636748
_cell_length_b   17.91746762
_cell_length_c   18.23217945
_cell_angle_alpha   89.96339237
_cell_angle_beta   89.99934843
_cell_angle_gamma   90.00061772
_symmetry_Int_Tables_number   1
_chemical_formula_structural   AlH11C14O5
_chemical_formula_sum   'Al4 H44 C56 O20'
_cell_volume   2164.66474144
_cell_formula_units_Z   4
loop_
 _symmetry_equiv_pos_site_id
 _symmetry_equiv_pos_as_xyz
  1  'x, y, z'
loop_
 _atom_site_type_symbol
 _atom_site_label
 _atom_site_symmetry_multiplicity
 _atom_site_fract_x
 _atom_site_fract_y
 _atom_site_fract_z
 _atom_site_occupancy
  Al  Al0  1  0.29819324  0.75416999  0.25111927  1.0
  Al  Al1  1  0.70177270  0.24616654  0.75073338  1.0
  Al  Al2  1  0.20181264  0.25416994  0.75112214  1.0
  Al  Al3  1  0.79822272  0.74616714  0.25073325  1.0
  H  H4  1  0.21662907  0.44266311  0.61839812  1.0
  H  H5  1  0.78891767  0.56110544  0.38322481  1.0
  H  H6  1  0.28607854  0.93825699  0.38443198  1.0
  H  H7  1  0.72093951  0.05965817  0.61619637  1.0
  H  H8  1  0.71109626  0.06113721  0.88325014  1.0
  H  H9  1  0.28333730  0.94265920  0.11839913  1.0
  H  H10  1  0.77905179  0.55966542  0.11619191  1.0
  H  H11  1  0.21393143  0.43826591  0.88442714  1.0
  H  H12  1  0.36068700  0.55605981  0.55959921  1.0
  H  H13  1  0.64579992  0.44656041  0.44162604  1.0
  H  H14  1  0.13835963  0.05098928  0.44474351  1.0
  H  H15  1  0.86961675  0.94845996  0.55532435  1.0
  H  H16  1  0.85426579  0.94660004  0.94164684  1.0
  H  H17  1  0.13928342  0.05604861  0.05958775  1.0
  H  H18  1  0.63036478  0.44846547  0.05532060  1.0
  H  H19  1  0.36164056  0.55099156  0.94474234  1.0
  H  H20  1  0.52991313  0.33297666  0.48257075  1.0
  H  H21  1  0.67888852  0.27539424  0.54119429  1.0
  H  H22  1  0.50503492  0.33845773  0.57946559  1.0
  H  H23  1  0.48941335  0.66430803  0.51614666  1.0
  H  H24  1  0.49685980  0.66401193  0.41828064  1.0
  H  H25  1  0.33580793  0.72651620  0.46392349  1.0
  H  H26  1  0.00482677  0.84261163  0.51016989  1.0
  H  H27  1  0.84959413  0.77789856  0.46172924  1.0
  H  H28  1  0.00091101  0.84070535  0.41229287  1.0
  H  H29  1  0.01384903  0.16158354  0.48796017  1.0
  H  H30  1  0.00145864  0.15764117  0.58522383  1.0
  H  H31  1  0.16517170  0.22180474  0.54310930  1.0
  H  H32  1  0.01046293  0.16427187  0.01611804  1.0
  H  H33  1  0.16407383  0.22650208  0.96391332  1.0
  H  H34  1  0.00312272  0.16397832  0.91825285  1.0
  H  H35  1  0.97013343  0.83301780  0.98257694  1.0
  H  H36  1  0.99499617  0.83847794  0.07947474  1.0
  H  H37  1  0.82115097  0.77542005  0.04118586  1.0
  H  H38  1  0.48619553  0.66157561  0.98796576  1.0
  H  H39  1  0.33486095  0.72180602  0.04310906  1.0
  H  H40  1  0.49854445  0.65763516  0.08523242  1.0
  H  H41  1  0.49516308  0.34261386  0.01016394  1.0
  H  H42  1  0.49908994  0.34070683  0.91228333  1.0
  H  H43  1  0.65041362  0.27790169  0.96172349  1.0
  H  H44  1  0.53299649  0.65720115  0.22267399  1.0
  H  H45  1  0.46618587  0.34194468  0.71970958  1.0
  H  H46  1  0.96700754  0.15720476  0.72266839  1.0
  H  H47  1  0.03382731  0.84194778  0.21971025  1.0
  C  C48  1  0.55730751  0.83771159  0.35138753  1.0
  C  C49  1  0.44985541  0.16028865  0.64969991  1.0
  C  C50  1  0.95058989  0.33911721  0.64883955  1.0
  C  C51  1  0.05634524  0.66381996  0.35246853  1.0
  C  C52  1  0.05013162  0.66028901  0.14970107  1.0
  C  C53  1  0.94272783  0.33771567  0.85138858  1.0
  C  C54  1  0.44361726  0.16383018  0.85246683  1.0
  C  C55  1  0.54942791  0.83911980  0.14883688  1.0
  C  C56  1  0.93943512  0.39168456  0.58540548  1.0
  C  C57  1  0.06691145  0.61140550  0.41593935  1.0
  C  C58  1  0.56936354  0.89048409  0.41454831  1.0
  C  C59  1  0.43777374  0.10800587  0.58615904  1.0
  C  C60  1  0.43310103  0.11140508  0.91595249  1.0
  C  C61  1  0.56058702  0.89169109  0.08541923  1.0
  C  C62  1  0.06223364  0.60800684  0.08615030  1.0
  C  C63  1  0.93062735  0.39048144  0.91454172  1.0
  C  C64  1  0.23666358  0.55685840  0.52007205  1.0
  C  C65  1  0.76892087  0.44615618  0.48146749  1.0
  C  C66  1  0.26439929  0.05244608  0.48338987  1.0
  C  C67  1  0.74286176  0.94646768  0.51705038  1.0
  C  C68  1  0.73109343  0.94618872  0.98148647  1.0
  C  C69  1  0.26330239  0.05685820  0.02007557  1.0
  C  C70  1  0.75713029  0.44647248  0.01704625  1.0
  C  C71  1  0.23561149  0.55245409  0.98338799  1.0
  C  C72  1  0.23306785  0.61181153  0.46672899  1.0
  C  C73  1  0.77393217  0.39096662  0.53450887  1.0
  C  C74  1  0.26878468  0.10728858  0.53675705  1.0
  C  C75  1  0.73927167  0.89157602  0.46373092  1.0
  C  C76  1  0.72608443  0.89098708  0.03452432  1.0
  C  C77  1  0.26689584  0.11180667  0.96673221  1.0
  C  C78  1  0.76073240  0.39158343  0.96372484  1.0
  C  C79  1  0.23122765  0.60729009  0.03675603  1.0
  C  C80  1  0.91400198  0.55889136  0.42208058  1.0
  C  C81  1  0.09151306  0.44444127  0.57957743  1.0
  C  C82  1  0.59325487  0.05685845  0.57852791  1.0
  C  C83  1  0.41352626  0.94158077  0.42212185  1.0
  C  C84  1  0.40850020  0.94444446  0.07958026  1.0
  C  C85  1  0.58602541  0.05890935  0.92209642  1.0
  C  C86  1  0.08646271  0.44158314  0.92211684  1.0
  C  C87  1  0.90673934  0.55686220  0.07852581  1.0
  C  C88  1  0.91906907  0.50230146  0.47599785  1.0
  C  C89  1  0.08576837  0.50114212  0.52583733  1.0
  C  C90  1  0.58826129  0.00054077  0.52444108  1.0
  C  C91  1  0.41829951  0.99794256  0.47615767  1.0
  C  C92  1  0.41422865  0.00115803  0.02584096  1.0
  C  C93  1  0.58094818  0.00232668  0.97600822  1.0
  C  C94  1  0.08170283  0.49794771  0.97615871  1.0
  C  C95  1  0.91173011  0.50054900  0.02443842  1.0
  C  C96  1  0.61367893  0.33134968  0.53450295  1.0
  C  C97  1  0.39785447  0.66969308  0.46624123  1.0
  C  C98  1  0.90800118  0.83530680  0.46184275  1.0
  C  C99  1  0.10375556  0.16506042  0.53840941  1.0
  C  C100  1  0.10206295  0.16967039  0.96622356  1.0
  C  C101  1  0.88635522  0.83137680  0.03450749  1.0
  C  C102  1  0.39625418  0.66505074  0.03841447  1.0
  C  C103  1  0.59200554  0.33531198  0.96183663  1.0
  O  O104  1  0.71611409  0.81941793  0.17772946  1.0
  O  O105  1  0.27851716  0.19225216  0.83077606  1.0
  O  O106  1  0.77803875  0.30926041  0.82937305  1.0
  O  O107  1  0.21618767  0.67980098  0.17916690  1.0
  O  O108  1  0.22146981  0.69225531  0.33077726  1.0
  O  O109  1  0.78386414  0.31941200  0.67773099  1.0
  O  O110  1  0.28382604  0.17980232  0.67916294  1.0
  O  O111  1  0.72196479  0.80926133  0.32937370  1.0
  O  O112  1  0.38535848  0.82618127  0.32182268  1.0
  O  O113  1  0.62520327  0.17986540  0.67176342  1.0
  O  O114  1  0.12556694  0.31968594  0.67138881  1.0
  O  O115  1  0.88516816  0.67500304  0.32227209  1.0
  O  O116  1  0.87480055  0.67987128  0.17175977  1.0
  O  O117  1  0.11464255  0.32618037  0.82183459  1.0
  O  O118  1  0.61485516  0.17500606  0.82227633  1.0
  O  O119  1  0.37444286  0.81968345  0.17138296  1.0
  O  O120  1  0.54429708  0.70384706  0.24920594  1.0
  O  O121  1  0.45560859  0.29655377  0.74838282  1.0
  O  O122  1  0.95570600  0.20384560  0.74920915  1.0
  O  O123  1  0.04440037  0.79655467  0.24838016  1.0
