# generated using pymatgen
data_Zn8H11C82N12(O2F)13
_symmetry_space_group_name_H-M   'P 1'
_cell_length_a   18.30068186
_cell_length_b   18.31899446
_cell_length_c   18.33142358
_cell_angle_alpha   119.88863120
_cell_angle_beta   119.76345883
_cell_angle_gamma   60.41671801
_symmetry_Int_Tables_number   1
_chemical_formula_structural   Zn8H11C82N12(O2F)13
_chemical_formula_sum   'Zn8 H11 C82 N12 O26 F13'
_cell_volume   4370.61237125
_cell_formula_units_Z   1
loop_
 _symmetry_equiv_pos_site_id
 _symmetry_equiv_pos_as_xyz
  1  'x, y, z'
loop_
 _atom_site_type_symbol
 _atom_site_label
 _atom_site_symmetry_multiplicity
 _atom_site_fract_x
 _atom_site_fract_y
 _atom_site_fract_z
 _atom_site_occupancy
  Zn  Zn0  1  0.45522375  0.95611699  0.86616036  1.0
  Zn  Zn1  1  0.45067941  0.13071729  0.03857995  1.0
  Zn  Zn2  1  0.62675618  0.95954023  0.04484884  1.0
  Zn  Zn3  1  0.45599196  0.95580427  0.04480861  1.0
  Zn  Zn4  1  0.04405287  0.54469176  0.62990373  1.0
  Zn  Zn5  1  0.86773651  0.54251527  0.45646128  1.0
  Zn  Zn6  1  0.04164250  0.37056124  0.45635711  1.0
  Zn  Zn7  1  0.03805329  0.54856872  0.45424876  1.0
  H  H8  1  0.71821700  0.95770521  0.62856059  1.0
  H  H9  1  0.59291179  0.70843407  0.02186896  1.0
  H  H10  1  0.58994828  0.55755952  0.97198586  1.0
  H  H11  1  0.67848974  0.46981453  0.07571070  1.0
  H  H12  1  0.77406390  0.53160301  0.22734131  1.0
  H  H13  1  0.85310155  0.79922396  0.38875309  1.0
  H  H14  1  0.44792322  0.22328237  0.55488683  1.0
  H  H15  1  0.32622664  0.61060777  0.77894524  1.0
  H  H16  1  0.41560369  0.45398106  0.86235090  1.0
  H  H17  1  0.27429699  0.43342244  0.74357350  1.0
  H  H18  1  0.12453440  0.22316607  0.62194234  1.0
  C  C19  1  0.36826470  0.13404247  0.14497277  1.0
  C  C20  1  0.29219953  0.67316845  0.76522243  1.0
  C  C21  1  0.26303427  0.76766876  0.83488581  1.0
  C  C22  1  0.16847850  0.79101182  0.76083168  1.0
  C  C23  1  0.20575935  0.82980258  0.73041625  1.0
  C  C24  1  0.29920139  0.80587534  0.80398030  1.0
  C  C25  1  0.66002508  0.94621772  0.77353593  1.0
  C  C26  1  0.66546058  0.97983842  0.72364734  1.0
  C  C27  1  0.71514719  0.92856621  0.66588284  1.0
  C  C28  1  0.76141363  0.84078919  0.66011703  1.0
  C  C29  1  0.75820493  0.79877053  0.70574648  1.0
  C  C30  1  0.63862292  0.86070348  0.86399011  1.0
  C  C31  1  0.70432429  0.85304451  0.76293602  1.0
  C  C32  1  0.69818724  0.81256559  0.80791931  1.0
  C  C33  1  0.74782759  0.72465830  0.79985716  1.0
  C  C34  1  0.80389808  0.67093010  0.74698662  1.0
  C  C35  1  0.80699624  0.70780823  0.69832712  1.0
  C  C36  1  0.63271175  0.67039495  0.06728483  1.0
  C  C37  1  0.63082324  0.58609206  0.03965704  1.0
  C  C38  1  0.68172759  0.53587327  0.09785156  1.0
  C  C39  1  0.73514268  0.57061097  0.18281850  1.0
  C  C40  1  0.74001398  0.65663711  0.21324226  1.0
  C  C41  1  0.35836564  0.13688445  0.85906347  1.0
  C  C42  1  0.68684061  0.70842931  0.15460889  1.0
  C  C43  1  0.69294683  0.79412414  0.18427615  1.0
  C  C44  1  0.75291881  0.82592933  0.26739860  1.0
  C  C45  1  0.80640097  0.77387189  0.32420992  1.0
  C  C46  1  0.79886304  0.69258903  0.29850335  1.0
  C  C47  1  0.44436417  0.14750037  0.34031675  1.0
  C  C48  1  0.47568447  0.15354882  0.42962111  1.0
  C  C49  1  0.42267723  0.21604115  0.48475544  1.0
  C  C50  1  0.33902507  0.26834584  0.44870310  1.0
  C  C51  1  0.29987115  0.26073967  0.35714498  1.0
  C  C52  1  0.63531108  0.85189323  0.12713158  1.0
  C  C53  1  0.35511090  0.19967473  0.30152009  1.0
  C  C54  1  0.31793772  0.19355393  0.21036895  1.0
  C  C55  1  0.23029061  0.24431270  0.17572419  1.0
  C  C56  1  0.17788192  0.30187744  0.23199991  1.0
  C  C57  1  0.21017522  0.31092215  0.32064133  1.0
  C  C58  1  0.65633200  0.24472790  0.33625127  1.0
  C  C59  1  0.67012153  0.28733044  0.42657020  1.0
  C  C60  1  0.73246894  0.33277870  0.47892445  1.0
  C  C61  1  0.77942847  0.33734615  0.44137233  1.0
  C  C62  1  0.76237998  0.29669641  0.34642915  1.0
  C  C63  1  0.62741835  0.14506142  0.13884826  1.0
  C  C64  1  0.70079192  0.24735829  0.29293859  1.0
  C  C65  1  0.68666235  0.20238992  0.19981563  1.0
  C  C66  1  0.73161300  0.20767561  0.16163884  1.0
  C  C67  1  0.78959986  0.25811673  0.21286638  1.0
  C  C68  1  0.80488843  0.30229266  0.30302767  1.0
  C  C69  1  0.41837495  0.28185312  0.88914480  1.0
  C  C70  1  0.44679841  0.34728049  0.90412564  1.0
  C  C71  1  0.39329223  0.40246760  0.85014999  1.0
  C  C72  1  0.31523182  0.39036991  0.78402896  1.0
  C  C73  1  0.28584344  0.32297323  0.76743713  1.0
  C  C74  1  0.35558060  0.86521811  0.86146572  1.0
  C  C75  1  0.33847315  0.26624892  0.82157905  1.0
  C  C76  1  0.31099977  0.19651698  0.80386514  1.0
  C  C77  1  0.23533208  0.18360774  0.73197881  1.0
  C  C78  1  0.18375739  0.23649698  0.67728891  1.0
  C  C79  1  0.20730382  0.30631156  0.69567730  1.0
  C  C80  1  0.85672906  0.64126983  0.36163044  1.0
  C  C81  1  0.14587612  0.36339143  0.63783250  1.0
  C  C82  1  0.86291572  0.64638845  0.63810857  1.0
  C  C83  1  0.14511821  0.36856353  0.37137474  1.0
  C  C84  1  0.86359382  0.35908319  0.35146010  1.0
  C  C85  1  0.33039355  0.71037382  0.73515033  1.0
  C  C86  1  0.14197124  0.63757309  0.63489917  1.0
  C  C87  1  0.23613071  0.73395690  0.66206689  1.0
  C  C88  1  0.19978540  0.69535035  0.69171709  1.0
  C  C89  1  0.85461750  0.58124442  0.74496275  1.0
  C  C90  1  0.76266061  0.91064212  0.29955303  1.0
  C  C91  1  0.19196971  0.23706916  0.08402567  1.0
  C  C92  1  0.41543978  0.66968449  0.72453313  1.0
  C  C93  1  0.50428198  0.08942481  0.29119334  1.0
  C  C94  1  0.56079531  0.09642783  0.46716331  1.0
  C  C95  1  0.84612728  0.37871045  0.50005097  1.0
  C  C96  1  0.52914757  0.35686205  0.97175367  1.0
  C  C97  1  0.27704651  0.78393073  0.92471199  1.0
  C  C98  1  0.08351471  0.83036118  0.77134055  1.0
  C  C99  1  0.16121371  0.91219952  0.71417558  1.0
  C  C100  1  0.61605304  0.00611543  0.83757478  1.0
  N  N101  1  0.89665051  0.50833465  0.74516653  1.0
  N  N102  1  0.77418263  0.97892685  0.33061360  1.0
  N  N103  1  0.16126998  0.22966296  0.00858623  1.0
  N  N104  1  0.48566930  0.63539621  0.71666220  1.0
  N  N105  1  0.55425726  0.04313610  0.25156814  1.0
  N  N106  1  0.62794588  0.04943395  0.50085029  1.0
  N  N107  1  0.90274115  0.41067410  0.54597862  1.0
  N  N108  1  0.59681461  0.36538707  0.02646685  1.0
  N  N109  1  0.28797650  0.79432315  0.99717611  1.0
  N  N110  1  0.01302673  0.86073452  0.77771081  1.0
  N  N111  1  0.12391900  0.97978331  0.70069369  1.0
  N  N112  1  0.58323776  0.05304893  0.89322232  1.0
  O  O113  1  0.49546778  0.99983903  0.99720005  1.0
  O  O114  1  0.38890412  0.05423992  0.81811396  1.0
  O  O115  1  0.55167041  0.86621441  0.09834319  1.0
  O  O116  1  0.39545076  0.17416092  0.12890216  1.0
  O  O117  1  0.67778602  0.88280078  0.94748135  1.0
  O  O118  1  0.99891820  0.50150995  0.49912342  1.0
  O  O119  1  0.94032370  0.62558988  0.38694937  1.0
  O  O120  1  0.12559825  0.44738722  0.67746490  1.0
  O  O121  1  0.82060304  0.61543427  0.55622977  1.0
  O  O122  1  0.11906959  0.32643049  0.38623307  1.0
  O  O123  1  0.82264572  0.44228704  0.36853094  1.0
  O  O124  1  0.37435372  0.05255612  0.11146210  1.0
  O  O125  1  0.11249799  0.62345704  0.55191121  1.0
  O  O126  1  0.94679376  0.31841622  0.36970766  1.0
  O  O127  1  0.12802414  0.61061220  0.67718667  1.0
  O  O128  1  0.94634691  0.63029758  0.67718337  1.0
  O  O129  1  0.12163319  0.45190620  0.39025609  1.0
  O  O130  1  0.81845305  0.61824596  0.38481705  1.0
  O  O131  1  0.11856930  0.32235924  0.55433954  1.0
  O  O132  1  0.55612716  0.87222322  0.82088405  1.0
  O  O133  1  0.36059241  0.17421439  0.93969586  1.0
  O  O134  1  0.67509598  0.88156364  0.11311321  1.0
  O  O135  1  0.54491864  0.18513839  0.10878211  1.0
  O  O136  1  0.37644159  0.88650229  0.94456692  1.0
  O  O137  1  0.66856878  0.06219002  0.12264356  1.0
  O  O138  1  0.37621279  0.88540341  0.81881744  1.0
  F  F139  1  0.22365422  0.71823190  0.57750463  1.0
  F  F140  1  0.81354367  0.79196339  0.60824086  1.0
  F  F141  1  0.29155832  0.33101645  0.50419584  1.0
  F  F142  1  0.09244356  0.34715813  0.19560897  1.0
  F  F143  1  0.72044095  0.16502884  0.07406935  1.0
  F  F144  1  0.59775234  0.20011622  0.28918081  1.0
  F  F145  1  0.62532747  0.28458868  0.46480043  1.0
  F  F146  1  0.74674893  0.37105247  0.56696629  1.0
  F  F147  1  0.82937957  0.26362284  0.17142560  1.0
  F  F148  1  0.20721934  0.11866738  0.71359502  1.0
  F  F149  1  0.47162559  0.23016008  0.94081632  1.0
  F  F150  1  0.74253299  0.68637219  0.84285176  1.0
  F  F151  1  0.62212864  0.06699006  0.73264468  1.0
