# generated using pymatgen
data_Hf3H13C13NO16
_symmetry_space_group_name_H-M   'P 1'
_cell_length_a   14.48201339
_cell_length_b   19.43538135
_cell_length_c   20.02121330
_cell_angle_alpha   87.52036022
_cell_angle_beta   84.20914225
_cell_angle_gamma   71.31890665
_symmetry_Int_Tables_number   1
_chemical_formula_structural   Hf3H13C13NO16
_chemical_formula_sum   'Hf12 H52 C52 N4 O64'
_cell_volume   5310.75214869
_cell_formula_units_Z   4
loop_
 _symmetry_equiv_pos_site_id
 _symmetry_equiv_pos_as_xyz
  1  'x, y, z'
loop_
 _atom_site_type_symbol
 _atom_site_label
 _atom_site_symmetry_multiplicity
 _atom_site_fract_x
 _atom_site_fract_y
 _atom_site_fract_z
 _atom_site_occupancy
  Hf  Hf0  1  0.38028290  0.45488119  0.43543317  1.0
  Hf  Hf1  1  0.69192660  0.37161790  0.54836885  1.0
  Hf  Hf2  1  0.51002567  0.29696835  0.51809552  1.0
  Hf  Hf3  1  0.56427849  0.52886682  0.46303286  1.0
  Hf  Hf4  1  0.44297965  0.46451585  0.59931145  1.0
  Hf  Hf5  1  0.63231214  0.36073112  0.38169192  1.0
  Hf  Hf6  1  0.82812837  0.88786981  0.92912662  1.0
  Hf  Hf7  1  0.47917641  0.98268336  0.00879630  1.0
  Hf  Hf8  1  0.60857168  0.90426182  0.86143394  1.0
  Hf  Hf9  1  0.69738545  0.97046608  0.07789525  1.0
  Hf  Hf10  1  0.64550380  0.06124350  0.92082423  1.0
  Hf  Hf11  1  0.65499757  0.81315315  0.01950721  1.0
  H  H12  1  0.10600975  0.72191036  0.32199055  1.0
  H  H13  1  0.98158756  0.81085815  0.23723427  1.0
  H  H14  1  0.12114420  0.18855302  0.61920959  1.0
  H  H15  1  0.27985029  0.10296664  0.67880366  1.0
  H  H16  1  0.36369101  0.57918750  0.50967244  1.0
  H  H17  1  0.57512639  0.31592496  0.64064697  1.0
  H  H18  1  0.74943836  0.43670020  0.42518864  1.0
  H  H19  1  0.47516577  0.31266508  0.37746585  1.0
  H  H20  1  0.40340509  0.40874245  0.71311301  1.0
  H  H21  1  0.55248318  0.16916997  0.44353263  1.0
  H  H22  1  0.72587063  0.22685556  0.34223819  1.0
  H  H23  1  0.34998939  0.60451462  0.63846031  1.0
  H  H24  1  0.46754191  0.60854070  0.57805953  1.0
  H  H25  1  0.60701043  0.58124660  0.33599394  1.0
  H  H26  1  0.76415201  0.40031090  0.29576868  1.0
  H  H27  1  0.48701075  0.50405562  0.70978440  1.0
  H  H28  1  0.71327776  0.44526002  0.65713927  1.0
  H  H29  1  0.32059439  0.41941773  0.32363601  1.0
  H  H30  1  0.57389611  0.41265140  0.26046139  1.0
  H  H31  1  0.46775443  0.66883421  0.51615067  1.0
  H  H32  1  0.61221031  0.42616340  0.67755464  1.0
  H  H33  1  0.48364547  0.18605807  0.59749770  1.0
  H  H34  1  0.29784330  0.42818832  0.68621579  1.0
  H  H35  1  0.66933472  0.49415955  0.33474287  1.0
  H  H36  1  0.62161923  0.21747207  0.40857699  1.0
  H  H37  1  0.46993429  0.41170158  0.30084482  1.0
  H  H38  1  0.76460536  0.82521778  0.57999736  1.0
  H  H39  1  0.74974645  0.72634154  0.49247487  1.0
  H  H40  1  0.20142320  0.10195429  0.19488492  1.0
  H  H41  1  0.02286458  0.16546808  0.26415110  1.0
  H  H42  1  0.81763543  0.02216154  0.98640865  1.0
  H  H43  1  0.46958439  0.05176168  0.87956154  1.0
  H  H44  1  0.55151024  0.91025041  0.12544762  1.0
  H  H45  1  0.75071132  0.76986726  0.89191810  1.0
  H  H46  1  0.65871860  0.09703423  0.77975915  1.0
  H  H47  1  0.52415193  0.82068360  0.79838227  1.0
  H  H48  1  0.58226125  0.70978220  0.99540516  1.0
  H  H49  1  0.62426884  0.17937675  0.98783308  1.0
  H  H50  1  0.78144577  0.06671802  0.11335603  1.0
  H  H51  1  0.78535894  0.88456513  0.17373284  1.0
  H  H52  1  0.63109764  0.77793279  0.15502050  1.0
  H  H53  1  0.50783322  0.17718528  0.87949299  1.0
  H  H54  1  0.29803970  0.07047445  0.98352289  1.0
  H  H55  1  0.95938694  0.75608823  0.90501943  1.0
  H  H56  1  0.79589796  0.68579199  0.00144105  1.0
  H  H57  1  0.69386110  0.11631493  0.03728321  1.0
  H  H58  1  0.32762199  0.10299718  0.04800174  1.0
  H  H59  1  0.51233703  0.97841914  0.76153003  1.0
  H  H60  1  0.60433256  0.03454372  0.78675570  1.0
  H  H61  1  0.70256934  0.83231523  0.14636128  1.0
  H  H62  1  0.63699601  0.79976967  0.77101211  1.0
  H  H63  1  0.85953576  0.74297846  0.98667584  1.0
  C  C64  1  0.21919195  0.75153510  0.25737960  1.0
  C  C65  1  0.12393568  0.75257026  0.27889902  1.0
  C  C66  1  0.06021943  0.79870109  0.23598614  1.0
  C  C67  1  0.11603509  0.82515340  0.18681912  1.0
  C  C68  1  0.03715044  0.14793191  0.69985131  1.0
  C  C69  1  0.12140399  0.15430634  0.66347496  1.0
  C  C70  1  0.20351868  0.10951552  0.69403356  1.0
  C  C71  1  0.17124092  0.07497690  0.74996493  1.0
  C  C72  1  0.21712546  0.53194064  0.55648935  1.0
  C  C73  1  0.38942468  0.61508646  0.37778002  1.0
  C  C74  1  0.31807082  0.30702603  0.44515920  1.0
  C  C75  1  0.75585612  0.24458519  0.65684717  1.0
  C  C76  1  0.85374097  0.30150893  0.42827113  1.0
  C  C77  1  0.77050037  0.50870431  0.51953469  1.0
  C  C78  1  0.89834498  0.73966007  0.60401478  1.0
  C  C79  1  0.81638166  0.77186595  0.56867966  1.0
  C  C80  1  0.80921171  0.72145954  0.52317007  1.0
  C  C81  1  0.88645476  0.65741405  0.53032692  1.0
  C  C82  1  0.25575312  0.15482809  0.26962084  1.0
  C  C83  1  0.18459051  0.13647204  0.23852988  1.0
  C  C84  1  0.09367835  0.16878067  0.27375654  1.0
  C  C85  1  0.10811144  0.20734990  0.32688066  1.0
  C  C86  1  0.86636309  0.02775480  0.85497159  1.0
  C  C87  1  0.93614189  0.91172266  0.05301493  1.0
  C  C88  1  0.83087263  0.83381667  0.77850262  1.0
  C  C89  1  0.36527038  0.95969869  0.87698681  1.0
  C  C90  1  0.42215900  0.85276847  0.08528458  1.0
  C  C91  1  0.48293235  0.05395135  0.15251994  1.0
  C  C92  1  0.35451402  0.13121764  0.24604446  1.0
  C  C93  1  0.42197401  0.09814398  0.20591190  1.0
  C  C94  1  0.88489992  0.80025442  0.71702819  1.0
  C  C95  1  0.91229430  0.76667364  0.66450226  1.0
  C  C96  1  0.11782628  0.57904399  0.57375603  1.0
  C  C97  1  0.03721947  0.62465601  0.58264432  1.0
  C  C98  1  0.88352877  0.58859398  0.51747051  1.0
  C  C99  1  0.84855975  0.53968448  0.51235703  1.0
  C  C100  1  0.27507532  0.26568400  0.40576651  1.0
  C  C101  1  0.24729962  0.23221669  0.36646258  1.0
  C  C102  1  0.95456805  0.27147079  0.40417573  1.0
  C  C103  1  0.03542778  0.24514905  0.37458020  1.0
  C  C104  1  0.00653480  0.07346192  0.79313935  1.0
  C  C105  1  0.94002584  0.05600835  0.82281870  1.0
  C  C106  1  0.22730786  0.02987669  0.79761991  1.0
  C  C107  1  0.28545847  0.99272331  0.83563427  1.0
  C  C108  1  0.93830273  0.17868536  0.68919023  1.0
  C  C109  1  0.85318588  0.20683540  0.67702537  1.0
  C  C110  1  0.02263292  0.89252460  0.08859212  1.0
  C  C111  1  0.08054182  0.86353001  0.12956244  1.0
  C  C112  1  0.28845526  0.81184686  0.16338265  1.0
  C  C113  1  0.34922756  0.83002898  0.12694088  1.0
  C  C114  1  0.34909383  0.67109034  0.33020891  1.0
  C  C115  1  0.30085869  0.71318094  0.29004890  1.0
  N  N116  1  0.21452673  0.79685364  0.20031253  1.0
  N  N117  1  0.06834012  0.09891384  0.75350222  1.0
  N  N118  1  0.94598594  0.66999764  0.57730306  1.0
  N  N119  1  0.20840027  0.19874576  0.32470003  1.0
  O  O120  1  0.36349015  0.44563326  0.33523979  1.0
  O  O121  1  0.23840917  0.51162137  0.49558557  1.0
  O  O122  1  0.29152853  0.37536555  0.43545354  1.0
  O  O123  1  0.46811744  0.61484564  0.40312544  1.0
  O  O124  1  0.38274143  0.26995647  0.48296408  1.0
  O  O125  1  0.34146883  0.57117599  0.39133475  1.0
  O  O126  1  0.27526591  0.51695800  0.60309243  1.0
  O  O127  1  0.41630135  0.40086761  0.52667807  1.0
  O  O128  1  0.41256509  0.53165325  0.50530204  1.0
  O  O129  1  0.48984300  0.34076315  0.41148742  1.0
  O  O130  1  0.51989431  0.45898233  0.41048179  1.0
  O  O131  1  0.64835894  0.54266180  0.36258012  1.0
  O  O132  1  0.36701615  0.40130750  0.67625532  1.0
  O  O133  1  0.57219935  0.46753459  0.54973007  1.0
  O  O134  1  0.55711055  0.34891406  0.60158876  1.0
  O  O135  1  0.63369347  0.32277419  0.48230599  1.0
  O  O136  1  0.68910344  0.42915650  0.44422540  1.0
  O  O137  1  0.50151432  0.22991081  0.59273252  1.0
  O  O138  1  0.67985840  0.24593441  0.69219682  1.0
  O  O139  1  0.76036377  0.27557637  0.59778896  1.0
  O  O140  1  0.54283764  0.38323738  0.28955264  1.0
  O  O141  1  0.83265963  0.32137511  0.48889540  1.0
  O  O142  1  0.58934779  0.20040536  0.45436033  1.0
  O  O143  1  0.65685436  0.25325365  0.35268875  1.0
  O  O144  1  0.69405786  0.42023993  0.30746165  1.0
  O  O145  1  0.79438376  0.30583138  0.38361700  1.0
  O  O146  1  0.68482317  0.40624788  0.65678519  1.0
  O  O147  1  0.50849531  0.62375322  0.53502421  1.0
  O  O148  1  0.77954302  0.44868188  0.55084327  1.0
  O  O149  1  0.69422176  0.54864234  0.49287926  1.0
  O  O150  1  0.41825919  0.57560536  0.62924051  1.0
  O  O151  1  0.50287158  0.45432795  0.69440875  1.0
  O  O152  1  0.91749240  0.78144703  0.94305420  1.0
  O  O153  1  0.89671866  0.96127837  0.87264494  1.0
  O  O154  1  0.87770148  0.84438370  0.82500064  1.0
  O  O155  1  0.85759885  0.93810145  0.09179463  1.0
  O  O156  1  0.73821684  0.84841165  0.77935005  1.0
  O  O157  1  0.94342670  0.89872567  0.99099772  1.0
  O  O158  1  0.77878561  0.07135148  0.86279963  1.0
  O  O159  1  0.70277461  0.95248371  0.88464165  1.0
  O  O160  1  0.77016972  0.99793581  0.98012814  1.0
  O  O161  1  0.72170736  0.81769500  0.91143862  1.0
  O  O162  1  0.74761866  0.87783193  0.01613023  1.0
  O  O163  1  0.71902207  0.89616198  0.16100229  1.0
  O  O164  1  0.61223747  0.07946964  0.80822721  1.0
  O  O165  1  0.59095633  0.02397672  0.01119012  1.0
  O  O166  1  0.51832916  0.01778055  0.90517530  1.0
  O  O167  1  0.55653203  0.88993362  0.96033859  1.0
  O  O168  1  0.57859641  0.91599025  0.08004055  1.0
  O  O169  1  0.57933011  0.96510506  0.77320739  1.0
  O  O170  1  0.44428024  0.91838268  0.84651073  1.0
  O  O171  1  0.35436462  0.97774920  0.93838018  1.0
  O  O172  1  0.80618269  0.72900733  0.01789355  1.0
  O  O173  1  0.39457385  0.91859927  0.06374320  1.0
  O  O174  1  0.59113375  0.80459574  0.81142188  1.0
  O  O175  1  0.64353098  0.72012291  0.98616831  1.0
  O  O176  1  0.68481313  0.78658326  0.12656805  1.0
  O  O177  1  0.50681078  0.80631784  0.07486543  1.0
  O  O178  1  0.34792429  0.08686642  0.00161867  1.0
  O  O179  1  0.71881670  0.06867407  0.09875128  1.0
  O  O180  1  0.43254168  0.04291406  0.10653676  1.0
  O  O181  1  0.57404567  0.02881649  0.15478172  1.0
  O  O182  1  0.68259755  0.13664666  0.98862658  1.0
  O  O183  1  0.54165810  0.15957067  0.91924765  1.0
