# generated using pymatgen
data_Cu4H24C37N8
_symmetry_space_group_name_H-M   'P 1'
_cell_length_a   24.17892558
_cell_length_b   24.71388157
_cell_length_c   26.41245111
_cell_angle_alpha   89.71384150
_cell_angle_beta   90.34496062
_cell_angle_gamma   89.55414307
_symmetry_Int_Tables_number   1
_chemical_formula_structural   Cu4H24C37N8
_chemical_formula_sum   'Cu12 H72 C111 N24'
_cell_volume   15781.93048032
_cell_formula_units_Z   3
loop_
 _symmetry_equiv_pos_site_id
 _symmetry_equiv_pos_as_xyz
  1  'x, y, z'
loop_
 _atom_site_type_symbol
 _atom_site_label
 _atom_site_symmetry_multiplicity
 _atom_site_fract_x
 _atom_site_fract_y
 _atom_site_fract_z
 _atom_site_occupancy
  Cu  Cu0  1  0.76544838  0.85942394  0.75964691  1.0
  Cu  Cu1  1  0.75515668  0.75779588  0.83183054  1.0
  Cu  Cu2  1  0.86142133  0.77127745  0.76181184  1.0
  Cu  Cu3  1  0.23989936  0.15079093  0.75859442  1.0
  Cu  Cu4  1  0.24744514  0.24690588  0.83765744  1.0
  Cu  Cu5  1  0.14131380  0.23337033  0.76687798  1.0
  Cu  Cu6  1  0.74879271  0.15663880  0.24182563  1.0
  Cu  Cu7  1  0.76404255  0.22889969  0.14463857  1.0
  Cu  Cu8  1  0.84149661  0.24745154  0.23991409  1.0
  Cu  Cu9  1  0.24516601  0.84304650  0.24805846  1.0
  Cu  Cu10  1  0.25564975  0.74201169  0.17451078  1.0
  Cu  Cu11  1  0.14624316  0.76294176  0.24033114  1.0
  H  H12  1  0.67188997  0.93498062  0.80552532  1.0
  H  H13  1  0.64786958  0.78901335  0.89381631  1.0
  H  H14  1  0.93729216  0.81479487  0.67250115  1.0
  H  H15  1  0.80471050  0.93375646  0.66923281  1.0
  H  H16  1  0.79103028  0.65708629  0.89792276  1.0
  H  H17  1  0.94081397  0.68337953  0.81236106  1.0
  H  H18  1  0.32733803  0.06939487  0.80596340  1.0
  H  H19  1  0.34465332  0.20427470  0.90868169  1.0
  H  H20  1  0.06193674  0.19029306  0.67950739  1.0
  H  H21  1  0.20499662  0.08601139  0.65965614  1.0
  H  H22  1  0.21381893  0.35316938  0.89797638  1.0
  H  H23  1  0.06079406  0.31747460  0.81942010  1.0
  H  H24  1  0.64076350  0.09004767  0.21062554  1.0
  H  H25  1  0.67892903  0.17180272  0.07010065  1.0
  H  H26  1  0.91757491  0.20826360  0.33103320  1.0
  H  H27  1  0.79413814  0.08210823  0.33000887  1.0
  H  H28  1  0.81484673  0.31319378  0.06787549  1.0
  H  H29  1  0.90642164  0.35269201  0.20403461  1.0
  H  H30  1  0.33461289  0.91924856  0.20091331  1.0
  H  H31  1  0.35909936  0.77729513  0.10837049  1.0
  H  H32  1  0.06341254  0.81435780  0.32117796  1.0
  H  H33  1  0.20455488  0.92019689  0.33653717  1.0
  H  H34  1  0.21814311  0.63994926  0.11095654  1.0
  H  H35  1  0.06580098  0.68031650  0.18783530  1.0
  H  H36  1  0.62372937  0.98210893  0.87005053  1.0
  H  H37  1  0.56165007  0.82899493  0.92281107  1.0
  H  H38  1  0.50127337  0.87634018  0.98250167  1.0
  H  H39  1  0.56146079  0.02910493  0.92830202  1.0
  H  H40  1  0.43520730  0.15847239  0.93339892  1.0
  H  H41  1  0.35594821  0.01403008  0.87954257  1.0
  H  H42  1  0.41657275  0.95896124  0.93469468  1.0
  H  H43  1  0.49361238  0.10334910  0.99042993  1.0
  H  H44  1  0.52737847  0.11515594  0.13094436  1.0
  H  H45  1  0.67076359  0.04205579  0.06336542  1.0
  H  H46  1  0.61095134  0.98756819  0.00816086  1.0
  H  H47  1  0.46712804  0.05995293  0.07600303  1.0
  H  H48  1  0.47587779  0.85052710  0.12194349  1.0
  H  H49  1  0.33057091  0.94486512  0.08617136  1.0
  H  H50  1  0.38381283  0.99850544  0.02480276  1.0
  H  H51  1  0.53008789  0.90638356  0.06270290  1.0
  H  H52  1  0.84955813  0.97992501  0.60516348  1.0
  H  H53  1  0.98075464  0.86065181  0.60710821  1.0
  H  H54  1  0.02816811  0.91061556  0.54027611  1.0
  H  H55  1  0.89732613  0.02953065  0.53837130  1.0
  H  H56  1  0.14996682  0.97841766  0.38621815  1.0
  H  H57  1  0.02309281  0.85683880  0.39066987  1.0
  H  H58  1  0.97362012  0.90933325  0.45454482  1.0
  H  H59  1  0.10027854  0.03049045  0.45035155  1.0
  H  H60  1  0.02241809  0.15353734  0.60695689  1.0
  H  H61  1  0.15437965  0.03536280  0.60132960  1.0
  H  H62  1  0.10456863  0.98675192  0.53499652  1.0
  H  H63  1  0.97268407  0.10432667  0.54098819  1.0
  H  H64  1  0.96822333  0.15960473  0.39115654  1.0
  H  H65  1  0.84449215  0.03478419  0.39043752  1.0
  H  H66  1  0.89841131  0.98362019  0.45323114  1.0
  H  H67  1  0.02161417  0.10817434  0.45423193  1.0
  H  H68  1  0.97632664  0.60091414  0.84950809  1.0
  H  H69  1  0.84745620  0.61371968  0.96094005  1.0
  H  H70  1  0.89830293  0.55075799  0.01594411  1.0
  H  H71  1  0.02701287  0.53822973  0.90470713  1.0
  H  H72  1  0.84296424  0.39827432  0.03415983  1.0
  H  H73  1  0.97088079  0.39918825  0.14844822  1.0
  H  H74  1  0.02292709  0.46438942  0.09825791  1.0
  H  H75  1  0.89674792  0.46110485  0.98277694  1.0
  H  H76  1  0.15955273  0.54197142  0.10187252  1.0
  H  H77  1  0.02825490  0.66045802  0.09690278  1.0
  H  H78  1  0.97610619  0.60328406  0.03874264  1.0
  H  H79  1  0.10649764  0.48384609  0.04454968  1.0
  H  H80  1  0.15996337  0.45220191  0.90639499  1.0
  H  H81  1  0.02199386  0.34318013  0.90666799  1.0
  H  H82  1  0.97158686  0.40405313  0.96266055  1.0
  H  H83  1  0.10874022  0.51403032  0.96185347  1.0
  C  C84  1  0.67274334  0.89501044  0.82268442  1.0
  C  C85  1  0.64031109  0.87363186  0.86185336  1.0
  C  C86  1  0.66004502  0.82028495  0.86724243  1.0
  C  C87  1  0.90058634  0.83953842  0.67804015  1.0
  C  C88  1  0.88309285  0.88680226  0.65252791  1.0
  C  C89  1  0.83303209  0.90024670  0.67635670  1.0
  C  C90  1  0.82334136  0.67001664  0.87230807  1.0
  C  C91  1  0.87844257  0.65212915  0.86851670  1.0
  C  C92  1  0.89954248  0.68301481  0.82828616  1.0
  C  C93  1  0.32525250  0.10735625  0.82634646  1.0
  C  C94  1  0.35323351  0.12319731  0.87053910  1.0
  C  C95  1  0.33485382  0.17655568  0.87823637  1.0
  C  C96  1  0.10134126  0.16901769  0.68103134  1.0
  C  C97  1  0.12125550  0.12645076  0.65088040  1.0
  C  C98  1  0.17415475  0.11558990  0.67106641  1.0
  C  C99  1  0.18112848  0.33827879  0.87350396  1.0
  C  C100  1  0.12512198  0.35344445  0.87117190  1.0
  C  C101  1  0.10275877  0.31924415  0.83413686  1.0
  C  C102  1  0.65651114  0.11571374  0.18065213  1.0
  C  C103  1  0.64180906  0.11766328  0.12930579  1.0
  C  C104  1  0.67670508  0.15700786  0.10878997  1.0
  C  C105  1  0.88243250  0.18198775  0.32491229  1.0
  C  C106  1  0.86958622  0.13220775  0.34781965  1.0
  C  C107  1  0.81946243  0.11768921  0.32448913  1.0
  C  C108  1  0.83230886  0.31659699  0.10566069  1.0
  C  C109  1  0.87296888  0.35188433  0.12400962  1.0
  C  C110  1  0.87962094  0.33627314  0.17493068  1.0
  C  C111  1  0.33401779  0.87965709  0.18333563  1.0
  C  C112  1  0.36405633  0.86074682  0.14174694  1.0
  C  C113  1  0.34730407  0.80686709  0.13664612  1.0
  C  C114  1  0.10259824  0.83535940  0.31916810  1.0
  C  C115  1  0.12090352  0.88119753  0.34559752  1.0
  C  C116  1  0.17444956  0.88955827  0.32678376  1.0
  C  C117  1  0.18576785  0.65563856  0.13525268  1.0
  C  C118  1  0.12932920  0.64286255  0.13635392  1.0
  C  C119  1  0.10778914  0.67714315  0.17374181  1.0
  C  C120  1  0.00165383  0.50263532  0.00130995  1.0
  C  C121  1  0.49536024  0.98955026  0.00092377  1.0
  C  C122  1  0.99975589  0.00791987  0.49573264  1.0
  C  C123  1  0.59681101  0.95835606  0.89440565  1.0
  C  C124  1  0.59932347  0.90144099  0.89295949  1.0
  C  C125  1  0.56288556  0.87306284  0.92437819  1.0
  C  C126  1  0.52841851  0.90003039  0.95839228  1.0
  C  C127  1  0.52884280  0.95640255  0.96221257  1.0
  C  C128  1  0.56202635  0.98496501  0.92780104  1.0
  C  C129  1  0.42993526  0.11467256  0.93420074  1.0
  C  C130  1  0.39037649  0.09078165  0.90253602  1.0
  C  C131  1  0.38650519  0.03394490  0.90343827  1.0
  C  C132  1  0.42018127  0.00293505  0.93506646  1.0
  C  C133  1  0.45853415  0.02702744  0.96802160  1.0
  C  C134  1  0.46328456  0.08332996  0.96644320  1.0
  C  C135  1  0.54581398  0.08713598  0.10395673  1.0
  C  C136  1  0.60362420  0.08353960  0.10014609  1.0
  C  C137  1  0.62593691  0.04661116  0.06563812  1.0
  C  C138  1  0.59196123  0.01587424  0.03438911  1.0
  C  C139  1  0.53441570  0.02152719  0.03603505  1.0
  C  C140  1  0.51196813  0.05640194  0.07256794  1.0
  C  C141  1  0.45537217  0.88260416  0.10019521  1.0
  C  C142  1  0.39880363  0.89293869  0.10759845  1.0
  C  C143  1  0.37433482  0.93587816  0.08052762  1.0
  C  C144  1  0.40448878  0.96597809  0.04567605  1.0
  C  C145  1  0.46047670  0.95482600  0.03708502  1.0
  C  C146  1  0.48572944  0.91372951  0.06627173  1.0
  C  C147  1  0.88859876  0.96383467  0.59098086  1.0
  C  C148  1  0.91086758  0.91580776  0.61166305  1.0
  C  C149  1  0.96158543  0.89747205  0.59205861  1.0
  C  C150  1  0.98850517  0.92573304  0.55391288  1.0
  C  C151  1  0.96599680  0.97341997  0.53309922  1.0
  C  C152  1  0.91565344  0.99203259  0.55281079  1.0
  C  C153  1  0.11158847  0.96230661  0.40142309  1.0
  C  C154  1  0.09124630  0.91271203  0.38361045  1.0
  C  C155  1  0.04078756  0.89481026  0.40363554  1.0
  C  C156  1  0.01277968  0.92447530  0.44016217  1.0
  C  C157  1  0.03386696  0.97321104  0.45884645  1.0
  C  C158  1  0.08341022  0.99191939  0.43798236  1.0
  C  C159  1  0.04120873  0.11710659  0.59124631  1.0
  C  C160  1  0.09274396  0.09868039  0.60968104  1.0
  C  C161  1  0.11478766  0.05147831  0.58791949  1.0
  C  C162  1  0.08654377  0.02384512  0.55006671  1.0
  C  C163  1  0.03514201  0.04223979  0.53186380  1.0
  C  C164  1  0.01305237  0.08934434  0.55352182  1.0
  C  C165  1  0.95199179  0.12121187  0.40483252  1.0
  C  C166  1  0.90140108  0.10193844  0.38588696  1.0
  C  C167  1  0.88315051  0.05174035  0.40441375  1.0
  C  C168  1  0.91366464  0.02267893  0.44028003  1.0
  C  C169  1  0.96351762  0.04254289  0.45985983  1.0
  C  C170  1  0.98234980  0.09207756  0.44079105  1.0
  C  C171  1  0.95881231  0.59045242  0.88620443  1.0
  C  C172  1  0.90771876  0.61280388  0.90057395  1.0
  C  C173  1  0.88674658  0.59705723  0.94789500  1.0
  C  C174  1  0.91585106  0.56135313  0.97933021  1.0
  C  C175  1  0.96715987  0.53927892  0.96514230  1.0
  C  C176  1  0.98766101  0.55462239  0.91769147  1.0
  C  C177  1  0.88288991  0.41199977  0.04839762  1.0
  C  C178  1  0.90286731  0.39287555  0.09531254  1.0
  C  C179  1  0.95367937  0.41325542  0.11239972  1.0
  C  C180  1  0.98355679  0.45001725  0.08354160  1.0
  C  C181  1  0.96464124  0.46772273  0.03594618  1.0
  C  C182  1  0.91328157  0.44814590  0.01936380  1.0
  C  C183  1  0.11936937  0.55593523  0.08774228  1.0
  C  C184  1  0.09832856  0.60614110  0.10359050  1.0
  C  C185  1  0.04568017  0.62152031  0.08564702  1.0
  C  C186  1  0.01625179  0.58903486  0.05234993  1.0
  C  C187  1  0.03735794  0.53926525  0.03563832  1.0
  C  C188  1  0.08921050  0.52306996  0.05494276  1.0
  C  C189  1  0.11869389  0.44108372  0.91912923  1.0
  C  C190  1  0.09529750  0.39238236  0.90260286  1.0
  C  C191  1  0.04134395  0.38082077  0.91852575  1.0
  C  C192  1  0.01288843  0.41540387  0.95066133  1.0
  C  C193  1  0.03633521  0.46358202  0.96822856  1.0
  C  C194  1  0.08954209  0.47608339  0.95082106  1.0
  N  N195  1  0.70116693  0.81087047  0.83405693  1.0
  N  N196  1  0.70889443  0.85728097  0.80621446  1.0
  N  N197  1  0.82189734  0.86394298  0.71313134  1.0
  N  N198  1  0.86387791  0.82616325  0.71418039  1.0
  N  N199  1  0.86012502  0.71682582  0.80992423  1.0
  N  N200  1  0.81270026  0.70866359  0.83724046  1.0
  N  N201  1  0.29851239  0.19114490  0.84155210  1.0
  N  N202  1  0.29275810  0.14818213  0.80917973  1.0
  N  N203  1  0.18459621  0.14892585  0.71019671  1.0
  N  N204  1  0.13934279  0.18215200  0.71635265  1.0
  N  N205  1  0.14249027  0.28620985  0.81592700  1.0
  N  N206  1  0.19117123  0.29769786  0.84063627  1.0
  N  N207  1  0.70982880  0.17704624  0.14531312  1.0
  N  N208  1  0.69763377  0.15119892  0.18993306  1.0
  N  N209  1  0.80391016  0.15582827  0.29046308  1.0
  N  N210  1  0.84310012  0.19579816  0.29065103  1.0
  N  N211  1  0.84558527  0.29485162  0.18586118  1.0
  N  N212  1  0.81623006  0.28267781  0.14276471  1.0
  N  N213  1  0.30955197  0.79470027  0.17247788  1.0
  N  N214  1  0.30166315  0.83990068  0.20166248  1.0
  N  N215  1  0.18677698  0.85172896  0.29191392  1.0
  N  N216  1  0.14212828  0.81806785  0.28714683  1.0
  N  N217  1  0.14833742  0.70803958  0.19326495  1.0
  N  N218  1  0.19682166  0.69497661  0.16914644  1.0
