# generated using pymatgen
data_Zn4H6C24S4Cl2O17
_symmetry_space_group_name_H-M   'P 1'
_cell_length_a   19.69197840
_cell_length_b   19.70675616
_cell_length_c   33.43880301
_cell_angle_alpha   78.97725973
_cell_angle_beta   79.01909758
_cell_angle_gamma   63.84712503
_symmetry_Int_Tables_number   1
_chemical_formula_structural   Zn4H6C24S4Cl2O17
_chemical_formula_sum   'Zn16 H24 C96 S16 Cl8 O68'
_cell_volume   11349.65890479
_cell_formula_units_Z   4
loop_
 _symmetry_equiv_pos_site_id
 _symmetry_equiv_pos_as_xyz
  1  'x, y, z'
loop_
 _atom_site_type_symbol
 _atom_site_label
 _atom_site_symmetry_multiplicity
 _atom_site_fract_x
 _atom_site_fract_y
 _atom_site_fract_z
 _atom_site_occupancy
  Zn  Zn0  1  0.05726499  0.40021306  0.47865182  1.0
  Zn  Zn1  1  0.98375109  0.48326327  0.55943459  1.0
  Zn  Zn2  1  0.05844087  0.56152416  0.48258223  1.0
  Zn  Zn3  1  0.90062652  0.55467906  0.47934819  1.0
  Zn  Zn4  1  0.69343438  0.34961555  0.27098364  1.0
  Zn  Zn5  1  0.68932858  0.19007334  0.26757186  1.0
  Zn  Zn6  1  0.76873317  0.26563142  0.19019862  1.0
  Zn  Zn7  1  0.84732500  0.19417343  0.27208191  1.0
  Zn  Zn8  1  0.26734064  0.76787391  0.68979792  1.0
  Zn  Zn9  1  0.34861860  0.69547074  0.77092056  1.0
  Zn  Zn10  1  0.19285082  0.84907532  0.77159544  1.0
  Zn  Zn11  1  0.19171931  0.68871820  0.76723106  1.0
  Zn  Zn12  1  0.56022608  0.05986746  0.98249972  1.0
  Zn  Zn13  1  0.40127807  0.05610614  0.97871379  1.0
  Zn  Zn14  1  0.55614175  0.90120174  0.97872589  1.0
  Zn  Zn15  1  0.48280824  0.98226813  0.06003165  1.0
  H  H16  1  0.46287859  0.24004434  0.34090197  1.0
  H  H17  1  0.47925639  0.70243040  0.60124620  1.0
  H  H18  1  0.20242757  0.97926529  0.60145526  1.0
  H  H19  1  0.94879179  0.97027953  0.34806287  1.0
  H  H20  1  0.54767117  0.77053096  0.14854262  1.0
  H  H21  1  0.16259939  0.14126636  0.04036020  1.0
  H  H22  1  0.30086899  0.27980520  0.90190805  1.0
  H  H23  1  0.78692195  0.01004744  0.90909038  1.0
  H  H24  1  0.81013570  0.52706604  0.41858865  1.0
  H  H25  1  0.93982823  0.22297540  0.33130064  1.0
  H  H26  1  0.72275759  0.44004572  0.33135142  1.0
  H  H27  1  0.02722983  0.30993446  0.41860773  1.0
  H  H28  1  0.13583553  0.63579287  0.52702995  1.0
  H  H29  1  0.11442979  0.61444773  0.72290185  1.0
  H  H30  1  0.22302458  0.72299895  0.61439429  1.0
  H  H31  1  0.02719555  0.52716077  0.63570620  1.0
  H  H32  1  0.72290861  0.22284904  0.11441312  1.0
  H  H33  1  0.52697392  0.02710161  0.13556155  1.0
  H  H34  1  0.63564691  0.13573563  0.02706930  1.0
  H  H35  1  0.61424745  0.11413142  0.22286747  1.0
  H  H36  1  0.22273264  0.94012558  0.83142592  1.0
  H  H37  1  0.52732482  0.80995677  0.91865845  1.0
  H  H38  1  0.31017143  0.02714938  0.91868282  1.0
  H  H39  1  0.43990015  0.72301282  0.83146520  1.0
  C  C40  1  0.06157871  0.31618853  0.56154599  1.0
  C  C41  1  0.06996250  0.57046536  0.56993869  1.0
  C  C42  1  0.18383161  0.43931729  0.43878588  1.0
  C  C43  1  0.93754612  0.68404633  0.43883658  1.0
  C  C44  1  0.93010638  0.42957583  0.43014761  1.0
  C  C45  1  0.81628858  0.56114574  0.56175140  1.0
  C  C46  1  0.56542986  0.31119388  0.31147793  1.0
  C  C47  1  0.68017733  0.17954515  0.18011595  1.0
  C  C48  1  0.68910345  0.43345225  0.18838524  1.0
  C  C49  1  0.93449832  0.18788073  0.18922973  1.0
  C  C50  1  0.81965222  0.32013257  0.32006668  1.0
  C  C51  1  0.81140718  0.06553512  0.31164785  1.0
  C  C52  1  0.43412721  0.68915903  0.68813310  1.0
  C  C53  1  0.31987045  0.82043988  0.81990942  1.0
  C  C54  1  0.18881784  0.93425492  0.68832657  1.0
  C  C55  1  0.06607953  0.81067956  0.81129706  1.0
  C  C56  1  0.18045365  0.67986808  0.67994317  1.0
  C  C57  1  0.31234305  0.56596467  0.81122724  1.0
  C  C58  1  0.43810391  0.18431038  0.93852115  1.0
  C  C59  1  0.43006358  0.93001092  0.93009578  1.0
  C  C60  1  0.68437627  0.93884638  0.93856574  1.0
  C  C61  1  0.56134801  0.81572691  0.06168495  1.0
  C  C62  1  0.57002545  0.06995153  0.06989347  1.0
  C  C63  1  0.31550291  0.06161902  0.06126878  1.0
  C  C64  1  0.90218171  0.40189571  0.40197500  1.0
  C  C65  1  0.84792421  0.34810472  0.34788145  1.0
  C  C66  1  0.82920158  0.44778974  0.38832627  1.0
  C  C67  1  0.92098069  0.30228875  0.36147772  1.0
  C  C68  1  0.80228935  0.42105078  0.36148876  1.0
  C  C69  1  0.94789469  0.32900165  0.38831699  1.0
  C  C70  1  0.09814134  0.59820417  0.59792672  1.0
  C  C71  1  0.15223084  0.65212673  0.65198324  1.0
  C  C72  1  0.14148856  0.64146438  0.58183205  1.0
  C  C73  1  0.10885515  0.60886653  0.66808072  1.0
  C  C74  1  0.16829193  0.66828873  0.60865924  1.0
  C  C75  1  0.08205591  0.58202304  0.64123783  1.0
  C  C76  1  0.30449310  0.45488584  0.40103703  1.0
  C  C77  1  0.44590756  0.29673423  0.34890849  1.0
  C  C78  1  0.25842950  0.41571781  0.41393041  1.0
  C  C79  1  0.49077245  0.33662874  0.33649621  1.0
  C  C80  1  0.37773129  0.33980085  0.37248981  1.0
  C  C81  1  0.37257464  0.41146195  0.37738102  1.0
  C  C82  1  0.72604791  0.57587637  0.62979924  1.0
  C  C83  1  0.52406822  0.67361765  0.62117231  1.0
  C  C84  1  0.74236201  0.58538259  0.58718463  1.0
  C  C85  1  0.50915266  0.66367092  0.66353505  1.0
  C  C86  1  0.60331504  0.64154113  0.60874102  1.0
  C  C87  1  0.64659947  0.60800233  0.64204975  1.0
  C  C88  1  0.07592981  0.22599712  0.62965846  1.0
  C  C89  1  0.17362792  0.02410538  0.62131464  1.0
  C  C90  1  0.08550244  0.24226364  0.58702842  1.0
  C  C91  1  0.16361481  0.00926456  0.66368249  1.0
  C  C92  1  0.14160603  0.10328588  0.60877040  1.0
  C  C93  1  0.10801883  0.14661118  0.64201628  1.0
  C  C94  1  0.84312134  0.80066600  0.39713604  1.0
  C  C95  1  0.90457527  0.94971869  0.35257250  1.0
  C  C96  1  0.91171504  0.75836090  0.41374128  1.0
  C  C97  1  0.83594017  0.99071023  0.33644802  1.0
  C  C98  1  0.90745370  0.88013168  0.37477904  1.0
  C  C99  1  0.84077924  0.87015320  0.37492196  1.0
  C  C100  1  0.65198223  0.15188359  0.15205456  1.0
  C  C101  1  0.59796225  0.09794639  0.09789366  1.0
  C  C102  1  0.66809548  0.16808665  0.10874250  1.0
  C  C103  1  0.58179749  0.08184645  0.14120693  1.0
  C  C104  1  0.64130204  0.14127358  0.08186753  1.0
  C  C105  1  0.60857454  0.10864635  0.16807018  1.0
  C  C106  1  0.67411119  0.52380703  0.12027343  1.0
  C  C107  1  0.57650832  0.72571419  0.12866857  1.0
  C  C108  1  0.66468910  0.50744614  0.16289288  1.0
  C  C109  1  0.58652059  0.74067008  0.08629331  1.0
  C  C110  1  0.60843595  0.64650464  0.14119338  1.0
  C  C111  1  0.64196513  0.60322812  0.10792278  1.0
  C  C112  1  0.08176540  0.12399053  0.17803490  1.0
  C  C113  1  0.17001962  0.12488470  0.07273883  1.0
  C  C114  1  0.00965662  0.16282922  0.16493063  1.0
  C  C115  1  0.24103261  0.08624504  0.08648281  1.0
  C  C116  1  0.11163666  0.13879238  0.10612374  1.0
  C  C117  1  0.13989355  0.11030151  0.14443736  1.0
  C  C118  1  0.34791385  0.84829171  0.84794203  1.0
  C  C119  1  0.40206277  0.90214676  0.90208319  1.0
  C  C120  1  0.30219001  0.92119026  0.86160582  1.0
  C  C121  1  0.44778309  0.82920440  0.88845538  1.0
  C  C122  1  0.32904188  0.94793377  0.88844733  1.0
  C  C123  1  0.42087836  0.80245468  0.86160597  1.0
  C  C124  1  0.40681250  0.44918446  0.85285942  1.0
  C  C125  1  0.34517033  0.30023916  0.89745030  1.0
  C  C126  1  0.33817985  0.49154650  0.83626985  1.0
  C  C127  1  0.41376809  0.25908521  0.91361336  1.0
  C  C128  1  0.34246078  0.36973883  0.87520946  1.0
  C  C129  1  0.40917587  0.37963681  0.87506523  1.0
  C  C130  1  0.94531589  0.79519006  0.84898837  1.0
  C  C131  1  0.80388656  0.95332600  0.90113819  1.0
  C  C132  1  0.99138073  0.83435775  0.83607724  1.0
  C  C133  1  0.75909990  0.91336649  0.91362859  1.0
  C  C134  1  0.87200894  0.91028490  0.87751750  1.0
  C  C135  1  0.87720877  0.83858481  0.87265274  1.0
  S  S136  1  0.29862722  0.32622810  0.39705079  1.0
  S  S137  1  0.45099129  0.42616633  0.35315946  1.0
  S  S138  1  0.66065359  0.63332680  0.56244650  1.0
  S  S139  1  0.59044135  0.61568222  0.68854126  1.0
  S  S140  1  0.13346989  0.16053606  0.56241411  1.0
  S  S141  1  0.11560816  0.09056427  0.68857397  1.0
  S  S142  1  0.97280764  0.80374889  0.40205752  1.0
  S  S143  1  0.77468623  0.94566643  0.34793110  1.0
  S  S144  1  0.61664068  0.58917166  0.18753658  1.0
  S  S145  1  0.63445228  0.65936684  0.06137840  1.0
  S  S146  1  0.01347477  0.18235035  0.11168201  1.0
  S  S147  1  0.23771510  0.06653911  0.13964288  1.0
  S  S148  1  0.27709988  0.44614507  0.84794263  1.0
  S  S149  1  0.47518089  0.30399127  0.90208016  1.0
  S  S150  1  0.95110734  0.92388703  0.85293927  1.0
  S  S151  1  0.79885724  0.82382817  0.89695067  1.0
  Cl  Cl152  1  0.28547283  0.54347742  0.41122208  1.0
  Cl  Cl153  1  0.79014286  0.53212820  0.66459314  1.0
  Cl  Cl154  1  0.03221907  0.29006340  0.66440445  1.0
  Cl  Cl155  1  0.76907169  0.77582320  0.40161713  1.0
  Cl  Cl156  1  0.71773656  0.45974910  0.08552598  1.0
  Cl  Cl157  1  0.10201872  0.09497504  0.22746802  1.0
  Cl  Cl158  1  0.48087461  0.47398666  0.84840593  1.0
  Cl  Cl159  1  0.96443876  0.70659562  0.83877449  1.0
  O  O160  1  0.00050573  0.49938875  0.49944728  1.0
  O  O161  1  0.07807219  0.31447813  0.52260266  1.0
  O  O162  1  0.03101760  0.53126936  0.58524984  1.0
  O  O163  1  0.15498454  0.50508104  0.45076449  1.0
  O  O164  1  0.02675519  0.37541860  0.58008556  1.0
  O  O165  1  0.15429581  0.39100116  0.44622764  1.0
  O  O166  1  0.08474341  0.58600849  0.53083279  1.0
  O  O167  1  0.00412248  0.65854874  0.45014920  1.0
  O  O168  1  0.88738828  0.49558275  0.44221167  1.0
  O  O169  1  0.89238930  0.65137624  0.44730371  1.0
  O  O170  1  0.99635676  0.38722167  0.44208303  1.0
  O  O171  1  0.87572736  0.52661355  0.58018112  1.0
  O  O172  1  0.81437699  0.57711294  0.52278730  1.0
  O  O173  1  0.74911592  0.25028889  0.25025532  1.0
  O  O174  1  0.59656363  0.35802138  0.30336758  1.0
  O  O175  1  0.66470629  0.16439869  0.21921461  1.0
  O  O176  1  0.72456139  0.37404748  0.17002612  1.0
  O  O177  1  0.59254059  0.24492187  0.30005692  1.0
  O  O178  1  0.67227075  0.43542393  0.22731966  1.0
  O  O179  1  0.71973318  0.21817581  0.16490344  1.0
  O  O180  1  0.87701503  0.22274346  0.16880394  1.0
  O  O181  1  0.86190092  0.25368149  0.30838683  1.0
  O  O182  1  0.93236854  0.17311020  0.22815377  1.0
  O  O183  1  0.75346150  0.36250603  0.30804218  1.0
  O  O184  1  0.74507097  0.09302881  0.29996262  1.0
  O  O185  1  0.85817544  0.09653005  0.30394621  1.0
  O  O186  1  0.24968457  0.75087863  0.74979686  1.0
  O  O187  1  0.37583013  0.72444524  0.66865924  1.0
  O  O188  1  0.36249563  0.75434776  0.80791177  1.0
  O  O189  1  0.17279721  0.93402997  0.72730588  1.0
  O  O190  1  0.43409155  0.67354794  0.72713348  1.0
  O  O191  1  0.22428805  0.87616713  0.66875023  1.0
  O  O192  1  0.25352042  0.86265995  0.80804649  1.0
  O  O193  1  0.09557707  0.85906082  0.80384877  1.0
  O  O194  1  0.16561720  0.66427188  0.71903522  1.0
  O  O195  1  0.09523035  0.74486633  0.79935921  1.0
  O  O196  1  0.21944774  0.71911708  0.66465913  1.0
  O  O197  1  0.35750746  0.59867413  0.80289823  1.0
  O  O198  1  0.24582570  0.59165776  0.79983022  1.0
  O  O199  1  0.50006026  0.99994056  0.99999280  1.0
  O  O200  1  0.50465088  0.15663791  0.94996787  1.0
  O  O201  1  0.38763468  0.99623374  0.94203737  1.0
  O  O202  1  0.65324067  0.89200066  0.94661099  1.0
  O  O203  1  0.39110641  0.15355976  0.94656918  1.0
  O  O204  1  0.65710726  0.00511444  0.94999284  1.0
  O  O205  1  0.49630897  0.88758230  0.94204348  1.0
  O  O206  1  0.57732217  0.81591308  0.02269282  1.0
  O  O207  1  0.53093803  0.03080605  0.08513150  1.0
  O  O208  1  0.52592244  0.87393643  0.08116355  1.0
  O  O209  1  0.58529144  0.08519834  0.03078318  1.0
  O  O210  1  0.31536252  0.07784832  0.02239852  1.0
  O  O211  1  0.37407059  0.02593619  0.08068263  1.0
  O  O212  1  0.78265861  0.51745730  0.39984121  1.0
  O  O213  1  0.96750464  0.23263489  0.34990354  1.0
  O  O214  1  0.73257739  0.46758860  0.34994779  1.0
  O  O215  1  0.01757500  0.28240093  0.39992057  1.0
  O  O216  1  0.15905457  0.65883483  0.54118219  1.0
  O  O217  1  0.09123013  0.59146927  0.70871423  1.0
  O  O218  1  0.20894830  0.70896156  0.59119196  1.0
  O  O219  1  0.04144401  0.54137950  0.65877122  1.0
  O  O220  1  0.70866405  0.20880750  0.09128135  1.0
  O  O221  1  0.54114092  0.04120139  0.15869482  1.0
  O  O222  1  0.65885859  0.15875792  0.04122509  1.0
  O  O223  1  0.59101018  0.09113650  0.20869862  1.0
  O  O224  1  0.23248796  0.96769525  0.85004044  1.0
  O  O225  1  0.51745828  0.78255996  0.90000993  1.0
  O  O226  1  0.28247559  0.01759180  0.90004696  1.0
  O  O227  1  0.46737498  0.73277243  0.85014195  1.0
