# generated using pymatgen
data_Zn4H39C45N9O13
_symmetry_space_group_name_H-M   'P 1'
_cell_length_a   15.00978747
_cell_length_b   15.15044789
_cell_length_c   15.50051209
_cell_angle_alpha   97.00533222
_cell_angle_beta   97.56001815
_cell_angle_gamma   90.99672204
_symmetry_Int_Tables_number   1
_chemical_formula_structural   Zn4H39C45N9O13
_chemical_formula_sum   'Zn4 H39 C45 N9 O13'
_cell_volume   3466.16511657
_cell_formula_units_Z   1
loop_
 _symmetry_equiv_pos_site_id
 _symmetry_equiv_pos_as_xyz
  1  'x, y, z'
loop_
 _atom_site_type_symbol
 _atom_site_label
 _atom_site_symmetry_multiplicity
 _atom_site_fract_x
 _atom_site_fract_y
 _atom_site_fract_z
 _atom_site_occupancy
  Zn  Zn0  1  0.44841616  0.44251023  0.58993687  1.0
  Zn  Zn1  1  0.40085359  0.56242248  0.43198263  1.0
  Zn  Zn2  1  0.55630864  0.41892338  0.42204914  1.0
  Zn  Zn3  1  0.57862166  0.59382226  0.56455850  1.0
  H  H4  1  0.42153770  0.81657764  0.34063306  1.0
  H  H5  1  0.25740423  0.41500932  0.00357084  1.0
  H  H6  1  0.65356230  0.53952554  0.07580626  1.0
  H  H7  1  0.25486457  0.33028521  0.12297158  1.0
  H  H8  1  0.16578950  0.46134006  0.15444359  1.0
  H  H9  1  0.23790645  0.48193797  0.25662352  1.0
  H  H10  1  0.16796782  0.38377286  0.23315459  1.0
  H  H11  1  0.57336824  0.18203878  0.73994485  1.0
  H  H12  1  0.54849641  0.26814726  0.67916689  1.0
  H  H13  1  0.13987766  0.23593535  0.50602967  1.0
  H  H14  1  0.31759742  0.27697946  0.49822176  1.0
  H  H15  1  0.56075971  0.03465454  0.67902741  1.0
  H  H16  1  0.25850568  0.32715039  0.41051765  1.0
  H  H17  1  0.24361817  0.21132351  0.41416376  1.0
  H  H18  1  0.90313692  0.30737527  0.56230776  1.0
  H  H19  1  0.78528299  0.28526251  0.63048160  1.0
  H  H20  1  0.71433552  0.31744689  0.53871265  1.0
  H  H21  1  0.75842494  0.39904847  0.62716357  1.0
  H  H22  1  0.58549445  0.60931022  0.16009922  1.0
  H  H23  1  0.57467078  0.54584307  0.24236685  1.0
  H  H24  1  0.77924478  0.65420074  0.85956345  1.0
  H  H25  1  0.69949126  0.64750920  0.76590433  1.0
  H  H26  1  0.43251996  0.97711653  0.32117899  1.0
  H  H27  1  0.78865210  0.61158960  0.05992648  1.0
  H  H28  1  0.82300222  0.46498353  0.98518095  1.0
  H  H29  1  0.90993716  0.54909964  0.99123653  1.0
  H  H30  1  0.83474881  0.52088220  0.89247787  1.0
  H  H31  1  0.41538942  0.63076798  0.76691773  1.0
  H  H32  1  0.27113102  0.62383049  0.69928284  1.0
  H  H33  1  0.23880563  0.61312612  0.80452204  1.0
  H  H34  1  0.25517867  0.51639695  0.73057408  1.0
  H  H35  1  0.55844854  0.80422481  0.62879374  1.0
  H  H36  1  0.58897481  0.91373431  0.67244410  1.0
  H  H37  1  0.47454677  0.13388304  0.38720458  1.0
  H  H38  1  0.14192307  0.59152517  0.49820018  1.0
  H  H39  1  0.99471433  0.65883138  0.49242557  1.0
  H  H40  1  0.00843358  0.29420285  0.51340559  1.0
  H  H41  1  0.82977008  0.64170053  0.49554224  1.0
  H  H42  1  0.28187834  0.49217017  0.88236085  1.0
  C  C43  1  0.47828283  0.73860790  0.48106034  1.0
  C  C44  1  0.48779720  0.51069105  0.12960369  1.0
  C  C45  1  0.34234231  0.43131171  0.12701955  1.0
  C  C46  1  0.51502409  0.26948153  0.51159662  1.0
  C  C47  1  0.56844559  0.57605549  0.83741083  1.0
  C  C48  1  0.48113883  0.83502540  0.47627578  1.0
  C  C49  1  0.51909571  0.17361081  0.52297884  1.0
  C  C50  1  0.54289018  0.05457955  0.61380862  1.0
  C  C51  1  0.54351116  0.14567127  0.60805336  1.0
  C  C52  1  0.49332363  0.11050688  0.45075387  1.0
  C  C53  1  0.48819390  0.01853127  0.45726048  1.0
  C  C54  1  0.68782107  0.58535950  0.96071004  1.0
  C  C55  1  0.51640853  0.99031075  0.54101295  1.0
  C  C56  1  0.51700127  0.89629498  0.54936785  1.0
  C  C57  1  0.44885636  0.86619209  0.39497767  1.0
  C  C58  1  0.26584511  0.47749761  0.52012602  1.0
  C  C59  1  0.45446608  0.95451209  0.38449914  1.0
  C  C60  1  0.16784176  0.45514403  0.50813411  1.0
  C  C61  1  0.83197278  0.50220470  0.51045274  1.0
  C  C62  1  0.96382667  0.59497584  0.49972647  1.0
  C  C63  1  0.87353935  0.58563994  0.50183144  1.0
  C  C64  1  0.88480045  0.42764378  0.52296718  1.0
  C  C65  1  0.62689423  0.55682279  0.01152863  1.0
  C  C66  1  0.98022147  0.43488968  0.51506910  1.0
  C  C67  1  0.01850080  0.51961681  0.50504608  1.0
  C  C68  1  0.11146471  0.52654702  0.50229415  1.0
  C  C69  1  0.12912143  0.36814629  0.50952329  1.0
  C  C70  1  0.73246748  0.50210926  0.50081039  1.0
  C  C71  1  0.03668981  0.36150644  0.51510719  1.0
  C  C72  1  0.44416948  0.46775315  0.26959376  1.0
  C  C73  1  0.54885853  0.55621988  0.74068835  1.0
  C  C74  1  0.32215405  0.44075994  0.03917663  1.0
  C  C75  1  0.42507519  0.46876542  0.17377287  1.0
  C  C76  1  0.53291567  0.54534715  0.98289901  1.0
  C  C77  1  0.65895319  0.59901486  0.87205641  1.0
  C  C78  1  0.20948694  0.42997265  0.20455445  1.0
  C  C79  1  0.25347195  0.27635095  0.45478059  1.0
  C  C80  1  0.77354066  0.33722350  0.58719899  1.0
  C  C81  1  0.84002954  0.52969941  0.96432674  1.0
  C  C82  1  0.28032957  0.58489521  0.75475705  1.0
  C  C83  1  0.50393815  0.55646713  0.89341093  1.0
  C  C84  1  0.46937498  0.51456102  0.03708515  1.0
  C  C85  1  0.38208708  0.48479492  0.99405831  1.0
  C  C86  1  0.35257500  0.50550601  0.90829686  1.0
  C  C87  1  0.40815927  0.54969019  0.86195806  1.0
  N  N88  1  0.28284614  0.38064180  0.16877740  1.0
  N  N89  1  0.57157250  0.20561268  0.68135493  1.0
  N  N90  1  0.17732678  0.29154687  0.50336796  1.0
  N  N91  1  0.85383146  0.34949873  0.54645661  1.0
  N  N92  1  0.56663743  0.54981320  0.17691617  1.0
  N  N93  1  0.72241935  0.62542453  0.82369443  1.0
  N  N94  1  0.78060091  0.60056809  0.99316675  1.0
  N  N95  1  0.37467055  0.58719789  0.78886008  1.0
  N  N96  1  0.54883501  0.87059466  0.62874716  1.0
  O  O97  1  0.49526032  0.50230428  0.50036557  1.0
  O  O98  1  0.38224851  0.49017207  0.31644566  1.0
  O  O99  1  0.58294492  0.60928632  0.69359136  1.0
  O  O100  1  0.52377556  0.44684147  0.30168431  1.0
  O  O101  1  0.50327108  0.48490588  0.70954487  1.0
  O  O102  1  0.31728197  0.43209374  0.56941472  1.0
  O  O103  1  0.69807018  0.57413612  0.53303528  1.0
  O  O104  1  0.42849871  0.68737396  0.42082484  1.0
  O  O105  1  0.52734027  0.29358187  0.43784338  1.0
  O  O106  1  0.52636616  0.70950974  0.54648135  1.0
  O  O107  1  0.49805320  0.32221437  0.57840549  1.0
  O  O108  1  0.29105071  0.54432518  0.48511510  1.0
  O  O109  1  0.68780902  0.43469479  0.45716054  1.0
