# generated using pymatgen
data_AlH5C18O8F3
_symmetry_space_group_name_H-M   'P 1'
_cell_length_a   6.67080667
_cell_length_b   21.92251930
_cell_length_c   25.01022030
_cell_angle_alpha   83.41070143
_cell_angle_beta   89.99980703
_cell_angle_gamma   89.99850125
_symmetry_Int_Tables_number   1
_chemical_formula_structural   AlH5C18O8F3
_chemical_formula_sum   'Al4 H20 C72 O32 F12'
_cell_volume   3633.35605646
_cell_formula_units_Z   4
loop_
 _symmetry_equiv_pos_site_id
 _symmetry_equiv_pos_as_xyz
  1  'x, y, z'
loop_
 _atom_site_type_symbol
 _atom_site_label
 _atom_site_symmetry_multiplicity
 _atom_site_fract_x
 _atom_site_fract_y
 _atom_site_fract_z
 _atom_site_occupancy
  Al  Al0  1  0.79814067  0.24921881  0.75192392  1.0
  Al  Al1  1  0.20085102  0.75069048  0.24801181  1.0
  Al  Al2  1  0.29814263  0.25077869  0.74807568  1.0
  Al  Al3  1  0.70085056  0.74930635  0.25198571  1.0
  H  H4  1  0.28090692  0.90239746  0.45949230  1.0
  H  H5  1  0.72052516  0.10014723  0.53840424  1.0
  H  H6  1  0.78089074  0.59758170  0.04050648  1.0
  H  H7  1  0.22051755  0.39984018  0.96160065  1.0
  H  H8  1  0.78731036  0.90824091  0.91348632  1.0
  H  H9  1  0.31758628  0.08841520  0.07403111  1.0
  H  H10  1  0.28729061  0.59173829  0.58653022  1.0
  H  H11  1  0.81770003  0.41158611  0.42598733  1.0
  H  H12  1  0.22176464  0.89264566  0.92993683  1.0
  H  H13  1  0.67060956  0.08865496  0.07145908  1.0
  H  H14  1  0.72173375  0.60735708  0.57007802  1.0
  H  H15  1  0.17066133  0.41134519  0.42854530  1.0
  H  H16  1  0.63825937  0.04430146  0.90618520  1.0
  H  H17  1  0.36488757  0.89711554  0.04665210  1.0
  H  H18  1  0.13821103  0.45572058  0.59381072  1.0
  H  H19  1  0.86485529  0.60290008  0.45335256  1.0
  H  H20  1  0.54829413  0.17570963  0.73234143  1.0
  H  H21  1  0.45128360  0.82753926  0.26059048  1.0
  H  H22  1  0.04828049  0.32429045  0.76765338  1.0
  H  H23  1  0.95129743  0.67246017  0.23939975  1.0
  C  C24  1  0.55430515  0.32852936  0.67373783  1.0
  C  C25  1  0.44489035  0.67281797  0.32727101  1.0
  C  C26  1  0.05429350  0.17147271  0.82626260  1.0
  C  C27  1  0.94488413  0.82717795  0.17272567  1.0
  C  C28  1  0.54528484  0.31689585  0.82015891  1.0
  C  C29  1  0.45403222  0.68118914  0.18133059  1.0
  C  C30  1  0.04530550  0.18311014  0.67983266  1.0
  C  C31  1  0.95400242  0.81880504  0.31866851  1.0
  C  C32  1  0.81330152  0.93901756  0.41117072  1.0
  C  C33  1  0.18563915  0.06231800  0.58796265  1.0
  C  C34  1  0.31330539  0.56097768  0.08883604  1.0
  C  C35  1  0.68559341  0.43769297  0.91202405  1.0
  C  C36  1  0.80352055  0.89960434  0.37138448  1.0
  C  C37  1  0.19563897  0.10205809  0.62746805  1.0
  C  C38  1  0.30352501  0.60039163  0.12862430  1.0
  C  C39  1  0.69558817  0.39795528  0.87251703  1.0
  C  C40  1  0.96277142  0.86008490  0.36221842  1.0
  C  C41  1  0.03694574  0.14191811  0.63628805  1.0
  C  C42  1  0.46277235  0.63990744  0.13778391  1.0
  C  C43  1  0.53691199  0.35809109  0.86370028  1.0
  C  C44  1  0.13177415  0.86270580  0.39585763  1.0
  C  C45  1  0.86837924  0.13943489  0.60244676  1.0
  C  C46  1  0.63176873  0.63728520  0.10413630  1.0
  C  C47  1  0.36835784  0.36056647  0.89754678  1.0
  C  C48  1  0.14577800  0.90198008  0.43518980  1.0
  C  C49  1  0.85463622  0.10005828  0.56317010  1.0
  C  C50  1  0.64576748  0.59801014  0.06480574  1.0
  C  C51  1  0.35462742  0.39993741  0.93682951  1.0
  C  C52  1  0.98483818  0.94151936  0.44346502  1.0
  C  C53  1  0.01480704  0.06006899  0.55537813  1.0
  C  C54  1  0.48482169  0.55847554  0.05653367  1.0
  C  C55  1  0.51478018  0.43993349  0.94461787  1.0
  C  C56  1  0.99466255  0.98274497  0.48268237  1.0
  C  C57  1  0.00493321  0.01865255  0.51634656  1.0
  C  C58  1  0.49462313  0.51725238  0.01731430  1.0
  C  C59  1  0.50489329  0.48135036  0.98365025  1.0
  C  C60  1  0.10847021  0.97538801  0.96167598  1.0
  C  C61  1  0.88920375  0.02571045  0.03826369  1.0
  C  C62  1  0.60846637  0.52461745  0.53832801  1.0
  C  C63  1  0.38922567  0.47429279  0.46173864  1.0
  C  C64  1  0.89435799  0.95354063  0.98204397  1.0
  C  C65  1  0.11061647  0.04653320  0.01877218  1.0
  C  C66  1  0.39435351  0.54646019  0.51796081  1.0
  C  C67  1  0.61065694  0.45348030  0.48122774  1.0
  C  C68  1  0.93630035  0.87128463  0.12523785  1.0
  C  C69  1  0.06314410  0.12783527  0.87404836  1.0
  C  C70  1  0.43629630  0.62870857  0.37475925  1.0
  C  C71  1  0.56316755  0.37216652  0.62595368  1.0
  C  C72  1  0.17539888  0.97811534  0.02288221  1.0
  C  C73  1  0.82577984  0.02405114  0.97874628  1.0
  C  C74  1  0.67540780  0.52189265  0.47711889  1.0
  C  C75  1  0.32581161  0.47595238  0.52125813  1.0
  C  C76  1  0.95706231  0.95598531  0.04248892  1.0
  C  C77  1  0.04400855  0.04488157  0.95813353  1.0
  C  C78  1  0.45706006  0.54402254  0.45751738  1.0
  C  C79  1  0.54403787  0.45512179  0.54186810  1.0
  C  C80  1  0.92991287  0.91035688  0.08663378  1.0
  C  C81  1  0.07043395  0.09025956  0.91372450  1.0
  C  C82  1  0.42989523  0.58964134  0.41336732  1.0
  C  C83  1  0.57047863  0.40974106  0.58627553  1.0
  C  C84  1  0.76888504  0.90785268  0.95801466  1.0
  C  C85  1  0.20831435  0.09987633  0.04085548  1.0
  C  C86  1  0.26888830  0.59214437  0.54199900  1.0
  C  C87  1  0.70834323  0.40013169  0.45914203  1.0
  C  C88  1  0.23423021  0.94389452  0.92424933  1.0
  C  C89  1  0.79137146  0.05482093  0.08299347  1.0
  C  C90  1  0.73422468  0.55610742  0.57575667  1.0
  C  C91  1  0.29139646  0.44518480  0.41700967  1.0
  C  C92  1  0.64347716  0.04893633  0.95002947  1.0
  C  C93  1  0.35641264  0.94761430  0.04797349  1.0
  C  C94  1  0.14351671  0.45105104  0.54997341  1.0
  C  C95  1  0.85642672  0.55240083  0.45204647  1.0
  O  O96  1  0.37871048  0.30372084  0.79985540  1.0
  O  O97  1  0.62042519  0.69447920  0.20165136  1.0
  O  O98  1  0.87873924  0.19627952  0.70014176  1.0
  O  O99  1  0.12041278  0.80551655  0.29834537  1.0
  O  O100  1  0.72173676  0.31191534  0.69482462  1.0
  O  O101  1  0.27747073  0.68943346  0.30620876  1.0
  O  O102  1  0.22173444  0.18808038  0.80517581  1.0
  O  O103  1  0.77748068  0.81056663  0.19378713  1.0
  O  O104  1  0.71669825  0.29914565  0.80624677  1.0
  O  O105  1  0.28226203  0.69897794  0.19496178  1.0
  O  O106  1  0.21672619  0.20086152  0.69374637  1.0
  O  O107  1  0.78224744  0.80101948  0.30503694  1.0
  O  O108  1  0.87968333  0.18778314  0.80976108  1.0
  O  O109  1  0.11936240  0.81045376  0.18896686  1.0
  O  O110  1  0.37968669  0.31222188  0.69023888  1.0
  O  O111  1  0.61935888  0.68954362  0.31103148  1.0
  O  O112  1  0.54746342  0.21302278  0.74977505  1.0
  O  O113  1  0.45151928  0.78685098  0.24895513  1.0
  O  O114  1  0.04745772  0.28697224  0.75022742  1.0
  O  O115  1  0.95152796  0.71314580  0.25104155  1.0
  O  O116  1  0.64869551  0.87349160  0.98304699  1.0
  O  O117  1  0.16124141  0.15249117  0.02462136  1.0
  O  O118  1  0.14872759  0.62652323  0.51697064  1.0
  O  O119  1  0.66115921  0.34751995  0.47535443  1.0
  O  O120  1  0.34826198  0.96985455  0.89079175  1.0
  O  O121  1  0.85037354  0.04307142  0.12917171  1.0
  O  O122  1  0.84827627  0.53014385  0.60920982  1.0
  O  O123  1  0.35036362  0.45694581  0.37083058  1.0
  O  O124  1  0.50743992  0.07387569  0.97200294  1.0
  O  O125  1  0.48720660  0.97484930  0.06986421  1.0
  O  O126  1  0.00759284  0.42606168  0.52800337  1.0
  O  O127  1  0.98730126  0.52516079  0.43018753  1.0
  F  F128  1  0.65453798  0.97565983  0.41809805  1.0
  F  F129  1  0.34347479  0.02499626  0.58168882  1.0
  F  F130  1  0.15453162  0.52432855  0.08191521  1.0
  F  F131  1  0.84340325  0.47502249  0.91828776  1.0
  F  F132  1  0.63676718  0.90222883  0.34087423  1.0
  F  F133  1  0.36195912  0.09918897  0.65834492  1.0
  F  F134  1  0.13679247  0.59776973  0.15913175  1.0
  F  F135  1  0.86190245  0.40083267  0.84163286  1.0
  F  F136  1  0.28829663  0.82442180  0.39112021  1.0
  F  F137  1  0.71223452  0.17777752  0.60707735  1.0
  F  F138  1  0.78829084  0.67557689  0.10886803  1.0
  F  F139  1  0.21223148  0.32222290  0.89291904  1.0
