# generated using pymatgen
data_ZnH30C45(NO)4
_symmetry_space_group_name_H-M   'P 1'
_cell_length_a   13.26875279
_cell_length_b   14.92912026
_cell_length_c   14.92916455
_cell_angle_alpha   113.40944440
_cell_angle_beta   98.07895165
_cell_angle_gamma   98.07860246
_symmetry_Int_Tables_number   1
_chemical_formula_structural   ZnH30C45(NO)4
_chemical_formula_sum   'Zn2 H60 C90 N8 O8'
_cell_volume   2623.47064715
_cell_formula_units_Z   2
loop_
 _symmetry_equiv_pos_site_id
 _symmetry_equiv_pos_as_xyz
  1  'x, y, z'
loop_
 _atom_site_type_symbol
 _atom_site_label
 _atom_site_symmetry_multiplicity
 _atom_site_fract_x
 _atom_site_fract_y
 _atom_site_fract_z
 _atom_site_occupancy
  Zn  Zn0  1  0.25000298  0.87914981  0.12085718  1.0
  Zn  Zn1  1  0.74999698  0.12086252  0.87914070  1.0
  H  H2  1  0.31614355  0.61846760  0.13654525  1.0
  H  H3  1  0.18385025  0.86345355  0.38152846  1.0
  H  H4  1  0.68385922  0.38153715  0.86345591  1.0
  H  H5  1  0.81614041  0.13654822  0.61847195  1.0
  H  H6  1  0.37558555  0.46252113  0.12218437  1.0
  H  H7  1  0.12440844  0.87781019  0.53747292  1.0
  H  H8  1  0.62440771  0.53748522  0.87781222  1.0
  H  H9  1  0.87558530  0.12219167  0.46252122  1.0
  H  H10  1  0.48574964  0.34030281  0.05385913  1.0
  H  H11  1  0.01425003  0.94613516  0.65968966  1.0
  H  H12  1  0.51424411  0.65968920  0.94613902  1.0
  H  H13  1  0.98574407  0.05385837  0.34030781  1.0
  H  H14  1  0.18506627  0.68974397  0.94667792  1.0
  H  H15  1  0.31492782  0.05333706  0.31025873  1.0
  H  H16  1  0.81493003  0.31025920  0.05332847  1.0
  H  H17  1  0.68507335  0.94667067  0.68974478  1.0
  H  H18  1  0.06903176  0.61470292  0.78021722  1.0
  H  H19  1  0.43095994  0.21979368  0.38529412  1.0
  H  H20  1  0.93095747  0.38530257  0.21978654  1.0
  H  H21  1  0.56904722  0.78021029  0.61470794  1.0
  H  H22  1  0.98461275  0.90197319  0.85074202  1.0
  H  H23  1  0.51538121  0.14926107  0.09803079  1.0
  H  H24  1  0.01537669  0.09803315  0.14925542  1.0
  H  H25  1  0.48462823  0.85074288  0.90197222  1.0
  H  H26  1  0.10493491  0.96368532  0.01576103  1.0
  H  H27  1  0.39505607  0.98424703  0.03631613  1.0
  H  H28  1  0.89505856  0.03631872  0.98423865  1.0
  H  H29  1  0.60494670  0.01575770  0.96368569  1.0
  H  H30  1  0.97457995  0.55931710  0.64955067  1.0
  H  H31  1  0.52541148  0.35045647  0.44068744  1.0
  H  H32  1  0.02541312  0.44068528  0.35045834  1.0
  H  H33  1  0.47459049  0.64954149  0.55931418  1.0
  H  H34  1  0.86192989  0.49222849  0.48339310  1.0
  H  H35  1  0.63808225  0.51660866  0.50777482  1.0
  H  H36  1  0.13807411  0.50777168  0.51661103  1.0
  H  H37  1  0.36192503  0.48338925  0.49222946  1.0
  H  H38  1  0.78168613  0.77860231  0.55042105  1.0
  H  H39  1  0.71831610  0.44958372  0.22140235  1.0
  H  H40  1  0.21832529  0.22140694  0.44958036  1.0
  H  H41  1  0.28168562  0.55041647  0.77860149  1.0
  H  H42  1  0.89323061  0.84720958  0.71721599  1.0
  H  H43  1  0.60676306  0.28278623  0.15278545  1.0
  H  H44  1  0.10677638  0.15278700  0.28277766  1.0
  H  H45  1  0.39324036  0.71721473  0.84721691  1.0
  H  H46  1  0.91294853  0.72231421  0.41192921  1.0
  H  H47  1  0.58705459  0.58807077  0.27767599  1.0
  H  H48  1  0.08705011  0.27767258  0.58806541  1.0
  H  H49  1  0.41294838  0.41192493  0.72232551  1.0
  H  H50  1  0.91252464  0.82107069  0.31423781  1.0
  H  H51  1  0.58747328  0.68576906  0.17893308  1.0
  H  H52  1  0.08747757  0.17892502  0.68576292  1.0
  H  H53  1  0.41252114  0.31422590  0.82106903  1.0
  H  H54  1  0.58713731  0.83108474  0.17079670  1.0
  H  H55  1  0.91286460  0.82920775  0.16892015  1.0
  H  H56  1  0.41285965  0.16891787  0.82919749  1.0
  H  H57  1  0.08713811  0.17079018  0.83108356  1.0
  H  H58  1  0.59364341  0.92856990  0.07158180  1.0
  H  H59  1  0.90636665  0.92841431  0.07143037  1.0
  H  H60  1  0.40636555  0.07143190  0.92841424  1.0
  H  H61  1  0.09364209  0.07157994  0.92856658  1.0
  C  C62  1  0.37604386  0.74166221  0.05263400  1.0
  C  C63  1  0.12394943  0.94736471  0.25833687  1.0
  C  C64  1  0.62395388  0.25834044  0.94735762  1.0
  C  C65  1  0.87605475  0.05263623  0.74166626  1.0
  C  C66  1  0.41205862  0.64746195  0.04142368  1.0
  C  C67  1  0.08793347  0.95857595  0.35253238  1.0
  C  C68  1  0.58792996  0.35253747  0.95858288  1.0
  C  C69  1  0.91207105  0.04142651  0.64747074  1.0
  C  C70  1  0.37269267  0.59137733  0.09172843  1.0
  C  C71  1  0.12730726  0.90827557  0.40861809  1.0
  C  C72  1  0.62730652  0.40862513  0.90827535  1.0
  C  C73  1  0.87269298  0.09173141  0.59138500  1.0
  C  C74  1  0.40589269  0.50579967  0.08382898  1.0
  C  C75  1  0.09410257  0.91617300  0.49420108  1.0
  C  C76  1  0.59410297  0.49420730  0.91617554  1.0
  C  C77  1  0.90589283  0.08382950  0.50580023  1.0
  C  C78  1  0.48021963  0.47185690  0.02562380  1.0
  C  C79  1  0.01977244  0.97437780  0.52814323  1.0
  C  C80  1  0.51976710  0.52814104  0.97438125  1.0
  C  C81  1  0.98022292  0.02561793  0.47185798  1.0
  C  C82  1  0.51603338  0.38433641  0.01633051  1.0
  C  C83  1  0.98396467  0.98366830  0.61566340  1.0
  C  C84  1  0.48395472  0.61566086  0.98366907  1.0
  C  C85  1  0.01603140  0.01633045  0.38433646  1.0
  C  C86  1  0.13899116  0.73382450  0.92188965  1.0
  C  C87  1  0.36099856  0.07811878  0.26617491  1.0
  C  C88  1  0.86100680  0.26618250  0.07811249  1.0
  C  C89  1  0.63900015  0.92188821  0.73382799  1.0
  C  C90  1  0.07310568  0.69267806  0.82856055  1.0
  C  C91  1  0.42688909  0.17144089  0.30731735  1.0
  C  C92  1  0.92688904  0.30732146  0.17143879  1.0
  C  C93  1  0.57311264  0.82855934  0.69268384  1.0
  C  C94  1  0.01391947  0.75089887  0.79799724  1.0
  C  C95  1  0.48607184  0.20200695  0.24909994  1.0
  C  C96  1  0.98607324  0.24910517  0.20200235  1.0
  C  C97  1  0.51393024  0.79799477  0.75090190  1.0
  C  C98  1  0.02625326  0.85087878  0.86796889  1.0
  C  C99  1  0.47373859  0.13203791  0.14911972  1.0
  C  C100  1  0.97374766  0.14912451  0.13202942  1.0
  C  C101  1  0.52625959  0.86796013  0.85087811  1.0
  C  C102  1  0.09395426  0.88684868  0.96034708  1.0
  C  C103  1  0.40604332  0.03965863  0.11315375  1.0
  C  C104  1  0.90603598  0.11315456  0.03965589  1.0
  C  C105  1  0.59395968  0.96034383  0.88684918  1.0
  C  C106  1  0.94438131  0.70937233  0.69836931  1.0
  C  C107  1  0.55560766  0.30163277  0.29062479  1.0
  C  C108  1  0.05561893  0.29062800  0.30162570  1.0
  C  C109  1  0.44439737  0.69836523  0.70937456  1.0
  C  C110  1  0.93263785  0.60889863  0.62987258  1.0
  C  C111  1  0.56735398  0.37013728  0.39109986  1.0
  C  C112  1  0.06736232  0.39110149  0.37013573  1.0
  C  C113  1  0.43265694  0.62985990  0.60890257  1.0
  C  C114  1  0.86888262  0.56994514  0.53521464  1.0
  C  C115  1  0.63112265  0.46477736  0.43004614  1.0
  C  C116  1  0.13111302  0.43004843  0.46478036  1.0
  C  C117  1  0.36888525  0.53521988  0.56995326  1.0
  C  C118  1  0.81374284  0.63075850  0.50522266  1.0
  C  C119  1  0.68626662  0.49477989  0.36924428  1.0
  C  C120  1  0.18626064  0.36923943  0.49478048  1.0
  C  C121  1  0.31374202  0.50521730  0.63075788  1.0
  C  C122  1  0.82400158  0.73072183  0.57281056  1.0
  C  C123  1  0.67599502  0.42718448  0.26927668  1.0
  C  C124  1  0.17599962  0.26927931  0.42718088  1.0
  C  C125  1  0.32400484  0.57281425  0.73072432  1.0
  C  C126  1  0.88784786  0.76906264  0.66743745  1.0
  C  C127  1  0.61214610  0.33257189  0.23093374  1.0
  C  C128  1  0.11215845  0.23093763  0.33256098  1.0
  C  C129  1  0.38785668  0.66743289  0.76906542  1.0
  C  C130  1  0.74999938  0.64810079  0.35191093  1.0
  C  C131  1  0.25000429  0.35189793  0.64808988  1.0
  C  C132  1  0.84143462  0.71397986  0.36071506  1.0
  C  C133  1  0.65856293  0.63928189  0.28602049  1.0
  C  C134  1  0.15856604  0.28601231  0.63927198  1.0
  C  C135  1  0.34143259  0.36071457  0.71398171  1.0
  C  C136  1  0.84096898  0.76949705  0.30496914  1.0
  C  C137  1  0.65902442  0.69503449  0.23050313  1.0
  C  C138  1  0.15902566  0.23049879  0.69502466  1.0
  C  C139  1  0.34097044  0.30496568  0.76950252  1.0
  C  C140  1  0.74999567  0.76129308  0.23870521  1.0
  C  C141  1  0.24999682  0.23869675  0.76128853  1.0
  C  C142  1  0.74999539  0.82035674  0.17964873  1.0
  C  C143  1  0.24999996  0.17963897  0.82035381  1.0
  C  C144  1  0.65998091  0.85011698  0.15008897  1.0
  C  C145  1  0.84001688  0.84990390  0.14988164  1.0
  C  C146  1  0.34001859  0.14987354  0.84990729  1.0
  C  C147  1  0.15998108  0.15007988  0.85011233  1.0
  C  C148  1  0.66405389  0.90597106  0.09443811  1.0
  C  C149  1  0.83595562  0.90556130  0.09403257  1.0
  C  C150  1  0.33595987  0.09403512  0.90556569  1.0
  C  C151  1  0.16405148  0.09442919  0.90596463  1.0
  N  N152  1  0.15015562  0.82974650  0.98767454  1.0
  N  N153  1  0.34984373  0.01233168  0.17025185  1.0
  N  N154  1  0.84984383  0.17025373  0.01232702  1.0
  N  N155  1  0.65015981  0.98767309  0.82974807  1.0
  N  N156  1  0.75000367  0.59141686  0.40858835  1.0
  N  N157  1  0.24999804  0.40858332  0.59141549  1.0
  N  N158  1  0.75000350  0.93421165  0.06578070  1.0
  N  N159  1  0.25000271  0.06577819  0.93421076  1.0
  O  O160  1  0.31163873  0.76447788  0.11165779  1.0
  O  O161  1  0.18835241  0.88833395  0.23552807  1.0
  O  O162  1  0.68836534  0.23553238  0.88832770  1.0
  O  O163  1  0.81164283  0.11166781  0.76447225  1.0
  O  O164  1  0.40654483  0.79137648  0.00688704  1.0
  O  O165  1  0.09345180  0.99311216  0.20862353  1.0
  O  O166  1  0.59346968  0.20862620  0.99310002  1.0
  O  O167  1  0.90653949  0.00689563  0.79137675  1.0
