# generated using pymatgen
data_Al6H55C103Cl3O35
_symmetry_space_group_name_H-M   'P 1'
_cell_length_a   13.44092340
_cell_length_b   13.54574675
_cell_length_c   27.35904559
_cell_angle_alpha   90.06001756
_cell_angle_beta   90.74320193
_cell_angle_gamma   60.37809323
_symmetry_Int_Tables_number   1
_chemical_formula_structural   Al6H55C103Cl3O35
_chemical_formula_sum   'Al6 H55 C103 Cl3 O35'
_cell_volume   4329.73062421
_cell_formula_units_Z   1
loop_
 _symmetry_equiv_pos_site_id
 _symmetry_equiv_pos_as_xyz
  1  'x, y, z'
loop_
 _atom_site_type_symbol
 _atom_site_label
 _atom_site_symmetry_multiplicity
 _atom_site_fract_x
 _atom_site_fract_y
 _atom_site_fract_z
 _atom_site_occupancy
  Al  Al0  1  0.82424228  0.57997385  0.49499598  1.0
  Al  Al1  1  0.07521002  0.36215706  0.49642705  1.0
  Al  Al2  1  0.05759589  0.59028661  0.50001456  1.0
  Al  Al3  1  0.82866514  0.08275027  0.98252267  1.0
  Al  Al4  1  0.58879972  0.08607796  0.98320070  1.0
  Al  Al5  1  0.58280002  0.31003174  0.98067570  1.0
  H  H6  1  0.27923629  0.20133543  0.21571130  1.0
  H  H7  1  0.44044396  0.14858459  0.29386508  1.0
  H  H8  1  0.56439607  0.22314458  0.23533112  1.0
  H  H9  1  0.88411539  0.99661119  0.22857227  1.0
  H  H10  1  0.70149133  0.07099684  0.29623035  1.0
  H  H11  1  0.69297668  0.78311734  0.27736475  1.0
  H  H12  1  0.58624405  0.99764689  0.22968678  1.0
  H  H13  1  0.66993626  0.51710986  0.21649527  1.0
  H  H14  1  0.67396250  0.36273646  0.28774395  1.0
  H  H15  1  0.88587957  0.47702458  0.25231368  1.0
  H  H16  1  0.99942641  0.14219415  0.25516905  1.0
  H  H17  1  0.78184938  0.18394839  0.21918990  1.0
  H  H18  1  0.48591773  0.11130002  0.84725803  1.0
  H  H19  1  0.50425227  0.03338109  0.76312598  1.0
  H  H20  1  0.46176580  0.06275324  0.67528357  1.0
  H  H21  1  0.34226346  0.47095895  0.86767347  1.0
  H  H22  1  0.26009992  0.60467254  0.79586038  1.0
  H  H23  1  0.21787325  0.63334102  0.70753283  1.0
  H  H24  1  0.20537465  0.55701951  0.62615647  1.0
  H  H25  1  0.94267172  0.88260034  0.87052334  1.0
  H  H26  1  0.02271244  0.75052236  0.62949538  1.0
  H  H27  1  0.08611336  0.80234247  0.70734127  1.0
  H  H28  1  0.61907269  0.89189442  0.86275258  1.0
  H  H29  1  0.55395266  0.84192620  0.78461966  1.0
  H  H30  1  0.70262818  0.75284535  0.62207561  1.0
  H  H31  1  0.58780992  0.38791038  0.83520554  1.0
  H  H32  1  0.70825775  0.44479601  0.60015540  1.0
  H  H33  1  0.52110242  0.45200347  0.74948328  1.0
  H  H34  1  0.56514627  0.46922980  0.66353233  1.0
  H  H35  1  0.94778255  0.19494888  0.86882680  1.0
  H  H36  1  0.13530148  0.18924290  0.71921685  1.0
  H  H37  1  0.06778375  0.26038878  0.63505113  1.0
  H  H38  1  0.78798026  0.71997501  0.14606727  1.0
  H  H39  1  0.75540698  0.65747677  0.19705471  1.0
  H  H40  1  0.88071773  0.57302688  0.16140843  1.0
  H  H41  1  0.37084902  0.02896753  0.58410190  1.0
  H  H42  1  0.23094924  0.15333026  0.58080472  1.0
  H  H43  1  0.29808541  0.09624589  0.63918906  1.0
  H  H44  1  0.13917382  0.93323571  0.83359494  1.0
  H  H45  1  0.98697609  0.99823617  0.82816216  1.0
  H  H46  1  0.06974461  0.98369249  0.77491156  1.0
  H  H47  1  0.65028673  0.63908430  0.66759420  1.0
  H  H48  1  0.49742444  0.71049001  0.66060755  1.0
  H  H49  1  0.56259350  0.66371325  0.72010397  1.0
  H  H50  1  0.23614572  0.63566887  0.23500828  1.0
  H  H51  1  0.11360245  0.62925900  0.21209187  1.0
  H  H52  1  0.18724113  0.67814887  0.17323168  1.0
  H  H53  1  0.24346295  0.16685474  0.78928304  1.0
  H  H54  1  0.23940713  0.04087756  0.77191002  1.0
  H  H55  1  0.26924296  0.06040963  0.83437591  1.0
  H  H56  1  0.02091195  0.83655583  0.34307095  1.0
  H  H57  1  0.05059551  0.89563926  0.28985796  1.0
  H  H58  1  0.15345819  0.75653873  0.31175862  1.0
  H  H59  1  0.64115055  0.60708823  0.50989360  1.0
  H  H60  1  0.01739988  0.00614983  0.01184603  1.0
  C  C61  1  0.91957944  0.38320688  0.42466998  1.0
  C  C62  1  0.19715352  0.42381203  0.42894165  1.0
  C  C63  1  0.88291554  0.73262044  0.43703811  1.0
  C  C64  1  0.91628245  0.37733699  0.56345554  1.0
  C  C65  1  0.21460763  0.40883673  0.56199906  1.0
  C  C66  1  0.89178902  0.69768293  0.57169224  1.0
  C  C67  1  0.40315382  0.22549985  0.27133683  1.0
  C  C68  1  0.31387426  0.25449438  0.22885604  1.0
  C  C69  1  0.42425414  0.26809294  0.10193343  1.0
  C  C70  1  0.25567371  0.39925964  0.38307485  1.0
  C  C71  1  0.47169758  0.26724754  0.23985141  1.0
  C  C72  1  0.38237298  0.29608607  0.19612320  1.0
  C  C73  1  0.39818828  0.39023509  0.26037371  1.0
  C  C74  1  0.32972954  0.34856457  0.29309804  1.0
  C  C75  1  0.30880049  0.42048505  0.21649524  1.0
  C  C76  1  0.24023588  0.37756499  0.24906752  1.0
  C  C77  1  0.40695043  0.27623522  0.14576782  1.0
  C  C78  1  0.29431866  0.37649684  0.34196017  1.0
  C  C79  1  0.74024664  0.99056799  0.27646208  1.0
  C  C80  1  0.84193363  0.94937211  0.24012017  1.0
  C  C81  1  0.76374379  0.94151084  0.10803917  1.0
  C  C82  1  0.84585851  0.80282018  0.39398424  1.0
  C  C83  1  0.67649686  0.94947325  0.24058633  1.0
  C  C84  1  0.77742771  0.90969178  0.20314762  1.0
  C  C85  1  0.73531308  0.83018098  0.26575538  1.0
  C  C86  1  0.79932237  0.87061234  0.30273303  1.0
  C  C87  1  0.83913892  0.78654820  0.22985351  1.0
  C  C88  1  0.90272481  0.82873360  0.26489446  1.0
  C  C89  1  0.76846299  0.92767105  0.15221822  1.0
  C  C90  1  0.81806551  0.84184258  0.35277643  1.0
  C  C91  1  0.74463096  0.34841086  0.26418543  1.0
  C  C92  1  0.74307042  0.43410178  0.22560197  1.0
  C  C93  1  0.76312750  0.32586768  0.09388780  1.0
  C  C94  1  0.90532348  0.34641253  0.37707290  1.0
  C  C95  1  0.80579026  0.24844843  0.22746212  1.0
  C  C96  1  0.80301178  0.33463862  0.18755069  1.0
  C  C97  1  0.92557397  0.22522914  0.24673265  1.0
  C  C98  1  0.86506990  0.32574319  0.28441140  1.0
  C  C99  1  0.92392246  0.31118159  0.20828493  1.0
  C  C100  1  0.86230697  0.41221460  0.24462142  1.0
  C  C101  1  0.77768595  0.33352536  0.13747566  1.0
  C  C102  1  0.89103850  0.33074435  0.33430217  1.0
  C  C103  1  0.33418847  0.26773154  0.62925189  1.0
  C  C104  1  0.36828612  0.24800275  0.67916505  1.0
  C  C105  1  0.42148632  0.21270123  0.78118351  1.0
  C  C106  1  0.45611720  0.11927857  0.74835256  1.0
  C  C107  1  0.43195284  0.13562480  0.69942305  1.0
  C  C108  1  0.44283019  0.19671196  0.83166152  1.0
  C  C109  1  0.41350747  0.28954585  0.86242765  1.0
  C  C110  1  0.25193015  0.47144048  0.64145446  1.0
  C  C111  1  0.28339330  0.45532672  0.69099593  1.0
  C  C112  1  0.33889540  0.34265371  0.71059416  1.0
  C  C113  1  0.25862808  0.54812016  0.72311561  1.0
  C  C114  1  0.28249182  0.53207751  0.77207017  1.0
  C  C115  1  0.33576820  0.42009717  0.79310903  1.0
  C  C116  1  0.36531925  0.32532460  0.76152016  1.0
  C  C117  1  0.36176260  0.40018655  0.84324774  1.0
  C  C118  1  0.27249878  0.38025065  0.61083464  1.0
  C  C119  1  0.94595720  0.76306126  0.64794855  1.0
  C  C120  1  0.92963180  0.79305410  0.69743880  1.0
  C  C121  1  0.89942184  0.84209157  0.79938031  1.0
  C  C122  1  0.99945993  0.82838944  0.77452974  1.0
  C  C123  1  0.01160406  0.80822326  0.72545131  1.0
  C  C124  1  0.88059648  0.87149935  0.84875920  1.0
  C  C125  1  0.77837820  0.89241507  0.87050386  1.0
  C  C126  1  0.76471293  0.76381181  0.64388696  1.0
  C  C127  1  0.74557771  0.79321252  0.69329997  1.0
  C  C128  1  0.82987215  0.80517663  0.72106418  1.0
  C  C129  1  0.64426384  0.80968391  0.71796261  1.0
  C  C130  1  0.63102871  0.83123412  0.76697368  1.0
  C  C131  1  0.71433359  0.84401966  0.79529601  1.0
  C  C132  1  0.81491450  0.83018195  0.77174334  1.0
  C  C133  1  0.69730305  0.87605908  0.84456484  1.0
  C  C134  1  0.86591727  0.74549977  0.62192322  1.0
  C  C135  1  0.77618661  0.39811855  0.62707330  1.0
  C  C136  1  0.74970441  0.38416221  0.67507174  1.0
  C  C137  1  0.69911302  0.36271936  0.77419689  1.0
  C  C138  1  0.60962511  0.41800440  0.73815216  1.0
  C  C139  1  0.63396145  0.42757133  0.69066749  1.0
  C  C140  1  0.67603921  0.35186745  0.82320391  1.0
  C  C141  1  0.76580669  0.29080872  0.85643708  1.0
  C  C142  1  0.97984819  0.29377261  0.64689145  1.0
  C  C143  1  0.95718132  0.28045269  0.69561238  1.0
  C  C144  1  0.84063858  0.32667810  0.71000909  1.0
  C  C145  1  0.04736117  0.22278399  0.73102299  1.0
  C  C146  1  0.02305534  0.21097545  0.77851111  1.0
  C  C147  1  0.90608994  0.25694736  0.79426412  1.0
  C  C148  1  0.81559199  0.31560911  0.75935164  1.0
  C  C149  1  0.87997399  0.24308304  0.84215426  1.0
  C  C150  1  0.89028594  0.35333528  0.61322905  1.0
  C  C151  1  0.75157793  0.97650803  0.05779889  1.0
  C  C152  1  0.46211334  0.25331073  0.05227898  1.0
  C  C153  1  0.74452543  0.29543956  0.04569967  1.0
  C  C154  1  0.75129904  0.94703780  0.91931749  1.0
  C  C155  1  0.45095334  0.26642160  0.91451924  1.0
  C  C156  1  0.74235030  0.26693470  0.90679773  1.0
  C  C157  1  0.82480322  0.65784416  0.17614520  1.0
  C  C158  1  0.31287264  0.11062120  0.60103182  1.0
  C  C159  1  0.06842844  0.94384488  0.80979664  1.0
  C  C160  1  0.56848564  0.69859355  0.68462650  1.0
  C  C161  1  0.19692220  0.61938574  0.20276527  1.0
  C  C162  1  0.22036795  0.10340063  0.80123908  1.0
  C  C163  1  0.06197329  0.81717459  0.30718024  1.0
  Cl  Cl164  1  0.03733378  0.28524724  0.17042625  1.0
  Cl  Cl165  1  0.09458202  0.44810016  0.25844496  1.0
  Cl  Cl166  1  0.44908710  0.47807718  0.28187087  1.0
  O  O167  1  0.81884924  0.69529455  0.45133392  1.0
  O  O168  1  0.84655695  0.48295927  0.43657932  1.0
  O  O169  1  0.00746402  0.31247251  0.45062136  1.0
  O  O170  1  0.17755802  0.34687113  0.44557082  1.0
  O  O171  1  0.16579738  0.52036791  0.44848956  1.0
  O  O172  1  0.98081547  0.70955908  0.45593055  1.0
  O  O173  1  0.82546818  0.66681146  0.55275955  1.0
  O  O174  1  0.83751808  0.45947303  0.53965065  1.0
  O  O175  1  0.01973806  0.31523614  0.54828760  1.0
  O  O176  1  0.19412496  0.33616311  0.54116013  1.0
  O  O177  1  0.17961850  0.50932330  0.54508909  1.0
  O  O178  1  0.98373152  0.68670349  0.55196552  1.0
  O  O179  1  0.98717578  0.51035395  0.49722220  1.0
  O  O180  1  0.81941697  0.20044609  0.02976253  1.0
  O  O181  1  0.82337946  0.00265091  0.04183576  1.0
  O  O182  1  0.66558292  0.98209527  0.03385381  1.0
  O  O183  1  0.47461779  0.16480077  0.02968172  1.0
  O  O184  1  0.48554302  0.32683723  0.03511098  1.0
  O  O185  1  0.64987837  0.36575183  0.02351419  1.0
  O  O186  1  0.81697014  0.17466997  0.92619161  1.0
  O  O187  1  0.82158473  0.97219811  0.93856126  1.0
  O  O188  1  0.65291325  0.97214049  0.93741259  1.0
  O  O189  1  0.48026933  0.16812854  0.93186801  1.0
  O  O190  1  0.45905208  0.34403387  0.93837369  1.0
  O  O191  1  0.64716616  0.33976605  0.92626592  1.0
  O  O192  1  0.66501550  0.16073488  0.98259416  1.0
  O  O193  1  0.89605909  0.68324166  0.20752016  1.0
  O  O194  1  0.36909529  0.17760189  0.59831363  1.0
  O  O195  1  0.08542374  0.83150295  0.80134751  1.0
  O  O196  1  0.55740434  0.80921388  0.69060291  1.0
  O  O197  1  0.27132175  0.50687061  0.18378569  1.0
  O  O198  1  0.10266445  0.15611926  0.81447057  1.0
  O  O199  1  0.01646575  0.76260614  0.27613959  1.0
  O  O200  1  0.67431414  0.64478951  0.49187871  1.0
  O  O201  1  0.97877977  0.01135002  0.98111569  1.0
