# generated using pymatgen
data_AlH18C24(NO2)3
_symmetry_space_group_name_H-M   'P 1'
_cell_length_a   3.97781618
_cell_length_b   28.49152590
_cell_length_c   28.49175345
_cell_angle_alpha   60.00021357
_cell_angle_beta   89.99986810
_cell_angle_gamma   89.99962260
_symmetry_Int_Tables_number   1
_chemical_formula_structural   AlH18C24(NO2)3
_chemical_formula_sum   'Al2 H36 C48 N6 O12'
_cell_volume   2796.47642767
_cell_formula_units_Z   2
loop_
 _symmetry_equiv_pos_site_id
 _symmetry_equiv_pos_as_xyz
  1  'x, y, z'
loop_
 _atom_site_type_symbol
 _atom_site_label
 _atom_site_symmetry_multiplicity
 _atom_site_fract_x
 _atom_site_fract_y
 _atom_site_fract_z
 _atom_site_occupancy
  Al  Al0  1  0.99004488  0.99999707  0.49999944  1.0
  Al  Al1  1  0.98999217  0.66666675  0.16666876  1.0
  H  H2  1  0.16563017  0.51621376  0.29463607  1.0
  H  H3  1  0.12574335  0.41569355  0.34195918  1.0
  H  H4  1  0.68948337  0.41702924  0.21200682  1.0
  H  H5  1  0.68948518  0.24963693  0.45465749  1.0
  H  H6  1  0.12574475  0.25097280  0.32470803  1.0
  H  H7  1  0.16561526  0.15045295  0.37203165  1.0
  H  H8  1  0.41741836  0.33343571  0.27938757  1.0
  H  H9  1  0.41739232  0.33323278  0.38727531  1.0
  H  H10  1  0.16562467  0.79463363  0.18915374  1.0
  H  H11  1  0.12574473  0.84195948  0.24234600  1.0
  H  H12  1  0.68947304  0.71200881  0.37096410  1.0
  H  H13  1  0.68946811  0.95465407  0.29570585  1.0
  H  H14  1  0.12572351  0.82470521  0.42432042  1.0
  H  H15  1  0.16564590  0.87202579  0.47752078  1.0
  H  H16  1  0.41737231  0.77938621  0.38717714  1.0
  H  H17  1  0.41736320  0.88727939  0.27949048  1.0
  H  H18  1  0.16566623  0.68914849  0.01621203  1.0
  H  H19  1  0.12579672  0.74234684  0.91569519  1.0
  H  H20  1  0.68948497  0.87096458  0.91702604  1.0
  H  H21  1  0.68946798  0.79569947  0.74964040  1.0
  H  H22  1  0.12574365  0.92431861  0.75097424  1.0
  H  H23  1  0.16563953  0.97751458  0.65045540  1.0
  H  H24  1  0.41741139  0.88717587  0.83343444  1.0
  H  H25  1  0.41741637  0.77948806  0.83323530  1.0
  H  H26  1  0.86591163  0.55996211  0.14549424  1.0
  H  H27  1  0.95703082  0.49918203  0.14949255  1.0
  H  H28  1  0.86593145  0.10670307  0.52117613  1.0
  H  H29  1  0.95704290  0.16748548  0.51716960  1.0
  H  H30  1  0.86590089  0.64549000  0.29454400  1.0
  H  H31  1  0.95702345  0.64949069  0.35132676  1.0
  H  H32  1  0.86594721  0.02116666  0.37212817  1.0
  H  H33  1  0.95705053  0.01716705  0.31534848  1.0
  H  H34  1  0.86594971  0.79454227  0.05996437  1.0
  H  H35  1  0.95706875  0.85132138  0.99918319  1.0
  H  H36  1  0.86592856  0.87212290  0.60670354  1.0
  H  H37  1  0.95704468  0.81534199  0.66748666  1.0
  C  C38  1  0.48304594  0.95376031  0.58391076  1.0
  C  C39  1  0.48304900  0.08390443  0.46232773  1.0
  C  C40  1  0.48306694  0.96232322  0.45377046  1.0
  C  C41  1  0.48306990  0.58275993  0.20434176  1.0
  C  C42  1  0.48304694  0.70433830  0.21290115  1.0
  C  C43  1  0.48306040  0.71290202  0.08275729  1.0
  C  C44  1  0.46533519  0.52345846  0.22888239  1.0
  C  C45  1  0.28802461  0.49355409  0.27793699  1.0
  C  C46  1  0.26784626  0.43766184  0.30439231  1.0
  C  C47  1  0.41212476  0.40938899  0.28034774  1.0
  C  C48  1  0.57551566  0.43879406  0.23050880  1.0
  C  C49  1  0.61877450  0.49536921  0.20482498  1.0
  C  C50  1  0.40137879  0.35046485  0.30627945  1.0
  C  C51  1  0.40135147  0.31620649  0.36038061  1.0
  C  C52  1  0.57553638  0.22787019  0.43615756  1.0
  C  C53  1  0.41210474  0.25727585  0.38631522  1.0
  C  C54  1  0.26786312  0.22900113  0.36227163  1.0
  C  C55  1  0.28803354  0.17310684  0.38873358  1.0
  C  C56  1  0.46529439  0.14320470  0.43778631  1.0
  C  C57  1  0.61875464  0.17129826  0.46184221  1.0
  C  C58  1  0.46533034  0.72888135  0.24766017  1.0
  C  C59  1  0.28805899  0.77793462  0.22850806  1.0
  C  C60  1  0.26783599  0.80439623  0.25794198  1.0
  C  C61  1  0.41210874  0.78034878  0.31025901  1.0
  C  C62  1  0.57550589  0.73050601  0.33069924  1.0
  C  C63  1  0.61877420  0.70482373  0.29980728  1.0
  C  C64  1  0.40134820  0.80628436  0.34325479  1.0
  C  C65  1  0.40133958  0.86037924  0.32341314  1.0
  C  C66  1  0.57549109  0.93615538  0.33596903  1.0
  C  C67  1  0.41210844  0.88631520  0.35640732  1.0
  C  C68  1  0.26783593  0.86226832  0.40872446  1.0
  C  C69  1  0.28805723  0.88872707  0.43816472  1.0
  C  C70  1  0.46531685  0.93777898  0.41901064  1.0
  C  C71  1  0.61879541  0.96183843  0.36686446  1.0
  C  C72  1  0.46532423  0.74765926  0.02345790  1.0
  C  C73  1  0.28804874  0.72850402  0.99356091  1.0
  C  C74  1  0.26785906  0.75794159  0.93766049  1.0
  C  C75  1  0.41215084  0.81026043  0.90938975  1.0
  C  C76  1  0.57552369  0.83069869  0.93878950  1.0
  C  C77  1  0.61877881  0.79980698  0.99537100  1.0
  C  C78  1  0.40138838  0.84325226  0.85046238  1.0
  C  C79  1  0.40137907  0.82341209  0.81620540  1.0
  C  C80  1  0.57551526  0.83596670  0.72787490  1.0
  C  C81  1  0.41212088  0.85640716  0.75727676  1.0
  C  C82  1  0.26783723  0.90872412  0.72900419  1.0
  C  C83  1  0.28804660  0.93816004  0.67310530  1.0
  C  C84  1  0.46533049  0.91900269  0.64321070  1.0
  C  C85  1  0.61878500  0.86685634  0.67129898  1.0
  N  N86  1  0.78834473  0.52179833  0.15629466  1.0
  N  N87  1  0.78834789  0.14486815  0.51036666  1.0
  N  N88  1  0.78835536  0.65629572  0.32190892  1.0
  N  N89  1  0.78837246  0.01036224  0.34476333  1.0
  N  N90  1  0.78834652  0.82190736  0.02179485  1.0
  N  N91  1  0.78834610  0.84475628  0.64487175  1.0
  O  O92  1  0.72432425  0.99566817  0.44603960  1.0
  O  O93  1  0.72432194  0.94603666  0.55829171  1.0
  O  O94  1  0.72429978  0.05828802  0.49567052  1.0
  O  O95  1  0.25745821  0.94949159  0.49034552  1.0
  O  O96  1  0.25747613  0.06015922  0.44949700  1.0
  O  O97  1  0.25745670  0.99033955  0.56016675  1.0
  O  O98  1  0.72430293  0.72063069  0.10837516  1.0
  O  O99  1  0.72433263  0.60837649  0.17099356  1.0
  O  O100  1  0.72431821  0.67099432  0.22063145  1.0
  O  O101  1  0.25746992  0.67632221  0.10650622  1.0
  O  O102  1  0.25746086  0.71717139  0.17632298  1.0
  O  O103  1  0.25748065  0.60650620  0.21717274  1.0
