# generated using pymatgen
data_Zn4H35C48N11O16
_symmetry_space_group_name_H-M   'P 1'
_cell_length_a   9.63621801
_cell_length_b   11.09920584
_cell_length_c   28.94638286
_cell_angle_alpha   89.94374379
_cell_angle_beta   90.64574309
_cell_angle_gamma   89.83602848
_symmetry_Int_Tables_number   1
_chemical_formula_structural   Zn4H35C48N11O16
_chemical_formula_sum   'Zn4 H35 C48 N11 O16'
_cell_volume   3095.73117033
_cell_formula_units_Z   1
loop_
 _symmetry_equiv_pos_site_id
 _symmetry_equiv_pos_as_xyz
  1  'x, y, z'
loop_
 _atom_site_type_symbol
 _atom_site_label
 _atom_site_symmetry_multiplicity
 _atom_site_fract_x
 _atom_site_fract_y
 _atom_site_fract_z
 _atom_site_occupancy
  Zn  Zn0  1  0.35891443  0.49439563  0.50132285  1.0
  Zn  Zn1  1  0.64383625  0.49155272  0.49785813  1.0
  Zn  Zn2  1  0.64050740  0.49132088  0.11785504  1.0
  Zn  Zn3  1  0.35521459  0.49005198  0.11862997  1.0
  H  H4  1  0.87564835  0.34759463  0.54390989  1.0
  H  H5  1  0.85730095  0.63321302  0.45115230  1.0
  H  H6  1  0.14069554  0.36015761  0.54481095  1.0
  H  H7  1  0.26874682  0.10102948  0.50038079  1.0
  H  H8  1  0.71313577  0.11896022  0.49713258  1.0
  H  H9  1  0.28339739  0.87563279  0.49940038  1.0
  H  H10  1  0.70493716  0.49912765  0.97433147  1.0
  H  H11  1  0.71874937  0.50655021  0.88810006  1.0
  H  H12  1  0.27157681  0.50315120  0.88039442  1.0
  H  H13  1  0.73373306  0.50326059  0.73680924  1.0
  H  H14  1  0.29872398  0.50400958  0.64373971  1.0
  H  H15  1  0.28644047  0.50933601  0.72999347  1.0
  H  H16  1  0.71963995  0.50186689  0.26617041  1.0
  H  H17  1  0.27447765  0.49560403  0.26345597  1.0
  H  H18  1  0.71529129  0.50382949  0.35309979  1.0
  H  H19  1  0.12359871  0.34879194  0.07187179  1.0
  H  H20  1  0.14172823  0.62894299  0.16677486  1.0
  H  H21  1  0.85830873  0.35950279  0.07240396  1.0
  H  H22  1  0.72970510  0.09873485  0.11821645  1.0
  H  H23  1  0.28514248  0.11697102  0.12047642  1.0
  H  H24  1  0.71615510  0.87313981  0.11790999  1.0
  H  H25  1  0.23693635  0.69164310  0.45873604  1.0
  H  H26  1  0.07755576  0.73224567  0.43185612  1.0
  H  H27  1  0.76062013  0.79609368  0.50613840  1.0
  H  H28  1  0.84035836  0.93679264  0.50739764  1.0
  H  H29  1  0.24260944  0.47616602  0.38791693  1.0
  H  H30  1  0.15634682  0.46885889  0.33455146  1.0
  H  H31  1  0.76179504  0.68602655  0.16088560  1.0
  H  H32  1  0.92179490  0.72846999  0.18616239  1.0
  H  H33  1  0.23978998  0.79436890  0.10956501  1.0
  H  H34  1  0.15902260  0.93503805  0.10894051  1.0
  H  H35  1  0.22756585  0.49477840  0.00450297  1.0
  H  H36  1  0.14500996  0.51088620  0.95028176  1.0
  H  H37  1  0.77541780  0.49794571  0.61251666  1.0
  H  H38  1  0.85910789  0.51159409  0.66666667  1.0
  C  C39  1  0.48718175  0.25749155  0.49951351  1.0
  C  C40  1  0.51673918  0.49678651  0.59020172  1.0
  C  C41  1  0.50645758  0.73526083  0.49796163  1.0
  C  C42  1  0.50093071  0.49738288  0.40864574  1.0
  C  C43  1  0.51062349  0.25529335  0.11922564  1.0
  C  C44  1  0.48569012  0.49190655  0.02745901  1.0
  C  C45  1  0.49392349  0.73304137  0.11827801  1.0
  C  C46  1  0.49515711  0.49832226  0.20836315  1.0
  C  C47  1  0.06858212  0.58626123  0.47456578  1.0
  C  C48  1  0.93272070  0.41378670  0.52395969  1.0
  C  C49  1  0.92172992  0.57372492  0.47253186  1.0
  C  C50  1  0.07588076  0.42218916  0.52477001  1.0
  C  C51  1  0.50558509  0.86892714  0.49775183  1.0
  C  C52  1  0.49144339  0.12230010  0.49869423  1.0
  C  C53  1  0.63031347  0.93767887  0.49788822  1.0
  C  C54  1  0.36828685  0.05456155  0.49922789  1.0
  C  C55  1  0.61933853  0.06425899  0.49777274  1.0
  C  C56  1  0.37726614  0.93001720  0.49847039  1.0
  C  C57  1  0.48351464  0.49509533  0.97628741  1.0
  C  C58  1  0.61099452  0.49941783  0.95304294  1.0
  C  C59  1  0.61914340  0.50408592  0.90544527  1.0
  C  C60  1  0.49487047  0.50565776  0.87876190  1.0
  C  C61  1  0.36692213  0.50232252  0.90110230  1.0
  C  C62  1  0.35769198  0.49597323  0.94963272  1.0
  C  C63  1  0.50004068  0.50877157  0.82989468  1.0
  C  C64  1  0.50595308  0.50913757  0.78776756  1.0
  C  C65  1  0.51052345  0.50702819  0.73890505  1.0
  C  C66  1  0.63803540  0.50351873  0.71628989  1.0
  C  C67  1  0.64638586  0.49838690  0.66772087  1.0
  C  C68  1  0.52014280  0.49894133  0.64132418  1.0
  C  C69  1  0.39303756  0.50331958  0.66484623  1.0
  C  C70  1  0.38576524  0.50681881  0.71245765  1.0
  C  C71  1  0.49408347  0.49910814  0.35737546  1.0
  C  C72  1  0.49615841  0.49910038  0.26015293  1.0
  C  C73  1  0.36602375  0.49595991  0.33218853  1.0
  C  C74  1  0.62249282  0.50129022  0.28499935  1.0
  C  C75  1  0.37099404  0.49702907  0.28351492  1.0
  C  C76  1  0.61939101  0.50212775  0.33281821  1.0
  C  C77  1  0.93012415  0.58154449  0.14418712  1.0
  C  C78  1  0.06639418  0.41339942  0.09262413  1.0
  C  C79  1  0.07717107  0.57036363  0.14524434  1.0
  C  C80  1  0.92309148  0.42060339  0.09269316  1.0
  C  C81  1  0.49404564  0.86676397  0.11889439  1.0
  C  C82  1  0.50689395  0.12010088  0.11940378  1.0
  C  C83  1  0.36894542  0.93559870  0.11885156  1.0
  C  C84  1  0.63041118  0.05228830  0.11878596  1.0
  C  C85  1  0.37923399  0.06216810  0.11971365  1.0
  C  C86  1  0.62206616  0.92771687  0.11883390  1.0
  N  N87  1  0.14376167  0.50664512  0.50041470  1.0
  N  N88  1  0.85782430  0.49057447  0.49712792  1.0
  N  N89  1  0.85515564  0.50303016  0.11808802  1.0
  N  N90  1  0.14127060  0.48928003  0.11960529  1.0
  N  N91  1  0.13353902  0.67438688  0.45165347  1.0
  N  N92  1  0.75972102  0.88483741  0.49690677  1.0
  N  N93  1  0.23943800  0.49584160  0.35351708  1.0
  N  N94  1  0.86468129  0.66756144  0.16833134  1.0
  N  N95  1  0.23983002  0.88269327  0.11932592  1.0
  N  N96  1  0.22972993  0.48884142  0.96942939  1.0
  N  N97  1  0.77387689  0.49094541  0.64756514  1.0
  O  O98  1  0.36978744  0.30833781  0.50513397  1.0
  O  O99  1  0.60261637  0.31170653  0.49446689  1.0
  O  O100  1  0.63199421  0.48462113  0.56859009  1.0
  O  O101  1  0.39876962  0.50765104  0.56983859  1.0
  O  O102  1  0.62145535  0.67943103  0.50428002  1.0
  O  O103  1  0.39044139  0.68054364  0.49207830  1.0
  O  O104  1  0.38798315  0.47973861  0.43094867  1.0
  O  O105  1  0.61891665  0.51296669  0.42822865  1.0
  O  O106  1  0.62808009  0.30596558  0.11423011  1.0
  O  O107  1  0.39490417  0.30971608  0.12404755  1.0
  O  O108  1  0.36945187  0.47907357  0.04844791  1.0
  O  O109  1  0.60249561  0.50261786  0.04839517  1.0
  O  O110  1  0.37957360  0.67756043  0.11091933  1.0
  O  O111  1  0.60983752  0.67823481  0.12497717  1.0
  O  O112  1  0.61048744  0.48134017  0.18827308  1.0
  O  O113  1  0.37832344  0.51466983  0.18799671  1.0
