# generated using pymatgen
data_ZnSiH12C24(N2F5)2
_symmetry_space_group_name_H-M   'P 1'
_cell_length_a   7.65777948
_cell_length_b   14.04117334
_cell_length_c   14.04113382
_cell_angle_alpha   90.00177202
_cell_angle_beta   89.95398780
_cell_angle_gamma   89.95448099
_symmetry_Int_Tables_number   1
_chemical_formula_structural   ZnSiH12C24(N2F5)2
_chemical_formula_sum   'Zn1 Si1 H12 C24 N4 F10'
_cell_volume   1509.76084452
_cell_formula_units_Z   1
loop_
 _symmetry_equiv_pos_site_id
 _symmetry_equiv_pos_as_xyz
  1  'x, y, z'
loop_
 _atom_site_type_symbol
 _atom_site_label
 _atom_site_symmetry_multiplicity
 _atom_site_fract_x
 _atom_site_fract_y
 _atom_site_fract_z
 _atom_site_occupancy
  Zn  Zn0  1  0.50001029  0.49999848  0.50000014  1.0
  Si  Si1  1  0.00001018  0.50000449  0.49999664  1.0
  H  H2  1  0.23035596  0.66295188  0.50004509  1.0
  H  H3  1  0.21842673  0.83994679  0.50002765  1.0
  H  H4  1  0.77585937  0.66409123  0.49995037  1.0
  H  H5  1  0.22416515  0.33591428  0.50001714  1.0
  H  H6  1  0.76967760  0.33704437  0.50006344  1.0
  H  H7  1  0.78159118  0.16003877  0.50006735  1.0
  H  H8  1  0.23035857  0.50007057  0.66295320  1.0
  H  H9  1  0.21842927  0.50002676  0.83994936  1.0
  H  H10  1  0.77586329  0.49996574  0.66408558  1.0
  H  H11  1  0.22416640  0.50007038  0.33591826  1.0
  H  H12  1  0.76967907  0.49981742  0.33704137  1.0
  H  H13  1  0.78158617  0.49986979  0.16004095  1.0
  C  C14  1  0.35017232  0.70454435  0.50002459  1.0
  C  C15  1  0.34384502  0.80327893  0.50000970  1.0
  C  C16  1  0.50012708  0.85623865  0.49999995  1.0
  C  C17  1  0.65548276  0.80282712  0.49998448  1.0
  C  C18  1  0.65374638  0.70407363  0.49997905  1.0
  C  C19  1  0.50102782  0.95662538  0.50000416  1.0
  C  C20  1  0.49895877  0.04338156  0.50003386  1.0
  C  C21  1  0.49988432  0.14376472  0.50004448  1.0
  C  C22  1  0.34452605  0.19717411  0.50003361  1.0
  C  C23  1  0.34626896  0.29592903  0.50002906  1.0
  C  C24  1  0.64985604  0.29545118  0.50006114  1.0
  C  C25  1  0.65618073  0.19671875  0.50006322  1.0
  C  C26  1  0.35017591  0.50004395  0.70454266  1.0
  C  C27  1  0.34384654  0.50001694  0.80328252  1.0
  C  C28  1  0.50013472  0.49999758  0.85623704  1.0
  C  C29  1  0.65549082  0.49998389  0.80282713  1.0
  C  C30  1  0.65375652  0.49998914  0.70406981  1.0
  C  C31  1  0.50104513  0.49998256  0.95662475  1.0
  C  C32  1  0.49897417  0.49997950  0.04337695  1.0
  C  C33  1  0.49988589  0.49994881  0.14376323  1.0
  C  C34  1  0.34452716  0.50000025  0.19717315  1.0
  C  C35  1  0.34627320  0.50001209  0.29593118  1.0
  C  C36  1  0.64985387  0.49986327  0.29545547  1.0
  C  C37  1  0.65617541  0.49988815  0.19671918  1.0
  N  N38  1  0.50203807  0.65560613  0.50000425  1.0
  N  N39  1  0.49798901  0.34439011  0.50003733  1.0
  N  N40  1  0.50203944  0.50002539  0.65560680  1.0
  N  N41  1  0.49798900  0.49994379  0.34439134  1.0
  F  F42  1  0.22909860  0.50015093  0.50014539  1.0
  F  F43  1  0.77092982  0.49985102  0.49984777  1.0
  F  F44  1  0.00001216  0.58553376  0.41446355  1.0
  F  F45  1  0.00001733  0.41447663  0.58553541  1.0
  F  F46  1  0.99903707  0.58554456  0.58553461  1.0
  F  F47  1  0.00097959  0.41446023  0.41446211  1.0
  F  F48  1  0.81107134  0.84874770  0.49996693  1.0
  F  F49  1  0.18894142  0.15125211  0.50001412  1.0
  F  F50  1  0.81107382  0.49995675  0.84875032  1.0
  F  F51  1  0.18894022  0.50005588  0.15125423  1.0
