# generated using pymatgen
data_MgH7C11SN2O3
_symmetry_space_group_name_H-M   'P 1'
_cell_length_a   6.77225469
_cell_length_b   36.78540180
_cell_length_c   36.78310154
_cell_angle_alpha   119.60487486
_cell_angle_beta   93.51076222
_cell_angle_gamma   93.50517981
_symmetry_Int_Tables_number   1
_chemical_formula_structural   MgH7C11SN2O3
_chemical_formula_sum   'Mg6 H42 C66 S6 N12 O18'
_cell_volume   7907.98304805
_cell_formula_units_Z   6
loop_
 _symmetry_equiv_pos_site_id
 _symmetry_equiv_pos_as_xyz
  1  'x, y, z'
loop_
 _atom_site_type_symbol
 _atom_site_label
 _atom_site_symmetry_multiplicity
 _atom_site_fract_x
 _atom_site_fract_y
 _atom_site_fract_z
 _atom_site_occupancy
  Mg  Mg0  1  0.63875821  0.63468749  0.30977115  1.0
  Mg  Mg1  1  0.00409731  0.67516523  0.36537456  1.0
  Mg  Mg2  1  0.32874567  0.69026320  0.32481516  1.0
  Mg  Mg3  1  0.01203869  0.36496857  0.69107752  1.0
  Mg  Mg4  1  0.64715550  0.32606654  0.63501484  1.0
  Mg  Mg5  1  0.32103889  0.30891735  0.67395400  1.0
  H  H6  1  0.21876934  0.58923680  0.49725986  1.0
  H  H7  1  0.62910561  0.90799782  0.41075043  1.0
  H  H8  1  0.72187087  0.50280114  0.09197594  1.0
  H  H9  1  0.91648038  0.51348199  0.51048002  1.0
  H  H10  1  0.40239426  0.99698292  0.48651534  1.0
  H  H11  1  0.40584453  0.48956472  0.00301694  1.0
  H  H12  1  0.09087962  0.47386379  0.58002531  1.0
  H  H13  1  0.61715897  0.10607972  0.52600189  1.0
  H  H14  1  0.51070057  0.41992595  0.89387380  1.0
  H  H15  1  0.62507386  0.42598098  0.55780370  1.0
  H  H16  1  0.19909193  0.13184981  0.57391474  1.0
  H  H17  1  0.06673711  0.44205221  0.86824829  1.0
  H  H18  1  0.68017751  0.40728649  0.61125038  1.0
  H  H19  1  0.27294849  0.20400586  0.59262295  1.0
  H  H20  1  0.06839373  0.38873046  0.79601953  1.0
  H  H21  1  0.35248260  0.37580462  0.56596291  1.0
  H  H22  1  0.97667840  0.19008446  0.62423221  1.0
  H  H23  1  0.78588469  0.43418589  0.80988114  1.0
  H  H24  1  0.14698335  0.41154205  0.53754585  1.0
  H  H25  1  0.73527646  0.12598434  0.58837242  1.0
  H  H26  1  0.60837974  0.46244284  0.87396618  1.0
  H  H27  1  0.31019574  0.53151437  0.61604819  1.0
  H  H28  1  0.77859271  0.08437632  0.46831466  1.0
  H  H29  1  0.69414277  0.38395298  0.91559788  1.0
  H  H30  1  0.49984507  0.59196137  0.61686451  1.0
  H  H31  1  0.90806686  0.02472624  0.40794081  1.0
  H  H32  1  0.88338075  0.38317471  0.97521998  1.0
  H  H33  1  0.39091769  0.61500141  0.56627940  1.0
  H  H34  1  0.77592177  0.95117877  0.38501600  1.0
  H  H35  1  0.82511072  0.43384721  0.04882599  1.0
  H  H36  1  0.05006770  0.58701006  0.44689686  1.0
  H  H37  1  0.46246965  0.85983348  0.41292213  1.0
  H  H38  1  0.60323417  0.55303822  0.14017777  1.0
  H  H39  1  0.98488154  0.60235502  0.39728709  1.0
  H  H40  1  0.38201388  0.79492352  0.39753449  1.0
  H  H41  1  0.58761141  0.60268774  0.20508085  1.0
  H  H42  1  0.32814223  0.64260405  0.44700794  1.0
  H  H43  1  0.68504778  0.80449249  0.35745427  1.0
  H  H44  1  0.88099773  0.55306491  0.19556466  1.0
  H  H45  1  0.55279508  0.61659420  0.48373188  1.0
  H  H46  1  0.93561166  0.86720673  0.38344135  1.0
  H  H47  1  0.06927571  0.51626597  0.13291368  1.0
  C  C48  1  0.91235681  0.58316720  0.49281437  1.0
  C  C49  1  0.32875499  0.90963681  0.41683101  1.0
  C  C50  1  0.41974565  0.50720580  0.09042895  1.0
  C  C51  1  0.14716808  0.56568511  0.53559024  1.0
  C  C52  1  0.58121140  0.96986010  0.43432162  1.0
  C  C53  1  0.61185163  0.46450097  0.03015280  1.0
  C  C54  1  0.04113624  0.53107830  0.53415986  1.0
  C  C55  1  0.50979921  0.00304154  0.46893622  1.0
  C  C56  1  0.50721925  0.46594028  0.99697301  1.0
  C  C57  1  0.09862766  0.51947841  0.56380220  1.0
  C  C58  1  0.57913535  0.04424388  0.48048227  1.0
  C  C59  1  0.53511084  0.43627507  0.95576354  1.0
  C  C60  1  0.81313977  0.46639044  0.55216183  1.0
  C  C61  1  0.34671149  0.08579509  0.53352733  1.0
  C  C62  1  0.26083641  0.44777398  0.91427951  1.0
  C  C63  1  0.89991982  0.41305193  0.57360760  1.0
  C  C64  1  0.48689185  0.16055872  0.58684297  1.0
  C  C65  1  0.32579346  0.42630409  0.83945349  1.0
  C  C66  1  0.82804032  0.40056493  0.60105153  1.0
  C  C67  1  0.42749295  0.20047787  0.59931852  1.0
  C  C68  1  0.22651462  0.39888797  0.79953669  1.0
  C  C69  1  0.94314273  0.38050166  0.61748615  1.0
  C  C70  1  0.56268955  0.23694187  0.61945131  1.0
  C  C71  1  0.32531649  0.38248950  0.76306705  1.0
  C  C72  1  0.13910738  0.37208626  0.60480753  1.0
  C  C73  1  0.76706373  0.23267988  0.62792130  1.0
  C  C74  1  0.53395827  0.39517452  0.76729932  1.0
  C  C75  1  0.20611888  0.38409395  0.57635503  1.0
  C  C76  1  0.82210582  0.19223179  0.61592593  1.0
  C  C77  1  0.62925876  0.42367445  0.80772918  1.0
  C  C78  1  0.09248887  0.40433788  0.56076375  1.0
  C  C79  1  0.68815299  0.15642671  0.59560266  1.0
  C  C80  1  0.53113493  0.43916988  0.84354618  1.0
  C  C81  1  0.27255574  0.35102267  0.61952982  1.0
  C  C82  1  0.92145825  0.26846459  0.64899147  1.0
  C  C83  1  0.65267134  0.38048235  0.73150003  1.0
  C  C84  1  0.26395797  0.54144792  0.59363773  1.0
  C  C85  1  0.72251687  0.05206217  0.45845651  1.0
  C  C86  1  0.67056070  0.40640805  0.94793072  1.0
  C  C87  1  0.36973341  0.57533317  0.59415293  1.0
  C  C88  1  0.79438122  0.01869082  0.42457720  1.0
  C  C89  1  0.77583425  0.40587368  0.98129495  1.0
  C  C90  1  0.31034385  0.58805438  0.56558738  1.0
  C  C91  1  0.72207280  0.97744453  0.41191202  1.0
  C  C92  1  0.74496843  0.43447589  0.02255784  1.0
  C  C93  1  0.78178435  0.60664953  0.44230850  1.0
  C  C94  1  0.17454596  0.83568322  0.39331670  1.0
  C  C95  1  0.33952204  0.55769493  0.16438957  1.0
  C  C96  1  0.83890512  0.61031224  0.40817773  1.0
  C  C97  1  0.22804456  0.79788746  0.38962359  1.0
  C  C98  1  0.43070485  0.59182440  0.20214782  1.0
  C  C99  1  0.71666215  0.62534045  0.38739539  1.0
  C  C100  1  0.09087955  0.76209248  0.37461262  1.0
  C  C101  1  0.32908599  0.61264561  0.23793208  1.0
  C  C102  1  0.52441624  0.63614562  0.40128716  1.0
  C  C103  1  0.88784742  0.76519301  0.36383702  1.0
  C  C104  1  0.12298667  0.59874432  0.23483448  1.0
  C  C105  1  0.47196491  0.63265124  0.43601903  1.0
  C  C106  1  0.83880379  0.80343058  0.36737200  1.0
  C  C107  1  0.03586358  0.56402181  0.19662310  1.0
  C  C108  1  0.59500807  0.61858601  0.45674072  1.0
  C  C109  1  0.97580907  0.83821983  0.38143948  1.0
  C  C110  1  0.13829275  0.54327995  0.16186872  1.0
  C  C111  1  0.38130551  0.65197819  0.38244759  1.0
  C  C112  1  0.72910309  0.73052102  0.34802009  1.0
  C  C113  1  0.99879169  0.61760989  0.26950574  1.0
  S  S114  1  0.71029902  0.57847051  0.51413007  1.0
  S  S115  1  0.13141729  0.93566787  0.42154395  1.0
  S  S116  1  0.19651583  0.48586246  0.06441503  1.0
  S  S117  1  0.62577776  0.48180835  0.53368245  1.0
  S  S118  1  0.14376651  0.05197137  0.51814080  1.0
  S  S119  1  0.09205732  0.46627188  0.94819623  1.0
  N  N120  1  0.09889459  0.57774975  0.50533961  1.0
  N  N121  1  0.52073819  0.92756439  0.42226425  1.0
  N  N122  1  0.59381783  0.49475717  0.07245653  1.0
  N  N123  1  0.00460859  0.48446734  0.56428888  1.0
  N  N124  1  0.52019697  0.07977924  0.51545909  1.0
  N  N125  1  0.44035437  0.43569799  0.92022936  1.0
  N  N126  1  0.77376134  0.43250543  0.55865248  1.0
  N  N127  1  0.34126891  0.12617414  0.56737759  1.0
  N  N128  1  0.21464401  0.44121141  0.87388041  1.0
  N  N129  1  0.92067575  0.59230771  0.46060261  1.0
  N  N130  1  0.32785312  0.86827986  0.40763804  1.0
  N  N131  1  0.46017380  0.53935572  0.13177687  1.0
  O  O132  1  0.21637908  0.66299276  0.39751871  1.0
  O  O133  1  0.55315780  0.73454859  0.33699434  1.0
  O  O134  1  0.81884726  0.60254874  0.26546819  1.0
  O  O135  1  0.42291449  0.65429467  0.34961068  1.0
  O  O136  1  0.76877549  0.69538279  0.34568652  1.0
  O  O137  1  0.07330752  0.65040834  0.30464523  1.0
  O  O138  1  0.78792425  0.62948292  0.35620382  1.0
  O  O139  1  0.15829122  0.72678734  0.37048539  1.0
  O  O140  1  0.43155625  0.64382990  0.27323938  1.0
  O  O141  1  0.43797478  0.34069386  0.60448177  1.0
  O  O142  1  0.09718931  0.26378143  0.65936328  1.0
  O  O143  1  0.83297560  0.39556387  0.73615478  1.0
  O  O144  1  0.22062493  0.34365696  0.64884986  1.0
  O  O145  1  0.87685484  0.30513038  0.65631937  1.0
  O  O146  1  0.57151474  0.35113956  0.69484813  1.0
  O  O147  1  0.86528208  0.37075375  0.64461286  1.0
  O  O148  1  0.49461710  0.27382592  0.62922370  1.0
  O  O149  1  0.22040268  0.35537187  0.72620207  1.0
