# generated using pymatgen
data_AlH27C24(N2O)6
_symmetry_space_group_name_H-M   'P 1'
_cell_length_a   3.74442956
_cell_length_b   28.92755608
_cell_length_c   28.92742194
_cell_angle_alpha   60.00019941
_cell_angle_beta   89.99944237
_cell_angle_gamma   89.99969785
_symmetry_Int_Tables_number   1
_chemical_formula_structural   AlH27C24(N2O)6
_chemical_formula_sum   'Al2 H54 C48 N24 O12'
_cell_volume   2713.55509624
_cell_formula_units_Z   2
loop_
 _symmetry_equiv_pos_site_id
 _symmetry_equiv_pos_as_xyz
  1  'x, y, z'
loop_
 _atom_site_type_symbol
 _atom_site_label
 _atom_site_symmetry_multiplicity
 _atom_site_fract_x
 _atom_site_fract_y
 _atom_site_fract_z
 _atom_site_occupancy
  Al  Al0  1  0.00679610  0.50000014  0.99999888  1.0
  Al  Al1  1  0.00677115  0.16666697  0.66666601  1.0
  H  H2  1  0.50323792  0.27715294  0.34167699  1.0
  H  H3  1  0.50377037  0.38953403  0.32499521  1.0
  H  H4  1  0.50320247  0.38117359  0.77714906  1.0
  H  H5  1  0.50380665  0.28547117  0.88953226  1.0
  H  H6  1  0.50326421  0.84167766  0.88116481  1.0
  H  H7  1  0.50377003  0.82499468  0.78546577  1.0
  H  H8  1  0.36270685  0.13207409  0.56490326  1.0
  H  H9  1  0.66768938  0.12752601  0.52560500  1.0
  H  H10  1  0.65319107  0.20252746  0.39183852  1.0
  H  H11  1  0.42644259  0.15763587  0.44537020  1.0
  H  H12  1  0.64131497  0.29796436  0.55688990  1.0
  H  H13  1  0.32986627  0.33918185  0.51624621  1.0
  H  H14  1  0.33013166  0.38831494  0.38496167  1.0
  H  H15  1  0.56501751  0.38410878  0.43612850  1.0
  H  H16  1  0.33010552  0.27836130  0.28170319  1.0
  H  H17  1  0.56513904  0.28257171  0.23054483  1.0
  H  H18  1  0.64134011  0.36870783  0.10978333  1.0
  H  H19  1  0.32984212  0.32749528  0.15042863  1.0
  H  H20  1  0.65319794  0.46417469  0.27481833  1.0
  H  H21  1  0.42643809  0.50905420  0.22128415  1.0
  H  H22  1  0.36269913  0.53460024  0.10175916  1.0
  H  H23  1  0.66765464  0.53915687  0.14105302  1.0
  H  H24  1  0.36271702  0.30302302  0.63207246  1.0
  H  H25  1  0.66769199  0.34686868  0.62752585  1.0
  H  H26  1  0.65319810  0.40563295  0.70252632  1.0
  H  H27  1  0.42644437  0.39699362  0.65763442  1.0
  H  H28  1  0.64131217  0.14514618  0.79796419  1.0
  H  H29  1  0.32986141  0.14457071  0.83918325  1.0
  H  H30  1  0.33014191  0.22672450  0.88831469  1.0
  H  H31  1  0.56501724  0.17976317  0.88410790  1.0
  H  H32  1  0.33011212  0.43993849  0.77835807  1.0
  H  H33  1  0.56514548  0.48688383  0.78257094  1.0
  H  H34  1  0.64133490  0.52150834  0.86870704  1.0
  H  H35  1  0.32984699  0.52207877  0.82749158  1.0
  H  H36  1  0.65320241  0.26100836  0.96417276  1.0
  H  H37  1  0.42642645  0.26966336  0.00905299  1.0
  H  H38  1  0.36269964  0.36364158  0.03459835  1.0
  H  H39  1  0.66765737  0.31979127  0.03915453  1.0
  H  H40  1  0.36271844  0.06490296  0.80302120  1.0
  H  H41  1  0.66769605  0.02560513  0.84686386  1.0
  H  H42  1  0.65320506  0.89184065  0.90562852  1.0
  H  H43  1  0.42644077  0.94537020  0.89698918  1.0
  H  H44  1  0.64130070  0.05689225  0.64514027  1.0
  H  H45  1  0.32985490  0.01624817  0.64456552  1.0
  H  H46  1  0.33013431  0.88496152  0.72671923  1.0
  H  H47  1  0.56501451  0.93612975  0.67975793  1.0
  H  H48  1  0.33011280  0.78170616  0.93993473  1.0
  H  H49  1  0.56513862  0.73054758  0.98688056  1.0
  H  H50  1  0.64133836  0.60978720  0.02150461  1.0
  H  H51  1  0.32985082  0.65043076  0.02207737  1.0
  H  H52  1  0.65319922  0.77481888  0.76100466  1.0
  H  H53  1  0.42642580  0.72128332  0.76966186  1.0
  H  H54  1  0.36270356  0.60176031  0.86364121  1.0
  H  H55  1  0.66765865  0.64105363  0.81979056  1.0
  C  C56  1  0.50608168  0.58428638  0.95417037  1.0
  C  C57  1  0.50607688  0.46154602  0.08428428  1.0
  C  C58  1  0.50608139  0.45417110  0.96154380  1.0
  C  C59  1  0.50609108  0.20513148  0.58238474  1.0
  C  C60  1  0.50608122  0.21248370  0.70513120  1.0
  C  C61  1  0.50609161  0.08238558  0.71248068  1.0
  C  C62  1  0.50306144  0.23225994  0.52381121  1.0
  C  C63  1  0.53557099  0.28834221  0.49377094  1.0
  C  C64  1  0.52173590  0.31455861  0.43768943  1.0
  C  C65  1  0.50081839  0.28495884  0.41062991  1.0
  C  C66  1  0.47695899  0.22819759  0.44198664  1.0
  C  C67  1  0.46611742  0.20208233  0.49789771  1.0
  C  C68  1  0.50297785  0.30734336  0.35328501  1.0
  C  C69  1  0.50314646  0.35934769  0.31338041  1.0
  C  C70  1  0.47695711  0.43849278  0.22467602  1.0
  C  C71  1  0.50084062  0.38173117  0.25603552  1.0
  C  C72  1  0.52170784  0.35212476  0.22898234  1.0
  C  C73  1  0.53556989  0.37833735  0.17290083  1.0
  C  C74  1  0.50306287  0.43442053  0.14285741  1.0
  C  C75  1  0.46609443  0.46460241  0.16876656  1.0
  C  C76  1  0.50304311  0.24392667  0.73226061  1.0
  C  C77  1  0.53556011  0.21788631  0.78834202  1.0
  C  C78  1  0.52175674  0.24775283  0.81455693  1.0
  C  C79  1  0.50082688  0.30441253  0.78495618  1.0
  C  C80  1  0.47697963  0.32981430  0.72819609  1.0
  C  C81  1  0.46612236  0.30001971  0.70208139  1.0
  C  C82  1  0.50299393  0.33936990  0.80734663  1.0
  C  C83  1  0.50316859  0.32727478  0.85934108  1.0
  C  C84  1  0.47696667  0.33683211  0.93849164  1.0
  C  C85  1  0.50083830  0.36223498  0.88172794  1.0
  C  C86  1  0.52171187  0.41889595  0.85212117  1.0
  C  C87  1  0.53556291  0.44876336  0.87833566  1.0
  C  C88  1  0.50305983  0.42272440  0.93441839  1.0
  C  C89  1  0.46610100  0.36663122  0.96460077  1.0
  C  C90  1  0.50303381  0.02381218  0.74392322  1.0
  C  C91  1  0.53555490  0.99377080  0.71788342  1.0
  C  C92  1  0.52174512  0.93768937  0.74774845  1.0
  C  C93  1  0.50082726  0.91063157  0.80440796  1.0
  C  C94  1  0.47697963  0.94198882  0.82981097  1.0
  C  C95  1  0.46611542  0.99789878  0.80001581  1.0
  C  C96  1  0.50299840  0.85328586  0.83936521  1.0
  C  C97  1  0.50317323  0.81338237  0.82726737  1.0
  C  C98  1  0.47697043  0.72467714  0.83682963  1.0
  C  C99  1  0.50085504  0.75603727  0.86223101  1.0
  C  C100  1  0.52172191  0.72898544  0.91889169  1.0
  C  C101  1  0.53556655  0.67290394  0.94876029  1.0
  C  C102  1  0.50306380  0.64285947  0.92272224  1.0
  C  C103  1  0.46610370  0.66876805  0.86662999  1.0
  N  N104  1  0.43269993  0.14532933  0.52621037  1.0
  N  N105  1  0.44784258  0.19696860  0.41722594  1.0
  N  N106  1  0.56724587  0.32078936  0.51791572  1.0
  N  N107  1  0.54224356  0.37063306  0.40974243  1.0
  N  N108  1  0.54221845  0.29605288  0.25692694  1.0
  N  N109  1  0.56723177  0.34588885  0.14875800  1.0
  N  N110  1  0.44783500  0.46972499  0.24943516  1.0
  N  N111  1  0.43267130  0.52135311  0.14044956  1.0
  N  N112  1  0.43270266  0.32845900  0.64532899  1.0
  N  N113  1  0.44785367  0.38580509  0.69696713  1.0
  N  N114  1  0.56723833  0.16129476  0.82078973  1.0
  N  N115  1  0.54225243  0.21962624  0.87063202  1.0
  N  N116  1  0.54222376  0.44702184  0.79604883  1.0
  N  N117  1  0.56723129  0.50535618  0.84588599  1.0
  N  N118  1  0.44783275  0.28084067  0.96972264  1.0
  N  N119  1  0.43267658  0.33819874  0.02135130  1.0
  N  N120  1  0.43271029  0.02620976  0.82845583  1.0
  N  N121  1  0.44786022  0.91722708  0.88579989  1.0
  N  N122  1  0.56723089  0.01791703  0.66129026  1.0
  N  N123  1  0.54224915  0.90974289  0.71962032  1.0
  N  N124  1  0.54223348  0.75693173  0.94701740  1.0
  N  N125  1  0.56723340  0.64876160  0.00535152  1.0
  N  N126  1  0.44783798  0.74943574  0.78083875  1.0
  N  N127  1  0.43267963  0.64045029  0.83819771  1.0
  O  O128  1  0.27352151  0.44412264  0.99812639  1.0
  O  O129  1  0.27352646  0.55775338  0.94412088  1.0
  O  O130  1  0.27351562  0.49812879  0.05775042  1.0
  O  O131  1  0.74077908  0.49120360  0.94802983  1.0
  O  O132  1  0.74077595  0.44803184  0.06076608  1.0
  O  O133  1  0.74077881  0.56076820  0.99120247  1.0
  O  O134  1  0.27352926  0.10891506  0.72253407  1.0
  O  O135  1  0.27352942  0.16854860  0.60891291  1.0
  O  O136  1  0.27352353  0.22253789  0.66854853  1.0
  O  O137  1  0.74079309  0.10590714  0.67545187  1.0
  O  O138  1  0.74077946  0.17545340  0.71863769  1.0
  O  O139  1  0.74079327  0.21863862  0.60590701  1.0
