# generated using pymatgen
data_CuSiH20C24(N2F3)2
_symmetry_space_group_name_H-M   'P 1'
_cell_length_a   8.14071274
_cell_length_b   13.47672492
_cell_length_c   13.47671677
_cell_angle_alpha   89.71338921
_cell_angle_beta   85.82197073
_cell_angle_gamma   85.82111934
_symmetry_Int_Tables_number   1
_chemical_formula_structural   CuSiH20C24(N2F3)2
_chemical_formula_sum   'Cu1 Si1 H20 C24 N4 F6'
_cell_volume   1470.68290696
_cell_formula_units_Z   1
loop_
 _symmetry_equiv_pos_site_id
 _symmetry_equiv_pos_as_xyz
  1  'x, y, z'
loop_
 _atom_site_type_symbol
 _atom_site_label
 _atom_site_symmetry_multiplicity
 _atom_site_fract_x
 _atom_site_fract_y
 _atom_site_fract_z
 _atom_site_occupancy
  Cu  Cu0  1  0.50000426  0.49999876  0.49999582  1.0
  Si  Si1  1  0.99999551  0.49999914  0.50000481  1.0
  H  H2  1  0.26398053  0.49995082  0.34151615  1.0
  H  H3  1  0.27368739  0.49996127  0.15871064  1.0
  H  H4  1  0.80644202  0.50020392  0.15642015  1.0
  H  H5  1  0.77524527  0.50007666  0.34084427  1.0
  H  H6  1  0.19353993  0.49977947  0.84356152  1.0
  H  H7  1  0.72629201  0.50004221  0.84129329  1.0
  H  H8  1  0.73601715  0.50005414  0.65848925  1.0
  H  H9  1  0.22475937  0.49991267  0.65913791  1.0
  H  H10  1  0.68926065  0.49998126  0.99933314  1.0
  H  H11  1  0.31071427  0.50000883  0.00065917  1.0
  H  H12  1  0.26397113  0.34151783  0.49994994  1.0
  H  H13  1  0.27368315  0.15871079  0.49996140  1.0
  H  H14  1  0.80643904  0.15642275  0.50021029  1.0
  H  H15  1  0.77523496  0.34084846  0.50007810  1.0
  H  H16  1  0.19353985  0.84356511  0.49978187  1.0
  H  H17  1  0.72629382  0.84129269  0.50003819  1.0
  H  H18  1  0.73602273  0.65848862  0.50004968  1.0
  H  H19  1  0.22476723  0.65914013  0.49991458  1.0
  H  H20  1  0.68925923  0.99933669  0.49998693  1.0
  H  H21  1  0.31071466  0.00066159  0.50001430  1.0
  C  C22  1  0.38175598  0.49996361  0.29762375  1.0
  C  C23  1  0.38926125  0.49997417  0.19459125  1.0
  C  C24  1  0.54262782  0.50005279  0.13928164  1.0
  C  C25  1  0.68320243  0.50015636  0.19402459  1.0
  C  C26  1  0.66753780  0.50007143  0.29737956  1.0
  C  C27  1  0.56170121  0.50000150  0.03093933  1.0
  C  C28  1  0.43827429  0.49999380  0.96905739  1.0
  C  C29  1  0.31678324  0.49983671  0.80596504  1.0
  C  C30  1  0.45735155  0.49994102  0.86071492  1.0
  C  C31  1  0.61072003  0.50002410  0.80540893  1.0
  C  C32  1  0.61823770  0.50003391  0.70237665  1.0
  C  C33  1  0.33245826  0.49992758  0.70260887  1.0
  C  C34  1  0.38174834  0.29762589  0.49996377  1.0
  C  C35  1  0.38925585  0.19459300  0.49997543  1.0
  C  C36  1  0.54262536  0.13928356  0.50005706  1.0
  C  C37  1  0.68319953  0.19402684  0.50015799  1.0
  C  C38  1  0.66753004  0.29738260  0.50007223  1.0
  C  C39  1  0.56169971  0.03094221  0.50000791  1.0
  C  C40  1  0.43827388  0.96905830  0.49999702  1.0
  C  C41  1  0.31678468  0.80596772  0.49983838  1.0
  C  C42  1  0.45735198  0.86071695  0.49994104  1.0
  C  C43  1  0.61072132  0.80540900  0.50002119  1.0
  C  C44  1  0.61824228  0.70237684  0.50003303  1.0
  C  C45  1  0.33246401  0.70261195  0.49992521  1.0
  N  N46  1  0.51888891  0.49998911  0.34840314  1.0
  N  N47  1  0.48111185  0.50001138  0.65159029  1.0
  N  N48  1  0.51887863  0.34840580  0.49998723  1.0
  N  N49  1  0.48111745  0.65159247  0.50000937  1.0
  F  F50  1  0.21373011  0.49968583  0.49967814  1.0
  F  F51  1  0.78626452  0.50030351  0.50032524  1.0
  F  F52  1  0.99997607  0.59005142  0.40995326  1.0
  F  F53  1  0.00001421  0.40994313  0.59005547  1.0
  F  F54  1  0.02096077  0.40994098  0.40994366  1.0
  F  F55  1  0.97903356  0.59006101  0.59006412  1.0
