# generated using pymatgen
data_Zn2H33C40N5O8
_symmetry_space_group_name_H-M   'P 1'
_cell_length_a   9.59256570
_cell_length_b   11.00525594
_cell_length_c   14.11434815
_cell_angle_alpha   90.57618217
_cell_angle_beta   99.79249535
_cell_angle_gamma   91.70824455
_symmetry_Int_Tables_number   1
_chemical_formula_structural   Zn2H33C40N5O8
_chemical_formula_sum   'Zn2 H33 C40 N5 O8'
_cell_volume   1467.49742843
_cell_formula_units_Z   1
loop_
 _symmetry_equiv_pos_site_id
 _symmetry_equiv_pos_as_xyz
  1  'x, y, z'
loop_
 _atom_site_type_symbol
 _atom_site_label
 _atom_site_symmetry_multiplicity
 _atom_site_fract_x
 _atom_site_fract_y
 _atom_site_fract_z
 _atom_site_occupancy
  Zn  Zn0  1  0.87006958  0.49720832  0.51979545  1.0
  Zn  Zn1  1  0.13934228  0.50346962  0.47972664  1.0
  H  H2  1  0.00638350  0.50725929  0.99016277  1.0
  H  H3  1  0.18023152  0.10771421  0.41219526  1.0
  H  H4  1  0.66770530  0.10284064  0.50752989  1.0
  H  H5  1  0.78212430  0.90395107  0.64734234  1.0
  H  H6  1  0.67591095  0.88039414  0.53074351  1.0
  H  H7  1  0.35423732  0.36639283  0.38572683  1.0
  H  H8  1  0.62065623  0.35121493  0.41248497  1.0
  H  H9  1  0.66171232  0.61349150  0.72393942  1.0
  H  H10  1  0.67309887  0.73042471  0.63782483  1.0
  H  H11  1  0.39657096  0.62847056  0.69799786  1.0
  H  H12  1  0.40548135  0.74693949  0.61356135  1.0
  H  H13  1  0.81819674  0.45579793  0.85653611  1.0
  H  H14  1  0.94631989  0.31157536  0.80872815  1.0
  H  H15  1  0.34457757  0.45921865  0.76196140  1.0
  H  H16  1  0.51333749  0.33394611  0.16691415  1.0
  H  H17  1  0.35188592  0.20205969  0.19448571  1.0
  H  H18  1  0.18714450  0.27088710  0.16301354  1.0
  H  H19  1  0.22335025  0.13471678  0.10238893  1.0
  H  H20  1  0.18537876  0.78966324  0.37395794  1.0
  H  H21  1  0.27452191  0.93437254  0.37189795  1.0
  H  H22  1  0.30640188  0.84091080  0.47520790  1.0
  H  H23  1  0.85944273  0.12239452  0.70630319  1.0
  H  H24  1  0.78728636  0.24738240  0.63841917  1.0
  H  H25  1  0.67249761  0.13872691  0.68336579  1.0
  H  H26  1  0.52597058  0.54497529  0.17920582  1.0
  H  H27  1  0.60493891  0.45762697  0.27803554  1.0
  H  H28  1  0.66099057  0.60917230  0.27025242  1.0
  H  H29  1  0.15808764  0.54661834  0.23978057  1.0
  H  H30  1  0.18990163  0.53314680  0.12081667  1.0
  H  H31  1  0.92301609  0.24433414  0.95456649  1.0
  H  H32  1  0.04983348  0.23778433  0.05151112  1.0
  H  H33  1  0.48261004  0.33231870  0.74879013  1.0
  H  H34  1  0.65225921  0.36742679  0.73877684  1.0
  C  C35  1  0.00645451  0.73571738  0.51643543  1.0
  C  C36  1  0.35049632  0.37283057  0.89995212  1.0
  C  C37  1  0.26485846  0.31796680  0.96402530  1.0
  C  C38  1  0.50010642  0.40057444  0.93195439  1.0
  C  C39  1  0.55096447  0.40767359  0.03213479  1.0
  C  C40  1  0.46565731  0.34837325  0.09240649  1.0
  C  C41  1  0.33281929  0.29693082  0.06140975  1.0
  C  C42  1  0.60241495  0.41457853  0.86788209  1.0
  C  C43  1  0.74139889  0.44753936  0.90524409  1.0
  C  C44  1  0.78946156  0.46937895  0.00493206  1.0
  C  C45  1  0.69143113  0.45625166  0.07039136  1.0
  C  C46  1  0.07679858  0.43772929  0.68065957  1.0
  C  C47  1  0.93200557  0.49922900  0.04049574  1.0
  C  C48  1  0.98303153  0.51028751  0.13893444  1.0
  C  C49  1  0.73672838  0.49294961  0.16805246  1.0
  C  C50  1  0.89797992  0.93940830  0.52655744  1.0
  C  C51  1  0.00429360  0.86954336  0.49958641  1.0
  C  C52  1  0.10746393  0.93339274  0.45548400  1.0
  C  C53  1  0.09999026  0.05992186  0.44528099  1.0
  C  C54  1  0.99495185  0.12971217  0.47567784  1.0
  C  C55  1  0.89290896  0.06501149  0.51571308  1.0
  C  C56  1  0.75964340  0.07576551  0.56013860  1.0
  C  C57  1  0.99595354  0.26478575  0.46964774  1.0
  C  C58  1  0.76569181  0.93292784  0.57201158  1.0
  C  C59  1  0.44244027  0.56390080  0.55876639  1.0
  C  C60  1  0.42230024  0.42245806  0.43987931  1.0
  C  C61  1  0.56892977  0.41370071  0.45467526  1.0
  C  C62  1  0.58934411  0.55509542  0.57340674  1.0
  C  C63  1  0.61416627  0.64858466  0.65375442  1.0
  C  C64  1  0.44671382  0.65851204  0.63762466  1.0
  C  C65  1  0.93315558  0.52558759  0.31040749  1.0
  C  C66  1  0.14060137  0.39010531  0.77666469  1.0
  C  C67  1  0.88281605  0.51137551  0.20481433  1.0
  C  C68  1  0.11727560  0.29186764  0.92726916  1.0
  C  C69  1  0.05863166  0.32917682  0.83505534  1.0
  C  C70  1  0.28490200  0.40842899  0.80788203  1.0
  C  C71  1  0.26912970  0.22192089  0.13328037  1.0
  C  C72  1  0.22454915  0.87124916  0.41681583  1.0
  C  C73  1  0.76988141  0.15063384  0.65248623  1.0
  C  C74  1  0.62576380  0.52737010  0.22693331  1.0
  N  N75  1  0.35588085  0.50079693  0.49123742  1.0
  N  N76  1  0.65631638  0.48314130  0.52135350  1.0
  N  N77  1  0.12634841  0.51869042  0.17019589  1.0
  N  N78  1  0.02713169  0.23035673  0.97903606  1.0
  N  N79  1  0.56758645  0.38972033  0.76931579  1.0
  O  O80  1  0.88959219  0.68256386  0.52707525  1.0
  O  O81  1  0.12328616  0.68284477  0.51924511  1.0
  O  O82  1  0.94494515  0.45968192  0.66363867  1.0
  O  O83  1  0.16188798  0.45295404  0.62127032  1.0
  O  O84  1  0.88912648  0.31522095  0.49420580  1.0
  O  O85  1  0.10191132  0.32011375  0.44407170  1.0
  O  O86  1  0.84606450  0.50903787  0.36807523  1.0
  O  O87  1  0.06652278  0.54945784  0.34095150  1.0
