# generated using pymatgen
data_Zn2H23C41N2O9
_symmetry_space_group_name_H-M   'P 1'
_cell_length_a   16.52545125
_cell_length_b   17.91484673
_cell_length_c   29.09724224
_cell_angle_alpha   90.24831896
_cell_angle_beta   89.86993927
_cell_angle_gamma   89.94940097
_symmetry_Int_Tables_number   1
_chemical_formula_structural   Zn2H23C41N2O9
_chemical_formula_sum   'Zn4 H46 C82 N4 O18'
_cell_volume   8614.15898684
_cell_formula_units_Z   2
loop_
 _symmetry_equiv_pos_site_id
 _symmetry_equiv_pos_as_xyz
  1  'x, y, z'
loop_
 _atom_site_type_symbol
 _atom_site_label
 _atom_site_symmetry_multiplicity
 _atom_site_fract_x
 _atom_site_fract_y
 _atom_site_fract_z
 _atom_site_occupancy
  Zn  Zn0  1  0.58364888  0.49989199  0.50095954  1.0
  Zn  Zn1  1  0.41541564  0.50007100  0.49998384  1.0
  Zn  Zn2  1  0.41537592  0.50200391  0.88528709  1.0
  Zn  Zn3  1  0.58359278  0.50180655  0.88387423  1.0
  H  H4  1  0.28586425  0.58223312  0.55061961  1.0
  H  H5  1  0.13387935  0.58527803  0.55310817  1.0
  H  H6  1  0.13504590  0.41462633  0.44726665  1.0
  H  H7  1  0.28729900  0.41858670  0.44987122  1.0
  H  H8  1  0.86489968  0.58533156  0.55315318  1.0
  H  H9  1  0.71261106  0.58118251  0.55146921  1.0
  H  H10  1  0.71217264  0.41857061  0.45021188  1.0
  H  H11  1  0.86444185  0.41491782  0.44722368  1.0
  H  H12  1  0.62975341  0.73786702  0.50040523  1.0
  H  H13  1  0.63043190  0.87765073  0.49984162  1.0
  H  H14  1  0.36946529  0.87763503  0.49972555  1.0
  H  H15  1  0.37036496  0.73786569  0.50031430  1.0
  H  H16  1  0.63048836  0.12207114  0.49994921  1.0
  H  H17  1  0.62980834  0.26186723  0.50019365  1.0
  H  H18  1  0.37039899  0.26224715  0.50016391  1.0
  H  H19  1  0.36952381  0.12247018  0.49994765  1.0
  H  H20  1  0.68769011  0.55067282  0.73537948  1.0
  H  H21  1  0.68702914  0.45099759  0.73547314  1.0
  H  H22  1  0.68693927  0.45053727  0.64887310  1.0
  H  H23  1  0.68756756  0.55021640  0.64910805  1.0
  H  H24  1  0.37029778  0.50214518  0.03148630  1.0
  H  H25  1  0.36970162  0.50167227  0.11760084  1.0
  H  H26  1  0.63067534  0.50186326  0.11702830  1.0
  H  H27  1  0.62965222  0.50226990  0.03089919  1.0
  H  H28  1  0.36984447  0.50057901  0.26783636  1.0
  H  H29  1  0.37060910  0.50027511  0.35394753  1.0
  H  H30  1  0.62995075  0.50051257  0.35371953  1.0
  H  H31  1  0.63082414  0.50088275  0.26760298  1.0
  H  H32  1  0.71300302  0.58301220  0.83367045  1.0
  H  H33  1  0.86532342  0.58742090  0.83217574  1.0
  H  H34  1  0.86393693  0.41799215  0.93781033  1.0
  H  H35  1  0.71169871  0.42133531  0.93461254  1.0
  H  H36  1  0.13440677  0.58713458  0.83237535  1.0
  H  H37  1  0.28634833  0.58394776  0.83490550  1.0
  H  H38  1  0.28667539  0.42090482  0.93515481  1.0
  H  H39  1  0.13438830  0.41720555  0.93774564  1.0
  H  H40  1  0.37043471  0.73982041  0.88372760  1.0
  H  H41  1  0.36952594  0.87962099  0.88384932  1.0
  H  H42  1  0.63049378  0.87963167  0.88401315  1.0
  H  H43  1  0.62982255  0.73982565  0.88388728  1.0
  H  H44  1  0.36947624  0.12435678  0.88438542  1.0
  H  H45  1  0.37033386  0.26414380  0.88446564  1.0
  H  H46  1  0.62973229  0.26379738  0.88454669  1.0
  H  H47  1  0.63044197  0.12399849  0.88452386  1.0
  H  H48  1  0.36448593  0.49907555  0.61348166  1.0
  H  H49  1  0.36466197  0.49969406  0.77202182  1.0
  C  C50  1  0.50037101  0.64625061  0.50148536  1.0
  C  C51  1  0.49794655  0.50053924  0.59205797  1.0
  C  C52  1  0.50030318  0.35369715  0.50001436  1.0
  C  C53  1  0.49996931  0.49959463  0.41018644  1.0
  C  C54  1  0.50041532  0.64818807  0.88334455  1.0
  C  C55  1  0.49819463  0.50152218  0.79301610  1.0
  C  C56  1  0.50024652  0.35560440  0.88477182  1.0
  C  C57  1  0.49959395  0.50168165  0.97483572  1.0
  C  C58  1  0.24951628  0.54614319  0.52853531  1.0
  C  C59  1  0.16557085  0.54775066  0.52967259  1.0
  C  C60  1  0.12205711  0.50003593  0.50009701  1.0
  C  C61  1  0.16628816  0.45242479  0.47062790  1.0
  C  C62  1  0.25020459  0.45434119  0.47188761  1.0
  C  C63  1  0.03643930  0.49997569  0.49999338  1.0
  C  C64  1  0.96266264  0.50006491  0.49996312  1.0
  C  C65  1  0.87703508  0.50009844  0.50015841  1.0
  C  C66  1  0.83327126  0.54763919  0.52989857  1.0
  C  C67  1  0.74932707  0.54565078  0.52911195  1.0
  C  C68  1  0.74909282  0.45423347  0.47224515  1.0
  C  C69  1  0.83302018  0.45251158  0.47074260  1.0
  C  C70  1  0.50009336  0.72980563  0.50076755  1.0
  C  C71  1  0.57332165  0.76936761  0.50043974  1.0
  C  C72  1  0.57358720  0.84684599  0.50004621  1.0
  C  C73  1  0.49992727  0.88695675  0.49992919  1.0
  C  C74  1  0.42636302  0.84682154  0.49997546  1.0
  C  C75  1  0.42677402  0.76932467  0.50037356  1.0
  C  C76  1  0.49987389  0.96587141  0.49977500  1.0
  C  C77  1  0.49992766  0.03406141  0.49974934  1.0
  C  C78  1  0.49998987  0.11298051  0.49979228  1.0
  C  C79  1  0.57364381  0.15297449  0.49987199  1.0
  C  C80  1  0.57337563  0.23046407  0.49996033  1.0
  C  C81  1  0.50012878  0.27013605  0.49991789  1.0
  C  C82  1  0.42681444  0.23071140  0.49991591  1.0
  C  C83  1  0.42641637  0.15321574  0.49985832  1.0
  C  C84  1  0.49747524  0.50150022  0.74226955  1.0
  C  C85  1  0.49734882  0.50098388  0.64280702  1.0
  C  C86  1  0.56904453  0.50140619  0.71615034  1.0
  C  C87  1  0.42378380  0.50107086  0.66809091  1.0
  C  C88  1  0.56899833  0.50113735  0.66867164  1.0
  C  C89  1  0.42383494  0.50128048  0.71722631  1.0
  C  C90  1  0.66060533  0.50082555  0.71945722  1.0
  C  C91  1  0.66053479  0.50052955  0.66504896  1.0
  C  C92  1  0.49995056  0.50165394  0.02628138  1.0
  C  C93  1  0.42672743  0.50172975  0.05077675  1.0
  C  C94  1  0.42649868  0.50156879  0.09847839  1.0
  C  C95  1  0.50022280  0.50140784  0.12296513  1.0
  C  C96  1  0.57379056  0.50166694  0.09813615  1.0
  C  C97  1  0.57331679  0.50179000  0.05042364  1.0
  C  C98  1  0.50032096  0.50109891  0.17152341  1.0
  C  C99  1  0.50036389  0.50081417  0.21348946  1.0
  C  C100  1  0.50035497  0.50047510  0.26204815  1.0
  C  C101  1  0.42668363  0.50033715  0.28677654  1.0
  C  C102  1  0.42700199  0.50009018  0.33447724  1.0
  C  C103  1  0.50026563  0.49990528  0.35873734  1.0
  C  C104  1  0.57357980  0.50021406  0.33437004  1.0
  C  C105  1  0.57396035  0.50048441  0.28665716  1.0
  C  C106  1  0.74954493  0.54771201  0.85597119  1.0
  C  C107  1  0.83350588  0.54988634  0.85532207  1.0
  C  C108  1  0.87700870  0.50269506  0.88503074  1.0
  C  C109  1  0.83272624  0.45532094  0.91431144  1.0
  C  C110  1  0.74880624  0.45683805  0.91267671  1.0
  C  C111  1  0.96262175  0.50266264  0.88530459  1.0
  C  C112  1  0.03640275  0.50245005  0.88529637  1.0
  C  C113  1  0.12200980  0.50234117  0.88519507  1.0
  C  C114  1  0.16582503  0.54979405  0.85575366  1.0
  C  C115  1  0.24975426  0.54808046  0.85689915  1.0
  C  C116  1  0.24983240  0.45660134  0.91324800  1.0
  C  C117  1  0.16590563  0.45481438  0.91450195  1.0
  C  C118  1  0.50016491  0.73175926  0.88349727  1.0
  C  C119  1  0.42683891  0.77128889  0.88361850  1.0
  C  C120  1  0.42641884  0.84878965  0.88376343  1.0
  C  C121  1  0.49999703  0.88891481  0.88385664  1.0
  C  C122  1  0.57365634  0.84881187  0.88385683  1.0
  C  C123  1  0.57339079  0.77132513  0.88370252  1.0
  C  C124  1  0.49992855  0.96780992  0.88404506  1.0
  C  C125  1  0.49992969  0.03598317  0.88429196  1.0
  C  C126  1  0.49994592  0.11488944  0.88452085  1.0
  C  C127  1  0.42635427  0.15511685  0.88453672  1.0
  C  C128  1  0.42674326  0.23261419  0.88463007  1.0
  C  C129  1  0.50005700  0.27203939  0.88473447  1.0
  C  C130  1  0.57330141  0.23238975  0.88469586  1.0
  C  C131  1  0.57359681  0.15490184  0.88461986  1.0
  N  N132  1  0.29094166  0.50031182  0.50026132  1.0
  N  N133  1  0.70813360  0.49983369  0.50087843  1.0
  N  N134  1  0.70809962  0.50206864  0.88405892  1.0
  N  N135  1  0.29088971  0.50237593  0.88503981  1.0
  O  O136  1  0.56912814  0.61392498  0.50151343  1.0
  O  O137  1  0.43178416  0.61360711  0.50197244  1.0
  O  O138  1  0.42849922  0.49970051  0.57142111  1.0
  O  O139  1  0.56566572  0.50093439  0.57140538  1.0
  O  O140  1  0.43168613  0.38637108  0.49986126  1.0
  O  O141  1  0.56904285  0.38597443  0.50025401  1.0
  O  O142  1  0.56836291  0.49926125  0.43034520  1.0
  O  O143  1  0.43098434  0.49973604  0.42995578  1.0
  O  O144  1  0.43183271  0.61552505  0.88316175  1.0
  O  O145  1  0.56916460  0.61584514  0.88347397  1.0
  O  O146  1  0.56594233  0.50216738  0.81346734  1.0
  O  O147  1  0.42876566  0.50080231  0.81384944  1.0
  O  O148  1  0.56898680  0.38786551  0.88442820  1.0
  O  O149  1  0.43163372  0.38828222  0.88512873  1.0
  O  O150  1  0.43059335  0.50210104  0.95526052  1.0
  O  O151  1  0.56796969  0.50136950  0.95448831  1.0
  O  O152  1  0.35074529  0.50062488  0.64722056  1.0
  O  O153  1  0.35083838  0.50097902  0.73832831  1.0
