# generated using pymatgen
data_AlH7C15BrO5
_symmetry_space_group_name_H-M   'P 1'
_cell_length_a   6.62502989
_cell_length_b   11.11027466
_cell_length_c   15.19686592
_cell_angle_alpha   88.81141585
_cell_angle_beta   77.69936954
_cell_angle_gamma   73.15489348
_symmetry_Int_Tables_number   1
_chemical_formula_structural   AlH7C15BrO5
_chemical_formula_sum   'Al2 H14 C30 Br2 O10'
_cell_volume   1044.99999440
_cell_formula_units_Z   2
loop_
 _symmetry_equiv_pos_site_id
 _symmetry_equiv_pos_as_xyz
  1  'x, y, z'
loop_
 _atom_site_type_symbol
 _atom_site_label
 _atom_site_symmetry_multiplicity
 _atom_site_fract_x
 _atom_site_fract_y
 _atom_site_fract_z
 _atom_site_occupancy
  Al  Al0  1  0.99723211  0.50182217  0.49885407  1.0
  Al  Al1  1  0.49933072  0.49836733  0.49786286  1.0
  H  H2  1  0.34435366  0.35438383  0.43722353  1.0
  H  H3  1  0.64534902  0.65272448  0.54321637  1.0
  H  H4  1  0.11761553  0.59739231  0.23174704  1.0
  H  H5  1  0.31514357  0.66503925  0.08938036  1.0
  H  H6  1  0.63359674  0.41318547  0.22235176  1.0
  H  H7  1  0.59431615  0.33953797  0.07443100  1.0
  H  H8  1  0.88196313  0.40403408  0.76557632  1.0
  H  H9  1  0.68698727  0.33473155  0.90776612  1.0
  H  H10  1  0.36902733  0.58627295  0.77446763  1.0
  H  H11  1  0.40883472  0.65964712  0.92277638  1.0
  H  H12  1  0.56985124  0.23621036  0.63106000  1.0
  H  H13  1  0.36207791  0.12057218  0.73430320  1.0
  H  H14  1  0.81359183  0.76734824  0.62399663  1.0
  H  H15  1  0.48550538  0.88494238  0.73085063  1.0
  C  C16  1  0.86317263  0.27453278  0.50526383  1.0
  C  C17  1  0.82034366  0.50232476  0.33571966  1.0
  C  C18  1  0.13687584  0.72667202  0.49189286  1.0
  C  C19  1  0.17947479  0.49792914  0.66126747  1.0
  C  C20  1  0.03219227  0.55742168  0.19171809  1.0
  C  C21  1  0.08121536  0.56024785  0.09733986  1.0
  C  C22  1  0.23673731  0.61887963  0.04996688  1.0
  C  C23  1  0.76003296  0.45187982  0.18624585  1.0
  C  C24  1  0.81414882  0.44504441  0.09177344  1.0
  C  C25  1  0.71435448  0.38349026  0.03910776  1.0
  C  C26  1  0.96847905  0.44332502  0.80548141  1.0
  C  C27  1  0.92055061  0.43976500  0.89980610  1.0
  C  C28  1  0.76545664  0.38085139  0.94716081  1.0
  C  C29  1  0.24205602  0.54795382  0.81061274  1.0
  C  C30  1  0.18825647  0.55464339  0.90519110  1.0
  C  C31  1  0.28827117  0.61595105  0.95798373  1.0
  C  C32  1  0.87140817  0.50499257  0.23546022  1.0
  C  C33  1  0.97450667  0.50128808  0.04640405  1.0
  C  C34  1  0.12941079  0.49549966  0.76157459  1.0
  C  C35  1  0.02777902  0.49849813  0.95064433  1.0
  C  C36  1  0.93562645  0.13333243  0.50248205  1.0
  C  C37  1  0.81191401  0.06856549  0.56367498  1.0
  C  C38  1  0.11716107  0.06700971  0.43984906  1.0
  C  C39  1  0.62379811  0.13377825  0.62818506  1.0
  C  C40  1  0.50741353  0.06874784  0.68615090  1.0
  C  C41  1  0.06829470  0.86793435  0.49497225  1.0
  C  C42  1  0.18351034  0.93325943  0.43557217  1.0
  C  C43  1  0.88052291  0.93353058  0.56041540  1.0
  C  C44  1  0.76024525  0.86964522  0.62331805  1.0
  C  C45  1  0.57679866  0.93580590  0.68397514  1.0
  Br  Br46  1  0.42268532  0.84412736  0.34509186  1.0
  Br  Br47  1  0.26996063  0.15442872  0.35401915  1.0
  O  O48  1  0.99352597  0.33114911  0.52080037  1.0
  O  O49  1  0.62546767  0.51044159  0.37359624  1.0
  O  O50  1  0.32339706  0.67132626  0.50539937  1.0
  O  O51  1  0.02068987  0.51824084  0.62240645  1.0
  O  O52  1  0.99919451  0.67337893  0.47943124  1.0
  O  O53  1  0.37651295  0.48213747  0.62261581  1.0
  O  O54  1  0.67539213  0.32646867  0.49163542  1.0
  O  O55  1  0.97638431  0.48950258  0.37516936  1.0
  O  O56  1  0.29365832  0.44097323  0.46097477  1.0
  O  O57  1  0.69942734  0.56155317  0.53624143  1.0
