# generated using pymatgen
data_Zn4H8C24S4O17
_symmetry_space_group_name_H-M   'P 1'
_cell_length_a   19.68795846
_cell_length_b   19.68653290
_cell_length_c   33.43454203
_cell_angle_alpha   79.01888938
_cell_angle_beta   79.01371338
_cell_angle_gamma   63.84494863
_symmetry_Int_Tables_number   1
_chemical_formula_structural   Zn4H8C24S4O17
_chemical_formula_sum   'Zn16 H32 C96 S16 O68'
_cell_volume   11335.03220541
_cell_formula_units_Z   4
loop_
 _symmetry_equiv_pos_site_id
 _symmetry_equiv_pos_as_xyz
  1  'x, y, z'
loop_
 _atom_site_type_symbol
 _atom_site_label
 _atom_site_symmetry_multiplicity
 _atom_site_fract_x
 _atom_site_fract_y
 _atom_site_fract_z
 _atom_site_occupancy
  Zn  Zn0  1  0.59881517  0.94380433  0.52124338  1.0
  Zn  Zn1  1  0.51754095  0.01746458  0.43998225  1.0
  Zn  Zn2  1  0.44000055  0.93992864  0.51752980  1.0
  Zn  Zn3  1  0.44383462  0.09879591  0.52124393  1.0
  Zn  Zn4  1  0.65115982  0.30628447  0.72873784  1.0
  Zn  Zn5  1  0.80999206  0.31008870  0.73249378  1.0
  Zn  Zn6  1  0.73245609  0.23253059  0.81001381  1.0
  Zn  Zn7  1  0.80623535  0.15120939  0.72873679  1.0
  Zn  Zn8  1  0.23246546  0.73252635  0.30999225  1.0
  Zn  Zn9  1  0.30622386  0.65120915  0.22872155  1.0
  Zn  Zn10  1  0.15118783  0.80627169  0.22870800  1.0
  Zn  Zn11  1  0.31000890  0.81008906  0.23246163  1.0
  Zn  Zn12  1  0.94001249  0.43992504  0.01750012  1.0
  Zn  Zn13  1  0.94381940  0.59879352  0.02123696  1.0
  Zn  Zn14  1  0.09884779  0.44378795  0.02122016  1.0
  Zn  Zn15  1  0.01754410  0.51742794  0.93997848  1.0
  H  H16  1  0.48942160  0.71370775  0.59065956  1.0
  H  H17  1  0.76059765  0.53636290  0.65938162  1.0
  H  H18  1  0.45267903  0.22845107  0.35151451  1.0
  H  H19  1  0.29731068  0.52147023  0.39849873  1.0
  H  H20  1  0.72847283  0.95266055  0.35154202  1.0
  H  H21  1  0.02147154  0.79730710  0.39847394  1.0
  H  H22  1  0.22095908  0.19915191  0.59785255  1.0
  H  H23  1  0.02904185  0.05095947  0.65209915  1.0
  H  H24  1  0.52147484  0.29725679  0.89847674  1.0
  H  H25  1  0.22846878  0.45270915  0.85154126  1.0
  H  H26  1  0.89122172  0.91310877  0.79003288  1.0
  H  H27  1  0.85881423  0.83688215  0.95999654  1.0
  H  H28  1  0.52903983  0.55092612  0.15212254  1.0
  H  H29  1  0.72096126  0.69911340  0.09787873  1.0
  H  H30  1  0.26059381  0.03637156  0.15937430  1.0
  H  H31  1  0.98941575  0.21371771  0.09065427  1.0
  H  H32  1  0.47282160  0.18995800  0.58129457  1.0
  H  H33  1  0.77704656  0.06024725  0.66866212  1.0
  H  H34  1  0.55994009  0.27724928  0.66862222  1.0
  H  H35  1  0.69012887  0.97264459  0.58135894  1.0
  H  H36  1  0.36424481  0.86437682  0.47292204  1.0
  H  H37  1  0.38575360  0.88560707  0.27711107  1.0
  H  H38  1  0.27709002  0.77705540  0.38551639  1.0
  H  H39  1  0.47288458  0.97290088  0.36448315  1.0
  H  H40  1  0.77712153  0.27693850  0.88559397  1.0
  H  H41  1  0.97285086  0.47300997  0.86440620  1.0
  H  H42  1  0.86424335  0.36440225  0.97291829  1.0
  H  H43  1  0.88575697  0.38558010  0.77711222  1.0
  H  H44  1  0.05994612  0.77724893  0.16861705  1.0
  H  H45  1  0.19013022  0.47264697  0.08135324  1.0
  H  H46  1  0.97286816  0.68980723  0.08132068  1.0
  H  H47  1  0.27709890  0.56009234  0.16868671  1.0
  C  C48  1  0.68416820  0.93869834  0.43827516  1.0
  C  C49  1  0.42995537  0.93002758  0.43008325  1.0
  C  C50  1  0.56106282  0.81563643  0.56142761  1.0
  C  C51  1  0.31564959  0.06196656  0.56145252  1.0
  C  C52  1  0.57005050  0.06993397  0.56989745  1.0
  C  C53  1  0.43870787  0.18416716  0.43826401  1.0
  C  C54  1  0.68890807  0.43445981  0.68854965  1.0
  C  C55  1  0.82003467  0.31988846  0.81993999  1.0
  C  C56  1  0.56581793  0.31122204  0.81169390  1.0
  C  C57  1  0.81166265  0.06536426  0.81127320  1.0
  C  C58  1  0.67995494  0.18007908  0.68005925  1.0
  C  C59  1  0.93446635  0.18809656  0.68854259  1.0
  C  C60  1  0.31125302  0.56580174  0.31170500  1.0
  C  C61  1  0.17995986  0.68005128  0.18007484  1.0
  C  C62  1  0.06582262  0.81123588  0.31169600  1.0
  C  C63  1  0.18889516  0.93448220  0.18855813  1.0
  C  C64  1  0.32002664  0.81993542  0.31992970  1.0
  C  C65  1  0.43446104  0.68809328  0.18855573  1.0
  C  C66  1  0.81564541  0.56195941  0.06147328  1.0
  C  C67  1  0.07005091  0.56991071  0.06991603  1.0
  C  C68  1  0.06105152  0.31565641  0.06143483  1.0
  C  C69  1  0.18417006  0.43871785  0.93828112  1.0
  C  C70  1  0.92993655  0.43007988  0.93007010  1.0
  C  C71  1  0.93827453  0.68461908  0.93872102  1.0
  C  C72  1  0.59796168  0.09788084  0.59795427  1.0
  C  C73  1  0.65194418  0.15200610  0.65209974  1.0
  C  C74  1  0.55214895  0.17088087  0.61159925  1.0
  C  C75  1  0.69772923  0.07900671  0.63845682  1.0
  C  C76  1  0.57895387  0.19773513  0.63845469  1.0
  C  C77  1  0.67096663  0.05212043  0.61160414  1.0
  C  C78  1  0.40199077  0.90200082  0.40208346  1.0
  C  C79  1  0.34797653  0.84793874  0.34795280  1.0
  C  C80  1  0.35868530  0.85863294  0.41813167  1.0
  C  C81  1  0.39127359  0.89131911  0.33191371  1.0
  C  C82  1  0.33187052  0.83180495  0.39126546  1.0
  C  C83  1  0.41808061  0.91812494  0.35877781  1.0
  C  C84  1  0.54617241  0.69639027  0.59876105  1.0
  C  C85  1  0.70384774  0.55373059  0.65125930  1.0
  C  C86  1  0.58640876  0.74097408  0.58634999  1.0
  C  C87  1  0.66361672  0.50912664  0.66361245  1.0
  C  C88  1  0.66120287  0.62195159  0.62763505  1.0
  C  C89  1  0.58884928  0.62821976  0.62239603  1.0
  C  C90  1  0.42377810  0.27362049  0.37121321  1.0
  C  C91  1  0.32620311  0.47632770  0.37878186  1.0
  C  C92  1  0.41363271  0.25908087  0.41360438  1.0
  C  C93  1  0.33636761  0.49088832  0.33639230  1.0
  C  C94  1  0.35802675  0.39725021  0.39150281  1.0
  C  C95  1  0.39200170  0.35269169  0.35847493  1.0
  C  C96  1  0.77364999  0.92375325  0.37122791  1.0
  C  C97  1  0.97632379  0.82620037  0.37876917  1.0
  C  C98  1  0.75909180  0.91360804  0.41361942  1.0
  C  C99  1  0.99090101  0.83636429  0.33637922  1.0
  C  C100  1  0.89725310  0.85800880  0.39150628  1.0
  C  C101  1  0.85271381  0.89198137  0.35847261  1.0
  C  C102  1  0.20011666  0.15510959  0.60246158  1.0
  C  C103  1  0.04995084  0.09494746  0.64750075  1.0
  C  C104  1  0.24095812  0.08642517  0.58634896  1.0
  C  C105  1  0.00913714  0.16363981  0.66360708  1.0
  C  C106  1  0.11953443  0.09170708  0.62524736  1.0
  C  C107  1  0.13059926  0.15826130  0.62475540  1.0
  C  C108  1  0.84796652  0.34792147  0.84795614  1.0
  C  C109  1  0.90199015  0.40202056  0.90207934  1.0
  C  C110  1  0.83184494  0.33182356  0.89127257  1.0
  C  C111  1  0.91810458  0.41810081  0.85876981  1.0
  C  C112  1  0.85867011  0.35866524  0.91812897  1.0
  C  C113  1  0.89128701  0.39127674  0.83191574  1.0
  C  C114  1  0.47632795  0.32618232  0.87877239  1.0
  C  C115  1  0.27364385  0.42377226  0.87122642  1.0
  C  C116  1  0.49090742  0.33635821  0.83638090  1.0
  C  C117  1  0.25907959  0.41361681  0.91362001  1.0
  C  C118  1  0.35271167  0.39198955  0.85847396  1.0
  C  C119  1  0.39725390  0.35799762  0.89150613  1.0
  C  C120  1  0.87511701  0.92006588  0.82246555  1.0
  C  C121  1  0.87498128  0.82995276  0.92756091  1.0
  C  C122  1  0.83644086  0.99091865  0.83640902  1.0
  C  C123  1  0.91361233  0.75909675  0.91361046  1.0
  C  C124  1  0.86094211  0.88864083  0.89441717  1.0
  C  C125  1  0.88921779  0.86141570  0.85561758  1.0
  C  C126  1  0.15195775  0.65200740  0.15209985  1.0
  C  C127  1  0.09797547  0.59788156  0.09795621  1.0
  C  C128  1  0.07896200  0.69774220  0.13844609  1.0
  C  C129  1  0.17097236  0.55212578  0.11159688  1.0
  C  C130  1  0.05216538  0.67088902  0.11159411  1.0
  C  C131  1  0.19774671  0.57901487  0.13845097  1.0
  C  C132  1  0.54993335  0.59492790  0.14751026  1.0
  C  C133  1  0.70010227  0.65509000  0.10247285  1.0
  C  C134  1  0.50911614  0.66362256  0.16361253  1.0
  C  C135  1  0.74094226  0.58640158  0.08636382  1.0
  C  C136  1  0.63057649  0.65825203  0.12475928  1.0
  C  C137  1  0.61951201  0.59169325  0.12525170  1.0
  C  C138  1  0.20384315  0.05374094  0.15125637  1.0
  C  C139  1  0.04616339  0.19640005  0.09875896  1.0
  C  C140  1  0.16361102  0.00913582  0.16361485  1.0
  C  C141  1  0.08639943  0.24098327  0.08635279  1.0
  C  C142  1  0.08884385  0.12822840  0.12239338  1.0
  C  C143  1  0.16119789  0.12195796  0.12763140  1.0
  S  S144  1  0.67585577  0.70059058  0.60323965  1.0
  S  S145  1  0.57418461  0.54956585  0.64672615  1.0
  S  S146  1  0.36569177  0.34088354  0.43812188  1.0
  S  S147  1  0.38430924  0.40908171  0.31186648  1.0
  S  S148  1  0.84087981  0.86565267  0.43813686  1.0
  S  S149  1  0.90910597  0.88431689  0.31185388  1.0
  S  S150  1  0.19540576  0.02561076  0.59810818  1.0
  S  S151  1  0.05474888  0.22439066  0.65188002  1.0
  S  S152  1  0.40910885  0.38433528  0.81185566  1.0
  S  S153  1  0.34087651  0.36563524  0.93813664  1.0
  S  S154  1  0.81705685  0.98676190  0.88956604  1.0
  S  S155  1  0.93297982  0.76329165  0.86045915  1.0
  S  S156  1  0.55472650  0.72437798  0.15188303  1.0
  S  S157  1  0.69538965  0.52559292  0.09811436  1.0
  S  S158  1  0.07417865  0.04957447  0.14672625  1.0
  S  S159  1  0.17585006  0.20059865  0.10323769  1.0
  O  O160  1  0.50000648  0.00000189  0.49996905  1.0
  O  O161  1  0.68403380  0.92286408  0.47728141  1.0
  O  O162  1  0.46909590  0.96911726  0.41482581  1.0
  O  O163  1  0.49475685  0.84294152  0.54988654  1.0
  O  O164  1  0.62581346  0.97403737  0.41880117  1.0
  O  O165  1  0.60790021  0.84685211  0.55346062  1.0
  O  O166  1  0.41465158  0.91483339  0.46918086  1.0
  O  O167  1  0.34310077  0.99552519  0.54984724  1.0
  O  O168  1  0.50381178  0.11242790  0.55793135  1.0
  O  O169  1  0.34667980  0.10878436  0.55352513  1.0
  O  O170  1  0.61250032  0.00367002  0.55796052  1.0
  O  O171  1  0.47405095  0.12579629  0.41880203  1.0
  O  O172  1  0.42283572  0.18406769  0.47726926  1.0
  O  O173  1  0.74999689  0.24998897  0.74998522  1.0
  O  O174  1  0.64201874  0.40329147  0.69652492  1.0
  O  O175  1  0.83532541  0.33513734  0.78084054  1.0
  O  O176  1  0.62420054  0.27590584  0.83114561  1.0
  O  O177  1  0.75519490  0.40710114  0.70011301  1.0
  O  O178  1  0.56592187  0.32705756  0.77268276  1.0
  O  O179  1  0.78095408  0.28072978  0.83519155  1.0
  O  O180  1  0.77623029  0.12395005  0.83072058  1.0
  O  O181  1  0.74626987  0.13765649  0.69195751  1.0
  O  O182  1  0.82749678  0.06534371  0.77236476  1.0
  O  O183  1  0.63756602  0.24637495  0.69195823  1.0
  O  O184  1  0.90697829  0.25451189  0.70016296  1.0
  O  O185  1  0.90346654  0.14124047  0.69647981  1.0
  O  O186  1  0.24999573  0.75001417  0.24999360  1.0
  O  O187  1  0.27593549  0.62418451  0.33116320  1.0
  O  O188  1  0.24624916  0.63761781  0.19199563  1.0
  O  O189  1  0.06595164  0.82705707  0.27268877  1.0
  O  O190  1  0.32711515  0.56590297  0.27269826  1.0
  O  O191  1  0.12418476  0.77593725  0.33116807  1.0
  O  O192  1  0.13756031  0.74636030  0.19196936  1.0
  O  O193  1  0.14201109  0.90330983  0.19653834  1.0
  O  O194  1  0.33533917  0.83515062  0.28083573  1.0
  O  O195  1  0.25518208  0.90712691  0.20012619  1.0
  O  O196  1  0.28089014  0.78082865  0.33518947  1.0
  O  O197  1  0.40341986  0.64127542  0.19649778  1.0
  O  O198  1  0.40701308  0.75450903  0.20018124  1.0
  O  O199  1  0.00000179  0.50001916  0.99999405  1.0
  O  O200  1  0.84313572  0.49552236  0.04986611  1.0
  O  O201  1  0.00378740  0.61238919  0.05797616  1.0
  O  O202  1  0.10789777  0.34685953  0.05346915  1.0
  O  O203  1  0.84663765  0.60880969  0.05355606  1.0
  O  O204  1  0.99474271  0.34296958  0.04990232  1.0
  O  O205  1  0.11249873  0.50366163  0.05796962  1.0
  O  O206  1  0.18406438  0.42288406  0.97728987  1.0
  O  O207  1  0.96902576  0.46921918  0.91481882  1.0
  O  O208  1  0.12579054  0.47406251  0.91882866  1.0
  O  O209  1  0.91466304  0.41485027  0.96917394  1.0
  O  O210  1  0.92237851  0.68464552  0.97762720  1.0
  O  O211  1  0.97370095  0.62603387  0.91927422  1.0
  O  O212  1  0.48241942  0.21749642  0.60003250  1.0
  O  O213  1  0.76747925  0.03248781  0.65002963  1.0
  O  O214  1  0.53235634  0.26745726  0.64999890  1.0
  O  O215  1  0.71764593  0.98241090  0.60002973  1.0
  O  O216  1  0.34119766  0.84109113  0.45877904  1.0
  O  O217  1  0.40875765  0.90889275  0.29127612  1.0
  O  O218  1  0.29120560  0.79110711  0.40872518  1.0
  O  O219  1  0.45873784  0.95882808  0.34129442  1.0
  O  O220  1  0.79116242  0.29116602  0.90875673  1.0
  O  O221  1  0.95878403  0.45875510  0.84126242  1.0
  O  O222  1  0.84117152  0.34114337  0.95877776  1.0
  O  O223  1  0.90880442  0.40882012  0.79127691  1.0
  O  O224  1  0.03235902  0.76747117  0.14999134  1.0
  O  O225  1  0.21764238  0.48242126  0.10002489  1.0
  O  O226  1  0.98242901  0.71748842  0.10000070  1.0
  O  O227  1  0.26748891  0.53247566  0.14999813  1.0
