# generated using pymatgen
data_ZnH16C33(NO3)2
_symmetry_space_group_name_H-M   'P 1'
_cell_length_a   16.49083494
_cell_length_b   17.89108590
_cell_length_c   28.11902743
_cell_angle_alpha   89.76960474
_cell_angle_beta   89.88676798
_cell_angle_gamma   89.71974694
_symmetry_Int_Tables_number   1
_chemical_formula_structural   ZnH16C33(NO3)2
_chemical_formula_sum   'Zn2 H32 C66 N4 O12'
_cell_volume   8296.02597543
_cell_formula_units_Z   2
loop_
 _symmetry_equiv_pos_site_id
 _symmetry_equiv_pos_as_xyz
  1  'x, y, z'
loop_
 _atom_site_type_symbol
 _atom_site_label
 _atom_site_symmetry_multiplicity
 _atom_site_fract_x
 _atom_site_fract_y
 _atom_site_fract_z
 _atom_site_occupancy
  Zn  Zn0  1  0.58376789  0.49961859  0.50019211  1.0
  Zn  Zn1  1  0.41612424  0.50031895  0.50033997  1.0
  H  H2  1  0.37004753  0.50393283  0.65238591  1.0
  H  H3  1  0.13514786  0.41438225  0.55453083  1.0
  H  H4  1  0.71282840  0.41804715  0.55233814  1.0
  H  H5  1  0.28747229  0.58203163  0.44805755  1.0
  H  H6  1  0.71171313  0.58120198  0.44788633  1.0
  H  H7  1  0.28778879  0.41856761  0.55232625  1.0
  H  H8  1  0.36961830  0.50421268  0.74171457  1.0
  H  H9  1  0.63054132  0.50540644  0.25868834  1.0
  H  H10  1  0.55139251  0.31799609  0.87837326  1.0
  H  H11  1  0.42075930  0.67336694  0.12194025  1.0
  H  H12  1  0.37026695  0.49546018  0.34811937  1.0
  H  H13  1  0.62993345  0.50513844  0.34797939  1.0
  H  H14  1  0.62986312  0.49561969  0.65214809  1.0
  H  H15  1  0.37005441  0.49547520  0.25882648  1.0
  H  H16  1  0.63020739  0.49529689  0.74147562  1.0
  H  H17  1  0.57997983  0.32731923  0.12291012  1.0
  H  H18  1  0.44844280  0.68149985  0.87729960  1.0
  H  H19  1  0.57807095  0.32406175  0.03493822  1.0
  H  H20  1  0.44530207  0.68314132  0.96529840  1.0
  H  H21  1  0.55483812  0.31673093  0.96636877  1.0
  H  H22  1  0.42235682  0.67615585  0.03394467  1.0
  H  H23  1  0.63059330  0.87724739  0.48478293  1.0
  H  H24  1  0.62982262  0.73779615  0.49263589  1.0
  H  H25  1  0.36932591  0.12311025  0.48481764  1.0
  H  H26  1  0.63080312  0.12190767  0.48480531  1.0
  H  H27  1  0.36912431  0.87838530  0.48467981  1.0
  H  H28  1  0.37008049  0.26240917  0.49301925  1.0
  H  H29  1  0.63000416  0.26121754  0.49295204  1.0
  H  H30  1  0.36989758  0.73893279  0.49249730  1.0
  H  H31  1  0.86549879  0.41446018  0.55473063  1.0
  H  H32  1  0.13479136  0.58567732  0.44531751  1.0
  H  H33  1  0.86437273  0.58542201  0.44530861  1.0
  C  C34  1  0.50002567  0.35317482  0.49856451  1.0
  C  C35  1  0.52908048  0.43702773  0.12724048  1.0
  C  C36  1  0.49994302  0.49931307  0.64717898  1.0
  C  C37  1  0.50007479  0.50068824  0.35314521  1.0
  C  C38  1  0.52661666  0.43461923  0.02629993  1.0
  C  C39  1  0.47772393  0.56669074  0.97395430  1.0
  C  C40  1  0.47371892  0.56553280  0.02592964  1.0
  C  C41  1  0.52243821  0.43321933  0.97434710  1.0
  C  C42  1  0.50019485  0.50012989  0.05093987  1.0
  C  C43  1  0.50003217  0.49989840  0.94933576  1.0
  C  C44  1  0.55559905  0.37382477  0.05292043  1.0
  C  C45  1  0.49985620  0.64677731  0.49711602  1.0
  C  C46  1  0.46032603  0.63108597  0.94731426  1.0
  C  C47  1  0.55715809  0.37493514  0.10256703  1.0
  C  C48  1  0.46197526  0.63099442  0.89765800  1.0
  C  C49  1  0.49995644  0.49920508  0.59379108  1.0
  C  C50  1  0.49998282  0.50069301  0.40652553  1.0
  C  C51  1  0.53974086  0.36871110  0.94808439  1.0
  C  C52  1  0.44485958  0.62647876  0.05220682  1.0
  C  C53  1  0.57362834  0.84668069  0.48629122  1.0
  C  C54  1  0.42629085  0.15359102  0.48666740  1.0
  C  C55  1  0.57381758  0.15289615  0.48665536  1.0
  C  C56  1  0.49994055  0.49978718  0.89843487  1.0
  C  C57  1  0.42610240  0.84734605  0.48623289  1.0
  C  C58  1  0.57326594  0.76935947  0.49062136  1.0
  C  C59  1  0.42663504  0.23080830  0.49131182  1.0
  C  C60  1  0.57346139  0.23012124  0.49127852  1.0
  C  C61  1  0.42644891  0.77002154  0.49054588  1.0
  C  C62  1  0.49984744  0.73021083  0.49280615  1.0
  C  C63  1  0.50004905  0.26985034  0.49386105  1.0
  C  C64  1  0.49987442  0.88708771  0.48424021  1.0
  C  C65  1  0.50005219  0.11320745  0.48458129  1.0
  C  C66  1  0.49991272  0.96603663  0.48172233  1.0
  C  C67  1  0.50026824  0.50025792  0.10183826  1.0
  C  C68  1  0.50002542  0.03431067  0.48181830  1.0
  C  C69  1  0.83364645  0.45213271  0.53059447  1.0
  C  C70  1  0.16647039  0.54793638  0.46948840  1.0
  C  C71  1  0.83301792  0.54760826  0.46947773  1.0
  C  C72  1  0.16666538  0.45228093  0.53049197  1.0
  C  C73  1  0.74953620  0.45382254  0.52944053  1.0
  C  C74  1  0.25057553  0.54623173  0.47083477  1.0
  C  C75  1  0.74892882  0.54556936  0.47071892  1.0
  C  C76  1  0.25075905  0.45430886  0.52945421  1.0
  C  C77  1  0.87725630  0.49994646  0.50000040  1.0
  C  C78  1  0.51915499  0.43346046  0.87339315  1.0
  C  C79  1  0.12264684  0.50006971  0.49993797  1.0
  C  C80  1  0.96298898  0.50003342  0.49992585  1.0
  C  C81  1  0.03691244  0.50002041  0.49988086  1.0
  C  C82  1  0.51915553  0.43177389  0.82078993  1.0
  C  C83  1  0.47076958  0.56512300  0.17947829  1.0
  C  C84  1  0.48048854  0.56748609  0.82039757  1.0
  C  C85  1  0.53001944  0.43582854  0.17984360  1.0
  C  C86  1  0.57346612  0.49723422  0.72169719  1.0
  C  C87  1  0.42674518  0.49759311  0.27860293  1.0
  C  C88  1  0.57330258  0.49714660  0.67219890  1.0
  C  C89  1  0.47154701  0.56362690  0.12688417  1.0
  C  C90  1  0.42681444  0.49779721  0.32809750  1.0
  C  C91  1  0.42657314  0.50180904  0.67233198  1.0
  C  C92  1  0.57344460  0.50337250  0.32801472  1.0
  C  C93  1  0.42636436  0.50189639  0.72183228  1.0
  C  C94  1  0.57374792  0.50354260  0.27851743  1.0
  C  C95  1  0.49989949  0.49951706  0.74620240  1.0
  C  C96  1  0.50029326  0.50061634  0.25410115  1.0
  C  C97  1  0.53791005  0.36858511  0.89843076  1.0
  C  C98  1  0.44344990  0.62562012  0.10186331  1.0
  C  C99  1  0.48064777  0.56600362  0.87301133  1.0
  N  N100  1  0.49988866  0.49959539  0.79754050  1.0
  N  N101  1  0.50036111  0.50052277  0.20277834  1.0
  N  N102  1  0.70813702  0.49960229  0.50009570  1.0
  N  N103  1  0.29175648  0.50038809  0.50024566  1.0
  O  O104  1  0.56881795  0.38533949  0.49987010  1.0
  O  O105  1  0.44625424  0.61927674  0.20229394  1.0
  O  O106  1  0.55470170  0.38183858  0.20297795  1.0
  O  O107  1  0.46465966  0.62412184  0.79719673  1.0
  O  O108  1  0.43106053  0.61459267  0.49848020  1.0
  O  O109  1  0.56866065  0.61406933  0.49887636  1.0
  O  O110  1  0.43121560  0.38585382  0.50055543  1.0
  O  O111  1  0.56875227  0.49854636  0.57308395  1.0
  O  O112  1  0.43116789  0.50030379  0.42721226  1.0
  O  O113  1  0.56873654  0.50098024  0.42712251  1.0
  O  O114  1  0.43118259  0.49988708  0.57321254  1.0
  O  O115  1  0.53481337  0.37499971  0.79792016  1.0
