# generated using pymatgen
data_MgH7C11SN2O3
_symmetry_space_group_name_H-M   'P 1'
_cell_length_a   6.90415363
_cell_length_b   31.38225461
_cell_length_c   31.38833428
_cell_angle_alpha   119.46427186
_cell_angle_beta   94.21853640
_cell_angle_gamma   94.18689390
_symmetry_Int_Tables_number   1
_chemical_formula_structural   MgH7C11SN2O3
_chemical_formula_sum   'Mg6 H42 C66 S6 N12 O18'
_cell_volume   5858.31964830
_cell_formula_units_Z   6
loop_
 _symmetry_equiv_pos_site_id
 _symmetry_equiv_pos_as_xyz
  1  'x, y, z'
loop_
 _atom_site_type_symbol
 _atom_site_label
 _atom_site_symmetry_multiplicity
 _atom_site_fract_x
 _atom_site_fract_y
 _atom_site_fract_z
 _atom_site_occupancy
  Mg  Mg0  1  0.42640322  0.34189930  0.70338259  1.0
  Mg  Mg1  1  0.08439261  0.36163561  0.65811985  1.0
  Mg  Mg2  1  0.72292958  0.29661387  0.63837700  1.0
  Mg  Mg3  1  0.79469275  0.68308949  0.37207959  1.0
  Mg  Mg4  1  0.11172725  0.68892639  0.31701525  1.0
  Mg  Mg5  1  0.42276909  0.62803950  0.31121252  1.0
  H  H6  1  0.61220644  0.11594699  0.57979173  1.0
  H  H7  1  0.49592656  0.46380974  0.88408061  1.0
  H  H8  1  0.03230593  0.42018403  0.53614545  1.0
  H  H9  1  0.68172826  0.99456708  0.54339496  1.0
  H  H10  1  0.68632125  0.54869425  0.00544233  1.0
  H  H11  1  0.13843441  0.45653524  0.45117666  1.0
  H  H12  1  0.91781882  0.94527393  0.49144097  1.0
  H  H13  1  0.97219939  0.54621334  0.05471809  1.0
  H  H14  1  0.42685685  0.50830195  0.45374842  1.0
  H  H15  1  0.36721521  0.99619766  0.48051842  1.0
  H  H16  1  0.37127098  0.48456379  0.00392434  1.0
  H  H17  1  0.88703678  0.51931891  0.51563158  1.0
  H  H18  1  0.96655379  0.93414918  0.40497834  1.0
  H  H19  1  0.03265528  0.47097012  0.06589545  1.0
  H  H20  1  0.56149014  0.59479259  0.52913451  1.0
  H  H21  1  0.14986817  0.82056074  0.39545808  1.0
  H  H22  1  0.32886043  0.57500832  0.17950144  1.0
  H  H23  1  0.75358014  0.60429583  0.42506344  1.0
  H  H24  1  0.45556920  0.81702577  0.33800197  1.0
  H  H25  1  0.63808479  0.52114741  0.18297510  1.0
  H  H26  1  0.11698933  0.66185940  0.47901355  1.0
  H  H27  1  0.68550501  0.89351945  0.36942406  1.0
  H  H28  1  0.79144837  0.47616412  0.10644629  1.0
  H  H29  1  0.31549318  0.63038862  0.52406649  1.0
  H  H30  1  0.19210164  0.07389986  0.49234263  1.0
  H  H31  1  0.11895123  0.41861450  0.92615528  1.0
  H  H32  1  0.69990394  0.50757203  0.58160544  1.0
  H  H33  1  0.95862094  0.12431571  0.54736380  1.0
  H  H34  1  0.83483983  0.42311694  0.87572183  1.0
  H  H35  1  0.41128192  0.45259606  0.57699904  1.0
  H  H36  1  0.46928884  0.10195369  0.67608306  1.0
  H  H37  1  0.36723587  0.57416695  0.89806083  1.0
  H  H38  1  0.79278367  0.32397811  0.42580725  1.0
  H  H39  1  0.67341763  0.19803516  0.66046412  1.0
  H  H40  1  0.47507401  0.46251144  0.80198266  1.0
  H  H41  1  0.01244732  0.33957599  0.53753252  1.0
  H  H42  1  0.94838101  0.17552985  0.63934937  1.0
  H  H43  1  0.77254570  0.46393434  0.82445495  1.0
  H  H44  1  0.30813843  0.36032324  0.53584380  1.0
  H  H45  1  0.12506057  0.11140729  0.64338233  1.0
  H  H46  1  0.01326167  0.53203284  0.88862510  1.0
  H  H47  1  0.48084621  0.35634898  0.46776237  1.0
  C  C48  1  0.65741579  0.08866540  0.62679419  1.0
  C  C49  1  0.56834207  0.53809980  0.91137152  1.0
  C  C50  1  0.03024823  0.37319636  0.46186116  1.0
  C  C51  1  0.80902151  0.06318966  0.55059492  1.0
  C  C52  1  0.74565767  0.48734836  0.93680830  1.0
  C  C53  1  0.25850150  0.44933418  0.51261754  1.0
  C  C54  1  0.79419153  0.01229527  0.53270701  1.0
  C  C55  1  0.78149366  0.52034749  0.98770888  1.0
  C  C56  1  0.26168975  0.46717830  0.47957711  1.0
  C  C57  1  0.92750809  0.98433356  0.50297297  1.0
  C  C58  1  0.94301295  0.51868482  0.01568594  1.0
  C  C59  1  0.42488061  0.49682305  0.48129518  1.0
  C  C60  1  0.07731361  0.00672640  0.48982659  1.0
  C  C61  1  0.07077060  0.48321211  0.99330437  1.0
  C  C62  1  0.58780280  0.50998547  0.51686224  1.0
  C  C63  1  0.21396091  0.92890955  0.43863728  1.0
  C  C64  1  0.28488623  0.50999905  0.07118920  1.0
  C  C65  1  0.77520839  0.56117774  0.49021282  1.0
  C  C66  1  0.93213615  0.86213397  0.38541357  1.0
  C  C67  1  0.06961520  0.52344511  0.13789070  1.0
  C  C68  1  0.54621376  0.61441651  0.47672343  1.0
  C  C69  1  0.99836813  0.82005378  0.38280984  1.0
  C  C70  1  0.17787749  0.56285952  0.18000013  1.0
  C  C71  1  0.61493710  0.61703885  0.43725964  1.0
  C  C72  1  0.86886824  0.77617055  0.36457579  1.0
  C  C73  1  0.09235437  0.58843656  0.22390943  1.0
  C  C74  1  0.50392383  0.63540092  0.41169498  1.0
  C  C75  1  0.66750526  0.77571995  0.34906677  1.0
  C  C76  1  0.89143231  0.57339495  0.22434233  1.0
  C  C77  1  0.31806001  0.65091231  0.42674929  1.0
  C  C78  1  0.60878445  0.81811919  0.34994914  1.0
  C  C79  1  0.79023814  0.53197619  0.18188920  1.0
  C  C80  1  0.25833925  0.64994260  0.46819912  1.0
  C  C81  1  0.73702658  0.86052770  0.36719832  1.0
  C  C82  1  0.87604914  0.50687316  0.13946123  1.0
  C  C83  1  0.36933827  0.63264628  0.49333518  1.0
  C  C84  1  0.51505372  0.73401639  0.33397217  1.0
  C  C85  1  0.78088489  0.59990800  0.26610682  1.0
  C  C86  1  0.18094273  0.66612703  0.40019207  1.0
  C  C87  1  0.08139548  0.05682062  0.50424860  1.0
  C  C88  1  0.02502996  0.44754248  0.94320370  1.0
  C  C89  1  0.57734491  0.49562303  0.55258161  1.0
  C  C90  1  0.94905706  0.08498854  0.53477024  1.0
  C  C91  1  0.86436431  0.44982198  0.91502583  1.0
  C  C92  1  0.41437447  0.46514500  0.55024424  1.0
  C  C93  1  0.41102288  0.14969891  0.64989037  1.0
  C  C94  1  0.26094753  0.50025728  0.85032570  1.0
  C  C95  1  0.76050687  0.35006348  0.49968263  1.0
  C  C96  1  0.51396652  0.19212382  0.65433848  1.0
  C  C97  1  0.32153251  0.46231720  0.80788664  1.0
  C  C98  1  0.85903711  0.34565069  0.53768509  1.0
  C  C99  1  0.41579061  0.23085603  0.65667181  1.0
  C  C100  1  0.18470594  0.42594777  0.76913276  1.0
  C  C101  1  0.75852825  0.34330073  0.57406452  1.0
  C  C102  1  0.20580109  0.22321564  0.64859396  1.0
  C  C103  1  0.98233385  0.42549144  0.77676694  1.0
  C  C104  1  0.55650233  0.35132198  0.57445103  1.0
  C  C105  1  0.10766481  0.18030986  0.64472389  1.0
  C  C106  1  0.92705950  0.46451987  0.81967600  1.0
  C  C107  1  0.46216267  0.35506184  0.53533504  1.0
  C  C108  1  0.20556211  0.14425810  0.64646202  1.0
  C  C109  1  0.06092814  0.50229162  0.85575371  1.0
  C  C110  1  0.55833509  0.35332907  0.49756641  1.0
  C  C111  1  0.08816902  0.25782782  0.64325631  1.0
  C  C112  1  0.83024032  0.38552799  0.74217023  1.0
  C  C113  1  0.44445520  0.35673437  0.61442784  1.0
  S  S114  1  0.78034195  0.05635220  0.64617795  1.0
  S  S115  1  0.72354128  0.58977911  0.94370470  1.0
  S  S116  1  0.13369351  0.35378816  0.41016521  1.0
  S  S117  1  0.39036013  0.90004181  0.44726734  1.0
  S  S118  1  0.48964457  0.54767026  0.10005301  1.0
  S  S119  1  0.94277530  0.55254807  0.45270574  1.0
  N  N120  1  0.68628575  0.09211519  0.58577522  1.0
  N  N121  1  0.59383476  0.49360661  0.90790786  1.0
  N  N122  1  0.10040515  0.41419242  0.50634228  1.0
  N  N123  1  0.22840281  0.98040628  0.46415645  1.0
  N  N124  1  0.24818799  0.48392672  0.01967416  1.0
  N  N125  1  0.76449645  0.53566718  0.51621163  1.0
  N  N126  1  0.04413698  0.90856245  0.40675568  1.0
  N  N127  1  0.13547797  0.49839525  0.09150395  1.0
  N  N128  1  0.63708971  0.59303848  0.50176148  1.0
  N  N129  1  0.51088356  0.11334196  0.65254253  1.0
  N  N130  1  0.39717301  0.53922016  0.88671228  1.0
  N  N131  1  0.85779966  0.34749739  0.46074511  1.0
  O  O132  1  0.90669437  0.24569120  0.62637169  1.0
  O  O133  1  0.66096981  0.38075771  0.75432055  1.0
  O  O134  1  0.27991461  0.37364299  0.61917916  1.0
  O  O135  1  0.17423943  0.30125850  0.65619751  1.0
  O  O136  1  0.87303628  0.35504944  0.69875909  1.0
  O  O137  1  0.51780807  0.34385141  0.64494769  1.0
  O  O138  1  0.52091518  0.27351174  0.66797293  1.0
  O  O139  1  0.24730244  0.39462772  0.72647910  1.0
  O  O140  1  0.85258978  0.33203252  0.60543668  1.0
  O  O141  1  0.33827837  0.73553576  0.32040695  1.0
  O  O142  1  0.60262254  0.58482700  0.26459896  1.0
  O  O143  1  0.01771776  0.67969609  0.41525843  1.0
  O  O144  1  0.56432014  0.69599574  0.33611066  1.0
  O  O145  1  0.86832903  0.63999205  0.30416192  1.0
  O  O146  1  0.22829270  0.66406660  0.36009319  1.0
  O  O147  1  0.94092972  0.73699059  0.36316356  1.0
  O  O148  1  0.20373106  0.62611953  0.26311082  1.0
  O  O149  1  0.57758332  0.63690750  0.37400690  1.0
