# generated using pymatgen
data_Al3H7(C9O7)2
_symmetry_space_group_name_H-M   'P 1'
_cell_length_a   11.73542916
_cell_length_b   11.75410616
_cell_length_c   19.31882424
_cell_angle_alpha   89.64524467
_cell_angle_beta   89.85423257
_cell_angle_gamma   115.82293718
_symmetry_Int_Tables_number   1
_chemical_formula_structural   Al3H7(C9O7)2
_chemical_formula_sum   'Al6 H14 C36 O28'
_cell_volume   2398.64404553
_cell_formula_units_Z   2
loop_
 _symmetry_equiv_pos_site_id
 _symmetry_equiv_pos_as_xyz
  1  'x, y, z'
loop_
 _atom_site_type_symbol
 _atom_site_label
 _atom_site_symmetry_multiplicity
 _atom_site_fract_x
 _atom_site_fract_y
 _atom_site_fract_z
 _atom_site_occupancy
  Al  Al0  1  0.77735784  0.23947606  0.49712406  1.0
  Al  Al1  1  0.51072604  0.25300837  0.49544739  1.0
  Al  Al2  1  0.74740364  0.49794566  0.49210676  1.0
  Al  Al3  1  0.24264873  0.78439226  0.97512948  1.0
  Al  Al4  1  0.49650182  0.74544308  0.97397086  1.0
  Al  Al5  1  0.24702659  0.51456123  0.97068024  1.0
  H  H6  1  0.36521071  0.31966317  0.67211997  1.0
  H  H7  1  0.29908578  0.38178649  0.78313918  1.0
  H  H8  1  0.08402709  0.73011344  0.77701342  1.0
  H  H9  1  0.63563820  0.91237949  0.78350437  1.0
  H  H10  1  0.95504544  0.66794970  0.66811881  1.0
  H  H11  1  0.69504861  0.03946944  0.67291213  1.0
  H  H12  1  0.58224430  0.56541249  0.79671159  1.0
  H  H13  1  0.00052376  0.44373273  0.79386354  1.0
  H  H14  1  0.45238691  0.03456215  0.80246605  1.0
  H  H15  1  0.57822025  0.59204039  0.67142518  1.0
  H  H16  1  0.00754785  0.43270752  0.67525466  1.0
  H  H17  1  0.42255437  0.01458248  0.68006451  1.0
  H  H18  1  0.89309729  0.13293588  0.45681170  1.0
  H  H19  1  0.19622911  0.95643541  0.95376203  1.0
  C  C20  1  0.89849829  0.46061450  0.39444712  1.0
  C  C21  1  0.47430043  0.91284840  0.88131911  1.0
  C  C22  1  0.44405440  0.54137320  0.87792370  1.0
  C  C23  1  0.11160661  0.57991902  0.87206337  1.0
  C  C24  1  0.90332306  0.46171273  0.59017951  1.0
  C  C25  1  0.55185682  0.10515209  0.59342152  1.0
  C  C26  1  0.54967069  0.46105704  0.58643130  1.0
  C  C27  1  0.46587130  0.50892831  0.13644435  1.0
  C  C28  1  0.04340200  0.53005242  0.13537822  1.0
  C  C29  1  0.49262310  0.94460116  0.14362729  1.0
  C  C30  1  0.49445531  0.47941518  0.26629027  1.0
  C  C31  1  0.56364531  0.10804276  0.39788207  1.0
  C  C32  1  0.97952516  0.50154966  0.26404414  1.0
  C  C33  1  0.52094615  0.01633706  0.27046381  1.0
  C  C34  1  0.47882578  0.49418787  0.19818767  1.0
  C  C35  1  0.01270780  0.51653720  0.19652273  1.0
  C  C36  1  0.50617062  0.97847460  0.20401114  1.0
  C  C37  1  0.51018997  0.46755084  0.32801363  1.0
  C  C38  1  0.95003837  0.48821415  0.32537091  1.0
  C  C39  1  0.53308158  0.05098331  0.33069607  1.0
  C  C40  1  0.51773240  0.49627394  0.65424959  1.0
  C  C41  1  0.97298456  0.49916491  0.65571234  1.0
  C  C42  1  0.54048016  0.44234496  0.39673127  1.0
  C  C43  1  0.51812982  0.03974505  0.66093519  1.0
  C  C44  1  0.48220859  0.51308325  0.80995715  1.0
  C  C45  1  0.04494507  0.54445648  0.80547095  1.0
  C  C46  1  0.50435829  0.97924298  0.81411318  1.0
  C  C47  1  0.39674154  0.43430278  0.76488761  1.0
  C  C48  1  0.04279017  0.63162503  0.76023236  1.0
  C  C49  1  0.58292153  0.96507629  0.76741459  1.0
  C  C50  1  0.42490743  0.41170745  0.69459425  1.0
  C  C51  1  0.98690380  0.60222589  0.69191863  1.0
  C  C52  1  0.60393593  0.01743800  0.69791706  1.0
  C  C53  1  0.45680704  0.89079043  0.07591988  1.0
  C  C54  1  0.44434913  0.54365786  0.06795132  1.0
  C  C55  1  0.09899559  0.55678282  0.06724554  1.0
  O  O56  1  0.67505153  0.13908041  0.41876556  1.0
  O  O57  1  0.87341396  0.54188687  0.55834028  1.0
  O  O58  1  0.87432433  0.34970785  0.57090092  1.0
  O  O59  1  0.46775806  0.13644671  0.56699218  1.0
  O  O60  1  0.65582964  0.53889602  0.55983173  1.0
  O  O61  1  0.67734273  0.33156552  0.49360060  1.0
  O  O62  1  0.11885671  0.66116223  0.03955027  1.0
  O  O63  1  0.54012468  0.87132551  0.04062705  1.0
  O  O64  1  0.34291310  0.47013986  0.03741962  1.0
  O  O65  1  0.34487283  0.86432129  0.05793052  1.0
  O  O66  1  0.52702855  0.65000640  0.04488583  1.0
  O  O67  1  0.46555201  0.33628158  0.42385488  1.0
  O  O68  1  0.12853730  0.47171689  0.04174894  1.0
  O  O69  1  0.15471945  0.69318280  0.89198675  1.0
  O  O70  1  0.54667141  0.86275913  0.90275653  1.0
  O  O71  1  0.33203762  0.47127947  0.90052607  1.0
  O  O72  1  0.37577404  0.90497356  0.91230298  1.0
  O  O73  1  0.52507362  0.63929699  0.90866770  1.0
  O  O74  1  0.12354055  0.48913630  0.90493370  1.0
  O  O75  1  0.86507379  0.54243395  0.42073349  1.0
  O  O76  1  0.33012274  0.68024706  0.97403311  1.0
  O  O77  1  0.88591725  0.35844239  0.42221289  1.0
  O  O78  1  0.47645438  0.12614456  0.42984739  1.0
  O  O79  1  0.64219447  0.52415478  0.42345996  1.0
  O  O80  1  0.65877908  0.13034837  0.56704821  1.0
  O  O81  1  0.47539326  0.35514629  0.56003722  1.0
  O  O82  1  0.86885032  0.15505812  0.50072958  1.0
  O  O83  1  0.15939927  0.87678717  0.97854875  1.0
