# generated using pymatgen
data_InH7C12O5
_symmetry_space_group_name_H-M   'P 1'
_cell_length_a   7.30483509
_cell_length_b   22.20385800
_cell_length_c   22.20389542
_cell_angle_alpha   89.99995735
_cell_angle_beta   89.99991455
_cell_angle_gamma   89.99959074
_symmetry_Int_Tables_number   1
_chemical_formula_structural   InH7C12O5
_chemical_formula_sum   'In8 H56 C96 O40'
_cell_volume   3601.37238693
_cell_formula_units_Z   8
loop_
 _symmetry_equiv_pos_site_id
 _symmetry_equiv_pos_as_xyz
  1  'x, y, z'
loop_
 _atom_site_type_symbol
 _atom_site_label
 _atom_site_symmetry_multiplicity
 _atom_site_fract_x
 _atom_site_fract_y
 _atom_site_fract_z
 _atom_site_occupancy
  In  In0  1  0.99999104  0.75002786  0.75002331  1.0
  In  In1  1  0.99996749  0.25006898  0.25000268  1.0
  In  In2  1  0.99999648  0.25002151  0.75005863  1.0
  In  In3  1  0.00000382  0.75001796  0.24999959  1.0
  In  In4  1  0.50001398  0.74997845  0.75004821  1.0
  In  In5  1  0.49997811  0.24992050  0.24998569  1.0
  In  In6  1  0.50000436  0.24998381  0.74997183  1.0
  In  In7  1  0.50000416  0.74998450  0.24999811  1.0
  H  H8  1  0.48758087  0.73243955  0.94376062  1.0
  H  H9  1  0.05894745  0.82489338  0.88838708  1.0
  H  H10  1  0.30775049  0.87421603  0.94348273  1.0
  H  H11  1  0.74932996  0.81442703  0.31441826  1.0
  H  H12  1  0.48757561  0.26755581  0.05623860  1.0
  H  H13  1  0.05895901  0.17510749  0.11160695  1.0
  H  H14  1  0.30775516  0.12578426  0.05650757  1.0
  H  H15  1  0.48757346  0.44376411  0.76755516  1.0
  H  H16  1  0.05893899  0.38838643  0.67510304  1.0
  H  H17  1  0.30773125  0.44348739  0.62578504  1.0
  H  H18  1  0.74932090  0.81441834  0.68558331  1.0
  H  H19  1  0.48758850  0.55624251  0.23243731  1.0
  H  H20  1  0.05894010  0.61161083  0.32489369  1.0
  H  H21  1  0.30773744  0.55651649  0.37421472  1.0
  H  H22  1  0.74935048  0.18557551  0.31442524  1.0
  H  H23  1  0.51242407  0.76755838  0.44376095  1.0
  H  H24  1  0.94105774  0.67510415  0.38838816  1.0
  H  H25  1  0.69224897  0.62578326  0.44348488  1.0
  H  H26  1  0.51242279  0.23244503  0.55623871  1.0
  H  H27  1  0.94104872  0.32489420  0.61161129  1.0
  H  H28  1  0.69224598  0.37421703  0.55651154  1.0
  H  H29  1  0.51240619  0.05623882  0.26755610  1.0
  H  H30  1  0.94107393  0.11161341  0.17510418  1.0
  H  H31  1  0.69226273  0.05651564  0.12578363  1.0
  H  H32  1  0.25067152  0.68558024  0.18557257  1.0
  H  H33  1  0.51242972  0.94376279  0.73243906  1.0
  H  H34  1  0.94105170  0.88838629  0.82489437  1.0
  H  H35  1  0.69225961  0.94348374  0.87421864  1.0
  H  H36  1  0.25068371  0.31442919  0.81443218  1.0
  H  H37  1  0.51240739  0.76755969  0.55624031  1.0
  H  H38  1  0.94105860  0.67510271  0.61161116  1.0
  H  H39  1  0.69225693  0.62578412  0.55651370  1.0
  H  H40  1  0.51240388  0.23244462  0.44376115  1.0
  H  H41  1  0.94105470  0.32489293  0.38838919  1.0
  H  H42  1  0.69225034  0.37421797  0.44348182  1.0
  H  H43  1  0.51241062  0.05624540  0.73244434  1.0
  H  H44  1  0.94104782  0.11160822  0.82489466  1.0
  H  H45  1  0.69224460  0.05651401  0.87421987  1.0
  H  H46  1  0.25065915  0.68557100  0.81443024  1.0
  H  H47  1  0.51241845  0.94376296  0.26755577  1.0
  H  H48  1  0.94105727  0.88838788  0.17510344  1.0
  H  H49  1  0.69225856  0.94348582  0.12578105  1.0
  H  H50  1  0.25068377  0.31441997  0.18557766  1.0
  H  H51  1  0.48758562  0.73244168  0.05623888  1.0
  H  H52  1  0.05894374  0.82489232  0.11160986  1.0
  H  H53  1  0.30774429  0.87421320  0.05651224  1.0
  H  H54  1  0.48758456  0.26755548  0.94375899  1.0
  H  H55  1  0.05894357  0.17510405  0.88838597  1.0
  H  H56  1  0.30774494  0.12578348  0.94347896  1.0
  H  H57  1  0.48758699  0.44375981  0.23243329  1.0
  H  H58  1  0.05896716  0.38838882  0.32489692  1.0
  H  H59  1  0.30774277  0.44349019  0.37421657  1.0
  H  H60  1  0.48759277  0.55623916  0.76755287  1.0
  H  H61  1  0.05894204  0.61161205  0.67510206  1.0
  H  H62  1  0.30774371  0.55651460  0.62578319  1.0
  H  H63  1  0.74935101  0.18558032  0.68558805  1.0
  C  C64  1  0.75056955  0.76162069  0.86921057  1.0
  C  C65  1  0.75518131  0.77054883  0.93623348  1.0
  C  C66  1  0.60489470  0.75004175  0.96841167  1.0
  C  C67  1  0.90820289  0.79675985  0.96743382  1.0
  C  C68  1  0.05697331  0.82492219  0.93716140  1.0
  C  C69  1  0.19712532  0.85240868  0.96827932  1.0
  C  C70  1  0.75059607  0.23837766  0.13079438  1.0
  C  C71  1  0.75519191  0.22945040  0.06376651  1.0
  C  C72  1  0.60489541  0.24995423  0.03158885  1.0
  C  C73  1  0.90820462  0.20323902  0.03256295  1.0
  C  C74  1  0.05698235  0.17507779  0.06283218  1.0
  C  C75  1  0.19712688  0.14759097  0.03171419  1.0
  C  C76  1  0.75055221  0.36921506  0.73837556  1.0
  C  C77  1  0.75516899  0.43623764  0.72944377  1.0
  C  C78  1  0.60488731  0.46841285  0.74995371  1.0
  C  C79  1  0.90819064  0.46743475  0.70323661  1.0
  C  C80  1  0.05695895  0.43715949  0.67507465  1.0
  C  C81  1  0.19711790  0.46828050  0.64758934  1.0
  C  C82  1  0.75056003  0.63079590  0.26161903  1.0
  C  C83  1  0.75517549  0.56376880  0.27054361  1.0
  C  C84  1  0.60489186  0.53158494  0.25003870  1.0
  C  C85  1  0.90819496  0.53256638  0.29675791  1.0
  C  C86  1  0.05696796  0.56283823  0.32491713  1.0
  C  C87  1  0.19712335  0.53172049  0.35240823  1.0
  C  C88  1  0.24945079  0.73837865  0.36920429  1.0
  C  C89  1  0.24482640  0.72945091  0.43623037  1.0
  C  C90  1  0.39511150  0.74995571  0.46841117  1.0
  C  C91  1  0.09180605  0.70323806  0.46743395  1.0
  C  C92  1  0.94303440  0.67507350  0.43716294  1.0
  C  C93  1  0.80287130  0.64759149  0.46828095  1.0
  C  C94  1  0.24941842  0.26162312  0.63079865  1.0
  C  C95  1  0.24481604  0.27054998  0.56377167  1.0
  C  C96  1  0.39510584  0.25004572  0.53158900  1.0
  C  C97  1  0.09180074  0.29676228  0.53256817  1.0
  C  C98  1  0.94302560  0.32492394  0.56283741  1.0
  C  C99  1  0.80286615  0.35240988  0.53171902  1.0
  C  C100  1  0.24938103  0.13079420  0.23838423  1.0
  C  C101  1  0.24480946  0.06376802  0.22945564  1.0
  C  C102  1  0.39509379  0.03158739  0.24995697  1.0
  C  C103  1  0.09179067  0.03256507  0.20324047  1.0
  C  C104  1  0.94303344  0.06283990  0.17507807  1.0
  C  C105  1  0.80287188  0.03172206  0.14758970  1.0
  C  C106  1  0.24944574  0.86920127  0.76162412  1.0
  C  C107  1  0.24482340  0.93622836  0.77054911  1.0
  C  C108  1  0.39511259  0.96841179  0.75004230  1.0
  C  C109  1  0.09180654  0.96743167  0.79676120  1.0
  C  C110  1  0.94303615  0.93715934  0.82492273  1.0
  C  C111  1  0.80286284  0.96827931  0.85240802  1.0
  C  C112  1  0.24944062  0.73838036  0.63080118  1.0
  C  C113  1  0.24482201  0.72945176  0.56377285  1.0
  C  C114  1  0.39510451  0.74995479  0.53158972  1.0
  C  C115  1  0.09180864  0.70323669  0.53256847  1.0
  C  C116  1  0.94303412  0.67507751  0.56284043  1.0
  C  C117  1  0.80286294  0.64758967  0.53171981  1.0
  C  C118  1  0.24941080  0.26161736  0.36919996  1.0
  C  C119  1  0.24480675  0.27054552  0.43622829  1.0
  C  C120  1  0.39509092  0.25004529  0.46841225  1.0
  C  C121  1  0.09179678  0.29676230  0.46743230  1.0
  C  C122  1  0.94302452  0.32492354  0.43716262  1.0
  C  C123  1  0.80286356  0.35240901  0.46827835  1.0
  C  C124  1  0.24941270  0.13080617  0.76162079  1.0
  C  C125  1  0.24481098  0.06377502  0.77054448  1.0
  C  C126  1  0.39509813  0.03159036  0.75004265  1.0
  C  C127  1  0.09179206  0.03256665  0.79675795  1.0
  C  C128  1  0.94301691  0.06283471  0.82491990  1.0
  C  C129  1  0.80285796  0.03171730  0.85240837  1.0
  C  C130  1  0.24945514  0.86920462  0.23837449  1.0
  C  C131  1  0.24482188  0.93623126  0.22944631  1.0
  C  C132  1  0.39510551  0.96841017  0.24995482  1.0
  C  C133  1  0.09181062  0.96743234  0.20323291  1.0
  C  C134  1  0.94304584  0.93716183  0.17506739  1.0
  C  C135  1  0.80287676  0.96828138  0.14758755  1.0
  C  C136  1  0.75055205  0.76162321  0.13079374  1.0
  C  C137  1  0.75517644  0.77055051  0.06376811  1.0
  C  C138  1  0.60489545  0.75004255  0.03158821  1.0
  C  C139  1  0.90819406  0.79676065  0.03256813  1.0
  C  C140  1  0.05696707  0.82491891  0.06283914  1.0
  C  C141  1  0.19713565  0.85240947  0.03171843  1.0
  C  C142  1  0.75054923  0.23838324  0.86920806  1.0
  C  C143  1  0.75518035  0.22945053  0.93623053  1.0
  C  C144  1  0.60489466  0.24995569  0.96841185  1.0
  C  C145  1  0.90819976  0.20323777  0.96743044  1.0
  C  C146  1  0.05696942  0.17507926  0.93715849  1.0
  C  C147  1  0.19713845  0.14758927  0.96827508  1.0
  C  C148  1  0.75056287  0.36919857  0.26162183  1.0
  C  C149  1  0.75518372  0.43622655  0.27055132  1.0
  C  C150  1  0.60490487  0.46840493  0.25004188  1.0
  C  C151  1  0.90819293  0.46743130  0.29676288  1.0
  C  C152  1  0.05696796  0.43716097  0.32492033  1.0
  C  C153  1  0.19713362  0.46828107  0.35240870  1.0
  C  C154  1  0.75056716  0.63079077  0.73837952  1.0
  C  C155  1  0.75518129  0.56376593  0.72944687  1.0
  C  C156  1  0.60490168  0.53158881  0.74995504  1.0
  C  C157  1  0.90820226  0.53256623  0.70323793  1.0
  C  C158  1  0.05696306  0.56283900  0.67507550  1.0
  C  C159  1  0.19712679  0.53171903  0.64758751  1.0
  O  O160  1  0.59357499  0.75846828  0.84432263  1.0
  O  O161  1  0.90426513  0.75575802  0.84254764  1.0
  O  O162  1  0.59358491  0.24152594  0.15568014  1.0
  O  O163  1  0.90427909  0.24423771  0.15746038  1.0
  O  O164  1  0.59356878  0.34431866  0.74153046  1.0
  O  O165  1  0.90426711  0.34255779  0.74424477  1.0
  O  O166  1  0.59356238  0.65568861  0.25846556  1.0
  O  O167  1  0.90426616  0.65746406  0.25575920  1.0
  O  O168  1  0.40644683  0.74152973  0.34430952  1.0
  O  O169  1  0.09574027  0.74423819  0.34253738  1.0
  O  O170  1  0.40644042  0.25847302  0.65568524  1.0
  O  O171  1  0.09573939  0.25577070  0.65747554  1.0
  O  O172  1  0.40642742  0.15567032  0.24152057  1.0
  O  O173  1  0.09571675  0.15746632  0.24424404  1.0
  O  O174  1  0.40643245  0.84430766  0.75846699  1.0
  O  O175  1  0.09573689  0.84253536  0.75577339  1.0
  O  O176  1  0.40643380  0.74153187  0.65569677  1.0
  O  O177  1  0.09572587  0.74423717  0.65746455  1.0
  O  O178  1  0.40642059  0.25846638  0.34430384  1.0
  O  O179  1  0.09571683  0.25575641  0.34253531  1.0
  O  O180  1  0.40642214  0.15569535  0.75846679  1.0
  O  O181  1  0.09572518  0.15747694  0.75577095  1.0
  O  O182  1  0.40644594  0.84431101  0.24153112  1.0
  O  O183  1  0.09574490  0.84254231  0.24423432  1.0
  O  O184  1  0.59356149  0.75846943  0.15568626  1.0
  O  O185  1  0.90425710  0.75576503  0.15745704  1.0
  O  O186  1  0.59357514  0.24153198  0.84430841  1.0
  O  O187  1  0.90427480  0.24424691  0.84255549  1.0
  O  O188  1  0.59359999  0.34429497  0.25846162  1.0
  O  O189  1  0.90428464  0.34254401  0.25576922  1.0
  O  O190  1  0.59355992  0.65567942  0.74153125  1.0
  O  O191  1  0.90426369  0.65745667  0.74424601  1.0
  O  O192  1  0.74926641  0.78355567  0.71643421  1.0
  O  O193  1  0.74932147  0.21642241  0.28355903  1.0
  O  O194  1  0.74933144  0.21644927  0.71643307  1.0
  O  O195  1  0.74928929  0.78356754  0.28356422  1.0
  O  O196  1  0.25070945  0.71643793  0.21642885  1.0
  O  O197  1  0.25074983  0.28357871  0.78357049  1.0
  O  O198  1  0.25074153  0.28355865  0.21642901  1.0
  O  O199  1  0.25069173  0.71642330  0.78357213  1.0
