# generated using pymatgen
data_ZnH8C24N5O4
_symmetry_space_group_name_H-M   'P 1'
_cell_length_a   14.04222321
_cell_length_b   15.37333874
_cell_length_c   17.81591796
_cell_angle_alpha   90.22500643
_cell_angle_beta   90.08624060
_cell_angle_gamma   89.97294780
_symmetry_Int_Tables_number   1
_chemical_formula_structural   ZnH8C24N5O4
_chemical_formula_sum   'Zn2 H16 C48 N10 O8'
_cell_volume   3845.99207400
_cell_formula_units_Z   2
loop_
 _symmetry_equiv_pos_site_id
 _symmetry_equiv_pos_as_xyz
  1  'x, y, z'
loop_
 _atom_site_type_symbol
 _atom_site_label
 _atom_site_symmetry_multiplicity
 _atom_site_fract_x
 _atom_site_fract_y
 _atom_site_fract_z
 _atom_site_occupancy
  Zn  Zn0  1  0.39698227  0.50094948  0.49992262  1.0
  Zn  Zn1  1  0.60351322  0.50081767  0.50004756  1.0
  H  H2  1  0.35060042  0.52025638  0.73983583  1.0
  H  H3  1  0.64809865  0.51946273  0.26138818  1.0
  H  H4  1  0.35046203  0.45528908  0.26437752  1.0
  H  H5  1  0.64778806  0.45456533  0.73407116  1.0
  H  H6  1  0.42641119  0.05977156  0.39360228  1.0
  H  H7  1  0.56850571  0.94104819  0.39185523  1.0
  H  H8  1  0.42979241  0.94143533  0.60763556  1.0
  H  H9  1  0.57190019  0.06000264  0.60686357  1.0
  H  H10  1  0.93172991  0.37433573  0.44487273  1.0
  H  H11  1  0.06881263  0.57009467  0.60573461  1.0
  H  H12  1  0.93232536  0.62572906  0.55522800  1.0
  H  H13  1  0.06865674  0.42961639  0.39447438  1.0
  H  H14  1  0.75396593  0.38025021  0.44728927  1.0
  H  H15  1  0.24646475  0.56900014  0.60021871  1.0
  H  H16  1  0.75455253  0.62037375  0.55296158  1.0
  H  H17  1  0.24633461  0.43133188  0.39989200  1.0
  C  C18  1  0.50227012  0.33055038  0.49960510  1.0
  C  C19  1  0.50231603  0.67064680  0.50040295  1.0
  C  C20  1  0.49836180  0.49611685  0.35486177  1.0
  C  C21  1  0.49874456  0.49756109  0.64513942  1.0
  C  C22  1  0.41491789  0.49414689  0.84758513  1.0
  C  C23  1  0.58468892  0.49362202  0.15292917  1.0
  C  C24  1  0.41548281  0.45738546  0.15466063  1.0
  C  C25  1  0.58391201  0.45693346  0.84434014  1.0
  C  C26  1  0.41553150  0.50249118  0.76946213  1.0
  C  C27  1  0.58345011  0.50173781  0.23117027  1.0
  C  C28  1  0.41554339  0.46645175  0.23279490  1.0
  C  C29  1  0.58321574  0.46630847  0.76625511  1.0
  C  C30  1  0.49935697  0.48918174  0.72889075  1.0
  C  C31  1  0.49909232  0.48848159  0.27101584  1.0
  C  C32  1  0.49969038  0.47162538  0.88679671  1.0
  C  C33  1  0.50023970  0.47166071  0.11289826  1.0
  C  C34  1  0.50035712  0.46653204  0.96559046  1.0
  C  C35  1  0.50023287  0.46661484  0.03407190  1.0
  C  C36  1  0.45924960  0.09474026  0.44021771  1.0
  C  C37  1  0.53823528  0.90619819  0.43931796  1.0
  C  C38  1  0.46116896  0.90638214  0.56048971  1.0
  C  C39  1  0.54007930  0.09483199  0.55994528  1.0
  C  C40  1  0.45790731  0.18604669  0.44074110  1.0
  C  C41  1  0.54085806  0.81494131  0.43989008  1.0
  C  C42  1  0.45985141  0.81508161  0.56003009  1.0
  C  C43  1  0.54268433  0.18608642  0.55935946  1.0
  C  C44  1  0.50107252  0.23272120  0.49985741  1.0
  C  C45  1  0.50111516  0.76847127  0.50014061  1.0
  C  C46  1  0.49956803  0.04869376  0.50001235  1.0
  C  C47  1  0.49957814  0.95232627  0.49995439  1.0
  C  C48  1  0.89587745  0.43073390  0.46884670  1.0
  C  C49  1  0.10467297  0.53985256  0.55819613  1.0
  C  C50  1  0.89618912  0.56944202  0.53129237  1.0
  C  C51  1  0.10458135  0.46006806  0.44195746  1.0
  C  C52  1  0.79707338  0.43311636  0.47008220  1.0
  C  C53  1  0.20351293  0.53889035  0.55616505  1.0
  C  C54  1  0.79738316  0.56737330  0.53011809  1.0
  C  C55  1  0.20344167  0.46141964  0.44390286  1.0
  C  C56  1  0.94777979  0.50001277  0.50005760  1.0
  C  C57  1  0.05293621  0.49995410  0.50005328  1.0
  C  C58  1  0.32852805  0.50984907  0.88741978  1.0
  C  C59  1  0.67141056  0.50877609  0.11350730  1.0
  C  C60  1  0.32956833  0.43228920  0.11768766  1.0
  C  C61  1  0.66980814  0.43135423  0.88101102  1.0
  C  C62  1  0.41213754  0.23173513  0.38087226  1.0
  C  C63  1  0.58290485  0.76902252  0.37829975  1.0
  C  C64  1  0.41617241  0.76912700  0.62060767  1.0
  C  C65  1  0.58676791  0.23164784  0.62033495  1.0
  N  N66  1  0.74869493  0.50033652  0.50009079  1.0
  N  N67  1  0.25193829  0.50032890  0.49997635  1.0
  N  N68  1  0.25635797  0.52361483  0.91775710  1.0
  N  N69  1  0.74357303  0.52183058  0.08304302  1.0
  N  N70  1  0.25810375  0.41033040  0.08986628  1.0
  N  N71  1  0.74086249  0.40924678  0.90928096  1.0
  N  N72  1  0.37419589  0.26845247  0.33195891  1.0
  N  N73  1  0.61666933  0.73235463  0.32734420  1.0
  N  N74  1  0.37993001  0.73196012  0.66996447  1.0
  N  N75  1  0.62230034  0.26776209  0.67089637  1.0
  O  O76  1  0.42149225  0.36683656  0.50059255  1.0
  O  O77  1  0.58395118  0.63564965  0.50183517  1.0
  O  O78  1  0.42153239  0.63443126  0.49922547  1.0
  O  O79  1  0.58388995  0.36551434  0.49840476  1.0
  O  O80  1  0.41726323  0.49804104  0.38661411  1.0
  O  O81  1  0.57936281  0.49952929  0.61269695  1.0
  O  O82  1  0.41762932  0.50116805  0.61331612  1.0
  O  O83  1  0.57898754  0.49927267  0.38743644  1.0
