# generated using pymatgen
data_Zn4H6C24O19
_symmetry_space_group_name_H-M   'P 1'
_cell_length_a   18.22504683
_cell_length_b   18.30881193
_cell_length_c   18.33170598
_cell_angle_alpha   61.41978271
_cell_angle_beta   61.29421147
_cell_angle_gamma   61.21996051
_symmetry_Int_Tables_number   1
_chemical_formula_structural   Zn4H6C24O19
_chemical_formula_sum   'Zn8 H12 C48 O38'
_cell_volume   4452.76388655
_cell_formula_units_Z   2
loop_
 _symmetry_equiv_pos_site_id
 _symmetry_equiv_pos_as_xyz
  1  'x, y, z'
loop_
 _atom_site_type_symbol
 _atom_site_label
 _atom_site_symmetry_multiplicity
 _atom_site_fract_x
 _atom_site_fract_y
 _atom_site_fract_z
 _atom_site_occupancy
  Zn  Zn0  1  0.05912474  0.05785767  0.85094860  1.0
  Zn  Zn1  1  0.05825439  0.06317706  0.02480542  1.0
  Zn  Zn2  1  0.05764802  0.88774263  0.02294582  1.0
  Zn  Zn3  1  0.88432981  0.05957498  0.02130863  1.0
  Zn  Zn4  1  0.47445209  0.47343365  0.61001553  1.0
  Zn  Zn5  1  0.46703805  0.47451973  0.43678716  1.0
  Zn  Zn6  1  0.64509452  0.47375664  0.43613778  1.0
  Zn  Zn7  1  0.47255473  0.64642461  0.44005965  1.0
  H  H8  1  0.33939584  0.10433628  0.78466750  1.0
  H  H9  1  0.18766719  0.43259426  0.67734041  1.0
  H  H10  1  0.10228313  0.80535405  0.77465513  1.0
  H  H11  1  0.43338152  0.72299088  0.69143938  1.0
  H  H12  1  0.81377356  0.33817257  0.77997110  1.0
  H  H13  1  0.72441262  0.19440731  0.67280035  1.0
  H  H14  1  0.33989784  0.81549831  0.06693591  1.0
  H  H15  1  0.18765213  0.72547776  0.39555149  1.0
  H  H16  1  0.82229483  0.10441949  0.30290535  1.0
  H  H17  1  0.69750168  0.43102860  0.15655687  1.0
  H  H18  1  0.81893281  0.81198664  0.30151355  1.0
  H  H19  1  0.71198522  0.72082188  0.15935979  1.0
  C  C20  1  0.15639146  0.15141294  0.84569134  1.0
  C  C21  1  0.21465584  0.20813959  0.78804000  1.0
  C  C22  1  0.30373981  0.17473714  0.76361684  1.0
  C  C23  1  0.35894370  0.23222787  0.70546455  1.0
  C  C24  1  0.31242724  0.32887772  0.67469021  1.0
  C  C25  1  0.22333073  0.36223889  0.69885554  1.0
  C  C26  1  0.16811566  0.30471054  0.75684118  1.0
  C  C27  1  0.37117300  0.38510423  0.61678590  1.0
  C  C28  1  0.14826702  0.87697183  0.84403437  1.0
  C  C29  1  0.20592275  0.81884975  0.78723892  1.0
  C  C30  1  0.17314632  0.78928572  0.75838823  1.0
  C  C31  1  0.23237730  0.73306370  0.70199689  1.0
  C  C32  1  0.32968735  0.70990417  0.67850330  1.0
  C  C33  1  0.36251311  0.73905265  0.70773647  1.0
  C  C34  1  0.30326170  0.79536104  0.76408973  1.0
  C  C35  1  0.38681171  0.65296071  0.62051584  1.0
  C  C36  1  0.87907153  0.15607767  0.84075330  1.0
  C  C37  1  0.82267261  0.21589374  0.78236338  1.0
  C  C38  1  0.79607766  0.30433046  0.75846382  1.0
  C  C39  1  0.74049566  0.36103120  0.70119079  1.0
  C  C40  1  0.71525338  0.31665335  0.67065369  1.0
  C  C41  1  0.74230831  0.22822076  0.69414359  1.0
  C  C42  1  0.79797402  0.17154109  0.75128475  1.0
  C  C43  1  0.65702669  0.37613156  0.61401818  1.0
  C  C44  1  0.15683139  0.88349530  0.11387115  1.0
  C  C45  1  0.21510857  0.82637377  0.17064292  1.0
  C  C46  1  0.30421502  0.79806583  0.13737285  1.0
  C  C47  1  0.35922223  0.74029445  0.19511900  1.0
  C  C48  1  0.31246968  0.71464564  0.29184245  1.0
  C  C49  1  0.22336581  0.74316955  0.32511748  1.0
  C  C50  1  0.16836752  0.80083460  0.26736220  1.0
  C  C51  1  0.37071486  0.65606957  0.34862515  1.0
  C  C52  1  0.87708454  0.15169481  0.12134217  1.0
  C  C53  1  0.81814850  0.20787754  0.18011840  1.0
  C  C54  1  0.79710496  0.17446935  0.26831908  1.0
  C  C55  1  0.73748672  0.23135407  0.32415332  1.0
  C  C56  1  0.70204621  0.32764081  0.27928725  1.0
  C  C57  1  0.72251469  0.36097268  0.19114873  1.0
  C  C58  1  0.78201059  0.30403803  0.13530099  1.0
  C  C59  1  0.64519375  0.38391558  0.33804078  1.0
  C  C60  1  0.87685370  0.87937270  0.11978027  1.0
  C  C61  1  0.81979378  0.82168228  0.17977513  1.0
  C  C62  1  0.79716675  0.79420172  0.26797581  1.0
  C  C63  1  0.74087929  0.73768072  0.32495609  1.0
  C  C64  1  0.71077169  0.71142660  0.28109450  1.0
  C  C65  1  0.73349415  0.73883047  0.19290172  1.0
  C  C66  1  0.78978747  0.79528453  0.13595385  1.0
  C  C67  1  0.65346679  0.65391553  0.34074498  1.0
  O  O68  1  0.01494583  0.01735721  0.98045030  1.0
  O  O69  1  0.13322759  0.13431758  0.92787266  1.0
  O  O70  1  0.13688762  0.12665001  0.80532857  1.0
  O  O71  1  0.44053872  0.20203492  0.68241056  1.0
  O  O72  1  0.08655754  0.33470332  0.77873301  1.0
  O  O73  1  0.38978073  0.40623455  0.53462372  1.0
  O  O74  1  0.39590001  0.40509118  0.65680217  1.0
  O  O75  1  0.12660358  0.83766858  0.92625403  1.0
  O  O76  1  0.12790449  0.95907590  0.80352673  1.0
  O  O77  1  0.20316543  0.70596897  0.67473234  1.0
  O  O78  1  0.33245079  0.82230653  0.79151577  1.0
  O  O79  1  0.40607846  0.69370914  0.53857397  1.0
  O  O80  1  0.40874580  0.57062028  0.65963732  1.0
  O  O81  1  0.83783477  0.13365409  0.92264553  1.0
  O  O82  1  0.96197953  0.13436733  0.80168306  1.0
  O  O83  1  0.71524319  0.44206042  0.67925121  1.0
  O  O84  1  0.82354520  0.09050108  0.77294710  1.0
  O  O85  1  0.69615787  0.39907916  0.53170391  1.0
  O  O86  1  0.57449659  0.39692123  0.65511146  1.0
  O  O87  1  0.13449930  0.84235784  0.09273199  1.0
  O  O88  1  0.13617228  0.96592639  0.09355780  1.0
  O  O89  1  0.44086189  0.71355154  0.16522921  1.0
  O  O90  1  0.08671641  0.82718895  0.29722726  1.0
  O  O91  1  0.39433701  0.69541102  0.37059194  1.0
  O  O92  1  0.39010737  0.57396001  0.36812252  1.0
  O  O93  1  0.83712073  0.13022373  0.09790639  1.0
  O  O94  1  0.95988560  0.13170352  0.10172615  1.0
  O  O95  1  0.71718037  0.20080311  0.40495256  1.0
  O  O96  1  0.80194376  0.33456334  0.05452157  1.0
  O  O97  1  0.68752073  0.40418531  0.35991025  1.0
  O  O98  1  0.56200587  0.40512640  0.35923780  1.0
  O  O99  1  0.95971518  0.83957230  0.10004633  1.0
  O  O100  1  0.83622914  0.96141912  0.09547970  1.0
  O  O101  1  0.71894445  0.71308747  0.40578017  1.0
  O  O102  1  0.81224054  0.81939469  0.05511002  1.0
  O  O103  1  0.57077791  0.69424535  0.36355505  1.0
  O  O104  1  0.69366289  0.57159387  0.36149695  1.0
  O  O105  1  0.51452038  0.51678557  0.48046327  1.0
