# generated using pymatgen
data_Zn4H6C24S4O15F2
_symmetry_space_group_name_H-M   'P 1'
_cell_length_a   19.67376650
_cell_length_b   19.69416016
_cell_length_c   33.38057077
_cell_angle_alpha   79.15285937
_cell_angle_beta   79.21314492
_cell_angle_gamma   63.95746588
_symmetry_Int_Tables_number   1
_chemical_formula_structural   Zn4H6C24S4O15F2
_chemical_formula_sum   'Zn16 H24 C96 S16 O60 F8'
_cell_volume   11332.42367229
_cell_formula_units_Z   4
loop_
 _symmetry_equiv_pos_site_id
 _symmetry_equiv_pos_as_xyz
  1  'x, y, z'
loop_
 _atom_site_type_symbol
 _atom_site_label
 _atom_site_symmetry_multiplicity
 _atom_site_fract_x
 _atom_site_fract_y
 _atom_site_fract_z
 _atom_site_occupancy
  Zn  Zn0  1  0.05600283  0.40007873  0.47853577  1.0
  Zn  Zn1  1  0.98407427  0.48301620  0.56075907  1.0
  Zn  Zn2  1  0.05881798  0.56055935  0.48286374  1.0
  Zn  Zn3  1  0.90129653  0.55475482  0.47938633  1.0
  Zn  Zn4  1  0.69418647  0.34974123  0.27165518  1.0
  Zn  Zn5  1  0.68878816  0.18980335  0.26699684  1.0
  Zn  Zn6  1  0.76802513  0.26652965  0.19023938  1.0
  Zn  Zn7  1  0.84745057  0.19400369  0.27194315  1.0
  Zn  Zn8  1  0.26718306  0.76661165  0.68953300  1.0
  Zn  Zn9  1  0.34989976  0.69515883  0.77168449  1.0
  Zn  Zn10  1  0.19388563  0.84804608  0.77149118  1.0
  Zn  Zn11  1  0.19158201  0.68902440  0.76725746  1.0
  Zn  Zn12  1  0.56079797  0.06056034  0.98302709  1.0
  Zn  Zn13  1  0.40066395  0.05577041  0.97813564  1.0
  Zn  Zn14  1  0.55589082  0.90201174  0.97856713  1.0
  Zn  Zn15  1  0.48272652  0.98270945  0.05974416  1.0
  H  H16  1  0.74846458  0.45259999  0.35040687  1.0
  H  H17  1  0.00180789  0.29729312  0.39958589  1.0
  H  H18  1  0.20108195  0.70098016  0.59843425  1.0
  H  H19  1  0.04961973  0.54989697  0.65122691  1.0
  H  H20  1  0.46297370  0.24016739  0.34124305  1.0
  H  H21  1  0.47928173  0.70274544  0.60121889  1.0
  H  H22  1  0.20304564  0.97858744  0.60188497  1.0
  H  H23  1  0.94826852  0.97010201  0.34808981  1.0
  H  H24  1  0.65138532  0.15143414  0.04940629  1.0
  H  H25  1  0.59850872  0.09823607  0.20067927  1.0
  H  H26  1  0.54743947  0.77063243  0.14828937  1.0
  H  H27  1  0.16260723  0.14163905  0.04066279  1.0
  H  H28  1  0.29728953  0.00198255  0.89977128  1.0
  H  H29  1  0.45200497  0.74907411  0.85041499  1.0
  H  H30  1  0.30088870  0.28002029  0.90208551  1.0
  H  H31  1  0.78684397  0.00991666  0.90879278  1.0
  H  H32  1  0.80821469  0.52780585  0.41802294  1.0
  H  H33  1  0.94195556  0.22197894  0.33204567  1.0
  H  H34  1  0.13720519  0.63783475  0.52674546  1.0
  H  H35  1  0.11331773  0.61298707  0.72295453  1.0
  H  H36  1  0.72318087  0.22270429  0.11299688  1.0
  H  H37  1  0.52676633  0.02699437  0.13701692  1.0
  H  H38  1  0.22136521  0.94264794  0.83222869  1.0
  H  H39  1  0.52796531  0.80807244  0.91803033  1.0
  C  C40  1  0.06176428  0.31583725  0.56170539  1.0
  C  C41  1  0.07012824  0.57057918  0.56932085  1.0
  C  C42  1  0.18354664  0.43984534  0.43882350  1.0
  C  C43  1  0.93710082  0.68380127  0.43890461  1.0
  C  C44  1  0.93014775  0.43024813  0.43047331  1.0
  C  C45  1  0.81663000  0.56074290  0.56188812  1.0
  C  C46  1  0.56545850  0.31141139  0.31135877  1.0
  C  C47  1  0.68065919  0.18008852  0.18020377  1.0
  C  C48  1  0.68931277  0.43340645  0.18806291  1.0
  C  C49  1  0.93460845  0.18743592  0.18954272  1.0
  C  C50  1  0.81985582  0.31935779  0.31980501  1.0
  C  C51  1  0.81080874  0.06574469  0.31169754  1.0
  C  C52  1  0.43402838  0.68944552  0.68819041  1.0
  C  C53  1  0.31882193  0.82093384  0.81972261  1.0
  C  C54  1  0.18891139  0.93367174  0.68868918  1.0
  C  C55  1  0.06635042  0.81015525  0.81133981  1.0
  C  C56  1  0.18071771  0.68006436  0.68038031  1.0
  C  C57  1  0.31300242  0.56594608  0.81128186  1.0
  C  C58  1  0.43826897  0.18411228  0.93859609  1.0
  C  C59  1  0.43055749  0.93015059  0.93037955  1.0
  C  C60  1  0.68441403  0.93873241  0.93855019  1.0
  C  C61  1  0.56137486  0.81606951  0.06144648  1.0
  C  C62  1  0.56958705  0.06930541  0.06989135  1.0
  C  C63  1  0.31567711  0.06152885  0.06132361  1.0
  C  C64  1  0.90102160  0.40293148  0.40193403  1.0
  C  C65  1  0.84924910  0.34689934  0.34804291  1.0
  C  C66  1  0.82830152  0.44774282  0.38788024  1.0
  C  C67  1  0.92200793  0.30214441  0.36206152  1.0
  C  C68  1  0.80400541  0.41865475  0.36117245  1.0
  C  C69  1  0.94632457  0.33125713  0.38874734  1.0
  C  C70  1  0.09892797  0.59929734  0.59728375  1.0
  C  C71  1  0.15177240  0.65160333  0.65241215  1.0
  C  C72  1  0.14231483  0.64265277  0.58193201  1.0
  C  C73  1  0.10833716  0.60830134  0.66774025  1.0
  C  C74  1  0.16784171  0.66789844  0.60992135  1.0
  C  C75  1  0.08282346  0.58302233  0.63974112  1.0
  C  C76  1  0.30422832  0.45391759  0.40096438  1.0
  C  C77  1  0.44597947  0.29699394  0.34908750  1.0
  C  C78  1  0.25816520  0.41514134  0.41405766  1.0
  C  C79  1  0.49073662  0.33692096  0.33640993  1.0
  C  C80  1  0.37790128  0.34007317  0.37265609  1.0
  C  C81  1  0.37265700  0.41199117  0.37733338  1.0
  C  C82  1  0.72531175  0.57635147  0.62910455  1.0
  C  C83  1  0.52406982  0.67378117  0.62118528  1.0
  C  C84  1  0.74214449  0.58546501  0.58668134  1.0
  C  C85  1  0.50904802  0.66394238  0.66355121  1.0
  C  C86  1  0.60326065  0.64156527  0.60875780  1.0
  C  C87  1  0.64646257  0.60796875  0.64220894  1.0
  C  C88  1  0.07684126  0.22477335  0.62909974  1.0
  C  C89  1  0.17406629  0.02352514  0.62169325  1.0
  C  C90  1  0.08630571  0.24138820  0.58665343  1.0
  C  C91  1  0.16385051  0.00868864  0.66405386  1.0
  C  C92  1  0.14214416  0.10262277  0.60909717  1.0
  C  C93  1  0.10832805  0.14600160  0.64240047  1.0
  C  C94  1  0.84397686  0.80065680  0.39730638  1.0
  C  C95  1  0.90393668  0.94966187  0.35260420  1.0
  C  C96  1  0.91226281  0.75811691  0.41388451  1.0
  C  C97  1  0.83525210  0.99088645  0.33654452  1.0
  C  C98  1  0.90681393  0.88013753  0.37477980  1.0
  C  C99  1  0.83990823  0.87032403  0.37494699  1.0
  C  C100  1  0.65259366  0.15222960  0.15141658  1.0
  C  C101  1  0.59742583  0.09730088  0.09867536  1.0
  C  C102  1  0.66791674  0.16764286  0.10803126  1.0
  C  C103  1  0.58205824  0.08194754  0.14206020  1.0
  C  C104  1  0.63989287  0.13978703  0.08256695  1.0
  C  C105  1  0.61005136  0.10982503  0.16751979  1.0
  C  C106  1  0.67357401  0.52470073  0.12066362  1.0
  C  C107  1  0.57638097  0.72587451  0.12836712  1.0
  C  C108  1  0.66425513  0.50786553  0.16310283  1.0
  C  C109  1  0.58655304  0.74096172  0.08600799  1.0
  C  C110  1  0.60829973  0.64672192  0.14083203  1.0
  C  C111  1  0.64203502  0.60352416  0.10744532  1.0
  C  C112  1  0.08127272  0.12412000  0.17760603  1.0
  C  C113  1  0.17017237  0.12507113  0.07303718  1.0
  C  C114  1  0.00920876  0.16286205  0.16478390  1.0
  C  C115  1  0.24126975  0.08627333  0.08664579  1.0
  C  C116  1  0.11194187  0.13874343  0.10643116  1.0
  C  C117  1  0.14046570  0.10987956  0.14476486  1.0
  C  C118  1  0.34642630  0.84997520  0.84814314  1.0
  C  C119  1  0.40293686  0.90110765  0.90204244  1.0
  C  C120  1  0.30174543  0.92255845  0.86222557  1.0
  C  C121  1  0.44754310  0.82848452  0.88799758  1.0
  C  C122  1  0.33109247  0.94658641  0.88891462  1.0
  C  C123  1  0.41821782  0.80449122  0.86125928  1.0
  C  C124  1  0.40600223  0.44876516  0.85275629  1.0
  C  C125  1  0.34538727  0.30023660  0.89753603  1.0
  C  C126  1  0.33778101  0.49146630  0.83614556  1.0
  C  C127  1  0.41397272  0.25888802  0.91367833  1.0
  C  C128  1  0.34283522  0.36957225  0.87524987  1.0
  C  C129  1  0.40987278  0.37914099  0.87509858  1.0
  C  C130  1  0.94559496  0.79617734  0.84904419  1.0
  C  C131  1  0.80386658  0.95310545  0.90091662  1.0
  C  C132  1  0.99171477  0.83490867  0.83602934  1.0
  C  C133  1  0.75909654  0.91319302  0.91353648  1.0
  C  C134  1  0.87193282  0.91001671  0.87735366  1.0
  C  C135  1  0.87711917  0.83813515  0.87262624  1.0
  S  S136  1  0.29924830  0.32551358  0.39721328  1.0
  S  S137  1  0.45091812  0.42674446  0.35290032  1.0
  S  S138  1  0.65998406  0.63361607  0.56220048  1.0
  S  S139  1  0.59029757  0.61572147  0.68869602  1.0
  S  S140  1  0.13461293  0.15909383  0.56243662  1.0
  S  S141  1  0.11558487  0.09005119  0.68898506  1.0
  S  S142  1  0.97293815  0.80406832  0.40188853  1.0
  S  S143  1  0.77372071  0.94599500  0.34805461  1.0
  S  S144  1  0.61587767  0.59005930  0.18742533  1.0
  S  S145  1  0.63467729  0.65973161  0.06092882  1.0
  S  S146  1  0.01374765  0.18246335  0.11146398  1.0
  S  S147  1  0.23832768  0.06607259  0.13987419  1.0
  S  S148  1  0.27691721  0.44572125  0.84806194  1.0
  S  S149  1  0.47583639  0.30341049  0.90207618  1.0
  S  S150  1  0.95063728  0.92453704  0.85289492  1.0
  S  S151  1  0.79883769  0.82339063  0.89702192  1.0
  O  O152  1  0.00040813  0.49901373  0.50026428  1.0
  O  O153  1  0.07835090  0.31478537  0.52272535  1.0
  O  O154  1  0.03226176  0.53178450  0.58490646  1.0
  O  O155  1  0.15531618  0.50627745  0.45001195  1.0
  O  O156  1  0.02651686  0.37433589  0.58083924  1.0
  O  O157  1  0.15365761  0.39189096  0.44684655  1.0
  O  O158  1  0.08563873  0.58708381  0.53020628  1.0
  O  O159  1  0.00355020  0.65761477  0.45042631  1.0
  O  O160  1  0.88627972  0.49661486  0.44215942  1.0
  O  O161  1  0.89104008  0.65205867  0.44697289  1.0
  O  O162  1  0.99550862  0.38790764  0.44187685  1.0
  O  O163  1  0.87531603  0.52614940  0.58098378  1.0
  O  O164  1  0.81541945  0.57666738  0.52286732  1.0
  O  O165  1  0.74903679  0.25027388  0.25029118  1.0
  O  O166  1  0.59615980  0.35861575  0.30293710  1.0
  O  O167  1  0.66471889  0.16491302  0.21858216  1.0
  O  O168  1  0.72529664  0.37477538  0.16900515  1.0
  O  O169  1  0.59271809  0.24484200  0.30034329  1.0
  O  O170  1  0.67257035  0.43441712  0.22702204  1.0
  O  O171  1  0.72024220  0.21866991  0.16415931  1.0
  O  O172  1  0.87672329  0.22259817  0.16944306  1.0
  O  O173  1  0.86319319  0.25248575  0.30854662  1.0
  O  O174  1  0.93368429  0.17192007  0.22845353  1.0
  O  O175  1  0.75465536  0.36188286  0.30819330  1.0
  O  O176  1  0.74435834  0.09333972  0.30013569  1.0
  O  O177  1  0.85793766  0.09634392  0.30390473  1.0
  O  O178  1  0.25081255  0.74989493  0.74989174  1.0
  O  O179  1  0.37586702  0.72511331  0.66862597  1.0
  O  O180  1  0.36152837  0.75595671  0.80809941  1.0
  O  O181  1  0.17230948  0.93373401  0.72767135  1.0
  O  O182  1  0.43425864  0.67337995  0.72717590  1.0
  O  O183  1  0.22471222  0.87564965  0.66914684  1.0
  O  O184  1  0.25194658  0.86431784  0.80839451  1.0
  O  O185  1  0.09641998  0.85802217  0.80362398  1.0
  O  O186  1  0.16505285  0.66365215  0.71948598  1.0
  O  O187  1  0.09465562  0.74398920  0.79983909  1.0
  O  O188  1  0.21896858  0.71860506  0.66486217  1.0
  O  O189  1  0.35917663  0.59753527  0.80323144  1.0
  O  O190  1  0.24637522  0.59237370  0.79991530  1.0
  O  O191  1  0.49983319  0.00069226  0.99977570  1.0
  O  O192  1  0.50520999  0.15617868  0.94958588  1.0
  O  O193  1  0.38811628  0.99534937  0.94190057  1.0
  O  O194  1  0.65360080  0.89157329  0.94675467  1.0
  O  O195  1  0.39072815  0.15400452  0.94699005  1.0
  O  O196  1  0.65709596  0.00508460  0.94981367  1.0
  O  O197  1  0.49729714  0.88657625  0.94185744  1.0
  O  O198  1  0.57753809  0.81626851  0.02244987  1.0
  O  O199  1  0.53028875  0.03036812  0.08592506  1.0
  O  O200  1  0.52582762  0.87413985  0.08103195  1.0
  O  O201  1  0.58539296  0.08454952  0.03150118  1.0
  O  O202  1  0.31538278  0.07809901  0.02247961  1.0
  O  O203  1  0.37418453  0.02537560  0.08082032  1.0
  O  O204  1  0.78117795  0.51749084  0.39914021  1.0
  O  O205  1  0.96915152  0.23233428  0.35080464  1.0
  O  O206  1  0.16021537  0.66068595  0.54135787  1.0
  O  O207  1  0.09036113  0.59020843  0.70828739  1.0
  O  O208  1  0.70846220  0.20817767  0.09006667  1.0
  O  O209  1  0.54144287  0.04139919  0.16000476  1.0
  O  O210  1  0.23185199  0.96974726  0.85097814  1.0
  O  O211  1  0.51734791  0.78115069  0.89927094  1.0
  F  F212  1  0.28682488  0.52408078  0.40949670  1.0
  F  F213  1  0.77759845  0.54133456  0.65557572  1.0
  F  F214  1  0.04164277  0.27711510  0.65545654  1.0
  F  F215  1  0.78674259  0.77909423  0.40172115  1.0
  F  F216  1  0.70876178  0.47242221  0.09425648  1.0
  F  F217  1  0.09477835  0.10179854  0.21700417  1.0
  F  F218  1  0.46327842  0.47021545  0.84844474  1.0
  F  F219  1  0.96309295  0.72603635  0.84048305  1.0
