# generated using pymatgen
data_AlH18C30N7O6
_symmetry_space_group_name_H-M   'P 1'
_cell_length_a   3.93058047
_cell_length_b   17.51099747
_cell_length_c   18.07234175
_cell_angle_alpha   61.48752712
_cell_angle_beta   84.40579555
_cell_angle_gamma   88.78622998
_symmetry_Int_Tables_number   1
_chemical_formula_structural   AlH18C30N7O6
_chemical_formula_sum   'Al1 H18 C30 N7 O6'
_cell_volume   1087.35975591
_cell_formula_units_Z   1
loop_
 _symmetry_equiv_pos_site_id
 _symmetry_equiv_pos_as_xyz
  1  'x, y, z'
loop_
 _atom_site_type_symbol
 _atom_site_label
 _atom_site_symmetry_multiplicity
 _atom_site_fract_x
 _atom_site_fract_y
 _atom_site_fract_z
 _atom_site_occupancy
  Al  Al0  1  0.49799274  0.99903748  0.49561850  1.0
  H  H1  1  0.03953755  0.31330502  0.10408455  1.0
  H  H2  1  0.81871974  0.08459099  0.81238073  1.0
  H  H3  1  0.34938251  0.60342734  0.58375259  1.0
  H  H4  1  0.66121157  0.31700696  0.58313605  1.0
  H  H5  1  0.98790734  0.00837133  0.72725724  1.0
  H  H6  1  0.25707371  0.76391180  0.50510233  1.0
  H  H7  1  0.97086409  0.60090739  0.81579858  1.0
  H  H8  1  0.36763192  0.07882338  0.10219594  1.0
  H  H9  1  0.95840778  0.23284381  0.26257379  1.0
  H  H10  1  0.05777420  0.93057444  0.27659796  1.0
  H  H11  1  0.35269120  0.94644242  0.33642244  1.0
  H  H12  1  0.49511271  0.95303306  0.23696408  1.0
  H  H13  1  0.54535854  0.77665666  0.75434946  1.0
  H  H14  1  0.93205564  0.83730568  0.72714839  1.0
  H  H15  1  0.88391785  0.73374319  0.81995280  1.0
  H  H16  1  0.55040860  0.24883294  0.45315334  1.0
  H  H17  1  0.99185659  0.23691921  0.43651069  1.0
  H  H18  1  0.84127839  0.32733604  0.44909729  1.0
  C  C19  1  0.05285552  0.06462766  0.36467739  1.0
  C  C20  1  0.95504851  0.06776343  0.56250862  1.0
  C  C21  1  0.99603315  0.86557696  0.56341339  1.0
  C  C22  1  0.08984915  0.24426053  0.13904173  1.0
  C  C23  1  0.20701783  0.20026032  0.09410795  1.0
  C  C24  1  0.82120659  0.11797676  0.74375603  1.0
  C  C25  1  0.72581824  0.20517410  0.70219313  1.0
  C  C26  1  0.15829456  0.59280098  0.70430170  1.0
  C  C27  1  0.24039412  0.63835054  0.61622247  1.0
  C  C28  1  0.72987498  0.24889880  0.61377720  1.0
  C  C29  1  0.81022585  0.20719158  0.56544595  1.0
  C  C30  1  0.90003899  0.11897330  0.60844446  1.0
  C  C31  1  0.91364151  0.07608901  0.69643980  1.0
  C  C32  1  0.18699727  0.72678489  0.57308072  1.0
  C  C33  1  0.04157899  0.77068837  0.61578274  1.0
  C  C34  1  0.95947843  0.72620244  0.70440545  1.0
  C  C35  1  0.02335494  0.63733092  0.74714643  1.0
  C  C36  1  0.27309757  0.11129653  0.13840345  1.0
  C  C37  1  0.21981817  0.06449707  0.22653275  1.0
  C  C38  1  0.10597729  0.11013227  0.27028510  1.0
  C  C39  1  0.04472578  0.19935008  0.22676938  1.0
  C  C40  1  0.22063719  0.37480974  0.87865299  1.0
  C  C41  1  0.45459798  0.24455328  0.87858323  1.0
  C  C42  1  0.26252314  0.24727528  0.00116217  1.0
  C  C43  1  0.22343107  0.49904674  0.75111220  1.0
  C  C44  1  0.42486149  0.37811819  0.74531201  1.0
  C  C45  1  0.61253347  0.25117758  0.75009482  1.0
  C  C46  1  0.28579062  0.96862458  0.27192989  1.0
  C  C47  1  0.82434168  0.77105507  0.75404438  1.0
  C  C48  1  0.80019292  0.25772381  0.47097678  1.0
  N  N49  1  0.36645172  0.33248146  0.83417516  1.0
  N  N50  1  0.40760622  0.20323426  0.96272838  1.0
  N  N51  1  0.16287990  0.33040982  0.96256633  1.0
  N  N52  1  0.14294450  0.45846893  0.83554768  1.0
  N  N53  1  0.35893270  0.46244554  0.70460264  1.0
  N  N54  1  0.58306172  0.20477645  0.83517682  1.0
  N  N55  1  0.54445503  0.33593841  0.70388493  1.0
  O  O56  1  0.73165316  0.90105588  0.57853560  1.0
  O  O57  1  0.80120508  0.01060080  0.40038833  1.0
  O  O58  1  0.74842486  0.08186201  0.50719989  1.0
  O  O59  1  0.23293184  0.90697421  0.50357847  1.0
  O  O60  1  0.19205047  0.01267846  0.58040631  1.0
  O  O61  1  0.26372948  0.08346336  0.40333320  1.0
