# generated using pymatgen
data_Al4H21C36N4O28F3
_symmetry_space_group_name_H-M   'P 1'
_cell_length_a   6.74406954
_cell_length_b   16.36045311
_cell_length_c   18.64413988
_cell_angle_alpha   106.52923286
_cell_angle_beta   91.00956993
_cell_angle_gamma   90.41410508
_symmetry_Int_Tables_number   1
_chemical_formula_structural   Al4H21C36N4O28F3
_chemical_formula_sum   'Al4 H21 C36 N4 O28 F3'
_cell_volume   1971.64241343
_cell_formula_units_Z   1
loop_
 _symmetry_equiv_pos_site_id
 _symmetry_equiv_pos_as_xyz
  1  'x, y, z'
loop_
 _atom_site_type_symbol
 _atom_site_label
 _atom_site_symmetry_multiplicity
 _atom_site_fract_x
 _atom_site_fract_y
 _atom_site_fract_z
 _atom_site_occupancy
  Al  Al0  1  0.16405975  0.49724460  0.50219426  1.0
  Al  Al1  1  0.66289168  0.49398608  0.49939822  1.0
  Al  Al2  1  0.61710514  0.99233076  0.00130454  1.0
  Al  Al3  1  0.11821808  0.00059304  0.00183015  1.0
  H  H4  1  0.56682207  0.79704827  0.80089677  1.0
  H  H5  1  0.68054488  0.86095507  0.75179196  1.0
  H  H6  1  0.58412626  0.67855155  0.69328544  1.0
  H  H7  1  0.99667631  0.88933171  0.75499925  1.0
  H  H8  1  0.02675561  0.78575995  0.64229801  1.0
  H  H9  1  0.20639197  0.73189920  0.68156208  1.0
  H  H10  1  0.12395834  0.64452794  0.75354524  1.0
  H  H11  1  0.63279485  0.23869165  0.34185600  1.0
  H  H12  1  0.39497835  0.21558071  0.37191563  1.0
  H  H13  1  0.58483542  0.11691776  0.24137340  1.0
  H  H14  1  0.66999950  0.35452106  0.27407199  1.0
  H  H15  1  0.11327683  0.35616964  0.27885019  1.0
  H  H16  1  0.08978913  0.27205537  0.31993565  1.0
  H  H17  1  0.06436139  0.18280108  0.19717266  1.0
  H  H18  1  0.15138716  0.26190582  0.15912767  1.0
  H  H19  1  0.45306696  0.38703326  0.23504417  1.0
  H  H20  1  0.51700337  0.27107021  0.13091438  1.0
  H  H21  1  0.42173065  0.60853465  0.51973471  1.0
  H  H22  1  0.91474465  0.39600648  0.51524078  1.0
  H  H23  1  0.35332654  0.89015950  0.00478836  1.0
  H  H24  1  0.85883804  0.10371764  0.04886057  1.0
  C  C25  1  0.40630074  0.38245154  0.38600542  1.0
  C  C26  1  0.41267001  0.40881054  0.58617509  1.0
  C  C27  1  0.91385220  0.61340593  0.61384887  1.0
  C  C28  1  0.91251175  0.58166908  0.41563519  1.0
  C  C29  1  0.90966179  0.63129410  0.36330761  1.0
  C  C30  1  0.90573208  0.67499597  0.31964232  1.0
  C  C31  1  0.90123960  0.72299615  0.27217794  1.0
  C  C32  1  0.89638374  0.76763579  0.22887959  1.0
  C  C33  1  0.88914107  0.81570005  0.18151381  1.0
  C  C34  1  0.88150941  0.85939101  0.13796040  1.0
  C  C35  1  0.69377582  0.80120428  0.76703894  1.0
  C  C36  1  0.69852661  0.72694609  0.69555159  1.0
  C  C37  1  0.91053258  0.71697671  0.82817666  1.0
  C  C38  1  0.04099243  0.82882056  0.76423518  1.0
  C  C39  1  0.88349105  0.80674123  0.81551682  1.0
  C  C40  1  0.90506037  0.68718446  0.68624884  1.0
  C  C41  1  0.96213429  0.65239756  0.75281956  1.0
  C  C42  1  0.05685047  0.75843552  0.68860070  1.0
  C  C43  1  0.47481301  0.22979894  0.32598027  1.0
  C  C44  1  0.44950869  0.15423406  0.25542176  1.0
  C  C45  1  0.52002442  0.33418019  0.25205997  1.0
  C  C46  1  0.17935963  0.29595187  0.28153781  1.0
  C  C47  1  0.39305086  0.31244310  0.31214038  1.0
  C  C48  1  0.38315568  0.18629615  0.18798505  1.0
  C  C49  1  0.53668534  0.25542295  0.18417845  1.0
  C  C50  1  0.18135986  0.23102171  0.20339931  1.0
  C  C51  1  0.41485165  0.35815837  0.63772737  1.0
  C  C52  1  0.41129774  0.31396717  0.68092078  1.0
  C  C53  1  0.40591252  0.26555546  0.72800859  1.0
  C  C54  1  0.39863035  0.22089463  0.77121983  1.0
  C  C55  1  0.39040570  0.17269859  0.81845460  1.0
  C  C56  1  0.38275240  0.12902675  0.86200500  1.0
  C  C57  1  0.37848030  0.07980337  0.91490722  1.0
  C  C58  1  0.37425271  0.11320235  0.11501550  1.0
  C  C59  1  0.87096314  0.90928453  0.08577370  1.0
  C  C60  1  0.87056797  0.88112705  0.88876726  1.0
  N  N61  1  0.06370199  0.71058230  0.88968173  1.0
  N  N62  1  0.29548501  0.08846316  0.26452723  1.0
  N  N63  1  0.71139078  0.68826268  0.86019472  1.0
  N  N64  1  0.24184344  0.84754639  0.80024455  1.0
  O  O65  1  0.57919682  0.42257858  0.56015086  1.0
  O  O66  1  0.24467185  0.40654388  0.41892861  1.0
  O  O67  1  0.08244096  0.56053346  0.43496507  1.0
  O  O68  1  0.24290836  0.43412395  0.57081307  1.0
  O  O69  1  0.08414214  0.59186842  0.58721532  1.0
  O  O70  1  0.57920329  0.40945515  0.41054159  1.0
  O  O71  1  0.41565901  0.54713553  0.50992092  1.0
  O  O72  1  0.74776409  0.58093908  0.58797663  1.0
  O  O73  1  0.74486538  0.56417521  0.43838809  1.0
  O  O74  1  0.91379729  0.44490882  0.49553955  1.0
  O  O75  1  0.20226670  0.08603155  0.09010102  1.0
  O  O76  1  0.54408111  0.05049401  0.92921726  1.0
  O  O77  1  0.70480594  0.89531531  0.92007114  1.0
  O  O78  1  0.53737491  0.08709435  0.08425843  1.0
  O  O79  1  0.69723682  0.93013622  0.06974898  1.0
  O  O80  1  0.21123808  0.07214113  0.94301968  1.0
  O  O81  1  0.36276371  0.94442893  0.99338705  1.0
  O  O82  1  0.03515893  0.92684350  0.06069846  1.0
  O  O83  1  0.02914378  0.92379089  0.90889047  1.0
  O  O84  1  0.86570992  0.04860959  0.01153753  1.0
  O  O85  1  0.07348150  0.77089429  0.94670546  1.0
  O  O86  1  0.15366166  0.64318609  0.87771771  1.0
  O  O87  1  0.30990064  0.01622229  0.22090559  1.0
  O  O88  1  0.16671076  0.11099763  0.31240299  1.0
  O  O89  1  0.58027252  0.65823104  0.81347801  1.0
  O  O90  1  0.70533031  0.69726887  0.92753843  1.0
  O  O91  1  0.33376065  0.90986800  0.79288609  1.0
  O  O92  1  0.30501466  0.79538658  0.83181347  1.0
  F  F93  1  0.73311436  0.22369025  0.18342103  1.0
  F  F94  1  0.65890343  0.75900898  0.63311622  1.0
  F  F95  1  0.87904930  0.57199992  0.74528341  1.0
