# generated using pymatgen
data_Al6H80C105O37
_symmetry_space_group_name_H-M   'P 1'
_cell_length_a   13.17492036
_cell_length_b   13.35192865
_cell_length_c   27.42126703
_cell_angle_alpha   89.89614442
_cell_angle_beta   89.52015377
_cell_angle_gamma   61.03954548
_symmetry_Int_Tables_number   1
_chemical_formula_structural   Al6H80C105O37
_chemical_formula_sum   'Al6 H80 C105 O37'
_cell_volume   4220.34679777
_cell_formula_units_Z   1
loop_
 _symmetry_equiv_pos_site_id
 _symmetry_equiv_pos_as_xyz
  1  'x, y, z'
loop_
 _atom_site_type_symbol
 _atom_site_label
 _atom_site_symmetry_multiplicity
 _atom_site_fract_x
 _atom_site_fract_y
 _atom_site_fract_z
 _atom_site_occupancy
  Al  Al0  1  0.57764446  0.57529489  0.50047127  1.0
  Al  Al1  1  0.81969687  0.57634208  0.50093830  1.0
  Al  Al2  1  0.60141263  0.80272275  0.49923485  1.0
  Al  Al3  1  0.08441849  0.07988157  0.01379203  1.0
  Al  Al4  1  0.84811821  0.06525639  0.01757523  1.0
  Al  Al5  1  0.07240944  0.84514648  0.01608067  1.0
  H  H6  1  0.66000386  0.87810124  0.81265083  1.0
  H  H7  1  0.02557471  0.75435316  0.78952066  1.0
  H  H8  1  0.21030670  0.02177087  0.79605503  1.0
  H  H9  1  0.81110243  0.15939094  0.78325358  1.0
  H  H10  1  0.75372863  0.03484745  0.14770312  1.0
  H  H11  1  0.19923335  0.73013566  0.15109592  1.0
  H  H12  1  0.03793127  0.22182877  0.14138586  1.0
  H  H13  1  0.70740674  0.95416477  0.38816817  1.0
  H  H14  1  0.36289472  0.67005365  0.38777170  1.0
  H  H15  1  0.98160187  0.36667147  0.38044989  1.0
  H  H16  1  0.67756984  0.11342709  0.22935037  1.0
  H  H17  1  0.42894195  0.65623428  0.80453630  1.0
  H  H18  1  0.21069744  0.64234648  0.23297672  1.0
  H  H19  1  0.12457057  0.24601530  0.21774743  1.0
  H  H20  1  0.67086730  0.08771534  0.31837134  1.0
  H  H21  1  0.26490812  0.62404280  0.32002458  1.0
  H  H22  1  0.10916460  0.28793467  0.30573366  1.0
  H  H23  1  0.99340163  0.67564490  0.12961955  1.0
  H  H24  1  0.25126450  0.02182232  0.13815298  1.0
  H  H25  1  0.70088640  0.24657993  0.14427231  1.0
  H  H26  1  0.64056141  0.87502381  0.72782862  1.0
  H  H27  1  0.46436153  0.65104887  0.72040942  1.0
  H  H28  1  0.80287079  0.47632768  0.82032647  1.0
  H  H29  1  0.82323489  0.50240648  0.73683901  1.0
  H  H30  1  0.94295482  0.59457109  0.37077969  1.0
  H  H31  1  0.40848987  0.96671335  0.37590993  1.0
  H  H32  1  0.65093835  0.37671374  0.38538043  1.0
  H  H33  1  0.89591857  0.92220866  0.70402968  1.0
  H  H34  1  0.16385703  0.89335159  0.70011550  1.0
  H  H35  1  0.97782565  0.18576167  0.71096860  1.0
  H  H36  1  0.74296349  0.99143636  0.70397344  1.0
  H  H37  1  0.24956214  0.74294450  0.70047270  1.0
  H  H38  1  0.00110605  0.30435492  0.71644354  1.0
  H  H39  1  0.72215724  0.72475405  0.73058745  1.0
  H  H40  1  0.73400934  0.01515358  0.78912199  1.0
  H  H41  1  0.21671542  0.73881530  0.78449069  1.0
  H  H42  1  0.99407174  0.29966937  0.80232641  1.0
  H  H43  1  0.88458617  0.96753156  0.78705295  1.0
  H  H44  1  0.12497158  0.88871535  0.78340948  1.0
  H  H45  1  0.00098424  0.16508263  0.79596189  1.0
  H  H46  1  0.01116251  0.70969444  0.70827508  1.0
  H  H47  1  0.25293413  0.01664295  0.71260260  1.0
  H  H48  1  0.78358186  0.21004647  0.70083684  1.0
  H  H49  1  0.97671453  0.65672865  0.80629208  1.0
  H  H50  1  0.52923548  0.73829450  0.72963563  1.0
  H  H51  1  0.35976559  0.96380304  0.80844234  1.0
  H  H52  1  0.67621290  0.28269158  0.79508694  1.0
  H  H53  1  0.21827926  0.44406416  0.22635513  1.0
  H  H54  1  0.20500029  0.53214149  0.17426374  1.0
  H  H55  1  0.20573409  0.39859325  0.16640945  1.0
  H  H56  1  0.48952039  0.05631454  0.19083900  1.0
  H  H57  1  0.38544496  0.15297130  0.14793446  1.0
  H  H58  1  0.42022086  0.00586153  0.14897219  1.0
  H  H59  1  0.44402339  0.47199568  0.21058501  1.0
  H  H60  1  0.43267689  0.37370388  0.16903802  1.0
  H  H61  1  0.68225160  0.52060441  0.72910067  1.0
  H  H62  1  0.54501968  0.41154102  0.16088539  1.0
  H  H63  1  0.12563056  0.54716502  0.35376687  1.0
  H  H64  1  0.22395891  0.48160573  0.30350308  1.0
  H  H65  1  0.18679467  0.39640022  0.34254697  1.0
  H  H66  1  0.52456129  0.02565932  0.29861640  1.0
  H  H67  1  0.44490938  0.15008165  0.26133803  1.0
  H  H68  1  0.45473678  0.16544881  0.32569834  1.0
  H  H69  1  0.47946488  0.48956200  0.33149053  1.0
  H  H70  1  0.41168198  0.43940193  0.28862994  1.0
  H  H71  1  0.40963291  0.41108243  0.35281685  1.0
  H  H72  1  0.75819583  0.72941684  0.81345198  1.0
  H  H73  1  0.09875172  0.49870974  0.75887995  1.0
  H  H74  1  0.10697990  0.51745083  0.69419936  1.0
  H  H75  1  0.04439109  0.43361361  0.71693968  1.0
  H  H76  1  0.37632364  0.10864085  0.76480320  1.0
  H  H77  1  0.33853159  0.12840134  0.70126026  1.0
  H  H78  1  0.48667753  0.07282762  0.71907631  1.0
  H  H79  1  0.56392793  0.25277629  0.73171523  1.0
  H  H80  1  0.61412130  0.24040828  0.66964844  1.0
  H  H81  1  0.48343431  0.36452110  0.68877562  1.0
  H  H82  1  0.48882713  0.74806027  0.81312919  1.0
  H  H83  1  0.67222935  0.47256945  0.81034243  1.0
  H  H84  1  0.46479538  0.49589164  0.52971402  1.0
  H  H85  1  0.13246783  0.22368381  0.03053177  1.0
  C  C86  1  0.45919776  0.77679894  0.56856875  1.0
  C  C87  1  0.85228638  0.85048082  0.85696092  1.0
  C  C88  1  0.15409624  0.48056982  0.32541531  1.0
  C  C89  1  0.44847930  0.11143895  0.29712395  1.0
  C  C90  1  0.46049105  0.41989225  0.32288508  1.0
  C  C91  1  0.05396965  0.50944028  0.72378774  1.0
  C  C92  1  0.40502472  0.07317242  0.72774429  1.0
  C  C93  1  0.57082588  0.30084787  0.70008857  1.0
  C  C94  1  0.27710362  0.84094864  0.85524363  1.0
  C  C95  1  0.83166395  0.28019689  0.85811479  1.0
  C  C96  1  0.81290389  0.79311457  0.65965203  1.0
  C  C97  1  0.37589495  0.82498057  0.65850789  1.0
  C  C98  1  0.81422473  0.37561962  0.66167961  1.0
  C  C99  1  0.80187685  0.78243267  0.61628373  1.0
  C  C100  1  0.40469153  0.81096174  0.61579290  1.0
  C  C101  1  0.80493899  0.40183017  0.61886859  1.0
  C  C102  1  0.88718102  0.19349112  0.08681098  1.0
  C  C103  1  0.77856088  0.45167578  0.57103187  1.0
  C  C104  1  0.89249659  0.88137557  0.08262200  1.0
  C  C105  1  0.19151202  0.89002725  0.08800885  1.0
  C  C106  1  0.87611829  0.19955187  0.94789341  1.0
  C  C107  1  0.89257076  0.88956880  0.94740533  1.0
  C  C108  1  0.20757083  0.87741984  0.94730302  1.0
  C  C109  1  0.76731402  0.88341188  0.36505991  1.0
  C  C110  1  0.35508676  0.74175546  0.36591310  1.0
  C  C111  1  0.91584379  0.35373888  0.36203051  1.0
  C  C112  1  0.78367798  0.90300092  0.31608492  1.0
  C  C113  1  0.31110117  0.75929294  0.31850730  1.0
  C  C114  1  0.77736166  0.75878250  0.56801508  1.0
  C  C115  1  0.93290111  0.31595607  0.31338414  1.0
  C  C116  1  0.79663424  0.93512816  0.21404739  1.0
  C  C117  1  0.24876719  0.78067917  0.21813321  1.0
  C  C118  1  0.95205739  0.26433566  0.21193766  1.0
  C  C119  1  0.45926255  0.77998031  0.43208981  1.0
  C  C120  1  0.78183527  0.44198077  0.43396564  1.0
  C  C121  1  0.79268961  0.74846635  0.43324297  1.0
  C  C122  1  0.72791221  0.02946587  0.24571123  1.0
  C  C123  1  0.24130996  0.69746907  0.24890840  1.0
  C  C124  1  0.04557312  0.26509491  0.23785944  1.0
  C  C125  1  0.95464428  0.73423408  0.78494055  1.0
  C  C126  1  0.72326738  0.01468144  0.29475373  1.0
  C  C127  1  0.27098683  0.68739268  0.29689945  1.0
  C  C128  1  0.03680932  0.28871499  0.28655666  1.0
  C  C129  1  0.80207070  0.94994287  0.16368685  1.0
  C  C130  1  0.22388607  0.78876060  0.16820992  1.0
  C  C131  1  0.95975379  0.23991840  0.16194758  1.0
  C  C132  1  0.87431179  0.85717187  0.13384199  1.0
  C  C133  1  0.22696735  0.87470613  0.14009958  1.0
  C  C134  1  0.86937701  0.23379960  0.13823708  1.0
  C  C135  1  0.90231562  0.68007196  0.35517442  1.0
  C  C136  1  0.29676236  0.95046000  0.78731178  1.0
  C  C137  1  0.38128236  0.90954491  0.35947481  1.0
  C  C138  1  0.72825238  0.35990490  0.36454156  1.0
  C  C139  1  0.92115572  0.69634314  0.30605486  1.0
  C  C140  1  0.33919280  0.92860438  0.31161943  1.0
  C  C141  1  0.74101018  0.32548905  0.31575285  1.0
  C  C142  1  0.85722237  0.80798122  0.28551257  1.0
  C  C143  1  0.30971944  0.84931317  0.28975277  1.0
  C  C144  1  0.84111953  0.30895756  0.28890473  1.0
  C  C145  1  0.99670764  0.60240828  0.27471799  1.0
  C  C146  1  0.33316818  0.02162749  0.28271503  1.0
  C  C147  1  0.76270814  0.25269649  0.77883257  1.0
  C  C148  1  0.65122765  0.31440664  0.29088811  1.0
  C  C149  1  0.99794179  0.61667853  0.22485097  1.0
  C  C150  1  0.31442212  0.02556543  0.23315436  1.0
  C  C151  1  0.65401707  0.30272256  0.24100994  1.0
  C  C152  1  0.93217505  0.72853856  0.20344776  1.0
  C  C153  1  0.28527944  0.94553055  0.21038710  1.0
  C  C154  1  0.75540528  0.28345354  0.21324756  1.0
  C  C155  1  0.72318970  0.80394212  0.74004629  1.0
  C  C156  1  0.45063610  0.73181126  0.73671110  1.0
  C  C157  1  0.76870588  0.46217076  0.74315791  1.0
  C  C158  1  0.94047116  0.71106697  0.73080510  1.0
  C  C159  1  0.86296186  0.82381110  0.23455833  1.0
  C  C160  1  0.28121096  0.85860689  0.23956499  1.0
  C  C161  1  0.84925961  0.28578159  0.23815093  1.0
  C  C162  1  0.93825508  0.74695853  0.15339201  1.0
  C  C163  1  0.25534895  0.95341195  0.16107055  1.0
  C  C164  1  0.76800579  0.25529211  0.16356847  1.0
  C  C165  1  0.82381055  0.77233104  0.38398266  1.0
  C  C166  1  0.39438997  0.81356082  0.38536351  1.0
  C  C167  1  0.81227613  0.38014168  0.38650865  1.0
  C  C168  1  0.82006985  0.92325419  0.72163711  1.0
  C  C169  1  0.32609692  0.94707217  0.73233998  1.0
  C  C170  1  0.23682298  0.82164549  0.71848615  1.0
  C  C171  1  0.94609929  0.26886110  0.72941930  1.0
  C  C172  1  0.81795619  0.94438830  0.77713940  1.0
  C  C173  1  0.21228905  0.82010050  0.77368598  1.0
  C  C174  1  0.95126692  0.25554282  0.78541011  1.0
  C  C175  1  0.86540005  0.86483014  0.89976229  1.0
  C  C176  1  0.25437616  0.84897656  0.89858367  1.0
  C  C177  1  0.84248519  0.25256533  0.90079299  1.0
  C  C178  1  0.82372459  0.80729216  0.71151833  1.0
  C  C179  1  0.34796081  0.83192838  0.71009065  1.0
  C  C180  1  0.74916791  0.28697417  0.72437819  1.0
  C  C181  1  0.81984318  0.34924671  0.71317256  1.0
  C  C182  1  0.73926443  0.81027306  0.79556796  1.0
  C  C183  1  0.42493137  0.73624680  0.79196985  1.0
  C  C184  1  0.76259252  0.43731027  0.79784152  1.0
  C  C185  1  0.84097795  0.83470370  0.80529439  1.0
  C  C186  1  0.30247444  0.83667914  0.80350314  1.0
  C  C187  1  0.82642064  0.30642128  0.80660439  1.0
  C  C188  1  0.17791584  0.47298692  0.19045311  1.0
  C  C189  1  0.40838697  0.07875573  0.17148836  1.0
  C  C190  1  0.49285353  0.39492380  0.18790552  1.0
  O  O191  1  0.68078183  0.47657103  0.55367209  1.0
  O  O192  1  0.68011752  0.47645962  0.45011139  1.0
  O  O193  1  0.85977352  0.65060364  0.45212669  1.0
  O  O194  1  0.49367011  0.84835384  0.44965025  1.0
  O  O195  1  0.48093474  0.68486527  0.45036078  1.0
  O  O196  1  0.85847686  0.46192653  0.45425013  1.0
  O  O197  1  0.69774955  0.82409292  0.45277663  1.0
  O  O198  1  0.66718563  0.65252818  0.50071261  1.0
  O  O199  1  0.17791926  0.97964832  0.06683863  1.0
  O  O200  1  0.81120227  0.16957196  0.06857046  1.0
  O  O201  1  0.98495854  0.80814734  0.06048524  1.0
  O  O202  1  0.84972289  0.66345105  0.54853395  1.0
  O  O203  1  0.97752390  0.18011126  0.06467190  1.0
  O  O204  1  0.81910794  0.97778294  0.06443532  1.0
  O  O205  1  0.17324725  0.81225899  0.06835024  1.0
  O  O206  1  0.00062176  0.99579449  0.01573924  1.0
  O  O207  1  0.97777834  0.17160826  0.96118458  1.0
  O  O208  1  0.81866894  0.98318559  0.96774277  1.0
  O  O209  1  0.19069928  0.80209339  0.97031383  1.0
  O  O210  1  0.05417235  0.52589627  0.19330759  1.0
  O  O211  1  0.31336449  0.11290816  0.20569156  1.0
  O  O212  1  0.56373269  0.29737980  0.21788505  1.0
  O  O213  1  0.48307106  0.84765471  0.54594025  1.0
  O  O214  1  0.06056478  0.49518438  0.29441894  1.0
  O  O215  1  0.34496262  0.10452982  0.30745048  1.0
  O  O216  1  0.56527793  0.31268447  0.31919965  1.0
  O  O217  1  0.94035627  0.60501581  0.72439099  1.0
  O  O218  1  0.42743450  0.95809575  0.72409600  1.0
  O  O219  1  0.63117198  0.36144559  0.71181159  1.0
  O  O220  1  0.18265594  0.97565003  0.96270805  1.0
  O  O221  1  0.80163297  0.18078999  0.97151183  1.0
  O  O222  1  0.99148128  0.81825274  0.96464442  1.0
  O  O223  1  0.48308073  0.67795204  0.55402198  1.0
  O  O224  1  0.85653911  0.47058103  0.55066682  1.0
  O  O225  1  0.68164379  0.83313782  0.54908755  1.0
  O  O226  1  0.49542299  0.50361587  0.49862674  1.0
  O  O227  1  0.16374593  0.15424968  0.01135984  1.0
