# generated using pymatgen
data_Al2H16C23S2(N2O5)2
_symmetry_space_group_name_H-M   'P 1'
_cell_length_a   6.65880517
_cell_length_b   12.72772636
_cell_length_c   16.87869190
_cell_angle_alpha   90.34439064
_cell_angle_beta   96.70433447
_cell_angle_gamma   104.80333858
_symmetry_Int_Tables_number   1
_chemical_formula_structural   Al2H16C23S2(N2O5)2
_chemical_formula_sum   'Al2 H16 C23 S2 N4 O10'
_cell_volume   1372.59896379
_cell_formula_units_Z   1
loop_
 _symmetry_equiv_pos_site_id
 _symmetry_equiv_pos_as_xyz
  1  'x, y, z'
loop_
 _atom_site_type_symbol
 _atom_site_label
 _atom_site_symmetry_multiplicity
 _atom_site_fract_x
 _atom_site_fract_y
 _atom_site_fract_z
 _atom_site_occupancy
  Al  Al0  1  0.99384108  0.49258575  0.49536579  1.0
  Al  Al1  1  0.49430992  0.49191993  0.49581907  1.0
  H  H2  1  0.16577894  0.36674943  0.44331882  1.0
  H  H3  1  0.81942056  0.62298923  0.53680407  1.0
  H  H4  1  0.58391587  0.43997359  0.73071370  1.0
  H  H5  1  0.65341295  0.44386589  0.88065507  1.0
  H  H6  1  0.09699126  0.55215059  0.89451678  1.0
  H  H7  1  0.93268322  0.54953491  0.09598184  1.0
  H  H8  1  0.27187776  0.44250325  0.11094855  1.0
  H  H9  1  0.34843216  0.44049135  0.26040384  1.0
  H  H10  1  0.83541163  0.13980610  0.44248295  1.0
  H  H11  1  0.94076028  0.53795645  0.68025578  1.0
  H  H12  1  0.88760384  0.57262758  0.77378144  1.0
  H  H13  1  0.08702165  0.55098947  0.31027777  1.0
  H  H14  1  0.17123669  0.57305556  0.21544557  1.0
  H  H15  1  0.96564868  0.81415295  0.52699496  1.0
  H  H16  1  0.09434984  0.91018208  0.60493237  1.0
  H  H17  1  0.12245296  0.77462323  0.60780587  1.0
  C  C18  1  0.64346272  0.29708735  0.50140607  1.0
  C  C19  1  0.70904095  0.49505605  0.35093769  1.0
  C  C20  1  0.34708102  0.68847656  0.48997838  1.0
  C  C21  1  0.27799579  0.49201688  0.63999454  1.0
  C  C22  1  0.30566613  0.49531821  0.72802127  1.0
  C  C23  1  0.48106634  0.46654006  0.76771747  1.0
  C  C24  1  0.52098661  0.46876631  0.84997388  1.0
  C  C25  1  0.37967299  0.50137074  0.89492492  1.0
  C  C26  1  0.20348701  0.52890061  0.85738943  1.0
  C  C27  1  0.16161984  0.52729590  0.77326792  1.0
  C  C28  1  0.80608639  0.52761548  0.13330796  1.0
  C  C29  1  0.60105606  0.50008273  0.09622386  1.0
  C  C30  1  0.43079961  0.46805719  0.14138748  1.0
  C  C31  1  0.47434461  0.46695645  0.22332472  1.0
  C  C32  1  0.68046227  0.49794919  0.26325054  1.0
  C  C33  1  0.85245367  0.52896601  0.21735489  1.0
  C  C34  1  0.29726118  0.87580775  0.52438694  1.0
  C  C35  1  0.69065051  0.10957646  0.46853732  1.0
  C  C36  1  0.40171805  0.80752304  0.49125839  1.0
  C  C37  1  0.58525241  0.17778019  0.49973433  1.0
  C  C38  1  0.58443866  0.99953878  0.47537325  1.0
  C  C39  1  0.40223714  0.98553292  0.51348048  1.0
  C  C40  1  0.11026675  0.84167472  0.56854414  1.0
  S  S41  1  0.62464783  0.87602574  0.44992451  1.0
  S  S42  1  0.35783678  0.10880133  0.53781607  1.0
  N  N43  1  0.40018217  0.50462921  0.97948313  1.0
  N  N44  1  0.58070724  0.50324213  0.01200199  1.0
  N  N45  1  0.99308637  0.56021806  0.73854377  1.0
  N  N46  1  0.05520682  0.56054123  0.25076558  1.0
  O  O47  1  0.82921061  0.34435822  0.48823339  1.0
  O  O48  1  0.54613866  0.47487958  0.38741224  1.0
  O  O49  1  0.48970186  0.64132566  0.47785748  1.0
  O  O50  1  0.09105949  0.47754487  0.60453803  1.0
  O  O51  1  0.16046938  0.64034988  0.50158391  1.0
  O  O52  1  0.44139611  0.50534342  0.60449487  1.0
  O  O53  1  0.50263156  0.34428695  0.51516877  1.0
  O  O54  1  0.89704932  0.51185206  0.38654461  1.0
  O  O55  1  0.20948793  0.44295901  0.46012673  1.0
  O  O56  1  0.77976513  0.54418013  0.53113278  1.0
