# generated using pymatgen
data_AlH9C24N3(O2F)3
_symmetry_space_group_name_H-M   'P 1'
_cell_length_a   3.94670019
_cell_length_b   15.81613486
_cell_length_c   15.82301506
_cell_angle_alpha   60.16297219
_cell_angle_beta   86.62988251
_cell_angle_gamma   86.15535237
_symmetry_Int_Tables_number   1
_chemical_formula_structural   AlH9C24N3(O2F)3
_chemical_formula_sum   'Al1 H9 C24 N3 O6 F3'
_cell_volume   854.47485147
_cell_formula_units_Z   1
loop_
 _symmetry_equiv_pos_site_id
 _symmetry_equiv_pos_as_xyz
  1  'x, y, z'
loop_
 _atom_site_type_symbol
 _atom_site_label
 _atom_site_symmetry_multiplicity
 _atom_site_fract_x
 _atom_site_fract_y
 _atom_site_fract_z
 _atom_site_occupancy
  Al  Al0  1  0.03700495  0.49970705  0.49919934  1.0
  H  H1  1  0.75871660  0.48626906  0.24074849  1.0
  H  H2  1  0.73677772  0.39998133  0.14437975  1.0
  H  H3  1  0.43599080  0.14014835  0.40605192  1.0
  H  H4  1  0.43481330  0.41111603  0.95367209  1.0
  H  H5  1  0.60096300  0.23504373  0.76599315  1.0
  H  H6  1  0.58059873  0.14096157  0.94867245  1.0
  H  H7  1  0.30911535  0.95640572  0.14494226  1.0
  H  H8  1  0.73360050  0.76446500  0.48187271  1.0
  H  H9  1  0.71955931  0.94733968  0.39613057  1.0
  C  C10  1  0.51721345  0.64958713  0.42025682  1.0
  C  C11  1  0.57404163  0.42010255  0.42809213  1.0
  C  C12  1  0.51972003  0.42839730  0.64919591  1.0
  C  C13  1  0.51629975  0.21521977  0.06995971  1.0
  C  C14  1  0.56272206  0.21298173  0.21367775  1.0
  C  C15  1  0.51967229  0.07093184  0.21253784  1.0
  C  C16  1  0.68449990  0.41078687  0.27546984  1.0
  C  C17  1  0.67385239  0.36292167  0.22213486  1.0
  C  C18  1  0.58203380  0.26524885  0.26874175  1.0
  C  C19  1  0.50212582  0.21629827  0.36891042  1.0
  C  C20  1  0.50141357  0.26667067  0.41965732  1.0
  C  C21  1  0.59065002  0.36428147  0.37497708  1.0
  C  C22  1  0.46369862  0.37179568  0.91331187  1.0
  C  C23  1  0.46022645  0.42183705  0.81243952  1.0
  C  C24  1  0.51122010  0.37432082  0.75783157  1.0
  C  C25  1  0.55854698  0.27237481  0.80819480  1.0
  C  C26  1  0.54893114  0.22018709  0.90937597  1.0
  C  C27  1  0.50645018  0.26977775  0.96254433  1.0
  C  C28  1  0.39681253  0.91516762  0.21939090  1.0
  C  C29  1  0.39203544  0.81419311  0.26993227  1.0
  C  C30  1  0.51267939  0.75802611  0.36477066  1.0
  C  C31  1  0.63489350  0.80790942  0.40879104  1.0
  C  C32  1  0.62848646  0.90903899  0.36128110  1.0
  C  C33  1  0.51276242  0.96330605  0.26557098  1.0
  N  N34  1  0.55073775  0.26625028  0.11603742  1.0
  N  N35  1  0.55477141  0.11506939  0.26521747  1.0
  N  N36  1  0.49311695  0.11771087  0.11512438  1.0
  O  O37  1  0.77027080  0.40738053  0.60740839  1.0
  O  O38  1  0.74577533  0.60704082  0.48384539  1.0
  O  O39  1  0.79987497  0.48225873  0.40641805  1.0
  O  O40  1  0.27659628  0.48961202  0.60620481  1.0
  O  O41  1  0.32974223  0.40385179  0.48979479  1.0
  O  O42  1  0.29370558  0.60609916  0.40312691  1.0
  F  F43  1  0.41816885  0.21773947  0.51632405  1.0
  F  F44  1  0.41910172  0.52070811  0.76565142  1.0
  F  F45  1  0.27550691  0.77015112  0.22316553  1.0
