# generated using pymatgen
data_Zn4H51C84BrN16
_symmetry_space_group_name_H-M   'P 1'
_cell_length_a   18.92916977
_cell_length_b   18.98115068
_cell_length_c   20.34878145
_cell_angle_alpha   107.56712426
_cell_angle_beta   105.39816168
_cell_angle_gamma   112.10764267
_symmetry_Int_Tables_number   1
_chemical_formula_structural   Zn4H51C84BrN16
_chemical_formula_sum   'Zn4 H51 C84 Br1 N16'
_cell_volume   5832.71870194
_cell_formula_units_Z   1
loop_
 _symmetry_equiv_pos_site_id
 _symmetry_equiv_pos_as_xyz
  1  'x, y, z'
loop_
 _atom_site_type_symbol
 _atom_site_label
 _atom_site_symmetry_multiplicity
 _atom_site_fract_x
 _atom_site_fract_y
 _atom_site_fract_z
 _atom_site_occupancy
  Zn  Zn0  1  0.10331118  0.10395308  0.49691856  1.0
  Zn  Zn1  1  0.88453978  0.88807180  0.49948181  1.0
  Zn  Zn2  1  0.99106208  0.89604334  0.39675601  1.0
  Zn  Zn3  1  0.99586726  0.09521633  0.59952762  1.0
  H  H4  1  0.20231023  0.14822487  0.38634897  1.0
  H  H5  1  0.77812748  0.54555409  0.43614063  1.0
  H  H6  1  0.72468481  0.42187272  0.46373132  1.0
  H  H7  1  0.71683464  0.85234932  0.53514605  1.0
  H  H8  1  0.73244842  0.29748631  0.47115805  1.0
  H  H9  1  0.80082424  0.20852215  0.45814640  1.0
  H  H10  1  0.95334362  0.22545582  0.33283028  1.0
  H  H11  1  0.97327579  0.32349502  0.27415436  1.0
  H  H12  1  0.96620432  0.44854031  0.26723909  1.0
  H  H13  1  0.24397811  0.84025604  0.53300658  1.0
  H  H14  1  0.37997599  0.11279500  0.67045645  1.0
  H  H15  1  0.81115776  0.68479909  0.46602688  1.0
  H  H16  1  0.53611057  0.19146484  0.73277089  1.0
  H  H17  1  0.66961721  0.19504248  0.73933816  1.0
  H  H18  1  0.74283687  0.12132026  0.69255306  1.0
  H  H19  1  0.86825483  0.90381922  0.25649406  1.0
  H  H20  1  0.60689448  0.84818570  0.55802632  1.0
  H  H21  1  0.45567012  0.76479198  0.52561794  1.0
  H  H22  1  0.32200144  0.76165206  0.51794692  1.0
  H  H23  1  0.19689126  0.44266847  0.80556595  1.0
  H  H24  1  0.75754247  0.89834838  0.16255532  1.0
  H  H25  1  0.60237626  0.82337036  0.27725334  1.0
  H  H26  1  0.11837373  0.84493853  0.48783097  1.0
  H  H27  1  0.41086108  0.67952634  0.02046815  1.0
  H  H28  1  0.49161294  0.57397415  0.83499600  1.0
  H  H29  1  0.63158798  0.81783130  0.04069653  1.0
  H  H30  1  0.38676030  0.43035459  0.73099107  1.0
  H  H31  1  0.85917886  0.13770437  0.51122125  1.0
  H  H32  1  0.53550691  0.69040446  0.94777659  1.0
  H  H33  1  0.30182062  0.58453229  0.91040584  1.0
  H  H34  1  0.47595088  0.74406065  0.15524107  1.0
  H  H35  1  0.13463737  0.87981070  0.18764466  1.0
  H  H36  1  0.17466779  0.09596984  0.83879174  1.0
  H  H37  1  0.14682799  0.11014285  0.73434290  1.0
  H  H38  1  0.18188499  0.89028410  0.97780009  1.0
  H  H39  1  0.27858411  0.15294890  0.17854036  1.0
  H  H40  1  0.22606022  0.09564810  0.96086723  1.0
  H  H41  1  0.23626559  0.15169526  0.28267193  1.0
  H  H42  1  0.72745409  0.89516345  0.39359757  1.0
  H  H43  1  0.26388859  0.08551122  0.05852007  1.0
  H  H44  1  0.17515266  0.88093257  0.08317847  1.0
  H  H45  1  0.16185649  0.83348302  0.84529122  1.0
  H  H46  1  0.00115872  0.14722790  0.37516479  1.0
  H  H47  1  0.86025539  0.12620769  0.66933397  1.0
  H  H48  1  0.99583255  0.83506991  0.60795058  1.0
  H  H49  1  0.04985436  0.87427401  0.25447432  1.0
  H  H50  1  0.26697906  0.30543212  0.61169136  1.0
  H  H51  1  0.26304438  0.11991986  0.61854553  1.0
  H  H52  1  0.12368664  0.29035195  0.74596561  1.0
  H  H53  1  0.94885616  0.69289619  0.32674843  1.0
  H  H54  1  0.93195031  0.56219083  0.31202863  1.0
  C  C55  1  0.15885775  0.08044882  0.36221396  1.0
  C  C56  1  0.21644328  0.05339153  0.58091914  1.0
  C  C57  1  0.14868075  0.28035854  0.70381315  1.0
  C  C58  1  0.76295399  0.91980977  0.56560388  1.0
  C  C59  1  0.91798949  0.70439178  0.36357853  1.0
  C  C60  1  0.22247241  0.33676377  0.70358656  1.0
  C  C61  1  0.87142072  0.65002981  0.38876240  1.0
  C  C62  1  0.22393550  0.98004150  0.56915101  1.0
  C  C63  1  0.09302913  0.96898956  0.69978817  1.0
  C  C64  1  0.89582359  0.52898522  0.33740900  1.0
  C  C65  1  0.85751129  0.56498643  0.37637239  1.0
  C  C66  1  0.75729964  0.98840306  0.61026353  1.0
  C  C67  1  0.81008838  0.51981922  0.40712550  1.0
  C  C68  1  0.80523068  0.44339778  0.40446629  1.0
  C  C69  1  0.84919848  0.41036198  0.36911869  1.0
  C  C70  1  0.84500306  0.90445835  0.29992084  1.0
  C  C71  1  0.89269010  0.45274896  0.33306019  1.0
  C  C72  1  0.76087785  0.39858072  0.43906433  1.0
  C  C73  1  0.76509921  0.32958110  0.44311483  1.0
  C  C74  1  0.81406533  0.29900568  0.41298112  1.0
  C  C75  1  0.85339104  0.33863878  0.37318854  1.0
  C  C76  1  0.90103512  0.30841747  0.34125730  1.0
  C  C77  1  0.76584575  0.89233739  0.29684634  1.0
  C  C78  1  0.93906291  0.34836622  0.30059400  1.0
  C  C79  1  0.93524431  0.41756513  0.29682587  1.0
  C  C80  1  0.82870428  0.23582383  0.42511919  1.0
  C  C81  1  0.88192377  0.21121544  0.39997823  1.0
  C  C82  1  0.90025311  0.13433334  0.48336121  1.0
  C  C83  1  0.91370144  0.24508681  0.35483915  1.0
  C  C84  1  0.30320065  0.90034082  0.56908924  1.0
  C  C85  1  0.30193625  0.97701647  0.59713983  1.0
  C  C86  1  0.37929511  0.05276889  0.64580470  1.0
  C  C87  1  0.45679007  0.05484847  0.65984767  1.0
  C  C88  1  0.91221524  0.16024276  0.42732646  1.0
  C  C89  1  0.45724716  0.97760017  0.62493767  1.0
  C  C90  1  0.37912606  0.89904347  0.58181379  1.0
  C  C91  1  0.53618092  0.13281019  0.70376335  1.0
  C  C92  1  0.61008627  0.13475900  0.70748717  1.0
  C  C93  1  0.61145114  0.05873888  0.66837086  1.0
  C  C94  1  0.77262394  0.89887538  0.36935347  1.0
  C  C95  1  0.53402258  0.97950524  0.62927615  1.0
  C  C96  1  0.53374378  0.90265538  0.59104517  1.0
  C  C97  1  0.45534195  0.82375584  0.55290554  1.0
  C  C98  1  0.38139994  0.82201434  0.54859469  1.0
  C  C99  1  0.22241589  0.28773264  0.63608088  1.0
  C  C100  1  0.68470196  0.06002197  0.66431157  1.0
  C  C101  1  0.68383056  0.98541030  0.62276055  1.0
  C  C102  1  0.60863096  0.90726012  0.58900635  1.0
  C  C103  1  0.28401873  0.42405630  0.76139795  1.0
  C  C104  1  0.26205006  0.47058734  0.81261991  1.0
  C  C105  1  0.32134472  0.55104755  0.87168894  1.0
  C  C106  1  0.97265619  0.13921827  0.41407656  1.0
  C  C107  1  0.40621639  0.58948284  0.88274772  1.0
  C  C108  1  0.42667709  0.54505612  0.82853616  1.0
  C  C109  1  0.36742152  0.46414162  0.76969364  1.0
  C  C110  1  0.84754479  0.70011842  0.43415760  1.0
  C  C111  1  0.62466717  0.81811842  0.09230711  1.0
  C  C112  1  0.69596768  0.86359947  0.16129969  1.0
  C  C113  1  0.60944630  0.82331209  0.22575083  1.0
  C  C114  1  0.53788664  0.77835233  0.15674143  1.0
  C  C115  1  0.54404490  0.76995722  0.08754254  1.0
  C  C116  1  0.47405299  0.66717270  0.94970134  1.0
  C  C117  1  0.47082562  0.70526148  0.01607174  1.0
  C  C118  1  0.83595214  0.05922512  0.63376477  1.0
  C  C119  1  0.69072320  0.86308320  0.22908756  1.0
  C  C120  1  0.17888995  0.01519717  0.24177587  1.0
  C  C121  1  0.14280701  0.91323222  0.51410551  1.0
  C  C122  1  0.16558728  0.94010669  0.18565350  1.0
  C  C123  1  0.18902032  0.94079390  0.12671332  1.0
  C  C124  1  0.22735520  0.01697658  0.12085823  1.0
  C  C125  1  0.24724275  0.09283237  0.18077092  1.0
  C  C126  1  0.22331424  0.09207919  0.23948374  1.0
  C  C127  1  0.20284258  0.03826540  0.90923923  1.0
  C  C128  1  0.17377717  0.03849184  0.83957021  1.0
  C  C129  1  0.13829173  0.89393519  0.77468876  1.0
  C  C130  1  0.08192243  0.94084805  0.29555685  1.0
  C  C131  1  0.16565416  0.89203873  0.84459638  1.0
  C  C132  1  0.10104245  0.04396459  0.69465738  1.0
  C  C133  1  0.19561004  0.96326450  0.91374184  1.0
  C  C134  1  0.23707827  0.02101226  0.05350101  1.0
  C  C135  1  0.20741971  0.95547721  0.98439696  1.0
  C  C136  1  0.13641381  0.96547449  0.76888031  1.0
  C  C137  1  0.14384191  0.01260520  0.29729090  1.0
  C  C138  1  0.02440784  0.90354218  0.62977731  1.0
  Br  Br139  1  0.10193888  0.79244766  0.68631368  1.0
  N  N140  1  0.11017792  0.05113138  0.39601010  1.0
  N  N141  1  0.89340677  0.91561737  0.36810249  1.0
  N  N142  1  0.95067095  0.10219550  0.50215249  1.0
  N  N143  1  0.84903656  0.91231680  0.41080946  1.0
  N  N144  1  0.99519054  0.10522155  0.45954482  1.0
  N  N145  1  0.88399825  0.03440768  0.60545760  1.0
  N  N146  1  0.06218318  0.96407644  0.35430385  1.0
  N  N147  1  0.15415632  0.20917283  0.59940638  1.0
  N  N148  1  0.87743121  0.77737683  0.43569478  1.0
  N  N149  1  0.09250768  0.94527857  0.49451708  1.0
  N  N150  1  0.04124808  0.02401916  0.62836194  1.0
  N  N151  1  0.99422125  0.93783737  0.58859827  1.0
  N  N152  1  0.13785210  0.03141120  0.53558108  1.0
  N  N153  1  0.10843308  0.20460379  0.64186439  1.0
  N  N154  1  0.92142751  0.78011547  0.39172604  1.0
  N  N155  1  0.83823502  0.94744867  0.56297955  1.0
