# generated using pymatgen
data_Al6H41C84N15(Cl3O7)4
_symmetry_space_group_name_H-M   'P 1'
_cell_length_a   12.74046633
_cell_length_b   13.03282609
_cell_length_c   30.54637127
_cell_angle_alpha   80.74493160
_cell_angle_beta   80.82060282
_cell_angle_gamma   61.08630433
_symmetry_Int_Tables_number   1
_chemical_formula_structural   Al6H41C84N15(Cl3O7)4
_chemical_formula_sum   'Al6 H41 C84 N15 Cl12 O28'
_cell_volume   4362.34793980
_cell_formula_units_Z   1
loop_
 _symmetry_equiv_pos_site_id
 _symmetry_equiv_pos_as_xyz
  1  'x, y, z'
loop_
 _atom_site_type_symbol
 _atom_site_label
 _atom_site_symmetry_multiplicity
 _atom_site_fract_x
 _atom_site_fract_y
 _atom_site_fract_z
 _atom_site_occupancy
  Al  Al0  1  0.58458047  0.59014821  0.49013489  1.0
  Al  Al1  1  0.58416686  0.34306916  0.50492135  1.0
  Al  Al2  1  0.34659978  0.56143424  0.50756737  1.0
  Al  Al3  1  0.06735916  0.07956981  0.02083194  1.0
  Al  Al4  1  0.32004890  0.08245204  0.00582002  1.0
  Al  Al5  1  0.09649000  0.31401274  0.00569990  1.0
  H  H6  1  0.15274471  0.97137870  0.81342517  1.0
  H  H7  1  0.23415214  0.73197610  0.71098033  1.0
  H  H8  1  0.82253701  0.20929203  0.92909423  1.0
  H  H9  1  0.75934301  0.22380761  0.85404442  1.0
  H  H10  1  0.90747859  0.46110241  0.80449675  1.0
  H  H11  1  0.76735676  0.52228773  0.68166524  1.0
  H  H12  1  0.30380241  0.96782359  0.29979893  1.0
  H  H13  1  0.67382046  0.52818004  0.28456328  1.0
  H  H14  1  0.52980505  0.75079186  0.83125287  1.0
  H  H15  1  0.02313240  0.06834310  0.87158964  1.0
  H  H16  1  0.06195434  0.05084873  0.92525177  1.0
  H  H17  1  0.73885433  0.18080584  0.58795970  1.0
  H  H18  1  0.77391985  0.10061649  0.64066703  1.0
  H  H19  1  0.71231216  0.58099595  0.56609758  1.0
  H  H20  1  0.72564004  0.63088094  0.61398596  1.0
  H  H21  1  0.53841971  0.02913273  0.13196527  1.0
  H  H22  1  0.45974233  0.06345799  0.08583747  1.0
  H  H23  1  0.49615158  0.13539268  0.22661939  1.0
  H  H24  1  0.47750476  0.04244784  0.20184677  1.0
  H  H25  1  0.64749312  0.19713531  0.31142522  1.0
  H  H26  1  0.55534765  0.20913724  0.27562209  1.0
  H  H27  1  0.60185034  0.20537630  0.42531177  1.0
  H  H28  1  0.63944347  0.13055357  0.37805107  1.0
  H  H29  1  0.19454186  0.55680803  0.43503421  1.0
  H  H30  1  0.11005332  0.59569046  0.38938070  1.0
  H  H31  1  0.08362163  0.55883806  0.17468494  1.0
  H  H32  1  0.18341690  0.52455163  0.21167727  1.0
  H  H33  1  0.12943599  0.48124270  0.06829561  1.0
  H  H34  1  0.12851656  0.57027956  0.10468742  1.0
  H  H35  1  0.39143247  0.52695451  0.27797367  1.0
  H  H36  1  0.37820180  0.57290006  0.32850876  1.0
  H  H37  1  0.13019840  0.24220705  0.79063874  1.0
  H  H38  1  0.18992016  0.23121958  0.83791529  1.0
  H  H39  1  0.28307498  0.04902187  0.18007775  1.0
  H  H40  1  0.25166315  0.10226124  0.23031781  1.0
  H  H41  1  0.22594521  0.16198502  0.72869396  1.0
  H  H42  1  0.24363559  0.23680720  0.67995531  1.0
  H  H43  1  0.54817824  0.86104975  0.58388864  1.0
  H  H44  1  0.52219743  0.78894194  0.54631993  1.0
  H  H45  1  0.70490093  0.68362419  0.46050501  1.0
  H  H46  1  0.01237826  0.93365798  0.01684230  1.0
  C  C47  1  0.70840577  0.38712908  0.56013863  1.0
  C  C48  1  0.27511932  0.27213520  0.78084318  1.0
  C  C49  1  0.28660040  0.27816091  0.73369796  1.0
  C  C50  1  0.35543321  0.32928342  0.70850416  1.0
  C  C51  1  0.33886074  0.31091456  0.80201044  1.0
  C  C52  1  0.33001234  0.30009212  0.84905329  1.0
  C  C53  1  0.36712848  0.33492254  0.66155276  1.0
  C  C54  1  0.31797690  0.28709530  0.88968062  1.0
  C  C55  1  0.36149090  0.74119134  0.60337395  1.0
  C  C56  1  0.28837370  0.72305901  0.64085954  1.0
  C  C57  1  0.28829995  0.75057790  0.68280760  1.0
  C  C58  1  0.39867463  0.36717500  0.57421673  1.0
  C  C59  1  0.36199531  0.79848901  0.68966546  1.0
  C  C60  1  0.43150225  0.82156737  0.65313378  1.0
  C  C61  1  0.43328460  0.79547499  0.60951401  1.0
  C  C62  1  0.43933039  0.81173577  0.84395297  1.0
  C  C63  1  0.41646402  0.84033926  0.88757325  1.0
  C  C64  1  0.20266426  0.96401779  0.87857865  1.0
  C  C65  1  0.22681866  0.93477865  0.83442372  1.0
  C  C66  1  0.34311513  0.86084964  0.81687568  1.0
  C  C67  1  0.35980213  0.83623877  0.77198066  1.0
  C  C68  1  0.36367358  0.82074386  0.73330133  1.0
  C  C69  1  0.37654851  0.69714957  0.56006319  1.0
  C  C70  1  0.30001656  0.91738109  0.90613676  1.0
  C  C71  1  0.74475191  0.36880955  0.60470174  1.0
  C  C72  1  0.74833294  0.46300171  0.62264681  1.0
  C  C73  1  0.76826305  0.45012222  0.66762169  1.0
  C  C74  1  0.78796452  0.34683815  0.69509781  1.0
  C  C75  1  0.79004295  0.25253840  0.67760489  1.0
  C  C76  1  0.76817591  0.26122415  0.63296623  1.0
  C  C77  1  0.80507087  0.27214920  0.85964983  1.0
  C  C78  1  0.83865904  0.26560273  0.90135400  1.0
  C  C79  1  0.91907337  0.40064792  0.87411915  1.0
  C  C80  1  0.71859770  0.39296223  0.43192280  1.0
  C  C81  1  0.88755771  0.40631311  0.83178364  1.0
  C  C82  1  0.83335384  0.34024878  0.82361098  1.0
  C  C83  1  0.81269824  0.34105801  0.77947090  1.0
  C  C84  1  0.80256049  0.34101860  0.74045099  1.0
  C  C85  1  0.89911381  0.32603045  0.90956904  1.0
  C  C86  1  0.38656072  0.37212825  0.40415287  1.0
  C  C87  1  0.27413156  0.45003963  0.38474641  1.0
  C  C88  1  0.26277704  0.43443304  0.34162791  1.0
  C  C89  1  0.35910945  0.35111217  0.31554693  1.0
  C  C90  1  0.46996953  0.27820604  0.33351511  1.0
  C  C91  1  0.40388310  0.38618478  0.44839782  1.0
  C  C92  1  0.48248272  0.28402243  0.37814349  1.0
  C  C93  1  0.40618956  0.20732626  0.17191732  1.0
  C  C94  1  0.38984871  0.18842737  0.12992709  1.0
  C  C95  1  0.22662209  0.39478288  0.12149464  1.0
  C  C96  1  0.24317954  0.41131988  0.16387098  1.0
  C  C97  1  0.33188473  0.31744026  0.18900832  1.0
  C  C98  1  0.34235735  0.33133854  0.23269736  1.0
  C  C99  1  0.34812001  0.34241567  0.27122626  1.0
  C  C100  1  0.29839166  0.28209556  0.10409664  1.0
  C  C101  1  0.34943089  0.74270557  0.38760623  1.0
  C  C102  1  0.37837950  0.70043080  0.43287302  1.0
  C  C103  1  0.36640158  0.69409608  0.27550585  1.0
  C  C104  1  0.35696994  0.72147028  0.22947684  1.0
  C  C105  1  0.31572264  0.92398282  0.23345427  1.0
  C  C106  1  0.31891797  0.89948023  0.27951097  1.0
  C  C107  1  0.34257605  0.78747403  0.30061065  1.0
  C  C108  1  0.33213877  0.83386228  0.20802961  1.0
  C  C109  1  0.32030444  0.86057336  0.16189085  1.0
  C  C110  1  0.34563678  0.76492538  0.34732806  1.0
  C  C111  1  0.30679235  0.89258773  0.12248308  1.0
  C  C112  1  0.76356904  0.36936770  0.38654372  1.0
  C  C113  1  0.37654846  0.33858041  0.62097936  1.0
  C  C114  1  0.88418599  0.23713122  0.28379716  1.0
  C  C115  1  0.90248687  0.22907052  0.23779365  1.0
  C  C116  1  0.75868581  0.43747197  0.22567447  1.0
  C  C117  1  0.73869842  0.44538851  0.27127834  1.0
  C  C118  1  0.80223892  0.34617038  0.30076510  1.0
  C  C119  1  0.84117357  0.32982833  0.20788353  1.0
  C  C120  1  0.86643550  0.32121645  0.16170034  1.0
  C  C121  1  0.78295049  0.35681230  0.34692431  1.0
  C  C122  1  0.89510747  0.30841147  0.12222285  1.0
  C  C123  1  0.27527633  0.95894980  0.95086976  1.0
  C  C124  1  0.41402668  0.37364527  0.73002312  1.0
  C  C125  1  0.28998284  0.26420563  0.93646489  1.0
  C  C126  1  0.95111816  0.29397568  0.95315443  1.0
  C  C127  1  0.27833097  0.94556746  0.07794880  1.0
  C  C128  1  0.27836746  0.26204941  0.06135417  1.0
  C  C129  1  0.94928226  0.27979589  0.07785536  1.0
  C  C130  1  0.40824228  0.36174031  0.77628908  1.0
  N  N131  1  0.08788413  0.04246398  0.89225992  1.0
  N  N132  1  0.77016272  0.16782058  0.61797721  1.0
  N  N133  1  0.73280334  0.56506760  0.59816790  1.0
  N  N134  1  0.45947920  0.07567220  0.11779334  1.0
  N  N135  1  0.49525939  0.11268288  0.19633187  1.0
  N  N136  1  0.56921566  0.19623676  0.30845041  1.0
  N  N137  1  0.59223270  0.20645777  0.39289398  1.0
  N  N138  1  0.17897070  0.53583033  0.40704706  1.0
  N  N139  1  0.17238054  0.52202176  0.17966186  1.0
  N  N140  1  0.13724401  0.49115571  0.09967695  1.0
  N  N141  1  0.40228517  0.58092994  0.29530048  1.0
  N  N142  1  0.20568864  0.22307336  0.80465926  1.0
  N  N143  1  0.30130828  0.03192047  0.21243746  1.0
  N  N144  1  0.22502211  0.23793435  0.71356821  1.0
  N  N145  1  0.50001707  0.82482005  0.57587356  1.0
  Cl  Cl146  1  0.49131399  0.44088825  0.69816969  1.0
  Cl  Cl147  1  0.81317675  0.12514513  0.71183264  1.0
  Cl  Cl148  1  0.98912121  0.48292933  0.87867559  1.0
  Cl  Cl149  1  0.48172504  0.41027327  0.80341723  1.0
  Cl  Cl150  1  0.12869142  0.52671647  0.31809246  1.0
  Cl  Cl151  1  0.37428654  0.61415286  0.19830190  1.0
  Cl  Cl152  1  0.96130326  0.11673195  0.31993225  1.0
  Cl  Cl153  1  0.00093718  0.09816749  0.21665528  1.0
  Cl  Cl154  1  0.68385682  0.56013380  0.19003642  1.0
  Cl  Cl155  1  0.53751422  0.77095339  0.91953478  1.0
  Cl  Cl156  1  0.52077033  0.88230553  0.66135248  1.0
  Cl  Cl157  1  0.19797969  0.65953146  0.63839841  1.0
  O  O158  1  0.46930644  0.68647011  0.53411648  1.0
  O  O159  1  0.50268115  0.31196068  0.46626322  1.0
  O  O160  1  0.32250840  0.47442024  0.46944617  1.0
  O  O161  1  0.30060056  0.68001303  0.46037622  1.0
  O  O162  1  0.50455025  0.49721454  0.50033118  1.0
  O  O163  1  0.96989921  0.19417898  0.97291216  1.0
  O  O164  1  0.17281111  0.98261649  0.97221022  1.0
  O  O165  1  0.35490661  0.97576817  0.96516350  1.0
  O  O166  1  0.36333540  0.16684133  0.95629213  1.0
  O  O167  1  0.18963056  0.33995879  0.95419096  1.0
  O  O168  1  0.97822417  0.36540302  0.96718964  1.0
  O  O169  1  0.68661225  0.48381829  0.53615812  1.0
  O  O170  1  0.96761975  0.18252798  0.06712333  1.0
  O  O171  1  0.17477740  0.97455767  0.06777298  1.0
  O  O172  1  0.36057039  0.96354747  0.05256609  1.0
  O  O173  1  0.35008099  0.16384416  0.04424272  1.0
  O  O174  1  0.18640784  0.34175462  0.04077322  1.0
  O  O175  1  0.97860946  0.35458424  0.05399647  1.0
  O  O176  1  0.16140787  0.15930270  0.01067348  1.0
  O  O177  1  0.69485328  0.30567016  0.54514554  1.0
  O  O178  1  0.49944862  0.29746989  0.55432798  1.0
  O  O179  1  0.31965046  0.46430886  0.55643435  1.0
  O  O180  1  0.30117215  0.66768997  0.54962281  1.0
  O  O181  1  0.47977663  0.68239786  0.44165896  1.0
  O  O182  1  0.69220299  0.49302615  0.44261630  1.0
  O  O183  1  0.70383394  0.31085903  0.45737212  1.0
  O  O184  1  0.65202323  0.68272003  0.48685465  1.0
  O  O185  1  0.97826995  0.00821684  0.02921705  1.0
