# generated using pymatgen
data_ZnH10(C5N3)2
_symmetry_space_group_name_H-M   'P 1'
_cell_length_a   16.37239938
_cell_length_b   16.77078375
_cell_length_c   18.47894926
_cell_angle_alpha   89.99928925
_cell_angle_beta   90.00178965
_cell_angle_gamma   89.73368034
_symmetry_Int_Tables_number   1
_chemical_formula_structural   ZnH10(C5N3)2
_chemical_formula_sum   'Zn8 H80 C80 N48'
_cell_volume   5073.85755117
_cell_formula_units_Z   8
loop_
 _symmetry_equiv_pos_site_id
 _symmetry_equiv_pos_as_xyz
  1  'x, y, z'
loop_
 _atom_site_type_symbol
 _atom_site_label
 _atom_site_symmetry_multiplicity
 _atom_site_fract_x
 _atom_site_fract_y
 _atom_site_fract_z
 _atom_site_occupancy
  Zn  Zn0  1  0.64426907  0.49736122  0.00093040  1.0
  Zn  Zn1  1  0.50133993  0.63312902  0.00452827  1.0
  Zn  Zn2  1  0.35572869  0.50265112  0.00092746  1.0
  Zn  Zn3  1  0.49865927  0.36688439  0.00453292  1.0
  Zn  Zn4  1  0.14385673  0.00268940  0.51817959  1.0
  Zn  Zn5  1  0.99796732  0.13338297  0.51856920  1.0
  Zn  Zn6  1  0.85613669  0.99730172  0.51817053  1.0
  Zn  Zn7  1  0.00202430  0.86660814  0.51858183  1.0
  H  H8  1  0.47240704  0.70390839  0.70100246  1.0
  H  H9  1  0.61790411  0.77727672  0.39567808  1.0
  H  H10  1  0.04818210  0.77901949  0.22956212  1.0
  H  H11  1  0.38210225  0.22270719  0.39567002  1.0
  H  H12  1  0.02994966  0.20079966  0.82155077  1.0
  H  H13  1  0.39939471  0.77032958  0.60611110  1.0
  H  H14  1  0.97003601  0.79921393  0.82156112  1.0
  H  H15  1  0.60060818  0.22966564  0.60612132  1.0
  H  H16  1  0.32926758  0.58608612  0.70856521  1.0
  H  H17  1  0.25150581  0.16545872  0.87286684  1.0
  H  H18  1  0.67073829  0.41390320  0.70858795  1.0
  H  H19  1  0.10346624  0.26879731  0.91469026  1.0
  H  H20  1  0.74846701  0.83456331  0.87286939  1.0
  H  H21  1  0.69609064  0.60031122  0.28697046  1.0
  H  H22  1  0.73651437  0.17865949  0.16578399  1.0
  H  H23  1  0.30390993  0.39968120  0.28696430  1.0
  H  H24  1  0.26351265  0.82135006  0.16578796  1.0
  H  H25  1  0.81307132  0.09813039  0.22909832  1.0
  H  H26  1  0.77001373  0.68019829  0.35270745  1.0
  H  H27  1  0.18693378  0.90186637  0.22911827  1.0
  H  H28  1  0.22998583  0.31979548  0.35270394  1.0
  H  H29  1  0.17669557  0.08626761  0.81025016  1.0
  H  H30  1  0.52760206  0.29608117  0.70101131  1.0
  H  H31  1  0.25265687  0.66638946  0.64756216  1.0
  H  H32  1  0.82329493  0.91375707  0.81024248  1.0
  H  H33  1  0.74736372  0.33358459  0.64758136  1.0
  H  H34  1  0.71115977  0.47576745  0.23373230  1.0
  H  H35  1  0.70813442  0.43394120  0.15097151  1.0
  H  H36  1  0.39325497  0.83241006  0.13009121  1.0
  H  H37  1  0.47205724  0.78678671  0.08805118  1.0
  H  H38  1  0.28883827  0.52423336  0.23372725  1.0
  H  H39  1  0.29186974  0.56606480  0.15096889  1.0
  H  H40  1  0.60677300  0.16760667  0.13008815  1.0
  H  H41  1  0.89650965  0.73121612  0.91468655  1.0
  H  H42  1  0.52796948  0.21322908  0.08804603  1.0
  H  H43  1  0.32754359  0.45406693  0.76487593  1.0
  H  H44  1  0.31335334  0.42682461  0.85185801  1.0
  H  H45  1  0.62575135  0.85349538  0.92627560  1.0
  H  H46  1  0.54043400  0.79875325  0.93447249  1.0
  H  H47  1  0.67246072  0.54593002  0.76488049  1.0
  H  H48  1  0.68663594  0.57318077  0.85186231  1.0
  H  H49  1  0.37422523  0.14651586  0.92628219  1.0
  H  H50  1  0.45954367  0.20125532  0.93447422  1.0
  H  H51  1  0.18149898  0.95505613  0.75366879  1.0
  H  H52  1  0.54824286  0.71313435  0.29829379  1.0
  H  H53  1  0.19323345  0.92757357  0.66640785  1.0
  H  H54  1  0.86917374  0.35345780  0.59064529  1.0
  H  H55  1  0.94926849  0.29588906  0.61059902  1.0
  H  H56  1  0.81849735  0.04496270  0.75365562  1.0
  H  H57  1  0.80676017  0.07244230  0.66639203  1.0
  H  H58  1  0.13083496  0.64652361  0.59063515  1.0
  H  H59  1  0.05074259  0.70408510  0.61060361  1.0
  H  H60  1  0.80357333  0.97071109  0.28191706  1.0
  H  H61  1  0.80310882  0.93000721  0.36510295  1.0
  H  H62  1  0.03280052  0.30082419  0.46301499  1.0
  H  H63  1  0.88347004  0.28488635  0.13079921  1.0
  H  H64  1  0.11110239  0.34967107  0.42442293  1.0
  H  H65  1  0.19641349  0.02926846  0.28192351  1.0
  H  H66  1  0.19688047  0.06997664  0.36510693  1.0
  H  H67  1  0.96720249  0.69916996  0.46302204  1.0
  H  H68  1  0.88889895  0.65032440  0.42443006  1.0
  H  H69  1  0.20016476  0.61849424  0.05805153  1.0
  H  H70  1  0.50471566  0.32798321  0.17276697  1.0
  H  H71  1  0.79985653  0.38152857  0.05805471  1.0
  H  H72  1  0.49528001  0.67201732  0.17276357  1.0
  H  H73  1  0.80319670  0.61455955  0.94800154  1.0
  H  H74  1  0.45175287  0.28685712  0.29828890  1.0
  H  H75  1  0.48912686  0.32416196  0.83433427  1.0
  H  H76  1  0.19678482  0.38545212  0.94799702  1.0
  H  H77  1  0.51086078  0.67584462  0.83432508  1.0
  H  H78  1  0.69379925  0.11576183  0.56572465  1.0
  H  H79  1  0.01137227  0.82752689  0.68949679  1.0
  H  H80  1  0.30619881  0.88422287  0.56573423  1.0
  H  H81  1  0.98861539  0.17248106  0.68948158  1.0
  H  H82  1  0.29780035  0.11758824  0.45838935  1.0
  H  H83  1  0.99849096  0.82102557  0.35312883  1.0
  H  H84  1  0.70219505  0.88239537  0.45839337  1.0
  H  H85  1  0.11656164  0.71512080  0.13078608  1.0
  H  H86  1  0.00152021  0.17894129  0.35311161  1.0
  H  H87  1  0.95184195  0.22095391  0.22957228  1.0
  C  C88  1  0.63797288  0.53360451  0.16282442  1.0
  C  C89  1  0.85084724  0.23660839  0.57009014  1.0
  C  C90  1  0.87633008  0.97323202  0.68198560  1.0
  C  C91  1  0.14915414  0.76337376  0.57009164  1.0
  C  C92  1  0.86815143  0.03254975  0.35594651  1.0
  C  C93  1  0.13662230  0.23449617  0.44992309  1.0
  C  C94  1  0.13184220  0.96743021  0.35595713  1.0
  C  C95  1  0.86337688  0.76549547  0.44993497  1.0
  C  C96  1  0.25793545  0.65014259  0.05841500  1.0
  C  C97  1  0.46078126  0.37519176  0.16169160  1.0
  C  C98  1  0.74208647  0.34987841  0.05841693  1.0
  C  C99  1  0.36111086  0.73333202  0.07364277  1.0
  C  C100  1  0.53921681  0.62481151  0.16168996  1.0
  C  C101  1  0.74680159  0.64839388  0.95367811  1.0
  C  C102  1  0.52992607  0.37404171  0.84361651  1.0
  C  C103  1  0.25318271  0.35161997  0.95368474  1.0
  C  C104  1  0.47006700  0.62596155  0.84360937  1.0
  C  C105  1  0.75062426  0.14886379  0.56342671  1.0
  C  C106  1  0.96928335  0.87642991  0.67884218  1.0
  C  C107  1  0.24937306  0.85112338  0.56343505  1.0
  C  C108  1  0.03071223  0.12358433  0.67883195  1.0
  C  C109  1  0.24023926  0.15002588  0.46068638  1.0
  C  C110  1  0.36202831  0.46639871  0.16282458  1.0
  C  C111  1  0.03904263  0.87130733  0.36154170  1.0
  C  C112  1  0.75975750  0.84996123  0.46069562  1.0
  C  C113  1  0.96096293  0.12866464  0.36153086  1.0
  C  C114  1  0.60285520  0.59517339  0.20582200  1.0
  C  C115  1  0.27735799  0.72348102  0.09148590  1.0
  C  C116  1  0.39714547  0.40482718  0.20582268  1.0
  C  C117  1  0.72266649  0.27653705  0.09148832  1.0
  C  C118  1  0.41598621  0.58825637  0.79498070  1.0
  C  C119  1  0.73117802  0.72907657  0.93667513  1.0
  C  C120  1  0.58401377  0.41173599  0.79499072  1.0
  C  C121  1  0.63891257  0.26668964  0.07364381  1.0
  C  C122  1  0.26880405  0.27093846  0.93668416  1.0
  C  C123  1  0.08728863  0.08673285  0.72600037  1.0
  C  C124  1  0.76592956  0.22882507  0.58300009  1.0
  C  C125  1  0.91270852  0.91328931  0.72600271  1.0
  C  C126  1  0.23407502  0.77115782  0.58299593  1.0
  C  C127  1  0.90138575  0.09635447  0.31489311  1.0
  C  C128  1  0.21968942  0.22428590  0.42957759  1.0
  C  C129  1  0.09861462  0.90362269  0.31490414  1.0
  C  C130  1  0.78030978  0.77570464  0.42958551  1.0
  C  C131  1  0.41347922  0.67781784  0.68653106  1.0
  C  C132  1  0.38019189  0.52728268  0.83786592  1.0
  C  C133  1  0.13642074  0.22047304  0.88740517  1.0
  C  C134  1  0.58653330  0.32216684  0.68654600  1.0
  C  C135  1  0.86355843  0.77954489  0.88740144  1.0
  C  C136  1  0.60867071  0.68894745  0.31134669  1.0
  C  C137  1  0.85024612  0.23623736  0.15689456  1.0
  C  C138  1  0.39132763  0.31104594  0.31134571  1.0
  C  C139  1  0.14978159  0.76376772  0.15689175  1.0
  C  C140  1  0.89454622  0.19349594  0.21235289  1.0
  C  C141  1  0.65295453  0.73164577  0.36666239  1.0
  C  C142  1  0.10547316  0.80649298  0.21235423  1.0
  C  C143  1  0.64701761  0.73795241  0.95322333  1.0
  C  C144  1  0.34704767  0.26834273  0.36665968  1.0
  C  C145  1  0.09011769  0.17597243  0.83459718  1.0
  C  C146  1  0.36706441  0.72168874  0.63307825  1.0
  C  C147  1  0.90986875  0.82404607  0.83459899  1.0
  C  C148  1  0.63294740  0.27829896  0.63309229  1.0
  C  C149  1  0.38612026  0.61460762  0.72589663  1.0
  C  C150  1  0.21819345  0.21402446  0.89967517  1.0
  C  C151  1  0.61388541  0.38537992  0.72591218  1.0
  C  C152  1  0.78178706  0.78599543  0.89967234  1.0
  C  C153  1  0.63699669  0.62623159  0.27158302  1.0
  C  C154  1  0.61980268  0.47271897  0.83787066  1.0
  C  C155  1  0.77036761  0.22623691  0.13858144  1.0
  C  C156  1  0.36300236  0.37376196  0.27157942  1.0
  C  C157  1  0.22965598  0.77377717  0.13858158  1.0
  C  C158  1  0.86874730  0.12731886  0.24838006  1.0
  C  C159  1  0.73401867  0.72479572  0.38222802  1.0
  C  C160  1  0.13125771  0.87266950  0.24839014  1.0
  C  C161  1  0.26598262  0.27519405  0.38222135  1.0
  C  C162  1  0.11835762  0.11350147  0.79445794  1.0
  C  C163  1  0.28551048  0.71463600  0.62031469  1.0
  C  C164  1  0.88163378  0.88652136  0.79445769  1.0
  C  C165  1  0.35296727  0.26206264  0.95322929  1.0
  C  C166  1  0.71450180  0.28534498  0.62032952  1.0
  C  C167  1  0.12367058  0.02678626  0.68199137  1.0
  N  N168  1  0.59964923  0.52997148  0.09817283  1.0
  N  N169  1  0.88226749  0.16739925  0.54597779  1.0
  N  N170  1  0.90702808  0.96916424  0.61419129  1.0
  N  N171  1  0.11772636  0.83258912  0.54599833  1.0
  N  N172  1  0.90350083  0.03001567  0.42205000  1.0
  N  N173  1  0.11108909  0.17157877  0.48886278  1.0
  N  N174  1  0.09649609  0.96996321  0.42205976  1.0
  N  N175  1  0.88890872  0.82841154  0.48887579  1.0
  N  N176  1  0.32352111  0.61852978  0.02503399  1.0
  N  N177  1  0.46160530  0.41364321  0.09810259  1.0
  N  N178  1  0.67649640  0.38149298  0.02503819  1.0
  N  N179  1  0.38805777  0.67086795  0.03444622  1.0
  N  N180  1  0.53839024  0.58636106  0.09810073  1.0
  N  N181  1  0.67849997  0.61228683  0.97679264  1.0
  N  N182  1  0.53542170  0.40760198  0.90909329  1.0
  N  N183  1  0.32148691  0.38772860  0.97679253  1.0
  N  N184  1  0.46456607  0.59241099  0.90908970  1.0
  N  N185  1  0.82005531  0.11232706  0.54257997  1.0
  N  N186  1  0.96466569  0.90940907  0.61302466  1.0
  N  N187  1  0.17993650  0.88766382  0.54260464  1.0
  N  N188  1  0.03533333  0.09060025  0.61301807  1.0
  N  N189  1  0.17579482  0.11824071  0.49516198  1.0
  N  N190  1  0.40034693  0.47003279  0.09817336  1.0
  N  N191  1  0.03871207  0.91069780  0.42454810  1.0
  N  N192  1  0.82420214  0.88174700  0.49517470  1.0
  N  N193  1  0.96129171  0.08927620  0.42453812  1.0
  N  N194  1  0.70401231  0.48552667  0.17990456  1.0
  N  N195  1  0.41097228  0.79808632  0.08765534  1.0
  N  N196  1  0.29598806  0.51447657  0.17990006  1.0
  N  N197  1  0.58905442  0.20193127  0.08765123  1.0
  N  N198  1  0.32161854  0.47293185  0.81681290  1.0
  N  N199  1  0.59902375  0.80650220  0.95131194  1.0
  N  N200  1  0.67837722  0.52706933  0.81682010  1.0
  N  N201  1  0.61195968  0.32915509  0.03445008  1.0
  N  N202  1  0.40095613  0.19350996  0.95131633  1.0
  N  N203  1  0.18460010  0.97364331  0.70147541  1.0
  N  N204  1  0.90110629  0.30376983  0.57631332  1.0
  N  N205  1  0.81540048  0.02637550  0.70146211  1.0
  N  N206  1  0.09889606  0.69621031  0.57630965  1.0
  N  N207  1  0.80607074  0.98144287  0.33592775  1.0
  N  N208  1  0.08366587  0.29609461  0.43149719  1.0
  N  N209  1  0.19391805  0.01854019  0.33593520  1.0
  N  N210  1  0.91633467  0.70390123  0.43150488  1.0
  N  N211  1  0.40876947  0.53157553  0.90634561  1.0
  N  N212  1  0.61622397  0.66853646  0.97710206  1.0
  N  N213  1  0.59121936  0.46843633  0.90634789  1.0
  N  N214  1  0.38376354  0.33147836  0.97710274  1.0
  N  N215  1  0.09297407  0.03084860  0.61419410  1.0
