# generated using pymatgen
data_ZnH7C11N4F
_symmetry_space_group_name_H-M   'P 1'
_cell_length_a   13.00575130
_cell_length_b   13.01136368
_cell_length_c   13.44689209
_cell_angle_alpha   112.15879962
_cell_angle_beta   112.03848988
_cell_angle_gamma   74.89742056
_symmetry_Int_Tables_number   1
_chemical_formula_structural   ZnH7C11N4F
_chemical_formula_sum   'Zn4 H28 C44 N16 F4'
_cell_volume   1934.59937636
_cell_formula_units_Z   4
loop_
 _symmetry_equiv_pos_site_id
 _symmetry_equiv_pos_as_xyz
  1  'x, y, z'
loop_
 _atom_site_type_symbol
 _atom_site_label
 _atom_site_symmetry_multiplicity
 _atom_site_fract_x
 _atom_site_fract_y
 _atom_site_fract_z
 _atom_site_occupancy
  Zn  Zn0  1  0.65536359  0.34455886  0.99990387  1.0
  Zn  Zn1  1  0.37280994  0.62690181  0.99974891  1.0
  Zn  Zn2  1  0.49594295  0.46987698  0.16435820  1.0
  Zn  Zn3  1  0.53019142  0.50402034  0.83543941  1.0
  H  H4  1  0.72531946  0.09963421  0.04101780  1.0
  H  H5  1  0.94016588  0.81976862  0.72250657  1.0
  H  H6  1  0.18106779  0.06001075  0.27720283  1.0
  H  H7  1  0.35528343  0.21569334  0.43922138  1.0
  H  H8  1  0.78466267  0.64504507  0.56156800  1.0
  H  H9  1  0.21355840  0.23875878  0.44084448  1.0
  H  H10  1  0.76141108  0.78652076  0.55942962  1.0
  H  H11  1  0.89997495  0.27471762  0.95866754  1.0
  H  H12  1  0.97231712  0.45514770  0.80794437  1.0
  H  H13  1  0.54457801  0.02808672  0.19223162  1.0
  H  H14  1  0.07925729  0.29469127  0.95110236  1.0
  H  H15  1  0.70581314  0.92048566  0.04949288  1.0
  H  H16  1  0.14819184  0.71679949  0.82108779  1.0
  H  H17  1  0.28279250  0.85155635  0.17847648  1.0
  H  H18  1  0.34831190  0.34410040  0.64291904  1.0
  H  H19  1  0.65614352  0.65174573  0.35746631  1.0
  H  H20  1  0.15776419  0.50493878  0.83499474  1.0
  H  H21  1  0.49429465  0.84246980  0.16487855  1.0
  H  H22  1  0.50951539  0.13913950  0.86506904  1.0
  H  H23  1  0.86123224  0.49008165  0.13479185  1.0
  H  H24  1  0.35042923  0.55947145  0.59642394  1.0
  H  H25  1  0.44017920  0.65004555  0.40317705  1.0
  H  H26  1  0.50732406  0.25814613  0.24950316  1.0
  H  H27  1  0.39900199  0.81431985  0.55704031  1.0
  H  H28  1  0.74223099  0.49259081  0.75072088  1.0
  H  H29  1  0.41892319  0.98395468  0.71645163  1.0
  H  H30  1  0.01638981  0.58013432  0.28332730  1.0
  H  H31  1  0.18596836  0.59985524  0.44249955  1.0
  C  C32  1  0.67283874  0.15568300  0.09187947  1.0
  C  C33  1  0.61402607  0.81768170  0.06919472  1.0
  C  C34  1  0.18233822  0.38599368  0.93120723  1.0
  C  C35  1  0.40518809  0.19939646  0.71462234  1.0
  C  C36  1  0.80088545  0.59453707  0.28550989  1.0
  C  C37  1  0.32448942  0.09989366  0.50824084  1.0
  C  C38  1  0.90039340  0.67524460  0.49194332  1.0
  C  C39  1  0.84411775  0.32711210  0.90785154  1.0
  C  C40  1  0.36752349  0.10057804  0.62068953  1.0
  C  C41  1  0.89970759  0.63207457  0.37939231  1.0
  C  C42  1  0.38847145  0.99232855  0.63202024  1.0
  C  C43  1  0.00796516  0.61084906  0.36784014  1.0
  C  C44  1  0.37736413  0.89424514  0.54001768  1.0
  C  C45  1  0.10602774  0.62182283  0.45969292  1.0
  C  C46  1  0.34355767  0.89415302  0.42692847  1.0
  C  C47  1  0.10611220  0.65596138  0.57288246  1.0
  C  C48  1  0.31260854  0.00192600  0.41657186  1.0
  C  C49  1  0.99832531  0.68717268  0.58346772  1.0
  C  C50  1  0.26828340  0.06593512  0.33215840  1.0
  C  C51  1  0.93419229  0.73232397  0.66804749  1.0
  C  C52  1  0.21349816  0.67728434  0.78129627  1.0
  C  C53  1  0.32230750  0.78646131  0.21835437  1.0
  C  C54  1  0.28811585  0.17593914  0.43496526  1.0
  C  C55  1  0.20674233  0.64783454  0.66725449  1.0
  C  C56  1  0.82431652  0.71209142  0.56545695  1.0
  C  C57  1  0.97551322  0.39645920  0.85000765  1.0
  C  C58  1  0.60348695  0.02469896  0.15022352  1.0
  C  C59  1  0.07616409  0.35255962  0.90818569  1.0
  C  C60  1  0.64762021  0.92381654  0.09226418  1.0
  C  C61  1  0.35172659  0.79348821  0.33240972  1.0
  C  C62  1  0.28330299  0.36293603  0.01222991  1.0
  C  C63  1  0.63736259  0.71663836  0.98810538  1.0
  C  C64  1  0.39707846  0.30799541  0.71029071  1.0
  C  C65  1  0.69222669  0.60285217  0.28993195  1.0
  C  C66  1  0.20964177  0.46271606  0.89691560  1.0
  C  C67  1  0.53683041  0.79047111  0.10306276  1.0
  C  C68  1  0.47838262  0.20360683  0.82389459  1.0
  C  C69  1  0.79671723  0.52129002  0.17609200  1.0
  C  C70  1  0.31625867  0.59668029  0.66656449  1.0
  C  C71  1  0.40290815  0.68404097  0.33305132  1.0
  C  C72  1  0.56242540  0.23717809  0.19870741  1.0
  C  C73  1  0.76303522  0.43745040  0.80130630  1.0
  C  C74  1  0.61718910  0.13162660  0.15075391  1.0
  C  C75  1  0.86845996  0.38279308  0.84926417  1.0
  N  N76  1  0.65191081  0.26574749  0.10335728  1.0
  N  N77  1  0.58000254  0.63729243  0.97241626  1.0
  N  N78  1  0.36268975  0.41999830  0.02746801  1.0
  N  N79  1  0.46242197  0.36949577  0.80806668  1.0
  N  N80  1  0.63069126  0.53762326  0.19206917  1.0
  N  N81  1  0.31616914  0.48220110  0.95476809  1.0
  N  N82  1  0.51737045  0.68390797  0.04492301  1.0
  N  N83  1  0.73401249  0.34787651  0.89617494  1.0
  N  N84  1  0.51229028  0.30533490  0.87772549  1.0
  N  N85  1  0.69492666  0.48759856  0.12226811  1.0
  N  N86  1  0.38189119  0.59572136  0.77117850  1.0
  N  N87  1  0.40391415  0.61817284  0.22838964  1.0
  N  N88  1  0.58287687  0.31680067  0.17014961  1.0
  N  N89  1  0.68320888  0.41687700  0.82956239  1.0
  N  N90  1  0.31755295  0.64612428  0.84254414  1.0
  N  N91  1  0.35349418  0.68227500  0.15703874  1.0
  F  F92  1  0.33282978  0.04449994  0.25954162  1.0
  F  F93  1  0.95546336  0.66873523  0.74131507  1.0
  F  F94  1  0.30379320  0.29490588  0.07432078  1.0
  F  F95  1  0.70600722  0.69605273  0.92644993  1.0
