# generated using pymatgen
data_ZnH8C20(N2O3)2
_symmetry_space_group_name_H-M   'P 1'
_cell_length_a   13.18861824
_cell_length_b   14.48923301
_cell_length_c   23.68995539
_cell_angle_alpha   90.07770583
_cell_angle_beta   90.01377902
_cell_angle_gamma   91.25362863
_symmetry_Int_Tables_number   1
_chemical_formula_structural   ZnH8C20(N2O3)2
_chemical_formula_sum   'Zn2 H16 C40 N8 O12'
_cell_volume   4525.89587256
_cell_formula_units_Z   2
loop_
 _symmetry_equiv_pos_site_id
 _symmetry_equiv_pos_as_xyz
  1  'x, y, z'
loop_
 _atom_site_type_symbol
 _atom_site_label
 _atom_site_symmetry_multiplicity
 _atom_site_fract_x
 _atom_site_fract_y
 _atom_site_fract_z
 _atom_site_occupancy
  Zn  Zn0  1  0.39457297  0.49847289  0.49871783  1.0
  Zn  Zn1  1  0.60537593  0.50148977  0.49939444  1.0
  H  H2  1  0.33321139  0.50518230  0.78290933  1.0
  H  H3  1  0.66428362  0.49680249  0.21433503  1.0
  H  H4  1  0.65901984  0.50215596  0.78543029  1.0
  H  H5  1  0.33839179  0.49677507  0.21349242  1.0
  H  H6  1  0.33627826  0.50307127  0.67689303  1.0
  H  H7  1  0.66310219  0.49808109  0.32040117  1.0
  H  H8  1  0.66129679  0.50020858  0.67943424  1.0
  H  H9  1  0.33797433  0.49781961  0.31953619  1.0
  H  H10  1  0.61667888  0.79196171  0.04014109  1.0
  H  H11  1  0.56894426  0.73946097  0.10159586  1.0
  H  H12  1  0.43204016  0.26064897  0.89662449  1.0
  H  H13  1  0.44944745  0.19468695  0.95785908  1.0
  H  H14  1  0.39409461  0.20385603  0.03608145  1.0
  H  H15  1  0.44119534  0.25534420  0.09812131  1.0
  H  H16  1  0.56706437  0.74319602  0.89983195  1.0
  H  H17  1  0.56011854  0.80684603  0.96291447  1.0
  C  C18  1  0.50066290  0.68054110  0.49956413  1.0
  C  C19  1  0.49893235  0.31943230  0.49902894  1.0
  C  C20  1  0.50017832  0.50025489  0.60888739  1.0
  C  C21  1  0.49995254  0.49945514  0.38923881  1.0
  C  C22  1  0.48299383  0.41308874  0.11989569  1.0
  C  C23  1  0.52146080  0.58641419  0.87822974  1.0
  C  C24  1  0.52190542  0.58234639  0.12102963  1.0
  C  C25  1  0.47042807  0.41964400  0.87717962  1.0
  C  C26  1  0.52234163  0.58267130  0.05936716  1.0
  C  C27  1  0.47313541  0.41874881  0.93881470  1.0
  C  C28  1  0.48126511  0.41507804  0.05823065  1.0
  C  C29  1  0.52316598  0.58439241  0.93988127  1.0
  C  C30  1  0.50061973  0.49958113  0.02906432  1.0
  C  C31  1  0.49874146  0.50097673  0.96911000  1.0
  C  C32  1  0.54657487  0.66547219  0.03058249  1.0
  C  C33  1  0.45372486  0.33495380  0.96758214  1.0
  C  C34  1  0.45829983  0.33299654  0.02827815  1.0
  C  C35  1  0.54759464  0.66622191  0.96981691  1.0
  C  C36  1  0.40472424  0.50446092  0.75990954  1.0
  C  C37  1  0.59318444  0.49674681  0.23775948  1.0
  C  C38  1  0.58867764  0.50236054  0.76128728  1.0
  C  C39  1  0.40916457  0.49698248  0.23725679  1.0
  C  C40  1  0.40637596  0.50310172  0.70117618  1.0
  C  C41  1  0.59256489  0.49754687  0.29650594  1.0
  C  C42  1  0.58998852  0.50136376  0.70255771  1.0
  C  C43  1  0.40887769  0.49749054  0.29600579  1.0
  C  C44  1  0.49887797  0.50152335  0.67214505  1.0
  C  C45  1  0.50048823  0.49804514  0.32597271  1.0
  C  C46  1  0.49601495  0.50389093  0.78954635  1.0
  C  C47  1  0.50142642  0.49673171  0.20857348  1.0
  C  C48  1  0.50135023  0.78020519  0.49989487  1.0
  C  C49  1  0.49856026  0.21978030  0.49948165  1.0
  C  C50  1  0.50100491  0.86488822  0.50015591  1.0
  C  C51  1  0.49911839  0.13510707  0.49990445  1.0
  C  C52  1  0.50050394  0.95741935  0.50028612  1.0
  C  C53  1  0.49975542  0.04258314  0.50021663  1.0
  C  C54  1  0.85125980  0.50148554  0.49935652  1.0
  C  C55  1  0.14870447  0.49869483  0.49949193  1.0
  C  C56  1  0.95352623  0.50048286  0.49952276  1.0
  C  C57  1  0.04644276  0.49970086  0.49959121  1.0
  N  N58  1  0.50189020  0.49737286  0.14756235  1.0
  N  N59  1  0.49515570  0.50361013  0.85055453  1.0
  N  N60  1  0.76267064  0.50250205  0.49919726  1.0
  N  N61  1  0.23729385  0.49762995  0.49931688  1.0
  N  N62  1  0.56734738  0.74639051  0.05837116  1.0
  N  N63  1  0.42883186  0.25490552  0.93989091  1.0
  N  N64  1  0.44187496  0.25036318  0.05478518  1.0
  N  N65  1  0.57413841  0.74647514  0.94306394  1.0
  O  O66  1  0.41365609  0.64064676  0.49894427  1.0
  O  O67  1  0.58587118  0.35950540  0.49901477  1.0
  O  O68  1  0.41252615  0.35698225  0.49871233  1.0
  O  O69  1  0.58698391  0.64279037  0.49993012  1.0
  O  O70  1  0.41448732  0.49908660  0.58390454  1.0
  O  O71  1  0.58580838  0.50133266  0.41402791  1.0
  O  O72  1  0.41361604  0.49869441  0.41349713  1.0
  O  O73  1  0.58666289  0.50054799  0.58481862  1.0
  O  O74  1  0.46870438  0.34231883  0.14892494  1.0
  O  O75  1  0.54150336  0.65612991  0.84917652  1.0
  O  O76  1  0.53779237  0.65192466  0.15101449  1.0
  O  O77  1  0.44849950  0.35119810  0.84729640  1.0
