# generated using pymatgen
data_ZnH11C19NO5
_symmetry_space_group_name_H-M   'P 1'
_cell_length_a   11.76323016
_cell_length_b   13.15425938
_cell_length_c   16.92821382
_cell_angle_alpha   88.30989017
_cell_angle_beta   76.59516210
_cell_angle_gamma   86.22014666
_symmetry_Int_Tables_number   1
_chemical_formula_structural   ZnH11C19NO5
_chemical_formula_sum   'Zn2 H22 C38 N2 O10'
_cell_volume   2542.23615868
_cell_formula_units_Z   2
loop_
 _symmetry_equiv_pos_site_id
 _symmetry_equiv_pos_as_xyz
  1  'x, y, z'
loop_
 _atom_site_type_symbol
 _atom_site_label
 _atom_site_symmetry_multiplicity
 _atom_site_fract_x
 _atom_site_fract_y
 _atom_site_fract_z
 _atom_site_occupancy
  Zn  Zn0  1  0.61774641  0.51061938  0.49102377  1.0
  Zn  Zn1  1  0.38045673  0.50454048  0.50759923  1.0
  H  H2  1  0.39480941  0.55069022  0.23858160  1.0
  H  H3  1  0.36666074  0.25572723  0.87369867  1.0
  H  H4  1  0.58437333  0.49847835  0.90000363  1.0
  H  H5  1  0.41283491  0.48970430  0.09807364  1.0
  H  H6  1  0.35681263  0.18402813  0.49789664  1.0
  H  H7  1  0.64648567  0.83064247  0.49861812  1.0
  H  H8  1  0.71938297  0.18608666  0.50352250  1.0
  H  H9  1  0.28024347  0.82809882  0.50355784  1.0
  H  H10  1  0.26306736  0.01833517  0.50128704  1.0
  H  H11  1  0.73759263  0.99579895  0.50277024  1.0
  H  H12  1  0.79440393  0.41208388  0.57097830  1.0
  H  H13  1  0.58407946  0.55846453  0.75911028  1.0
  H  H14  1  0.20391447  0.60283783  0.42661254  1.0
  H  H15  1  0.28526095  0.32367052  0.99789112  1.0
  H  H16  1  0.75772853  0.35110633  0.00236623  1.0
  H  H17  1  0.79891534  0.63910079  0.39607264  1.0
  H  H18  1  0.19778428  0.38063525  0.60526239  1.0
  H  H19  1  0.98299364  0.35647158  0.61963722  1.0
  H  H20  1  0.01405943  0.66173018  0.38056905  1.0
  H  H21  1  0.35665881  0.32404726  0.73694668  1.0
  H  H22  1  0.68556018  0.34735729  0.26320039  1.0
  H  H23  1  0.69695628  0.27740942  0.12658305  1.0
  C  C24  1  0.47623162  0.70502168  0.49899710  1.0
  C  C25  1  0.43912954  0.14173881  0.49968249  1.0
  C  C26  1  0.55583051  0.98028861  0.50098295  1.0
  C  C27  1  0.44554563  0.03403683  0.50067942  1.0
  C  C28  1  0.02843204  0.41182040  0.57646875  1.0
  C  C29  1  0.96886768  0.60580352  0.42328370  1.0
  C  C30  1  0.14564871  0.42410022  0.56902571  1.0
  C  C31  1  0.85159519  0.59375748  0.43088891  1.0
  C  C32  1  0.15083580  0.55037849  0.46858163  1.0
  C  C33  1  0.84702136  0.46587279  0.53008416  1.0
  C  C34  1  0.03006847  0.54442294  0.47180203  1.0
  C  C35  1  0.52667218  0.30914324  0.49974784  1.0
  C  C36  1  0.96758426  0.47254722  0.52737648  1.0
  C  C37  1  0.52883729  0.48987146  0.34343376  1.0
  C  C38  1  0.46970991  0.48251343  0.65542022  1.0
  C  C39  1  0.53968734  0.45308317  0.25900200  1.0
  C  C40  1  0.46948242  0.44535484  0.73989445  1.0
  C  C41  1  0.46126495  0.49158526  0.21284717  1.0
  C  C42  1  0.53584420  0.49296418  0.78545596  1.0
  C  C43  1  0.47038804  0.45627426  0.13524306  1.0
  C  C44  1  0.53734786  0.45831135  0.86325274  1.0
  C  C45  1  0.55533371  0.37864246  0.10194724  1.0
  C  C46  1  0.53631598  0.19519745  0.50060838  1.0
  C  C47  1  0.47660057  0.37234972  0.89719682  1.0
  C  C48  1  0.63270130  0.33949435  0.14940001  1.0
  C  C49  1  0.41168470  0.32405407  0.85029420  1.0
  C  C50  1  0.62565429  0.37717108  0.22650563  1.0
  C  C51  1  0.40718293  0.36104866  0.77305599  1.0
  C  C52  1  0.56769255  0.35133526  0.01697370  1.0
  C  C53  1  0.47254776  0.34515546  0.98227982  1.0
  C  C54  1  0.35721471  0.31332484  0.03096334  1.0
  C  C55  1  0.69043383  0.33361374  0.96860627  1.0
  C  C56  1  0.46552095  0.81899594  0.50017013  1.0
  C  C57  1  0.34672564  0.97706267  0.50130370  1.0
  C  C58  1  0.65416083  0.03708751  0.50211308  1.0
  C  C59  1  0.35592298  0.87221775  0.50203571  1.0
  C  C60  1  0.64466717  0.14188890  0.50242378  1.0
  C  C61  1  0.56306489  0.87262764  0.49965882  1.0
  N  N62  1  0.79260446  0.52403845  0.48353044  1.0
  N  N63  1  0.20510648  0.49270530  0.51552089  1.0
  O  O64  1  0.57920275  0.66287698  0.47734362  1.0
  O  O65  1  0.72045163  0.29819617  0.90024745  1.0
  O  O66  1  0.43226617  0.35249854  0.48700258  1.0
  O  O67  1  0.38188771  0.65831866  0.51979485  1.0
  O  O68  1  0.61348019  0.35492864  0.51167423  1.0
  O  O69  1  0.62058630  0.48106365  0.37163868  1.0
  O  O70  1  0.37990199  0.46836479  0.62799625  1.0
  O  O71  1  0.42791900  0.52476655  0.38146977  1.0
  O  O72  1  0.56165015  0.52385355  0.61657010  1.0
  O  O73  1  0.33926112  0.27383752  0.09879069  1.0
