# generated using pymatgen
data_Al6H68C99Br3N3O28
_symmetry_space_group_name_H-M   'P 1'
_cell_length_a   12.78508996
_cell_length_b   12.90472714
_cell_length_c   27.61826405
_cell_angle_alpha   89.06347528
_cell_angle_beta   89.31847382
_cell_angle_gamma   60.96330278
_symmetry_Int_Tables_number   1
_chemical_formula_structural   Al6H68C99Br3N3O28
_chemical_formula_sum   'Al6 H68 C99 Br3 N3 O28'
_cell_volume   3983.37753734
_cell_formula_units_Z   1
loop_
 _symmetry_equiv_pos_site_id
 _symmetry_equiv_pos_as_xyz
  1  'x, y, z'
loop_
 _atom_site_type_symbol
 _atom_site_label
 _atom_site_symmetry_multiplicity
 _atom_site_fract_x
 _atom_site_fract_y
 _atom_site_fract_z
 _atom_site_occupancy
  Al  Al0  1  0.59568069  0.55628231  0.50422266  1.0
  Al  Al1  1  0.82260973  0.59770788  0.50345097  1.0
  Al  Al2  1  0.58017896  0.81015704  0.49933210  1.0
  Al  Al3  1  0.09083620  0.07031232  0.01540961  1.0
  Al  Al4  1  0.84135520  0.06776625  0.01902851  1.0
  Al  Al5  1  0.06682230  0.83368064  0.01664800  1.0
  H  H6  1  0.63145329  0.94170512  0.81214258  1.0
  H  H7  1  0.39854509  0.63638737  0.80026841  1.0
  H  H8  1  0.94570984  0.38917814  0.81984383  1.0
  H  H9  1  0.66007284  0.79141962  0.73064265  1.0
  H  H10  1  0.52376619  0.70779572  0.72788779  1.0
  H  H11  1  0.82034442  0.52274549  0.73492241  1.0
  H  H12  1  0.69606673  0.78579239  0.81386126  1.0
  H  H13  1  0.48539053  0.70607590  0.81102210  1.0
  H  H14  1  0.79166194  0.49211281  0.81673850  1.0
  H  H15  1  0.01117422  0.72164878  0.79335965  1.0
  H  H16  1  0.23286178  0.01690688  0.79732741  1.0
  H  H17  1  0.69268752  0.27039866  0.78819158  1.0
  H  H18  1  0.68570693  0.02203152  0.13729056  1.0
  H  H19  1  0.26807969  0.66313290  0.13811952  1.0
  H  H20  1  0.03883011  0.24562082  0.13514959  1.0
  H  H21  1  0.54961472  0.08879607  0.30186791  1.0
  H  H22  1  0.39329760  0.50842723  0.29833513  1.0
  H  H23  1  0.10051637  0.37174655  0.28946560  1.0
  H  H24  1  0.01508711  0.69161455  0.14081198  1.0
  H  H25  1  0.26639908  0.99680600  0.13582301  1.0
  H  H26  1  0.71409051  0.22671149  0.15199240  1.0
  H  H27  1  0.08511646  0.57542899  0.21682590  1.0
  H  H28  1  0.32122960  0.06782992  0.20799755  1.0
  H  H29  1  0.60495402  0.27643811  0.22944669  1.0
  H  H30  1  0.06609268  0.56068140  0.30574031  1.0
  H  H31  1  0.38213764  0.04137076  0.29418847  1.0
  H  H32  1  0.58803320  0.33747878  0.31517319  1.0
  H  H33  1  0.60964981  0.94520054  0.72792909  1.0
  H  H34  1  0.44341252  0.63131683  0.71746870  1.0
  H  H35  1  0.96910935  0.40492745  0.73602537  1.0
  H  H36  1  0.94847303  0.64022481  0.38090871  1.0
  H  H37  1  0.43519427  0.92147530  0.36934878  1.0
  H  H38  1  0.66231486  0.40456911  0.38289388  1.0
  H  H39  1  0.91015717  0.92004830  0.70564562  1.0
  H  H40  1  0.14621507  0.90287857  0.69893531  1.0
  H  H41  1  0.89067964  0.16766184  0.70780789  1.0
  H  H42  1  0.75525952  0.02166331  0.70780163  1.0
  H  H43  1  0.21979431  0.74657859  0.70284377  1.0
  H  H44  1  0.01232572  0.19602911  0.71149146  1.0
  H  H45  1  0.76177795  0.03511613  0.79217927  1.0
  H  H46  1  0.17526371  0.76014162  0.78587212  1.0
  H  H47  1  0.01772443  0.17716256  0.79634137  1.0
  H  H48  1  0.91869069  0.94606300  0.78877900  1.0
  H  H49  1  0.10920036  0.91620954  0.78243840  1.0
  H  H50  1  0.91582972  0.12258334  0.79094516  1.0
  H  H51  1  0.88503819  0.64687825  0.72504071  1.0
  H  H52  1  0.41795093  0.93313643  0.72255978  1.0
  H  H53  1  0.65062558  0.47916754  0.72656502  1.0
  H  H54  1  0.98519836  0.70017332  0.71093888  1.0
  H  H55  1  0.26201405  0.01252057  0.71315777  1.0
  H  H56  1  0.67610314  0.33897413  0.70769365  1.0
  H  H57  1  0.92136763  0.65603137  0.80738094  1.0
  H  H58  1  0.38820302  0.93112943  0.80646857  1.0
  H  H59  1  0.63965236  0.41823571  0.80612954  1.0
  H  H60  1  0.60458228  0.09717460  0.36425169  1.0
  H  H61  1  0.60768047  0.05159004  0.46225641  1.0
  H  H62  1  0.65120164  0.15043578  0.43384471  1.0
  H  H63  1  0.75977030  0.00028518  0.44656512  1.0
  H  H64  1  0.44342150  0.58208760  0.42107469  1.0
  H  H65  1  0.35265465  0.47548803  0.41754383  1.0
  H  H66  1  0.42054799  0.42273262  0.36040088  1.0
  H  H67  1  0.27541979  0.55008109  0.36329225  1.0
  H  H68  1  0.99535176  0.43010635  0.41455233  1.0
  H  H69  1  0.19317152  0.30860054  0.40839395  1.0
  H  H70  1  0.18712212  0.37575705  0.35112777  1.0
  H  H71  1  0.17311150  0.24484375  0.35499898  1.0
  H  H72  1  0.49135993  0.45759219  0.53094112  1.0
  H  H73  1  0.20981491  0.14877941  0.98435758  1.0
  C  C74  1  0.44966488  0.76102174  0.56861810  1.0
  C  C75  1  0.80548532  0.45011751  0.57278744  1.0
  C  C76  1  0.74775854  0.79057162  0.57062784  1.0
  C  C77  1  0.92353566  0.72839756  0.78667027  1.0
  C  C78  1  0.31272461  0.93504186  0.78633440  1.0
  C  C79  1  0.70995571  0.34582935  0.78514515  1.0
  C  C80  1  0.90449769  0.71927483  0.73199112  1.0
  C  C81  1  0.33359079  0.93353632  0.73100088  1.0
  C  C82  1  0.70941390  0.38343283  0.73168881  1.0
  C  C83  1  0.83957754  0.85772183  0.85808781  1.0
  C  C84  1  0.27166908  0.83220140  0.85356433  1.0
  C  C85  1  0.83438168  0.28270797  0.85948191  1.0
  C  C86  1  0.78279905  0.82921821  0.66124950  1.0
  C  C87  1  0.36429212  0.81323379  0.65763842  1.0
  C  C88  1  0.83849411  0.37877765  0.66424424  1.0
  C  C89  1  0.76812836  0.81945309  0.61845781  1.0
  C  C90  1  0.39284651  0.79624878  0.61518908  1.0
  C  C91  1  0.83391342  0.40286970  0.62130495  1.0
  C  C92  1  0.89470245  0.18733717  0.08885637  1.0
  C  C93  1  0.87789700  0.88042614  0.08373782  1.0
  C  C94  1  0.21059830  0.86010491  0.08333754  1.0
  C  C95  1  0.87548587  0.20490675  0.95009506  1.0
  C  C96  1  0.87871112  0.89029862  0.94909916  1.0
  C  C97  1  0.20305506  0.86690634  0.94527731  1.0
  C  C98  1  0.71962385  0.92352198  0.36370568  1.0
  C  C99  1  0.40778106  0.67052075  0.35802321  1.0
  C  C100  1  0.93409304  0.38575685  0.35726745  1.0
  C  C101  1  0.72005425  0.92478486  0.31155625  1.0
  C  C102  1  0.38066614  0.68206497  0.30714733  1.0
  C  C103  1  0.94312724  0.35335202  0.30731347  1.0
  C  C104  1  0.73435403  0.93628402  0.20771880  1.0
  C  C105  1  0.32011529  0.70901400  0.20537296  1.0
  C  C106  1  0.95820023  0.29003683  0.20660961  1.0
  C  C107  1  0.46603738  0.75408003  0.42989330  1.0
  C  C108  1  0.79888483  0.45435026  0.43321303  1.0
  C  C109  1  0.77439494  0.78342151  0.43697942  1.0
  C  C110  1  0.63457140  0.02316001  0.23464914  1.0
  C  C111  1  0.34499480  0.60466561  0.23273684  1.0
  C  C112  1  0.04190773  0.31855961  0.22846126  1.0
  C  C113  1  0.62887505  0.01972050  0.28411019  1.0
  C  C114  1  0.37325670  0.59151088  0.28079237  1.0
  C  C115  1  0.03571776  0.34805384  0.27607729  1.0
  C  C116  1  0.75037131  0.94526395  0.15780657  1.0
  C  C117  1  0.28288900  0.72831539  0.15692408  1.0
  C  C118  1  0.96522671  0.25543033  0.15836308  1.0
  C  C119  1  0.85211568  0.85851410  0.13432657  1.0
  C  C120  1  0.26257909  0.83228058  0.13274976  1.0
  C  C121  1  0.87809760  0.23211802  0.13924606  1.0
  C  C122  1  0.88937891  0.72189945  0.36154883  1.0
  C  C123  1  0.41738982  0.85685014  0.35160310  1.0
  C  C124  1  0.74117929  0.38749024  0.36156956  1.0
  C  C125  1  0.90315923  0.72901474  0.31174936  1.0
  C  C126  1  0.38368760  0.87317369  0.30316665  1.0
  C  C127  1  0.75238357  0.34762733  0.31429805  1.0
  C  C128  1  0.81423227  0.83018413  0.28601823  1.0
  C  C129  1  0.36578770  0.78407755  0.28045041  1.0
  C  C130  1  0.85350523  0.33254390  0.28630952  1.0
  C  C131  1  0.99989117  0.63719975  0.28538448  1.0
  C  C132  1  0.36771581  0.97501292  0.27593350  1.0
  C  C133  1  0.66399492  0.32554519  0.29282024  1.0
  C  C134  1  0.01030402  0.64510429  0.23649088  1.0
  C  C135  1  0.33480772  0.98959635  0.22854710  1.0
  C  C136  1  0.67310434  0.29196177  0.24579435  1.0
  C  C137  1  0.92327691  0.74570071  0.20960679  1.0
  C  C138  1  0.31739257  0.90182579  0.20434625  1.0
  C  C139  1  0.77169631  0.27843399  0.21620095  1.0
  C  C140  1  0.68328602  0.85989622  0.74050656  1.0
  C  C141  1  0.43771469  0.71011098  0.73458890  1.0
  C  C142  1  0.87631137  0.42935802  0.74555100  1.0
  C  C143  1  0.82298205  0.83725597  0.23466325  1.0
  C  C144  1  0.33487827  0.79762698  0.23037765  1.0
  C  C145  1  0.86170415  0.30010062  0.23671716  1.0
  C  C146  1  0.93646026  0.75829032  0.15976792  1.0
  C  C147  1  0.28190949  0.91713917  0.15585432  1.0
  C  C148  1  0.78151443  0.24456963  0.16764804  1.0
  C  C149  1  0.79756689  0.81420621  0.38802494  1.0
  C  C150  1  0.42916816  0.76005254  0.37933420  1.0
  C  C151  1  0.82766018  0.40790201  0.38343567  1.0
  C  C152  1  0.82578389  0.93885343  0.72372042  1.0
  C  C153  1  0.21635792  0.82599522  0.71841163  1.0
  C  C154  1  0.92353862  0.22060893  0.72663074  1.0
  C  C155  1  0.83378911  0.95000286  0.77912083  1.0
  C  C156  1  0.19020713  0.83323542  0.77342936  1.0
  C  C157  1  0.92976921  0.19815359  0.78194230  1.0
  C  C158  1  0.85247143  0.86826999  0.90096141  1.0
  C  C159  1  0.24901882  0.83924910  0.89660391  1.0
  C  C160  1  0.84334236  0.25661653  0.90228510  1.0
  C  C161  1  0.79892739  0.83670565  0.71283789  1.0
  C  C162  1  0.33793680  0.82200693  0.70900919  1.0
  C  C163  1  0.83758059  0.35339792  0.71552706  1.0
  C  C164  1  0.70122375  0.85978302  0.79584970  1.0
  C  C165  1  0.41115495  0.71188374  0.78935846  1.0
  C  C166  1  0.86301743  0.41126653  0.80030634  1.0
  C  C167  1  0.82509932  0.84833386  0.80647250  1.0
  C  C168  1  0.29628282  0.82799275  0.80209484  1.0
  C  C169  1  0.83281386  0.30953661  0.80823183  1.0
  C  C170  1  0.66711742  0.05883851  0.43504616  1.0
  C  C171  1  0.36330076  0.50378816  0.38099794  1.0
  C  C172  1  0.14960915  0.32889144  0.37283259  1.0
  Br  Br173  1  0.50335141  0.14637919  0.20077400  1.0
  Br  Br174  1  0.34121770  0.47585595  0.20147762  1.0
  Br  Br175  1  0.16420599  0.32054658  0.18888457  1.0
  N  N176  1  0.64839765  0.02696239  0.38692834  1.0
  N  N177  1  0.41610834  0.57979435  0.38652817  1.0
  N  N178  1  0.02122845  0.39910254  0.38027417  1.0
  O  O179  1  0.71078727  0.45957390  0.55481832  1.0
  O  O180  1  0.83249932  0.69738503  0.55176789  1.0
  O  O181  1  0.45561079  0.84151246  0.54233906  1.0
  O  O182  1  0.18432438  0.96553915  0.96125017  1.0
  O  O183  1  0.79604803  0.19137866  0.97453125  1.0
  O  O184  1  0.97459276  0.80989259  0.96870295  1.0
  O  O185  1  0.49327824  0.65268541  0.55817480  1.0
  O  O186  1  0.87618991  0.48327584  0.55247489  1.0
  O  O187  1  0.64505553  0.85652504  0.55163539  1.0
  O  O188  1  0.70184078  0.46936018  0.45194006  1.0
  O  O189  1  0.85411657  0.68547722  0.45665767  1.0
  O  O190  1  0.48244986  0.83879302  0.44613545  1.0
  O  O191  1  0.48344857  0.66524384  0.45649843  1.0
  O  O192  1  0.87202633  0.48090707  0.45572789  1.0
  O  O193  1  0.67194131  0.84865790  0.45669762  1.0
  O  O194  1  0.66712309  0.65505608  0.50342308  1.0
  O  O195  1  0.19143246  0.95718779  0.06420198  1.0
  O  O196  1  0.81279388  0.16775124  0.07127338  1.0
  O  O197  1  0.97705426  0.80456244  0.06468174  1.0
  O  O198  1  0.98984498  0.16765682  0.06703780  1.0
  O  O199  1  0.80335025  0.97793466  0.06299715  1.0
  O  O200  1  0.18327303  0.78574775  0.06395409  1.0
  O  O201  1  0.99859599  0.98935868  0.01618308  1.0
  O  O202  1  0.98107329  0.17271500  0.96316864  1.0
  O  O203  1  0.80725126  0.99090662  0.96724950  1.0
  O  O204  1  0.18075098  0.79096743  0.96733153  1.0
  O  O205  1  0.52579195  0.46702431  0.50095233  1.0
  O  O206  1  0.17325712  0.14646675  0.01488061  1.0
