# generated using pymatgen
data_AlH9C21(O2F)3
_symmetry_space_group_name_H-M   'P 1'
_cell_length_a   3.96566910
_cell_length_b   24.62851940
_cell_length_c   24.62586240
_cell_angle_alpha   119.99492087
_cell_angle_beta   89.99643277
_cell_angle_gamma   89.98894044
_symmetry_Int_Tables_number   1
_chemical_formula_structural   AlH9C21(O2F)3
_chemical_formula_sum   'Al2 H18 C42 O12 F6'
_cell_volume   2083.04699206
_cell_formula_units_Z   2
loop_
 _symmetry_equiv_pos_site_id
 _symmetry_equiv_pos_as_xyz
  1  'x, y, z'
loop_
 _atom_site_type_symbol
 _atom_site_label
 _atom_site_symmetry_multiplicity
 _atom_site_fract_x
 _atom_site_fract_y
 _atom_site_fract_z
 _atom_site_occupancy
  Al  Al0  1  0.00618602  0.99996773  0.49998850  1.0
  Al  Al1  1  0.00626463  0.33336013  0.16667566  1.0
  H  H2  1  0.69184881  0.70749843  0.27054610  1.0
  H  H3  1  0.69168701  0.62580914  0.39610306  1.0
  H  H4  1  0.28497817  0.50429070  0.17642979  1.0
  H  H5  1  0.29443719  0.62089150  0.23016897  1.0
  H  H6  1  0.28504545  0.82907720  0.49022966  1.0
  H  H7  1  0.29436259  0.71247315  0.43649323  1.0
  H  H8  1  0.69176316  0.22942309  0.43695106  1.0
  H  H9  1  0.69170197  0.10388764  0.22970577  1.0
  H  H10  1  0.28519856  0.32358191  0.32783549  1.0
  H  H11  1  0.29437226  0.26982462  0.39069721  1.0
  H  H12  1  0.28509228  0.00978024  0.33885195  1.0
  H  H13  1  0.29446023  0.06352161  0.27597730  1.0
  H  H14  1  0.69261146  0.06301801  0.79246764  1.0
  H  H15  1  0.69266042  0.27027699  0.87418650  1.0
  H  H16  1  0.28530177  0.17221205  0.99576401  1.0
  H  H17  1  0.29501990  0.10932427  0.87915220  1.0
  H  H18  1  0.28505839  0.16114004  0.67094551  1.0
  H  H19  1  0.29515533  0.22402641  0.78755692  1.0
  C  C20  1  0.50548863  0.04506756  0.59633707  1.0
  C  C21  1  0.50568522  0.90363470  0.44872789  1.0
  C  C22  1  0.50537857  0.05123197  0.45489391  1.0
  C  C23  1  0.50538381  0.42969870  0.21791047  1.0
  C  C24  1  0.50567785  0.28208970  0.21175361  1.0
  C  C25  1  0.50574177  0.28826958  0.07032631  1.0
  C  C26  1  0.49990392  0.83392838  0.41296635  1.0
  C  C27  1  0.49957816  0.49940107  0.25369324  1.0
  C  C28  1  0.61221359  0.79798076  0.35098337  1.0
  C  C29  1  0.60488048  0.73292893  0.31899426  1.0
  C  C30  1  0.61182832  0.53534283  0.31567785  1.0
  C  C31  1  0.60458634  0.60039641  0.34767644  1.0
  C  C32  1  0.38002843  0.53184860  0.22416087  1.0
  C  C33  1  0.38554884  0.59687283  0.25436407  1.0
  C  C34  1  0.38023548  0.80150208  0.44249836  1.0
  C  C35  1  0.38565144  0.73647571  0.41230418  1.0
  C  C36  1  0.49588548  0.70121872  0.34982472  1.0
  C  C37  1  0.49579968  0.63211092  0.31682607  1.0
  C  C38  1  0.49963194  0.08702753  0.42097221  1.0
  C  C39  1  0.49980222  0.24631037  0.24570135  1.0
  C  C40  1  0.61197429  0.14899580  0.44700540  1.0
  C  C41  1  0.60466382  0.18099669  0.41394368  1.0
  C  C42  1  0.61204486  0.18431782  0.21964718  1.0
  C  C43  1  0.60470457  0.15232946  0.25271889  1.0
  C  C44  1  0.38022390  0.27584542  0.30766586  1.0
  C  C45  1  0.38559380  0.24564296  0.34249660  1.0
  C  C46  1  0.38008784  0.05750324  0.35900535  1.0
  C  C47  1  0.38554335  0.08770873  0.32418054  1.0
  C  C48  1  0.49579979  0.15016367  0.35139429  1.0
  C  C49  1  0.49584747  0.18316070  0.31527214  1.0
  C  C50  1  0.49986181  0.07899702  0.66605005  1.0
  C  C51  1  0.50011451  0.25431274  0.00061066  1.0
  C  C52  1  0.61230550  0.05296640  0.70199438  1.0
  C  C53  1  0.60542180  0.08603378  0.76705882  1.0
  C  C54  1  0.61257224  0.28034043  0.96466648  1.0
  C  C55  1  0.60550118  0.24726401  0.89960936  1.0
  C  C56  1  0.38061813  0.19235519  0.96818137  1.0
  C  C57  1  0.38631268  0.15751427  0.90315726  1.0
  C  C58  1  0.38044378  0.14098294  0.69851290  1.0
  C  C59  1  0.38631602  0.17581328  0.76353775  1.0
  C  C60  1  0.49673567  0.14860362  0.79877970  1.0
  C  C61  1  0.49674101  0.18471017  0.86788905  1.0
  O  O62  1  0.27233769  0.01068007  0.44121510  1.0
  O  O63  1  0.27235976  0.05873378  0.56946070  1.0
  O  O64  1  0.27256061  0.93052360  0.48929023  1.0
  O  O65  1  0.74350864  0.06187600  0.49362948  1.0
  O  O66  1  0.74378408  0.93171981  0.43806969  1.0
  O  O67  1  0.74357550  0.00631657  0.56824438  1.0
  O  O68  1  0.27260884  0.27460848  0.09721530  1.0
  O  O69  1  0.27238529  0.40281913  0.17736895  1.0
  O  O70  1  0.27253761  0.32264953  0.22542614  1.0
  O  O71  1  0.74373093  0.32703257  0.09842099  1.0
  O  O72  1  0.74382303  0.27143704  0.17301418  1.0
  O  O73  1  0.74354757  0.40161761  0.22858372  1.0
  F  F74  1  0.72545715  0.82642129  0.31937125  1.0
  F  F75  1  0.72486690  0.50687670  0.34727766  1.0
  F  F76  1  0.72508732  0.18058638  0.50705446  1.0
  F  F77  1  0.72515595  0.15271992  0.15960023  1.0
  F  F78  1  0.72517291  0.99288728  0.67353093  1.0
  F  F79  1  0.72559360  0.34039584  0.99312019  1.0
