# generated using pymatgen
data_AlH25C26O7
_symmetry_space_group_name_H-M   'P 1'
_cell_length_a   6.66837150
_cell_length_b   25.04047978
_cell_length_c   29.32496400
_cell_angle_alpha   90.00010593
_cell_angle_beta   90.00015461
_cell_angle_gamma   89.99925260
_symmetry_Int_Tables_number   1
_chemical_formula_structural   AlH25C26O7
_chemical_formula_sum   'Al4 H100 C104 O28'
_cell_volume   4896.65966499
_cell_formula_units_Z   4
loop_
 _symmetry_equiv_pos_site_id
 _symmetry_equiv_pos_as_xyz
  1  'x, y, z'
loop_
 _atom_site_type_symbol
 _atom_site_label
 _atom_site_symmetry_multiplicity
 _atom_site_fract_x
 _atom_site_fract_y
 _atom_site_fract_z
 _atom_site_occupancy
  Al  Al0  1  0.75588290  0.74908367  0.74999864  1.0
  Al  Al1  1  0.24413556  0.25092188  0.25000854  1.0
  Al  Al2  1  0.25587622  0.75092196  0.74998196  1.0
  Al  Al3  1  0.74412875  0.24907999  0.24999112  1.0
  H  H4  1  0.28803030  0.38028163  0.33853152  1.0
  H  H5  1  0.71042557  0.61957176  0.66177165  1.0
  H  H6  1  0.71200242  0.61971970  0.83854050  1.0
  H  H7  1  0.28963863  0.38042203  0.16176301  1.0
  H  H8  1  0.78799906  0.11970810  0.16147427  1.0
  H  H9  1  0.21043430  0.88045719  0.83823759  1.0
  H  H10  1  0.21199165  0.88027251  0.66145135  1.0
  H  H11  1  0.78962391  0.11958248  0.33823493  1.0
  H  H12  1  0.28242248  0.44485715  0.40306362  1.0
  H  H13  1  0.71430732  0.55526102  0.59735617  1.0
  H  H14  1  0.71766288  0.55514271  0.90306704  1.0
  H  H15  1  0.28578072  0.44472385  0.09734287  1.0
  H  H16  1  0.78238525  0.05513101  0.09694729  1.0
  H  H17  1  0.21433105  0.94473437  0.90267455  1.0
  H  H18  1  0.21764130  0.94485586  0.59692448  1.0
  H  H19  1  0.78578429  0.05528187  0.40265644  1.0
  H  H20  1  0.69451745  0.38910913  0.44091594  1.0
  H  H21  1  0.30429385  0.61024387  0.55966924  1.0
  H  H22  1  0.30555238  0.61088321  0.94090210  1.0
  H  H23  1  0.69577374  0.38975171  0.05966023  1.0
  H  H24  1  0.19453673  0.11089051  0.05908338  1.0
  H  H25  1  0.80425203  0.88969450  0.94035943  1.0
  H  H26  1  0.80556683  0.88911945  0.55909247  1.0
  H  H27  1  0.19577581  0.11025113  0.44033704  1.0
  H  H28  1  0.69615269  0.32738581  0.37438793  1.0
  H  H29  1  0.30340841  0.67191928  0.62612905  1.0
  H  H30  1  0.30392894  0.67260361  0.87437726  1.0
  H  H31  1  0.69663687  0.32808203  0.12612301  1.0
  H  H32  1  0.19614816  0.17261423  0.12560866  1.0
  H  H33  1  0.80333042  0.82804505  0.87388530  1.0
  H  H34  1  0.80393011  0.82739067  0.62561662  1.0
  H  H35  1  0.19662373  0.17192280  0.37387836  1.0
  H  H36  1  0.69501836  0.55128941  0.51950237  1.0
  H  H37  1  0.30486664  0.44872133  0.48038580  1.0
  H  H38  1  0.30503470  0.44869771  0.01949350  1.0
  H  H39  1  0.69522670  0.55129226  0.98038784  1.0
  H  H40  1  0.19503339  0.94869606  0.98051915  1.0
  H  H41  1  0.80488610  0.05125877  0.01962715  1.0
  H  H42  1  0.80503146  0.05129557  0.48050104  1.0
  H  H43  1  0.19521495  0.94870599  0.51960810  1.0
  H  H44  1  0.52677775  0.48909787  0.38988102  1.0
  H  H45  1  0.76891421  0.51745195  0.39618863  1.0
  H  H46  1  0.38293787  0.56213351  0.43906853  1.0
  H  H47  1  0.62256690  0.59223636  0.44225866  1.0
  H  H48  1  0.62550627  0.60316857  0.35602941  1.0
  H  H49  1  0.41684764  0.63616313  0.38095633  1.0
  H  H50  1  0.38344936  0.57374662  0.35331396  1.0
  H  H51  1  0.59308147  0.47528191  0.57314875  1.0
  H  H52  1  0.37920698  0.43539286  0.56086738  1.0
  H  H53  1  0.39282231  0.52267558  0.63454734  1.0
  H  H54  1  0.19048749  0.47899026  0.62447092  1.0
  H  H55  1  0.41220650  0.39987160  0.64612952  1.0
  H  H56  1  0.39551519  0.44701574  0.69115468  1.0
  H  H57  1  0.61350506  0.44467392  0.65653774  1.0
  H  H58  1  0.47340475  0.51091394  0.88989325  1.0
  H  H59  1  0.23123996  0.48256946  0.89617321  1.0
  H  H60  1  0.61715891  0.43785164  0.93906494  1.0
  H  H61  1  0.37748348  0.40776438  0.94223662  1.0
  H  H62  1  0.37460638  0.39685476  0.85601008  1.0
  H  H63  1  0.58322515  0.36384867  0.88093113  1.0
  H  H64  1  0.61666472  0.42627111  0.85330216  1.0
  H  H65  1  0.40701045  0.52469812  0.07315910  1.0
  H  H66  1  0.62078565  0.56461231  0.06084606  1.0
  H  H67  1  0.60748413  0.47732534  0.13453508  1.0
  H  H68  1  0.80971222  0.52104659  0.12443280  1.0
  H  H69  1  0.58785429  0.60013454  0.14611099  1.0
  H  H70  1  0.60476120  0.55299807  0.19113846  1.0
  H  H71  1  0.38671196  0.55529470  0.15654678  1.0
  H  H72  1  0.02665026  0.01089317  0.11012104  1.0
  H  H73  1  0.26885497  0.98257181  0.10384666  1.0
  H  H74  1  0.88308644  0.93781876  0.06093844  1.0
  H  H75  1  0.12276357  0.90774478  0.05778517  1.0
  H  H76  1  0.12550024  0.89685928  0.14401919  1.0
  H  H77  1  0.91699083  0.86382497  0.11907792  1.0
  H  H78  1  0.88339674  0.92624798  0.14669301  1.0
  H  H79  1  0.09306339  0.02473825  0.92691251  1.0
  H  H80  1  0.87880463  0.06455403  0.93906495  1.0
  H  H81  1  0.89365906  0.97715864  0.86549087  1.0
  H  H82  1  0.69092394  0.02072845  0.87543927  1.0
  H  H83  1  0.91203718  0.09996255  0.85377280  1.0
  H  H84  1  0.89614182  0.05272063  0.80880288  1.0
  H  H85  1  0.11380427  0.05526351  0.84350442  1.0
  H  H86  1  0.97346210  0.98909492  0.61009346  1.0
  H  H87  1  0.73126923  0.01743145  0.60382426  1.0
  H  H88  1  0.11710864  0.06215925  0.56090288  1.0
  H  H89  1  0.87741644  0.09223842  0.55775163  1.0
  H  H90  1  0.87466997  0.10313687  0.64398192  1.0
  H  H91  1  0.08320574  0.13616674  0.61904044  1.0
  H  H92  1  0.11677654  0.07374059  0.64666293  1.0
  H  H93  1  0.90698959  0.97530678  0.42683730  1.0
  H  H94  1  0.12079128  0.93539479  0.43913536  1.0
  H  H95  1  0.10742108  0.02269178  0.36546083  1.0
  H  H96  1  0.30966160  0.97897423  0.37555100  1.0
  H  H97  1  0.08780549  0.89988426  0.35387521  1.0
  H  H98  1  0.10470594  0.94702466  0.30885252  1.0
  H  H99  1  0.88665747  0.94472665  0.34344042  1.0
  H  H100  1  0.50176402  0.67964853  0.74534726  1.0
  H  H101  1  0.49825132  0.32033504  0.24520551  1.0
  H  H102  1  0.00174657  0.82031645  0.75493651  1.0
  H  H103  1  0.99827052  0.17966275  0.25476105  1.0
  C  C104  1  0.50775098  0.81342066  0.68752054  1.0
  C  C105  1  0.49276536  0.18608130  0.31202423  1.0
  C  C106  1  0.49226289  0.18657038  0.18753610  1.0
  C  C107  1  0.50719620  0.81393316  0.81201822  1.0
  C  C108  1  0.00773405  0.68656826  0.81246315  1.0
  C  C109  1  0.99280477  0.31392091  0.18797404  1.0
  C  C110  1  0.99225902  0.31342903  0.31246524  1.0
  C  C111  1  0.00723310  0.68608372  0.68797161  1.0
  C  C112  1  0.15815474  0.38285372  0.36100316  1.0
  C  C113  1  0.84056057  0.61683514  0.63939958  1.0
  C  C114  1  0.84188905  0.61714646  0.86100394  1.0
  C  C115  1  0.15948356  0.38316219  0.13938925  1.0
  C  C116  1  0.65813655  0.11714007  0.13900434  1.0
  C  C117  1  0.34055324  0.88316739  0.86061852  1.0
  C  C118  1  0.34187308  0.88284449  0.63898653  1.0
  C  C119  1  0.65947405  0.11684077  0.36060496  1.0
  C  C120  1  0.15501564  0.41845012  0.39735925  1.0
  C  C121  1  0.84295286  0.58130264  0.60300530  1.0
  C  C122  1  0.84504108  0.58155172  0.89735860  1.0
  C  C123  1  0.15711283  0.41868944  0.10299333  1.0
  C  C124  1  0.65500125  0.08154048  0.10265065  1.0
  C  C125  1  0.34297322  0.91868472  0.89701893  1.0
  C  C126  1  0.34503144  0.91844720  0.60263528  1.0
  C  C127  1  0.65710599  0.08131154  0.39700156  1.0
  C  C128  1  0.98815787  0.42196621  0.42659915  1.0
  C  C129  1  0.01024852  0.57769310  0.57383395  1.0
  C  C130  1  0.01191610  0.57802691  0.92659755  1.0
  C  C131  1  0.98980743  0.42229891  0.07382258  1.0
  C  C132  1  0.48816413  0.07802603  0.07340765  1.0
  C  C133  1  0.51026173  0.92227384  0.92619441  1.0
  C  C134  1  0.51189331  0.92197238  0.57340012  1.0
  C  C135  1  0.48980323  0.07770170  0.42617432  1.0
  C  C136  1  0.82363267  0.38799629  0.41822230  1.0
  C  C137  1  0.17507515  0.61148930  0.58230354  1.0
  C  C138  1  0.17642609  0.61199522  0.91821666  1.0
  C  C139  1  0.82498701  0.38850752  0.08229589  1.0
  C  C140  1  0.32364498  0.11200011  0.08177632  1.0
  C  C141  1  0.67504781  0.88846868  0.91771798  1.0
  C  C142  1  0.67642917  0.88800789  0.58177792  1.0
  C  C143  1  0.32498244  0.11149367  0.41770274  1.0
  C  C144  1  0.82439785  0.35321137  0.38120637  1.0
  C  C145  1  0.17488282  0.64618237  0.61934676  1.0
  C  C146  1  0.17567795  0.64678046  0.88119874  1.0
  C  C147  1  0.82516679  0.35381813  0.11934245  1.0
  C  C148  1  0.32438991  0.14678782  0.11879191  1.0
  C  C149  1  0.67484573  0.85379719  0.88065976  1.0
  C  C150  1  0.67567169  0.85321627  0.61879073  1.0
  C  C151  1  0.32514008  0.14618426  0.38065242  1.0
  C  C152  1  0.99131836  0.35044274  0.35222934  1.0
  C  C153  1  0.00789333  0.64906721  0.64828457  1.0
  C  C154  1  0.00875370  0.64955822  0.85222992  1.0
  C  C155  1  0.99216153  0.35093334  0.14828365  1.0
  C  C156  1  0.49129903  0.14955468  0.14777063  1.0
  C  C157  1  0.50787063  0.85092889  0.85171856  1.0
  C  C158  1  0.50873182  0.85043229  0.64775479  1.0
  C  C159  1  0.49213094  0.14907047  0.35171700  1.0
  C  C160  1  0.82054918  0.49113535  0.47692323  1.0
  C  C161  1  0.17916337  0.50851278  0.52366161  1.0
  C  C162  1  0.17954856  0.50885787  0.97692082  1.0
  C  C163  1  0.82090329  0.49148593  0.02365959  1.0
  C  C164  1  0.32055604  0.00884549  0.02309108  1.0
  C  C165  1  0.67918648  0.99146037  0.97635718  1.0
  C  C166  1  0.67954660  0.99113365  0.52307547  1.0
  C  C167  1  0.32089176  0.00851567  0.47634108  1.0
  C  C168  1  0.83098003  0.52899327  0.51159509  1.0
  C  C169  1  0.16854207  0.47058657  0.48886188  1.0
  C  C170  1  0.16909682  0.47099903  0.01158695  1.0
  C  C171  1  0.83155148  0.52941825  0.98886728  1.0
  C  C172  1  0.33098968  0.97098335  0.98842608  1.0
  C  C173  1  0.66854590  0.02940358  0.01113915  1.0
  C  C174  1  0.66909187  0.02899592  0.48840862  1.0
  C  C175  1  0.33152794  0.97057992  0.51112865  1.0
  C  C176  1  0.00887534  0.53883439  0.53596004  1.0
  C  C177  1  0.99079673  0.46076502  0.46462651  1.0
  C  C178  1  0.99120214  0.46116394  0.03595420  1.0
  C  C179  1  0.00928121  0.53922818  0.96462280  1.0
  C  C180  1  0.50887412  0.96113975  0.96405809  1.0
  C  C181  1  0.49080992  0.03922162  0.03538268  1.0
  C  C182  1  0.49120081  0.03883587  0.46404305  1.0
  C  C183  1  0.50926604  0.96076753  0.53537419  1.0
  C  C184  1  0.62051096  0.51368832  0.41252182  1.0
  C  C185  1  0.52428684  0.56802771  0.42028351  1.0
  C  C186  1  0.48558195  0.59688420  0.37520045  1.0
  C  C187  1  0.42824217  0.47413845  0.57485549  1.0
  C  C188  1  0.35531026  0.48178185  0.62366238  1.0
  C  C189  1  0.44901671  0.44107244  0.65610672  1.0
  C  C190  1  0.37961363  0.48632394  0.91252105  1.0
  C  C191  1  0.47580946  0.43197658  0.92027481  1.0
  C  C192  1  0.51451769  0.40313597  0.87518350  1.0
  C  C193  1  0.57183929  0.52586076  0.07484844  1.0
  C  C194  1  0.64490442  0.51822903  0.12364440  1.0
  C  C195  1  0.55118680  0.55892334  0.15609563  1.0
  C  C196  1  0.12050211  0.98631080  0.08749576  1.0
  C  C197  1  0.02438542  0.93195617  0.07974362  1.0
  C  C198  1  0.98563188  0.90311404  0.12482902  1.0
  C  C199  1  0.92822227  0.02580906  0.92514401  1.0
  C  C200  1  0.85575736  0.01804970  0.87631973  1.0
  C  C201  1  0.94929753  0.05876558  0.84386789  1.0
  C  C202  1  0.87963817  0.01368045  0.58746822  1.0
  C  C203  1  0.97578315  0.06803307  0.57970560  1.0
  C  C204  1  0.01456033  0.09687169  0.62479387  1.0
  C  C205  1  0.07182017  0.97414971  0.42514049  1.0
  C  C206  1  0.14485368  0.98178877  0.37634419  1.0
  C  C207  1  0.05113873  0.94109638  0.34389331  1.0
  O  O208  1  0.33667941  0.80113137  0.79571675  1.0
  O  O209  1  0.66309460  0.19918647  0.20379017  1.0
  O  O210  1  0.66330873  0.19887707  0.29571663  1.0
  O  O211  1  0.33693618  0.80082297  0.70378245  1.0
  O  O212  1  0.83672637  0.69887518  0.70428600  1.0
  O  O213  1  0.16308816  0.30082367  0.29620165  1.0
  O  O214  1  0.16333141  0.30111710  0.20427894  1.0
  O  O215  1  0.83690899  0.69918397  0.79621621  1.0
  O  O216  1  0.67730570  0.79775016  0.70242522  1.0
  O  O217  1  0.32323914  0.20178415  0.29706533  1.0
  O  O218  1  0.32271005  0.20222534  0.20244458  1.0
  O  O219  1  0.67672954  0.79824625  0.79704052  1.0
  O  O220  1  0.17731161  0.70221701  0.79754515  1.0
  O  O221  1  0.82327520  0.29822503  0.20293569  1.0
  O  O222  1  0.82270957  0.29777066  0.29755950  1.0
  O  O223  1  0.17677355  0.70179640  0.70292474  1.0
  O  O224  1  0.50454794  0.71785028  0.75011525  1.0
  O  O225  1  0.49547353  0.28215727  0.25011460  1.0
  O  O226  1  0.00453823  0.78216421  0.74987935  1.0
  O  O227  1  0.99546974  0.21784693  0.24988366  1.0
  O  O228  1  0.64022769  0.48374920  0.45441511  1.0
  O  O229  1  0.35956282  0.51677830  0.54565345  1.0
  O  O230  1  0.35989048  0.51625316  0.95441917  1.0
  O  O231  1  0.64050140  0.48322085  0.04564495  1.0
  O  O232  1  0.14022876  0.01624105  0.04559786  1.0
  O  O233  1  0.85956177  0.98318543  0.95436669  1.0
  O  O234  1  0.85987445  0.98374372  0.54557471  1.0
  O  O235  1  0.14049041  0.01678298  0.45435233  1.0
