# generated using pymatgen
data_AlH16C25N3ClO8
_symmetry_space_group_name_H-M   'P 1'
_cell_length_a   6.58831126
_cell_length_b   28.22467984
_cell_length_c   31.76797066
_cell_angle_alpha   77.95181680
_cell_angle_beta   89.37877196
_cell_angle_gamma   89.99898757
_symmetry_Int_Tables_number   1
_chemical_formula_structural   AlH16C25N3ClO8
_chemical_formula_sum   'Al4 H64 C100 N12 Cl4 O32'
_cell_volume   5776.86922415
_cell_formula_units_Z   4
loop_
 _symmetry_equiv_pos_site_id
 _symmetry_equiv_pos_as_xyz
  1  'x, y, z'
loop_
 _atom_site_type_symbol
 _atom_site_label
 _atom_site_symmetry_multiplicity
 _atom_site_fract_x
 _atom_site_fract_y
 _atom_site_fract_z
 _atom_site_occupancy
  Al  Al0  1  0.09929362  0.50165913  0.50078283  1.0
  Al  Al1  1  0.59844932  0.49745298  0.50166106  1.0
  Al  Al2  1  0.71299209  0.99763372  0.99961885  1.0
  Al  Al3  1  0.21263180  0.00261237  0.99772609  1.0
  H  H4  1  0.18962866  0.39554806  0.60337299  1.0
  H  H5  1  0.20838829  0.32905256  0.66979744  1.0
  H  H6  1  0.55680921  0.32708314  0.67945699  1.0
  H  H7  1  0.53948945  0.39187224  0.61170340  1.0
  H  H8  1  0.21885658  0.19453907  0.83698969  1.0
  H  H9  1  0.24504907  0.12659138  0.90164449  1.0
  H  H10  1  0.64596897  0.07886913  0.87713939  1.0
  H  H11  1  0.80821330  0.18008319  0.35647997  1.0
  H  H12  1  0.82443480  0.12524900  0.30285573  1.0
  H  H13  1  0.97768563  0.31950851  0.14223831  1.0
  H  H14  1  0.95134326  0.37447828  0.19564634  1.0
  H  H15  1  0.25333562  0.15394203  0.13286674  1.0
  H  H16  1  0.27237529  0.10110689  0.07850267  1.0
  H  H17  1  0.63153934  0.07403483  0.09308066  1.0
  H  H18  1  0.61299802  0.12497311  0.14902670  1.0
  H  H19  1  0.56153188  0.33479985  0.37953526  1.0
  H  H20  1  0.56276276  0.38898456  0.43219148  1.0
  H  H21  1  0.15761075  0.38772271  0.33569242  1.0
  H  H22  1  0.78863803  0.78665010  0.66519288  1.0
  H  H23  1  0.06798794  0.71031398  0.83634962  1.0
  H  H24  1  0.06656641  0.66506651  0.62224069  1.0
  H  H25  1  0.05385807  0.60769046  0.57193366  1.0
  H  H26  1  0.67718054  0.56944865  0.59864344  1.0
  H  H27  1  0.68944490  0.62461033  0.65083848  1.0
  H  H28  1  0.15661258  0.88334620  0.83962404  1.0
  H  H29  1  0.15449181  0.93680158  0.89361739  1.0
  H  H30  1  0.74783877  0.88482582  0.93558032  1.0
  H  H31  1  0.66461075  0.69677865  0.34457493  1.0
  H  H32  1  0.07088818  0.65251211  0.31126423  1.0
  H  H33  1  0.06642506  0.58841156  0.37869515  1.0
  H  H34  1  0.74864992  0.90603464  0.11940497  1.0
  H  H35  1  0.12492663  0.80711426  0.15481964  1.0
  H  H36  1  0.75168470  0.68600457  0.75743425  1.0
  H  H37  1  0.77539282  0.68313008  0.81395942  1.0
  H  H38  1  0.72406251  0.59358100  0.82798105  1.0
  H  H39  1  0.51537219  0.62614706  0.80231103  1.0
  H  H40  1  0.63506763  0.60968205  0.73060650  1.0
  H  H41  1  0.59351194  0.55495329  0.76880006  1.0
  H  H42  1  0.84502628  0.57725532  0.75608566  1.0
  H  H43  1  0.58440641  0.63584502  0.47377711  1.0
  H  H44  1  0.62579478  0.69291708  0.43766352  1.0
  H  H45  1  0.96028760  0.62329822  0.47978223  1.0
  H  H46  1  0.00153716  0.67823182  0.44223674  1.0
  H  H47  1  0.83230089  0.72416272  0.49391385  1.0
  H  H48  1  0.04089612  0.68965505  0.51839822  1.0
  H  H49  1  0.78922856  0.66872125  0.53113780  1.0
  H  H50  1  0.67791782  0.87729554  0.23543443  1.0
  H  H51  1  0.84350296  0.90990449  0.19411595  1.0
  H  H52  1  0.96528528  0.82090002  0.26218372  1.0
  H  H53  1  0.12944345  0.85660948  0.22358252  1.0
  H  H54  1  0.06269088  0.92923983  0.25736081  1.0
  H  H55  1  0.16783723  0.88002888  0.29477349  1.0
  H  H56  1  0.90407005  0.89256770  0.29670266  1.0
  H  H57  1  0.87764690  0.84161238  0.05619156  1.0
  H  H58  1  0.06775801  0.80097095  0.08193802  1.0
  H  H59  1  0.12916590  0.88033450  0.00017505  1.0
  H  H60  1  0.32288833  0.84193976  0.02584657  1.0
  H  H61  1  0.13622034  0.76884944  0.01117849  1.0
  H  H62  1  0.18347712  0.81169223  0.96258009  1.0
  H  H63  1  0.93805161  0.80697552  0.98631611  1.0
  H  H64  1  0.33779545  0.44373712  0.48680502  1.0
  H  H65  1  0.83722841  0.55677593  0.47010538  1.0
  H  H66  1  0.47594162  0.06351194  0.99767853  1.0
  H  H67  1  0.97752922  0.94278836  0.03021845  1.0
  C  C68  1  0.35880541  0.55192411  0.55188968  1.0
  C  C69  1  0.35067294  0.56485172  0.43721823  1.0
  C  C70  1  0.84947159  0.44706518  0.44886388  1.0
  C  C71  1  0.85674197  0.43697865  0.56503964  1.0
  C  C72  1  0.05285015  0.37982728  0.62027383  1.0
  C  C73  1  0.06304427  0.34322979  0.65690169  1.0
  C  C74  1  0.88371663  0.32453000  0.67855950  1.0
  C  C75  1  0.69415243  0.34199285  0.66227543  1.0
  C  C76  1  0.68454992  0.37792066  0.62502626  1.0
  C  C77  1  0.86378873  0.39742885  0.60421114  1.0
  C  C78  1  0.91027722  0.21722233  0.78474468  1.0
  C  C79  1  0.89595776  0.28761480  0.71855564  1.0
  C  C80  1  0.09453519  0.16890594  0.84616682  1.0
  C  C81  1  0.10907939  0.13138666  0.88201236  1.0
  C  C82  1  0.94511500  0.09960687  0.89361392  1.0
  C  C83  1  0.77087855  0.10437455  0.86824632  1.0
  C  C84  1  0.75918988  0.14132104  0.83167942  1.0
  C  C85  1  0.91886773  0.17512126  0.82083454  1.0
  C  C86  1  0.88993934  0.34885302  0.28020564  1.0
  C  C87  1  0.84693967  0.27599489  0.34064955  1.0
  C  C88  1  0.85352653  0.24468532  0.30852868  1.0
  C  C89  1  0.88476835  0.26523106  0.26434043  1.0
  C  C90  1  0.90452854  0.31592604  0.24954551  1.0
  C  C91  1  0.83206547  0.19482160  0.32223707  1.0
  C  C92  1  0.84158794  0.16437654  0.29247631  1.0
  C  C93  1  0.87416262  0.18365375  0.24896099  1.0
  C  C94  1  0.89666229  0.23432720  0.23421723  1.0
  C  C95  1  0.93101466  0.25491618  0.19012042  1.0
  C  C96  1  0.95112230  0.30479762  0.17639965  1.0
  C  C97  1  0.93699116  0.33529219  0.20604198  1.0
  C  C98  1  0.88558742  0.15080831  0.21811586  1.0
  C  C99  1  0.94545288  0.22345045  0.15822086  1.0
  C  C100  1  0.11854643  0.13576405  0.12441886  1.0
  C  C101  1  0.12885021  0.10677742  0.09403409  1.0
  C  C102  1  0.95278366  0.08498925  0.08244949  1.0
  C  C103  1  0.76666434  0.09164306  0.10215998  1.0
  C  C104  1  0.75634471  0.12003443  0.13305864  1.0
  C  C105  1  0.93220513  0.14224932  0.14367889  1.0
  C  C106  1  0.69167075  0.35793137  0.38156740  1.0
  C  C107  1  0.69314527  0.38792457  0.41107797  1.0
  C  C108  1  0.86001905  0.41758890  0.41487386  1.0
  C  C109  1  0.02765826  0.41720760  0.38703072  1.0
  C  C110  1  0.02800923  0.38710912  0.35731932  1.0
  C  C111  1  0.86100642  0.35758390  0.35491351  1.0
  C  C112  1  0.31690748  0.78256673  0.83647682  1.0
  C  C113  1  0.57591326  0.83589319  0.79105281  1.0
  C  C114  1  0.57363906  0.80358145  0.75956853  1.0
  C  C115  1  0.42722153  0.76559360  0.76464297  1.0
  C  C116  1  0.29912474  0.75522795  0.80164880  1.0
  C  C117  1  0.70633455  0.80996291  0.72394479  1.0
  C  C118  1  0.68688193  0.78106380  0.69306212  1.0
  C  C119  1  0.54093015  0.74509139  0.69734424  1.0
  C  C120  1  0.40849805  0.73593808  0.73357221  1.0
  C  C121  1  0.26354862  0.69773374  0.73887664  1.0
  C  C122  1  0.13902745  0.68886845  0.77599260  1.0
  C  C123  1  0.15904469  0.71804159  0.80684118  1.0
  C  C124  1  0.53317134  0.71554562  0.66385023  1.0
  C  C125  1  0.24562993  0.66818473  0.70555472  1.0
  C  C126  1  0.19941087  0.64382016  0.61726209  1.0
  C  C127  1  0.19232856  0.61205084  0.58916168  1.0
  C  C128  1  0.36444612  0.58530189  0.58250820  1.0
  C  C129  1  0.54433338  0.59030559  0.60439130  1.0
  C  C130  1  0.55105203  0.62110700  0.63326597  1.0
  C  C131  1  0.37846792  0.64773658  0.63947703  1.0
  C  C132  1  0.28472698  0.88376095  0.86096952  1.0
  C  C133  1  0.28356857  0.91352840  0.89074911  1.0
  C  C134  1  0.45158479  0.91409099  0.91731682  1.0
  C  C135  1  0.61808475  0.88401525  0.91478290  1.0
  C  C136  1  0.61566985  0.85303002  0.88589499  1.0
  C  C137  1  0.45007545  0.85353964  0.85843324  1.0
  C  C138  1  0.53462525  0.63598234  0.38837962  1.0
  C  C139  1  0.53382272  0.67265715  0.35136367  1.0
  C  C140  1  0.36834318  0.67870324  0.32342736  1.0
  C  C141  1  0.19975958  0.64764097  0.33288004  1.0
  C  C142  1  0.19810632  0.61190298  0.37019985  1.0
  C  C143  1  0.36379655  0.60497373  0.39838058  1.0
  C  C144  1  0.40253349  0.78428375  0.21559153  1.0
  C  C145  1  0.37026007  0.71845877  0.28533904  1.0
  C  C146  1  0.60527528  0.84827180  0.16476324  1.0
  C  C147  1  0.61038265  0.88481025  0.12783297  1.0
  C  C148  1  0.44299969  0.89488928  0.10051493  1.0
  C  C149  1  0.26684041  0.86554521  0.10992225  1.0
  C  C150  1  0.26314796  0.82833427  0.14654829  1.0
  C  C151  1  0.42724688  0.81996120  0.17495322  1.0
  C  C152  1  0.46049160  0.93608674  0.06274053  1.0
  C  C153  1  0.45231091  0.94667902  0.94881098  1.0
  C  C154  1  0.95323976  0.06083803  0.93338458  1.0
  C  C155  1  0.96352004  0.05482448  0.04905324  1.0
  C  C156  1  0.79605937  0.66263430  0.78821752  1.0
  C  C157  1  0.67406340  0.61606943  0.79726555  1.0
  C  C158  1  0.68793778  0.58773827  0.76127522  1.0
  C  C159  1  0.68962685  0.65640629  0.44935087  1.0
  C  C160  1  0.89865328  0.65982841  0.46805449  1.0
  C  C161  1  0.88970600  0.68708940  0.50485983  1.0
  C  C162  1  0.81436678  0.87443016  0.21571114  1.0
  C  C163  1  0.99505287  0.85799597  0.24408554  1.0
  C  C164  1  0.03443208  0.89185880  0.27491180  1.0
  C  C165  1  0.04183957  0.83721510  0.06164100  1.0
  C  C166  1  0.15890643  0.84377897  0.01914528  1.0
  C  C167  1  0.10122672  0.80571582  0.99350151  1.0
  N  N168  1  0.72938005  0.27922491  0.74444958  1.0
  N  N169  1  0.73663782  0.24326266  0.77835543  1.0
  N  N170  1  0.08619987  0.23107766  0.76331325  1.0
  N  N171  1  0.07894187  0.26710745  0.72957436  1.0
  N  N172  1  0.86545433  0.32650304  0.32425054  1.0
  N  N173  1  0.92078020  0.17316631  0.17452837  1.0
  N  N174  1  0.44690388  0.82273908  0.82763595  1.0
  N  N175  1  0.38566282  0.67880530  0.67020608  1.0
  N  N176  1  0.23911341  0.71660276  0.25320075  1.0
  N  N177  1  0.25828858  0.74966926  0.21740678  1.0
  N  N178  1  0.50308269  0.79145029  0.25077225  1.0
  N  N179  1  0.48930516  0.75742292  0.28605631  1.0
  Cl  Cl180  1  0.23596790  0.45466676  0.38602653  1.0
  Cl  Cl181  1  0.90171347  0.85133322  0.71524668  1.0
  Cl  Cl182  1  0.81656516  0.81425050  0.88431993  1.0
  Cl  Cl183  1  0.55002508  0.14300661  0.79905001  1.0
  O  O184  1  0.51451499  0.55078812  0.45664616  1.0
  O  O185  1  0.19069765  0.54674182  0.53383912  1.0
  O  O186  1  0.02225169  0.45915425  0.55310568  1.0
  O  O187  1  0.17496731  0.54721403  0.44834718  1.0
  O  O188  1  0.01418038  0.45482874  0.46672979  1.0
  O  O189  1  0.52458690  0.53136429  0.54534339  1.0
  O  O190  1  0.34528148  0.46915545  0.50311913  1.0
  O  O191  1  0.67339293  0.46087383  0.45813443  1.0
  O  O192  1  0.68733644  0.44564166  0.54605345  1.0
  O  O193  1  0.84622221  0.52998230  0.49490536  1.0
  O  O194  1  0.89867927  0.39309748  0.26860689  1.0
  O  O195  1  0.82808865  0.25957333  0.37943475  1.0
  O  O196  1  0.86688842  0.10666014  0.22917165  1.0
  O  O197  1  0.97622021  0.23942795  0.11968503  1.0
  O  O198  1  0.22307727  0.77152456  0.87079232  1.0
  O  O199  1  0.67895986  0.87276643  0.78673213  1.0
  O  O200  1  0.64902760  0.72261465  0.63252991  1.0
  O  O201  1  0.12015708  0.63584722  0.70689388  1.0
  O  O202  1  0.28537508  0.96717505  0.95450000  1.0
  O  O203  1  0.63753054  0.95351075  0.05241098  1.0
  O  O204  1  0.79648345  0.04549293  0.03254167  1.0
  O  O205  1  0.61793485  0.95100344  0.96798902  1.0
  O  O206  1  0.78945610  0.03811761  0.94566030  1.0
  O  O207  1  0.29901312  0.95125840  0.04311952  1.0
  O  O208  1  0.46733604  0.03023838  0.99446823  1.0
  O  O209  1  0.12226357  0.05366717  0.95276827  1.0
  O  O210  1  0.13916204  0.04111023  0.03944184  1.0
  O  O211  1  0.96600080  0.96946657  0.00533794  1.0
  O  O212  1  0.00896728  0.65083955  0.78401481  1.0
  O  O213  1  0.70604986  0.63234183  0.41335070  1.0
  O  O214  1  0.77447498  0.83860930  0.19001076  1.0
  O  O215  1  0.09508294  0.87413668  0.08525923  1.0
