# generated using pymatgen
data_NiH13C17(NO3)2
_symmetry_space_group_name_H-M   'P 1'
_cell_length_a   16.40577803
_cell_length_b   16.40719516
_cell_length_c   17.52602100
_cell_angle_alpha   89.99083598
_cell_angle_beta   90.00408805
_cell_angle_gamma   59.99692530
_symmetry_Int_Tables_number   1
_chemical_formula_structural   NiH13C17(NO3)2
_chemical_formula_sum   'Ni6 H78 C102 N12 O36'
_cell_volume   4085.37254556
_cell_formula_units_Z   6
loop_
 _symmetry_equiv_pos_site_id
 _symmetry_equiv_pos_as_xyz
  1  'x, y, z'
loop_
 _atom_site_type_symbol
 _atom_site_label
 _atom_site_symmetry_multiplicity
 _atom_site_fract_x
 _atom_site_fract_y
 _atom_site_fract_z
 _atom_site_occupancy
  Ni  Ni0  1  0.66738067  0.32180987  0.85192327  1.0
  Ni  Ni1  1  0.01092697  0.66750385  0.85209507  1.0
  Ni  Ni2  1  0.32078859  0.01132863  0.22930896  1.0
  Ni  Ni3  1  0.01148620  0.66764658  0.22928457  1.0
  Ni  Ni4  1  0.32160773  0.01098315  0.85209898  1.0
  Ni  Ni5  1  0.66773344  0.32078081  0.22914936  1.0
  H  H6  1  0.87535392  0.69685973  0.34396977  1.0
  H  H7  1  0.93131358  0.60309596  0.99021659  1.0
  H  H8  1  0.15164904  0.63739649  0.34268980  1.0
  H  H9  1  0.86186150  0.74776036  0.59681129  1.0
  H  H10  1  0.85636149  0.98483148  0.24151606  1.0
  H  H11  1  0.36538999  0.86658587  0.96692903  1.0
  H  H12  1  0.20997519  0.28715951  0.26671593  1.0
  H  H13  1  0.42809971  0.87531661  0.34401672  1.0
  H  H14  1  0.36955818  0.10579326  0.09236892  1.0
  H  H15  1  0.69563173  0.43362366  0.48592590  1.0
  H  H16  1  0.59355704  0.23957756  0.59749548  1.0
  H  H17  1  0.90052229  0.80799497  0.11485789  1.0
  H  H18  1  0.73908035  0.39264271  0.73873451  1.0
  H  H19  1  0.15869873  0.63920684  0.48382976  1.0
  H  H20  1  0.10605502  0.52465250  0.09203049  1.0
  H  H21  1  0.07054769  0.75519287  0.09438351  1.0
  H  H22  1  0.63806258  0.21056778  0.34260899  1.0
  H  H23  1  0.42637018  0.05008183  0.96609526  1.0
  H  H24  1  0.24039270  0.15942430  0.73835147  1.0
  H  H25  1  0.24382897  0.94222619  0.98585400  1.0
  H  H26  1  0.20997176  0.15466098  0.11368875  1.0
  H  H27  1  0.98484282  0.15868376  0.24159258  1.0
  H  H28  1  0.15463011  0.63573647  0.11375786  1.0
  H  H29  1  0.21062660  0.15121839  0.34270165  1.0
  H  H30  1  0.60022692  0.24042382  0.73830170  1.0
  H  H31  1  0.45944404  0.99041709  0.11613491  1.0
  H  H32  1  0.20182217  0.15828973  0.48384581  1.0
  H  H33  1  0.54987499  0.45945788  0.11597997  1.0
  H  H34  1  0.86662223  0.76840429  0.96686483  1.0
  H  H35  1  0.17573286  0.11395482  0.96582642  1.0
  H  H36  1  0.86869029  0.72167059  0.09617330  1.0
  H  H37  1  0.75499457  0.17422853  0.09434480  1.0
  H  H38  1  0.28740007  0.50252706  0.26665977  1.0
  H  H39  1  0.39077799  0.86167239  0.59694952  1.0
  H  H40  1  0.49719041  0.71377685  0.85450174  1.0
  H  H41  1  0.72184192  0.40946737  0.09626854  1.0
  H  H42  1  0.21273861  0.28358980  0.81986809  1.0
  H  H43  1  0.15984852  0.85799789  0.83690005  1.0
  H  H44  1  0.94258621  0.81388220  0.98616846  1.0
  H  H45  1  0.63976823  0.20181124  0.48375298  1.0
  H  H46  1  0.46569673  0.93165639  0.99000413  1.0
  H  H47  1  0.15700965  0.58900336  0.98390188  1.0
  H  H48  1  0.50364022  0.21286530  0.81970402  1.0
  H  H49  1  0.78915624  0.49730834  0.85454423  1.0
  H  H50  1  0.78616694  0.49610881  0.21924314  1.0
  H  H51  1  0.23960521  0.16681402  0.59752657  1.0
  H  H52  1  0.16707467  0.59341812  0.59765791  1.0
  H  H53  1  0.39248408  0.86834603  0.73902925  1.0
  H  H54  1  0.52353574  0.42658165  0.96586690  1.0
  H  H55  1  0.60268415  0.46580437  0.98994864  1.0
  H  H56  1  0.49619200  0.71764436  0.21937493  1.0
  H  H57  1  0.28341603  0.50379269  0.81980449  1.0
  H  H58  1  0.43371539  0.87059164  0.48615791  1.0
  H  H59  1  0.25359042  0.15710613  0.98368672  1.0
  H  H60  1  0.04955985  0.52371228  0.96594294  1.0
  H  H61  1  0.86846493  0.73950588  0.73892710  1.0
  H  H62  1  0.63539361  0.20989552  0.11350161  1.0
  H  H63  1  0.15952046  0.60022481  0.73845408  1.0
  H  H64  1  0.98214596  0.15994558  0.83668013  1.0
  H  H65  1  0.40929841  0.86859118  0.09645554  1.0
  H  H66  1  0.85792108  0.98223279  0.83680089  1.0
  H  H67  1  0.69655466  0.42796894  0.34378342  1.0
  H  H68  1  0.71368028  0.78920393  0.85473511  1.0
  H  H69  1  0.87069975  0.69608848  0.48612687  1.0
  H  H70  1  0.71776145  0.78601790  0.21944696  1.0
  H  H71  1  0.76809611  0.36537850  0.96680184  1.0
  H  H72  1  0.81388038  0.24385603  0.98581729  1.0
  H  H73  1  0.15873059  0.85627464  0.24170685  1.0
  H  H74  1  0.17409937  0.07090077  0.09458731  1.0
  H  H75  1  0.50276926  0.20982851  0.26677208  1.0
  H  H76  1  0.58916015  0.25378868  0.98353570  1.0
  H  H77  1  0.99090759  0.54973957  0.11611200  1.0
  H  H78  1  0.74740849  0.39083651  0.59661710  1.0
  H  H79  1  0.29089954  0.90087165  0.11473395  1.0
  H  H80  1  0.71012884  0.17593207  0.96560710  1.0
  H  H81  1  0.52456299  0.36952122  0.09206415  1.0
  H  H82  1  0.80809635  0.29114898  0.11464664  1.0
  H  H83  1  0.11422355  0.70989846  0.96578067  1.0
  C  C84  1  0.42916408  0.26608439  0.82043416  1.0
  C  C85  1  0.92026575  0.98972298  0.83610005  1.0
  C  C86  1  0.38840854  0.13540293  0.27301874  1.0
  C  C87  1  0.93020129  0.75536433  0.99763477  1.0
  C  C88  1  0.40232988  0.35944360  0.26660409  1.0
  C  C89  1  0.66945753  0.31626007  0.58314568  1.0
  C  C90  1  0.57068683  0.69596192  0.22104230  1.0
  C  C91  1  0.13491855  0.47312589  0.81062168  1.0
  C  C92  1  0.30703440  0.42850895  0.26617294  1.0
  C  C93  1  0.40893219  0.00401608  0.99856353  1.0
  C  C94  1  0.35905347  0.93186109  0.70426081  1.0
  C  C95  1  0.39188444  0.13509174  0.81060526  1.0
  C  C96  1  0.09994759  0.66033710  0.99657636  1.0
  C  C97  1  0.08917340  0.68220733  0.08330889  1.0
  C  C98  1  0.52971917  0.86689883  0.21440664  1.0
  C  C99  1  0.09003241  0.92037728  0.83612733  1.0
  C  C100  1  0.36176968  0.23765516  0.81991477  1.0
  C  C101  1  0.76245426  0.63955837  0.85328262  1.0
  C  C102  1  0.59806714  0.76256602  0.85322856  1.0
  C  C103  1  0.42873082  0.26415058  0.26619040  1.0
  C  C104  1  0.23750952  0.40069340  0.81991900  1.0
  C  C105  1  0.08054184  0.00863869  0.24211341  1.0
  C  C106  1  0.75526475  0.31463964  0.99746244  1.0
  C  C107  1  0.71149662  0.35857634  0.62488597  1.0
  C  C108  1  0.47296857  0.39207346  0.81044742  1.0
  C  C109  1  0.91938822  0.99113698  0.24219158  1.0
  C  C110  1  0.35966818  0.23792273  0.26662765  1.0
  C  C111  1  0.93008164  0.71172666  0.62503888  1.0
  C  C112  1  0.01998536  0.81495104  0.23884541  1.0
  C  C113  1  0.27309247  0.09828974  0.62529950  1.0
  C  C114  1  0.16326306  0.02318021  0.84003122  1.0
  C  C115  1  0.03121294  0.57474464  0.08334857  1.0
  C  C116  1  0.63738382  0.59967203  0.22078296  1.0
  C  C117  1  0.65155795  0.25458713  0.45636731  1.0
  C  C118  1  0.81352811  0.16337261  0.83993211  1.0
  C  C119  1  0.98960824  0.09011852  0.83597291  1.0
  C  C120  1  0.68437966  0.38110679  0.45745575  1.0
  C  C121  1  0.08940391  0.91933438  0.24224815  1.0
  C  C122  1  0.69603264  0.73325817  0.22105747  1.0
  C  C123  1  0.40057007  0.36189284  0.81987719  1.0
  C  C124  1  0.65075642  0.25807350  0.37726465  1.0
  C  C125  1  0.52684547  0.86645551  0.85893679  1.0
  C  C126  1  0.00869825  0.91068261  0.24215641  1.0
  C  C127  1  0.25812433  0.09100040  0.37739843  1.0
  C  C128  1  0.02314302  0.81366958  0.84016350  1.0
  C  C129  1  0.09132063  0.65036586  0.37734099  1.0
  C  C130  1  0.00380768  0.58718909  0.99853449  1.0
  C  C131  1  0.31725517  0.01422796  0.49906238  1.0
  C  C132  1  0.62994202  0.27458184  0.70421714  1.0
  C  C133  1  0.69387693  0.73501305  0.85312373  1.0
  C  C134  1  0.91001235  0.07973747  0.83610615  1.0
  C  C135  1  0.22858888  0.08927683  0.08330913  1.0
  C  C136  1  0.86699097  0.60327313  0.21427957  1.0
  C  C137  1  0.86637578  0.60690453  0.85890935  1.0
  C  C138  1  0.23813497  0.40212415  0.26660165  1.0
  C  C139  1  0.73492145  0.57130769  0.85301916  1.0
  C  C140  1  0.31630490  0.01422819  0.58332049  1.0
  C  C141  1  0.66844655  0.31718331  0.49889143  1.0
  C  C142  1  0.93452263  0.68456289  0.45760202  1.0
  C  C143  1  0.81499595  0.16492896  0.23868662  1.0
  C  C144  1  0.60678649  0.52696599  0.85873476  1.0
  C  C145  1  0.93198512  0.70930222  0.70417403  1.0
  C  C146  1  0.01447710  0.66841800  0.49902183  1.0
  C  C147  1  0.31457701  0.93012308  0.99756902  1.0
  C  C148  1  0.66039562  0.23974790  0.99635152  1.0
  C  C149  1  0.09565328  0.62997504  0.70435926  1.0
  C  C150  1  0.39409445  0.03103214  0.08346169  1.0
  C  C151  1  0.38019819  0.93558546  0.37857180  1.0
  C  C152  1  0.47604508  0.38831361  0.27291848  1.0
  C  C153  1  0.68206561  0.22867025  0.08310699  1.0
  C  C154  1  0.23958381  0.09989085  0.99652627  1.0
  C  C155  1  0.07964266  0.01035237  0.83610547  1.0
  C  C156  1  0.09850149  0.62858470  0.62533354  1.0
  C  C157  1  0.70898927  0.35920093  0.70400762  1.0
  C  C158  1  0.99117245  0.08934220  0.24218108  1.0
  C  C159  1  0.27450593  0.09552753  0.70431883  1.0
  C  C160  1  0.58701164  0.40907457  0.99840425  1.0
  C  C161  1  0.57473644  0.39414815  0.08326339  1.0
  C  C162  1  0.16499664  0.01990581  0.23882033  1.0
  C  C163  1  0.35854829  0.92989598  0.62512603  1.0
  C  C164  1  0.25463209  0.09369698  0.45649821  1.0
  C  C165  1  0.09403717  0.65124984  0.45644910  1.0
  C  C166  1  0.01444137  0.66948439  0.58327932  1.0
  C  C167  1  0.68412521  0.38012133  0.37837055  1.0
  C  C168  1  0.30473752  0.42929084  0.82045607  1.0
  C  C169  1  0.93572956  0.68427407  0.37851168  1.0
  C  C170  1  0.57118788  0.69399085  0.85298454  1.0
  C  C171  1  0.62863674  0.27304537  0.62519014  1.0
  C  C172  1  0.74266312  0.33630877  0.08379951  1.0
  C  C173  1  0.91074342  0.08047366  0.24208309  1.0
  C  C174  1  0.01027029  0.91012996  0.83627425  1.0
  C  C175  1  0.60335064  0.52968428  0.21424131  1.0
  C  C176  1  0.92098779  0.74261149  0.08390318  1.0
  C  C177  1  0.38121785  0.93435679  0.45765833  1.0
  C  C178  1  0.73337588  0.57059533  0.22095498  1.0
  C  C179  1  0.59974796  0.76286765  0.22087342  1.0
  C  C180  1  0.63945307  0.59820472  0.85313033  1.0
  C  C181  1  0.26434927  0.30683747  0.26618852  1.0
  C  C182  1  0.76295301  0.63728708  0.22078556  1.0
  C  C183  1  0.33616945  0.92103016  0.08393121  1.0
  C  C184  1  0.26593938  0.30486947  0.82049595  1.0
  C  C185  1  0.13557325  0.47588529  0.27295125  1.0
  N  N186  1  0.31845213  0.01367862  0.74278122  1.0
  N  N187  1  0.32086473  0.01135496  0.96659611  1.0
  N  N188  1  0.01377321  0.66796800  0.74276741  1.0
  N  N189  1  0.31970867  0.01286513  0.33939141  1.0
  N  N190  1  0.31945458  0.01315277  0.11452973  1.0
  N  N191  1  0.66726480  0.31952376  0.11437496  1.0
  N  N192  1  0.66771818  0.32100700  0.96643022  1.0
  N  N193  1  0.66730870  0.31963939  0.33922747  1.0
  N  N194  1  0.66784077  0.31857157  0.74260265  1.0
  N  N195  1  0.01311779  0.66711028  0.33933475  1.0
  N  N196  1  0.01320546  0.66725082  0.11453015  1.0
  N  N197  1  0.01134255  0.66781015  0.96657456  1.0
  O  O198  1  0.46432945  0.44948726  0.76150477  1.0
  O  O199  1  0.15440951  0.10410894  0.83933280  1.0
  O  O200  1  0.80735819  0.24737362  0.23340871  1.0
  O  O201  1  0.33731020  0.11583343  0.22622405  1.0
  O  O202  1  0.15684813  0.10063874  0.23886598  1.0
  O  O203  1  0.44282546  0.88742718  0.22738573  1.0
  O  O204  1  0.11603103  0.54659873  0.22620227  1.0
  O  O205  1  0.52078372  0.55646426  0.19539084  1.0
  O  O206  1  0.11161585  0.54410648  0.85803483  1.0
  O  O207  1  0.46827755  0.44907824  0.31812306  1.0
  O  O208  1  0.44931874  0.08623960  0.76171667  1.0
  O  O209  1  0.43938989  0.88455642  0.85285239  1.0
  O  O210  1  0.08250035  0.46809485  0.31805554  1.0
  O  O211  1  0.54401667  0.34443231  0.85786686  1.0
  O  O212  1  0.08605494  0.46459250  0.76170311  1.0
  O  O213  1  0.24568574  0.94846762  0.84687625  1.0
  O  O214  1  0.66965232  0.44277604  0.22724326  1.0
  O  O215  1  0.34420971  0.11175209  0.85803428  1.0
  O  O216  1  0.80578564  0.24580573  0.84672369  1.0
  O  O217  1  0.67615027  0.43952043  0.85265380  1.0
  O  O218  1  0.54669388  0.33729135  0.22607832  1.0
  O  O219  1  0.74241227  0.15675961  0.23869161  1.0
  O  O220  1  0.44917075  0.08238937  0.31824264  1.0
  O  O221  1  0.92278527  0.52076928  0.19531865  1.0
  O  O222  1  0.10411348  0.74161560  0.83942014  1.0
  O  O223  1  0.88447170  0.67623346  0.85274597  1.0
  O  O224  1  0.92441659  0.52315897  0.87102353  1.0
  O  O225  1  0.55257917  0.92445623  0.87105876  1.0
  O  O226  1  0.88756906  0.66956803  0.22739470  1.0
  O  O227  1  0.10074906  0.74237687  0.23891458  1.0
  O  O228  1  0.55648117  0.92269817  0.19561820  1.0
  O  O229  1  0.74147120  0.15448619  0.83917888  1.0
  O  O230  1  0.94518401  0.80729443  0.23356923  1.0
  O  O231  1  0.24746683  0.94508512  0.23358504  1.0
  O  O232  1  0.52302553  0.55267549  0.87080235  1.0
  O  O233  1  0.94847932  0.80587756  0.84692829  1.0
