# generated using pymatgen
data_ZnH15C27NO6
_symmetry_space_group_name_H-M   'P 1'
_cell_length_a   14.64347423
_cell_length_b   15.66020775
_cell_length_c   17.45187740
_cell_angle_alpha   90.08841046
_cell_angle_beta   101.36822258
_cell_angle_gamma   98.77165978
_symmetry_Int_Tables_number   1
_chemical_formula_structural   ZnH15C27NO6
_chemical_formula_sum   'Zn2 H30 C54 N2 O12'
_cell_volume   3875.59088287
_cell_formula_units_Z   2
loop_
 _symmetry_equiv_pos_site_id
 _symmetry_equiv_pos_as_xyz
  1  'x, y, z'
loop_
 _atom_site_type_symbol
 _atom_site_label
 _atom_site_symmetry_multiplicity
 _atom_site_fract_x
 _atom_site_fract_y
 _atom_site_fract_z
 _atom_site_occupancy
  Zn  Zn0  1  0.59124344  0.48036073  0.52236067  1.0
  Zn  Zn1  1  0.40797029  0.51696947  0.47996687  1.0
  H  H2  1  0.41624572  0.60089338  0.24533082  1.0
  H  H3  1  0.59846555  0.43269177  0.76703688  1.0
  H  H4  1  0.63628720  0.14577144  0.45778495  1.0
  H  H5  1  0.36749795  0.84886495  0.41549052  1.0
  H  H6  1  0.98621702  0.66692568  0.35794716  1.0
  H  H7  1  0.01249063  0.32957263  0.64195268  1.0
  H  H8  1  0.76652408  0.53486165  0.47638253  1.0
  H  H9  1  0.23358849  0.46639835  0.52866320  1.0
  H  H10  1  0.68299720  0.34968972  0.62632559  1.0
  H  H11  1  0.31502471  0.64371779  0.37151069  1.0
  H  H12  1  0.15386974  0.68758987  0.33770366  1.0
  H  H13  1  0.84439791  0.30633504  0.65993032  1.0
  H  H14  1  0.86398427  0.59294963  0.42213134  1.0
  H  H15  1  0.13538533  0.40549637  0.57955628  1.0
  H  H16  1  0.34405663  0.54315515  0.71468433  1.0
  H  H17  1  0.66105242  0.47515172  0.28574488  1.0
  H  H18  1  0.40299318  0.51761761  0.99123025  1.0
  H  H19  1  0.61955445  0.54561617  0.01745398  1.0
  H  H20  1  0.67112370  0.49015729  0.14515171  1.0
  H  H21  1  0.34474176  0.55600240  0.85733826  1.0
  H  H22  1  0.75595705  0.05007459  0.48002126  1.0
  H  H23  1  0.24772116  0.94434150  0.38926525  1.0
  H  H24  1  0.54113282  0.21973145  0.47341684  1.0
  H  H25  1  0.46082387  0.77721862  0.47061356  1.0
  H  H26  1  0.25047282  0.24924379  0.41994025  1.0
  H  H27  1  0.75137616  0.74756196  0.52513008  1.0
  H  H28  1  0.79896949  0.90533100  0.50649867  1.0
  H  H29  1  0.20393058  0.08986620  0.39285567  1.0
  H  H30  1  0.72418259  0.37441052  0.93035259  1.0
  H  H31  1  0.40687793  0.73262550  0.02806329  1.0
  C  C32  1  0.57150523  0.66146920  0.51226574  1.0
  C  C33  1  0.42956205  0.33615897  0.47048664  1.0
  C  C34  1  0.60233337  0.75485665  0.49885839  1.0
  C  C35  1  0.39947259  0.24202861  0.44907641  1.0
  C  C36  1  0.72459523  0.87703115  0.49782266  1.0
  C  C37  1  0.27811993  0.11850679  0.40992415  1.0
  C  C38  1  0.69885396  0.78999572  0.50826032  1.0
  C  C39  1  0.30328099  0.20639627  0.42504613  1.0
  C  C40  1  0.53400988  0.80723031  0.47640600  1.0
  C  C41  1  0.46823069  0.18919547  0.45431098  1.0
  C  C42  1  0.55794536  0.89616666  0.46474018  1.0
  C  C43  1  0.44497702  0.09938222  0.43871724  1.0
  C  C44  1  0.65576003  0.93209815  0.47769684  1.0
  C  C45  1  0.34729556  0.06312821  0.41783521  1.0
  C  C46  1  0.48736983  0.95222258  0.44460092  1.0
  C  C47  1  0.51586088  0.04298580  0.44757827  1.0
  C  C48  1  0.61419311  0.07632421  0.45982709  1.0
  C  C49  1  0.38930396  0.91857202  0.42221664  1.0
  C  C50  1  0.68132237  0.02305264  0.47228257  1.0
  C  C51  1  0.32214882  0.97169941  0.40753902  1.0
  C  C52  1  0.16846935  0.63821593  0.38044710  1.0
  C  C53  1  0.83021004  0.35733637  0.61884544  1.0
  C  C54  1  0.52328527  0.51740282  0.35580290  1.0
  C  C55  1  0.47946859  0.48955462  0.64739687  1.0
  C  C56  1  0.25702654  0.61496839  0.39856334  1.0
  C  C57  1  0.74165817  0.38056184  0.60108730  1.0
  C  C58  1  0.21069918  0.51410772  0.48676179  1.0
  C  C59  1  0.78890625  0.48509924  0.51618684  1.0
  C  C60  1  0.11766866  0.53246158  0.47212967  1.0
  C  C61  1  0.88169728  0.46613065  0.52987903  1.0
  C  C62  1  0.09607195  0.59717970  0.41692450  1.0
  C  C63  1  0.90297156  0.40007810  0.58374233  1.0
  C  C64  1  0.04567929  0.48834906  0.51022722  1.0
  C  C65  1  0.95377313  0.51060541  0.49204845  1.0
  C  C66  1  0.93465301  0.57591553  0.43657624  1.0
  C  C67  1  0.06473967  0.42253736  0.56517652  1.0
  C  C68  1  0.00279287  0.61763276  0.40033467  1.0
  C  C69  1  0.99626299  0.37974989  0.60042908  1.0
  C  C70  1  0.53551157  0.53358402  0.27358894  1.0
  C  C71  1  0.47365390  0.49042772  0.73223911  1.0
  C  C72  1  0.47202585  0.57621429  0.22327866  1.0
  C  C73  1  0.54339172  0.46031124  0.78743457  1.0
  C  C74  1  0.47939317  0.58906963  0.14533336  1.0
  C  C75  1  0.54198148  0.46253171  0.86732196  1.0
  C  C76  1  0.54900798  0.55357128  0.11503248  1.0
  C  C77  1  0.47211090  0.50176775  0.89405191  1.0
  C  C78  1  0.61633839  0.51618206  0.16782173  1.0
  C  C79  1  0.40010144  0.52794991  0.83736086  1.0
  C  C80  1  0.61019754  0.50640860  0.24582487  1.0
  C  C81  1  0.39985059  0.52179675  0.75779462  1.0
  C  C82  1  0.55001871  0.54307480  0.03212279  1.0
  C  C83  1  0.47236934  0.52038189  0.97606276  1.0
  C  C84  1  0.60690744  0.41312324  0.91969340  1.0
  C  C85  1  0.41444343  0.64475737  0.10142909  1.0
  N  N86  1  0.27725766  0.55349342  0.45141748  1.0
  N  N87  1  0.72208294  0.44423897  0.55048731  1.0
  O  O88  1  0.63428675  0.61204429  0.52307763  1.0
  O  O89  1  0.36788696  0.38633319  0.45537593  1.0
  O  O90  1  0.48401530  0.63772853  0.51099988  1.0
  O  O91  1  0.51593404  0.35906138  0.50273516  1.0
  O  O92  1  0.58844840  0.48667378  0.40154732  1.0
  O  O93  1  0.40476881  0.49646147  0.59765515  1.0
  O  O94  1  0.44770808  0.53543162  0.37331553  1.0
  O  O95  1  0.55980148  0.48316367  0.63220093  1.0
  O  O96  1  0.58923278  0.37201304  0.97584294  1.0
  O  O97  1  0.69068133  0.41353063  0.89553213  1.0
  O  O98  1  0.33487932  0.64850241  0.11197194  1.0
  O  O99  1  0.45455225  0.69724996  0.05067553  1.0
