# generated using pymatgen
data_MgH7C13N2O3
_symmetry_space_group_name_H-M   'P 1'
_cell_length_a   6.88150251
_cell_length_b   41.87853351
_cell_length_c   41.88596070
_cell_angle_alpha   119.70545038
_cell_angle_beta   93.14599316
_cell_angle_gamma   93.12332114
_symmetry_Int_Tables_number   1
_chemical_formula_structural   MgH7C13N2O3
_chemical_formula_sum   'Mg6 H42 C78 N12 O18'
_cell_volume   10422.34715697
_cell_formula_units_Z   6
loop_
 _symmetry_equiv_pos_site_id
 _symmetry_equiv_pos_as_xyz
  1  'x, y, z'
loop_
 _atom_site_type_symbol
 _atom_site_label
 _atom_site_symmetry_multiplicity
 _atom_site_fract_x
 _atom_site_fract_y
 _atom_site_fract_z
 _atom_site_occupancy
  Mg  Mg0  1  0.62148181  0.63901594  0.32737199  1.0
  Mg  Mg1  1  0.29404087  0.67261162  0.31162431  1.0
  Mg  Mg2  1  0.98231011  0.68838253  0.36095441  1.0
  Mg  Mg3  1  0.36929973  0.35936303  0.66849487  1.0
  Mg  Mg4  1  0.70089413  0.33152695  0.69089883  1.0
  Mg  Mg5  1  0.01003140  0.30911642  0.64064474  1.0
  H  H6  1  0.03171887  0.39440679  0.79407082  1.0
  H  H7  1  0.23799651  0.20593377  0.60033911  1.0
  H  H8  1  0.63734615  0.39973680  0.60568883  1.0
  H  H9  1  0.46254871  0.45620301  0.94824472  1.0
  H  H10  1  0.51402845  0.05165700  0.50792345  1.0
  H  H11  1  0.00603995  0.49206188  0.54381035  1.0
  H  H12  1  0.29765827  0.48542896  0.00593328  1.0
  H  H13  1  0.29132392  0.99401301  0.47950855  1.0
  H  H14  1  0.81186444  0.52046923  0.51452192  1.0
  H  H15  1  0.84646929  0.51386406  0.95102819  1.0
  H  H16  1  0.89546196  0.04902306  0.56288379  1.0
  H  H17  1  0.33273251  0.43706796  0.48608077  1.0
  H  H18  1  0.00517015  0.48191499  0.89301054  1.0
  H  H19  1  0.11223846  0.10703130  0.58888416  1.0
  H  H20  1  0.52342442  0.41106080  0.51808948  1.0
  H  H21  1  0.22405537  0.53108095  0.05423851  1.0
  H  H22  1  0.16932481  0.94575754  0.47683111  1.0
  H  H23  1  0.69284005  0.52314011  0.46890557  1.0
  H  H24  1  0.06003451  0.56037509  0.11150429  1.0
  H  H25  1  0.94817721  0.88848264  0.44884110  1.0
  H  H26  1  0.49952646  0.55113634  0.43962397  1.0
  H  H27  1  0.51337501  0.54485963  0.04868043  1.0
  H  H28  1  0.46445418  0.95128815  0.49628411  1.0
  H  H29  1  0.96848259  0.50372768  0.45501353  1.0
  H  H30  1  0.67351728  0.51478852  0.99079828  1.0
  H  H31  1  0.68226719  0.00919573  0.52406503  1.0
  H  H32  1  0.15861839  0.47591027  0.48508032  1.0
  H  H33  1  0.38665442  0.57887516  0.15580241  1.0
  H  H34  1  0.23072516  0.84422648  0.42300858  1.0
  H  H35  1  0.80814928  0.57700140  0.42116277  1.0
  H  H36  1  0.26394071  0.60127682  0.21779757  1.0
  H  H37  1  0.04579027  0.78223558  0.38347956  1.0
  H  H38  1  0.66283460  0.61659915  0.39876743  1.0
  H  H39  1  0.96773115  0.62321879  0.20806006  1.0
  H  H40  1  0.75934466  0.79190541  0.41516605  1.0
  H  H41  1  0.34458146  0.58483258  0.37670317  1.0
  H  H42  1  0.61863269  0.43871475  0.84264692  1.0
  H  H43  1  0.77642278  0.15734338  0.59608456  1.0
  H  H44  1  0.17974773  0.40393482  0.56129753  1.0
  H  H45  1  0.73506840  0.40958934  0.77956804  1.0
  H  H46  1  0.95583963  0.22042869  0.63004363  1.0
  H  H47  1  0.32557000  0.37002165  0.59045787  1.0
  C  C48  1  0.09959920  0.35748327  0.72422159  1.0
  C  C49  1  0.37552444  0.27578444  0.63329033  1.0
  C  C50  1  0.74206850  0.36673022  0.64252947  1.0
  C  C51  1  0.24832076  0.38053533  0.75517659  1.0
  C  C52  1  0.49341140  0.24482124  0.62536207  1.0
  C  C53  1  0.86787321  0.37470453  0.61953978  1.0
  C  C54  1  0.18597721  0.39785233  0.79072080  1.0
  C  C55  1  0.39558952  0.20927177  0.60712804  1.0
  C  C56  1  0.78818419  0.39294725  0.60223688  1.0
  C  C57  1  0.31517076  0.41894145  0.82216383  1.0
  C  C58  1  0.49336122  0.17781955  0.59676589  1.0
  C  C59  1  0.89624235  0.40329131  0.58114071  1.0
  C  C60  1  0.24277510  0.46686419  0.91703269  1.0
  C  C61  1  0.32562294  0.08295154  0.54979855  1.0
  C  C62  1  0.77581812  0.45016847  0.53314891  1.0
  C  C63  1  0.32722320  0.46898881  0.94935974  1.0
  C  C64  1  0.37757896  0.05058619  0.51960557  1.0
  C  C65  1  0.85802746  0.48036828  0.53100748  1.0
  C  C66  1  0.23440994  0.48569695  0.98164965  1.0
  C  C67  1  0.25241733  0.01831385  0.50405250  1.0
  C  C68  1  0.74850534  0.49591460  0.51426332  1.0
  C  C69  1  0.05882332  0.50209992  0.98321651  1.0
  C  C70  1  0.07529703  0.01678143  0.51890198  1.0
  C  C71  1  0.55662078  0.48104577  0.49783810  1.0
  C  C72  1  0.97888555  0.50055695  0.95062446  1.0
  C  C73  1  0.02815503  0.04940400  0.54995140  1.0
  C  C74  1  0.47834596  0.44999783  0.49939459  1.0
  C  C75  1  0.06748348  0.48302168  0.91804991  1.0
  C  C76  1  0.14936038  0.08196835  0.56495731  1.0
  C  C77  1  0.58448285  0.43499144  0.51696729  1.0
  C  C78  1  0.96227704  0.52039889  0.01763615  1.0
  C  C79  1  0.94421788  0.98236456  0.50279238  1.0
  C  C80  1  0.44175582  0.49716336  0.47952105  1.0
  C  C81  1  0.06764579  0.53364710  0.05244463  1.0
  C  C82  1  0.01474694  0.94754720  0.48119716  1.0
  C  C83  1  0.53388433  0.51876093  0.46631027  1.0
  C  C84  1  0.97742282  0.55031669  0.08485005  1.0
  C  C85  1  0.89218621  0.91513939  0.46546053  1.0
  C  C86  1  0.42702239  0.53450766  0.44964879  1.0
  C  C87  1  0.77568971  0.55436772  0.08376542  1.0
  C  C88  1  0.69160401  0.91622713  0.47063325  1.0
  C  C89  1  0.22126037  0.52934822  0.44556246  1.0
  C  C90  1  0.66920206  0.54149297  0.04943520  1.0
  C  C91  1  0.61944176  0.95055612  0.49213349  1.0
  C  C92  1  0.12762612  0.50785702  0.45839491  1.0
  C  C93  1  0.76097605  0.52500192  0.01704308  1.0
  C  C94  1  0.74355321  0.98295385  0.50802443  1.0
  C  C95  1  0.23586731  0.49194843  0.47488156  1.0
  C  C96  1  0.68758064  0.59918447  0.17802467  1.0
  C  C97  1  0.50926644  0.82195908  0.42112843  1.0
  C  C98  1  0.08861099  0.57889043  0.40081959  1.0
  C  C99  1  0.48613590  0.59354394  0.18095291  1.0
  C  C100  1  0.30491663  0.81905946  0.41255524  1.0
  C  C101  1  0.89286749  0.58749388  0.40650058  1.0
  C  C102  1  0.41844578  0.60591750  0.21527087  1.0
  C  C103  1  0.20283608  0.78474487  0.39063148  1.0
  C  C104  1  0.81274929  0.60944653  0.39414095  1.0
  C  C105  1  0.54558471  0.62418190  0.24840251  1.0
  C  C106  1  0.29681033  0.75159898  0.37577441  1.0
  C  C107  1  0.92150258  0.62430524  0.37586056  1.0
  C  C108  1  0.74832879  0.63099190  0.24532585  1.0
  C  C109  1  0.50265565  0.75465372  0.38566282  1.0
  C  C110  1  0.11744155  0.61439950  0.36902739  1.0
  C  C111  1  0.81331943  0.61827738  0.21029228  1.0
  C  C112  1  0.60271606  0.78968551  0.40798034  1.0
  C  C113  1  0.19518713  0.59205892  0.38171804  1.0
  C  C114  1  0.89562504  0.65076000  0.27729978  1.0
  C  C115  1  0.61808971  0.72268637  0.37344927  1.0
  C  C116  1  0.24486356  0.62655540  0.34920873  1.0
  C  C117  1  0.51652434  0.42256780  0.81805899  1.0
  C  C118  1  0.69882859  0.18193119  0.60451368  1.0
  C  C119  1  0.09394935  0.39553774  0.57749345  1.0
  C  C120  1  0.58089675  0.40634455  0.78316179  1.0
  C  C121  1  0.79807681  0.21683552  0.62319168  1.0
  C  C122  1  0.17464230  0.37687803  0.59372796  1.0
  C  C123  1  0.45089712  0.38553135  0.75069619  1.0
  C  C124  1  0.70050705  0.24930917  0.63483979  1.0
  C  C125  1  0.06549273  0.36522783  0.61454741  1.0
  N  N126  1  0.22712966  0.43541416  0.85541548  1.0
  N  N127  1  0.37200554  0.14457787  0.57998484  1.0
  N  N128  1  0.79166220  0.42004979  0.56465268  1.0
  N  N129  1  0.34096601  0.44873871  0.88487689  1.0
  N  N130  1  0.45618629  0.11509372  0.56382457  1.0
  N  N131  1  0.89216155  0.43616781  0.55131395  1.0
  N  N132  1  0.67061636  0.56942400  0.11529130  1.0
  N  N133  1  0.55502037  0.88469878  0.45415898  1.0
  N  N134  1  0.10121046  0.54585659  0.43051962  1.0
  N  N135  1  0.78018739  0.58620574  0.14541777  1.0
  N  N136  1  0.63452717  0.85456517  0.44076386  1.0
  N  N137  1  0.19411914  0.55920872  0.41375706  1.0
  O  O138  1  0.06933830  0.65932082  0.27335374  1.0
  O  O139  1  0.79579687  0.72665359  0.38593306  1.0
  O  O140  1  0.41001574  0.61403030  0.34064132  1.0
  O  O141  1  0.84432144  0.65883191  0.30955044  1.0
  O  O142  1  0.53462363  0.69042343  0.34927299  1.0
  O  O143  1  0.18539402  0.65071271  0.34110952  1.0
  O  O144  1  0.47253572  0.63383394  0.28060570  1.0
  O  O145  1  0.19164378  0.71938599  0.35319925  1.0
  O  O146  1  0.83867638  0.64684525  0.36619531  1.0
  O  O147  1  0.92702150  0.35039866  0.72992924  1.0
  O  O148  1  0.19721823  0.27007308  0.62051666  1.0
  O  O149  1  0.57641021  0.37947602  0.64955882  1.0
  O  O150  1  0.14875903  0.34468598  0.69093987  1.0
  O  O151  1  0.45794136  0.30907671  0.65378879  1.0
  O  O152  1  0.80405666  0.34623305  0.65531890  1.0
  O  O153  1  0.52138659  0.37184514  0.71770630  1.0
  O  O154  1  0.80390855  0.28230741  0.65414445  1.0
  O  O155  1  0.14963272  0.34589956  0.62821209  1.0
