# generated using pymatgen
data_Zn4H18(C13O6)3
_symmetry_space_group_name_H-M   'P 1'
_cell_length_a   18.12334812
_cell_length_b   18.29819208
_cell_length_c   22.19193858
_cell_angle_alpha   114.00564879
_cell_angle_beta   113.94325961
_cell_angle_gamma   90.01697869
_symmetry_Int_Tables_number   1
_chemical_formula_structural   Zn4H18(C13O6)3
_chemical_formula_sum   'Zn8 H36 C78 O36'
_cell_volume   6022.54814564
_cell_formula_units_Z   2
loop_
 _symmetry_equiv_pos_site_id
 _symmetry_equiv_pos_as_xyz
  1  'x, y, z'
loop_
 _atom_site_type_symbol
 _atom_site_label
 _atom_site_symmetry_multiplicity
 _atom_site_fract_x
 _atom_site_fract_y
 _atom_site_fract_z
 _atom_site_occupancy
  Zn  Zn0  1  0.30466894  0.21893766  0.43586287  1.0
  Zn  Zn1  1  0.69532952  0.78106144  0.56413632  1.0
  Zn  Zn2  1  0.28348702  0.19456535  0.56322810  1.0
  Zn  Zn3  1  0.71651303  0.80543497  0.43677293  1.0
  Zn  Zn4  1  0.12985760  0.21745859  0.43698842  1.0
  Zn  Zn5  1  0.87014183  0.78254112  0.56301126  1.0
  Zn  Zn6  1  0.27948169  0.36896297  0.56161707  1.0
  Zn  Zn7  1  0.72051977  0.63103857  0.43838319  1.0
  H  H8  1  0.59113051  0.42574687  0.95266318  1.0
  H  H9  1  0.48582132  0.68771699  0.00410697  1.0
  H  H10  1  0.09374900  0.83766404  0.44717449  1.0
  H  H11  1  0.90625173  0.16233567  0.55282589  1.0
  H  H12  1  0.14028905  0.00424495  0.58567490  1.0
  H  H13  1  0.85971168  0.99575476  0.41432548  1.0
  H  H14  1  0.00921668  0.04741373  0.62341289  1.0
  H  H15  1  0.99078417  0.95258659  0.37658773  1.0
  H  H16  1  0.61810743  0.13539009  0.68244734  1.0
  H  H17  1  0.38189517  0.86461268  0.31755431  1.0
  H  H18  1  0.51581463  0.95848587  0.59627206  1.0
  H  H19  1  0.40886910  0.57425345  0.04733740  1.0
  H  H20  1  0.48418764  0.04151567  0.40372780  1.0
  H  H21  1  0.33914534  0.59647487  0.44841278  1.0
  H  H22  1  0.66085346  0.40352545  0.55158821  1.0
  H  H23  1  0.50574340  0.63933024  0.58618289  1.0
  H  H24  1  0.49425595  0.36067130  0.41381708  1.0
  H  H25  1  0.96278342  0.13324848  0.04828647  1.0
  H  H26  1  0.03721626  0.86675245  0.95171371  1.0
  H  H27  1  0.04134649  0.08639831  0.95435617  1.0
  H  H28  1  0.95865347  0.91360201  0.04564356  1.0
  H  H29  1  0.85027921  0.98099268  0.95740024  1.0
  H  H30  1  0.63450621  0.06603043  0.52730795  1.0
  H  H31  1  0.14971807  0.01900703  0.04259850  1.0
  H  H32  1  0.89694566  0.46825684  0.53543784  1.0
  H  H33  1  0.10305492  0.53174409  0.46456323  1.0
  H  H34  1  0.07124060  0.50399521  0.62194809  1.0
  H  H35  1  0.92875940  0.49600511  0.37805229  1.0
  H  H36  1  0.08162113  0.63813694  0.58964321  1.0
  H  H37  1  0.91837893  0.36186338  0.41035782  1.0
  H  H38  1  0.36549562  0.93397050  0.47269316  1.0
  H  H39  1  0.45403343  0.49176279  0.37711345  1.0
  H  H40  1  0.54596726  0.50823692  0.62288628  1.0
  H  H41  1  0.65070327  0.61013527  0.99852325  1.0
  H  H42  1  0.34929746  0.38986444  0.00147713  1.0
  H  H43  1  0.51418047  0.31228394  0.99589349  1.0
  C  C44  1  0.35361204  0.34768654  0.69856533  1.0
  C  C45  1  0.88883655  0.89357245  0.77937523  1.0
  C  C46  1  0.08295776  0.01022123  0.02302533  1.0
  C  C47  1  0.91704049  0.98977909  0.97697390  1.0
  C  C48  1  0.03950850  0.03650478  0.07568160  1.0
  C  C49  1  0.96049003  0.96349493  0.92431719  1.0
  C  C50  1  0.07835869  0.07397031  0.15349973  1.0
  C  C51  1  0.92164129  0.92602940  0.84650170  1.0
  C  C52  1  0.03894721  0.50315643  0.56792003  1.0
  C  C53  1  0.96105187  0.49684328  0.43208050  1.0
  C  C54  1  0.94333846  0.48134399  0.51958255  1.0
  C  C55  1  0.64638829  0.65231317  0.30143525  1.0
  C  C56  1  0.05666154  0.51865634  0.48041783  1.0
  C  C57  1  0.95068277  0.55588887  0.50222972  1.0
  C  C58  1  0.04931784  0.44411023  0.49777041  1.0
  C  C59  1  0.15039776  0.14609405  0.29981496  1.0
  C  C60  1  0.84960094  0.85390627  0.70018472  1.0
  C  C61  1  0.04596195  0.57651261  0.54995308  1.0
  C  C62  1  0.95403725  0.42348771  0.45004771  1.0
  C  C63  1  0.57045545  0.55304817  0.02572190  1.0
  C  C64  1  0.42954232  0.44695155  0.97427794  1.0
  C  C65  1  0.54971984  0.45881654  0.97339969  1.0
  C  C66  1  0.50316246  0.57730355  0.54795854  1.0
  C  C67  1  0.45027879  0.54118317  0.02660040  1.0
  C  C68  1  0.39307325  0.38790498  0.77803743  1.0
  C  C69  1  0.60692801  0.61209534  0.22196299  1.0
  C  C70  1  0.47995413  0.55752117  0.97484800  1.0
  C  C71  1  0.52004572  0.44248038  0.02515307  1.0
  C  C72  1  0.46036552  0.46300464  0.92280535  1.0
  C  C73  1  0.53963271  0.53699507  0.07719494  1.0
  C  C74  1  0.42286179  0.42324530  0.84485339  1.0
  C  C75  1  0.57713684  0.57675441  0.15514670  1.0
  C  C76  1  0.07786582  0.00235418  0.54765590  1.0
  C  C77  1  0.49683702  0.42269616  0.45204180  1.0
  C  C78  1  0.92213492  0.99764553  0.45234447  1.0
  C  C79  1  0.01647012  0.92343852  0.47822694  1.0
  C  C80  1  0.98353086  0.07656241  0.52177393  1.0
  C  C81  1  0.94376715  0.94899067  0.49877401  1.0
  C  C82  1  0.05623339  0.05100782  0.50122653  1.0
  C  C83  1  0.38900993  0.11033943  0.49664436  1.0
  C  C84  1  0.61099060  0.88966151  0.50335606  1.0
  C  C85  1  0.00567235  0.02600055  0.56840695  1.0
  C  C86  1  0.99432798  0.97399916  0.43159363  1.0
  C  C87  1  0.52913119  0.06733988  0.56618734  1.0
  C  C88  1  0.02350788  0.04847475  0.97551874  1.0
  C  C89  1  0.47086941  0.93266166  0.43381268  1.0
  C  C90  1  0.57404504  0.03640439  0.51439726  1.0
  C  C91  1  0.42595597  0.96359716  0.48560255  1.0
  C  C92  1  0.55327643  0.94745479  0.50340290  1.0
  C  C93  1  0.44672665  0.05254431  0.49659667  1.0
  C  C94  1  0.50855139  0.97696167  0.55346197  1.0
  C  C95  1  0.49144921  0.02303987  0.44653805  1.0
  C  C96  1  0.10689670  0.38672452  0.49830808  1.0
  C  C97  1  0.89310313  0.61327519  0.50169140  1.0
  C  C98  1  0.11418607  0.10839953  0.50094787  1.0
  C  C99  1  0.97649163  0.95152557  0.02448054  1.0
  C  C100  1  0.88581339  0.89159835  0.49905087  1.0
  C  C101  1  0.38851188  0.38757938  0.49769205  1.0
  C  C102  1  0.61148699  0.61242155  0.50230853  1.0
  C  C103  1  0.42321107  0.51758350  0.47817014  1.0
  C  C104  1  0.57678841  0.48241621  0.52183019  1.0
  C  C105  1  0.47477705  0.49483013  0.43186994  1.0
  C  C106  1  0.52522186  0.50516897  0.56812970  1.0
  C  C107  1  0.55277131  0.55512871  0.50192991  1.0
  C  C108  1  0.44723031  0.44487344  0.49807125  1.0
  C  C109  1  0.64602763  0.60794382  0.04667434  1.0
  C  C110  1  0.97871199  0.07364333  0.02592272  1.0
  C  C111  1  0.35397282  0.39205650  0.95332649  1.0
  C  C112  1  0.53861278  0.37385619  0.04479586  1.0
  C  C113  1  0.46138630  0.62614352  0.95520467  1.0
  C  C114  1  0.03379476  0.84044097  0.45086338  1.0
  C  C115  1  0.96620638  0.15955874  0.54913680  1.0
  C  C116  1  0.56526358  0.14175098  0.63709885  1.0
  C  C117  1  0.43473813  0.85824934  0.36290202  1.0
  C  C118  1  0.34019472  0.53628851  0.45057198  1.0
  C  C119  1  0.65980398  0.46371181  0.54942770  1.0
  C  C120  1  0.02128724  0.92635760  0.97407701  1.0
  C  C121  1  0.11116240  0.10642604  0.22062070  1.0
  O  O122  1  0.24974534  0.24993037  0.49990451  1.0
  O  O123  1  0.89657032  0.83149130  0.66881905  1.0
  O  O124  1  0.33147211  0.39402887  0.66718699  1.0
  O  O125  1  0.66852692  0.60597084  0.33281290  1.0
  O  O126  1  0.22890596  0.15500311  0.33100745  1.0
  O  O127  1  0.77109351  0.84499904  0.66899277  1.0
  O  O128  1  0.34901134  0.11344675  0.53319086  1.0
  O  O129  1  0.65098997  0.88655358  0.46681021  1.0
  O  O130  1  0.07614686  0.31090920  0.45565908  1.0
  O  O131  1  0.92385139  0.68909112  0.54434015  1.0
  O  O132  1  0.18767991  0.13020938  0.55195159  1.0
  O  O133  1  0.75025484  0.75007056  0.50009677  1.0
  O  O134  1  0.81232049  0.86978911  0.44804699  1.0
  O  O135  1  0.36657716  0.41705581  0.54919671  1.0
  O  O136  1  0.63342223  0.58294817  0.45080379  1.0
  O  O137  1  0.08426726  0.12896285  0.44868410  1.0
  O  O138  1  0.91573131  0.87103503  0.55131374  1.0
  O  O139  1  0.36717778  0.31467078  0.44670090  1.0
  O  O140  1  0.63282057  0.68532954  0.55329964  1.0
  O  O141  1  0.69972560  0.64730018  0.10931002  1.0
  O  O142  1  0.30027307  0.35270198  0.89069060  1.0
  O  O143  1  0.57693498  0.38107711  0.10711918  1.0
  O  O144  1  0.38436997  0.14973727  0.45977250  1.0
  O  O145  1  0.42306216  0.61892321  0.89288196  1.0
  O  O146  1  0.98774602  0.77827042  0.43202146  1.0
  O  O147  1  0.01225476  0.22172929  0.56797957  1.0
  O  O148  1  0.54244989  0.20681328  0.64730261  1.0
  O  O149  1  0.45755125  0.79318643  0.35269756  1.0
  O  O150  1  0.27630837  0.49104994  0.42993962  1.0
  O  O151  1  0.72369057  0.50894977  0.57005897  1.0
  O  O152  1  0.61563075  0.85026489  0.54022776  1.0
  O  O153  1  0.18301796  0.41888528  0.54194153  1.0
  O  O154  1  0.81698114  0.58111322  0.45805636  1.0
  O  O155  1  0.34488464  0.27006975  0.66838340  1.0
  O  O156  1  0.65511435  0.72992997  0.33161583  1.0
  O  O157  1  0.10342883  0.16850902  0.33118108  1.0
