# generated using pymatgen
data_ZnH20C32N3O4
_symmetry_space_group_name_H-M   'P 1'
_cell_length_a   10.78244081
_cell_length_b   15.88286577
_cell_length_c   16.99422290
_cell_angle_alpha   88.09308205
_cell_angle_beta   89.88898929
_cell_angle_gamma   89.94758375
_symmetry_Int_Tables_number   1
_chemical_formula_structural   ZnH20C32N3O4
_chemical_formula_sum   'Zn2 H40 C64 N6 O8'
_cell_volume   2908.74540166
_cell_formula_units_Z   2
loop_
 _symmetry_equiv_pos_site_id
 _symmetry_equiv_pos_as_xyz
  1  'x, y, z'
loop_
 _atom_site_type_symbol
 _atom_site_label
 _atom_site_symmetry_multiplicity
 _atom_site_fract_x
 _atom_site_fract_y
 _atom_site_fract_z
 _atom_site_occupancy
  Zn  Zn0  1  0.49935258  0.41174248  0.49642769  1.0
  Zn  Zn1  1  0.50086870  0.58817536  0.50356495  1.0
  H  H2  1  0.90254899  0.77917698  0.40526188  1.0
  H  H3  1  0.09773920  0.22080412  0.59482323  1.0
  H  H4  1  0.62844870  0.10937366  0.57044401  1.0
  H  H5  1  0.37183309  0.89057605  0.42953277  1.0
  H  H6  1  0.66233535  0.86840099  0.60333400  1.0
  H  H7  1  0.33782182  0.13151798  0.39671805  1.0
  H  H8  1  0.65240944  0.70966399  0.58984661  1.0
  H  H9  1  0.34777007  0.29026172  0.41018225  1.0
  H  H10  1  0.79878879  0.33347452  0.46093658  1.0
  H  H11  1  0.20152795  0.66644574  0.53909419  1.0
  H  H12  1  0.19685634  0.35819722  0.60281970  1.0
  H  H13  1  0.80341438  0.64179827  0.39723313  1.0
  H  H14  1  0.53820219  0.39654082  0.26348202  1.0
  H  H15  1  0.46144809  0.60363740  0.73619086  1.0
  H  H16  1  0.57679115  0.35127047  0.89897775  1.0
  H  H17  1  0.41967316  0.64852460  0.10108868  1.0
  H  H18  1  0.61377764  0.35415769  0.75251687  1.0
  H  H19  1  0.38423403  0.64559671  0.24768587  1.0
  H  H20  1  0.62668617  0.26837269  0.57646488  1.0
  H  H21  1  0.37362433  0.73155660  0.42347848  1.0
  H  H22  1  0.83679982  0.21949418  0.38548482  1.0
  H  H23  1  0.75959898  0.07809923  0.35251066  1.0
  H  H24  1  0.77985655  0.95757257  0.44978139  1.0
  H  H25  1  0.87304912  0.98131079  0.58114001  1.0
  H  H26  1  0.94626791  0.12308300  0.61500445  1.0
  H  H27  1  0.05390077  0.87693136  0.38510482  1.0
  H  H28  1  0.12704998  0.01870639  0.41898508  1.0
  H  H29  1  0.22042422  0.04240794  0.55030669  1.0
  H  H30  1  0.24080600  0.92184850  0.64752617  1.0
  H  H31  1  0.16362561  0.78046232  0.61455405  1.0
  H  H32  1  0.48013548  0.28572277  0.16662810  1.0
  H  H33  1  0.60105210  0.16395901  0.11964443  1.0
  H  H34  1  0.79278797  0.18816955  0.03969879  1.0
  H  H35  1  0.86261763  0.33523883  0.00810816  1.0
  H  H36  1  0.74153244  0.45628917  0.05532611  1.0
  H  H37  1  0.25615703  0.54465551  0.94381940  1.0
  H  H38  1  0.13576193  0.66600229  0.99090186  1.0
  H  H39  1  0.20681034  0.81289627  0.95966072  1.0
  H  H40  1  0.39897001  0.83651379  0.87995079  1.0
  H  H41  1  0.51921587  0.71442195  0.83308961  1.0
  C  C42  1  0.55684940  0.48639624  0.64864975  1.0
  C  C43  1  0.44289878  0.51351571  0.35138150  1.0
  C  C44  1  0.54395472  0.48097321  0.73638893  1.0
  C  C45  1  0.45509184  0.51901580  0.26362156  1.0
  C  C46  1  0.48993569  0.54963300  0.77308848  1.0
  C  C47  1  0.50910750  0.45049794  0.22670572  1.0
  C  C48  1  0.46578645  0.54910677  0.85387490  1.0
  C  C49  1  0.53247363  0.45109296  0.14583178  1.0
  C  C50  1  0.50191519  0.47632092  0.89890146  1.0
  C  C51  1  0.49539580  0.52368752  0.10089410  1.0
  C  C52  1  0.55263085  0.40622291  0.86195979  1.0
  C  C53  1  0.44451285  0.59361736  0.13799302  1.0
  C  C54  1  0.57425270  0.40831253  0.78127458  1.0
  C  C55  1  0.42378475  0.59152241  0.21879760  1.0
  C  C56  1  0.43638212  0.76519917  0.46166104  1.0
  C  C57  1  0.56386618  0.23473492  0.53832160  1.0
  C  C58  1  0.43658960  0.85232786  0.46434373  1.0
  C  C59  1  0.56364658  0.14760256  0.53565376  1.0
  C  C60  1  0.51918152  0.89016505  0.51604654  1.0
  C  C61  1  0.48103140  0.10976051  0.48397349  1.0
  C  C62  1  0.59853673  0.83958805  0.56254412  1.0
  C  C63  1  0.40163254  0.16033461  0.43749721  1.0
  C  C64  1  0.73503174  0.49575691  0.46283292  1.0
  C  C65  1  0.26522028  0.50419625  0.53718730  1.0
  C  C66  1  0.59332154  0.75272679  0.55546136  1.0
  C  C67  1  0.40687096  0.24720014  0.44456745  1.0
  C  C68  1  0.88643389  0.33831408  0.49161294  1.0
  C  C69  1  0.11386638  0.66165291  0.50843089  1.0
  C  C70  1  0.94517278  0.26641481  0.52026874  1.0
  C  C71  1  0.05510700  0.73355051  0.47980458  1.0
  C  C72  1  0.05516980  0.27579160  0.56562606  1.0
  C  C73  1  0.94512671  0.72418063  0.43445290  1.0
  C  C74  1  0.11108012  0.35283805  0.57008989  1.0
  C  C75  1  0.88920444  0.64713717  0.42994895  1.0
  C  C76  1  0.06052509  0.42701061  0.53188042  1.0
  C  C77  1  0.93973715  0.57293995  0.46812870  1.0
  C  C78  1  0.93727628  0.42067074  0.49906679  1.0
  C  C79  1  0.06300457  0.57930002  0.50096220  1.0
  C  C80  1  0.12585363  0.50464876  0.52768903  1.0
  C  C81  1  0.87438454  0.49531516  0.47232963  1.0
  C  C82  1  0.89671755  0.18195511  0.50270819  1.0
  C  C83  1  0.84292728  0.16752421  0.42892892  1.0
  C  C84  1  0.80028628  0.08773734  0.41025792  1.0
  C  C85  1  0.81091845  0.02033615  0.46479641  1.0
  C  C86  1  0.86330838  0.03370087  0.53843863  1.0
  C  C87  1  0.90568975  0.11353882  0.55720910  1.0
  C  C88  1  0.10358909  0.81800194  0.49736542  1.0
  C  C89  1  0.09453170  0.88645647  0.44289848  1.0
  C  C90  1  0.13690383  0.96629946  0.46166348  1.0
  C  C91  1  0.18936888  0.97965375  0.53528368  1.0
  C  C92  1  0.20008639  0.91224015  0.58978728  1.0
  C  C93  1  0.15744995  0.83244194  0.57111787  1.0
  C  C94  1  0.60195005  0.37920691  0.11373120  1.0
  C  C95  1  0.56447614  0.29627865  0.13208137  1.0
  C  C96  1  0.63241889  0.22796773  0.10542157  1.0
  C  C97  1  0.73960080  0.24148749  0.06050415  1.0
  C  C98  1  0.77863160  0.32393063  0.04274504  1.0
  C  C99  1  0.71062551  0.39209509  0.06918351  1.0
  C  C100  1  0.39663925  0.62125361  0.88579253  1.0
  C  C101  1  0.28763354  0.60875584  0.93009108  1.0
  C  C102  1  0.21998938  0.67709896  0.95644659  1.0
  C  C103  1  0.25967772  0.75944009  0.93885684  1.0
  C  C104  1  0.36711606  0.77259822  0.89410164  1.0
  C  C105  1  0.43472355  0.70407395  0.86753426  1.0
  N  N106  1  0.48890283  0.46680666  0.98141584  1.0
  N  N107  1  0.50808182  0.53322932  0.01839121  1.0
  N  N108  1  0.51289465  0.71662287  0.50645612  1.0
  N  N109  1  0.48734159  0.28331571  0.49353579  1.0
  N  N110  1  0.52380980  0.97797803  0.52769613  1.0
  N  N111  1  0.47643841  0.02195115  0.47231317  1.0
  O  O112  1  0.55990402  0.41758614  0.61179315  1.0
  O  O113  1  0.43967769  0.58227570  0.38831879  1.0
  O  O114  1  0.55893964  0.56018659  0.61722568  1.0
  O  O115  1  0.44146889  0.43970601  0.38275074  1.0
  O  O116  1  0.67688553  0.42698572  0.45323422  1.0
  O  O117  1  0.32340280  0.57291935  0.54701601  1.0
  O  O118  1  0.68066505  0.56618997  0.47154625  1.0
  O  O119  1  0.31949863  0.43378870  0.52823124  1.0
