# generated using pymatgen
data_SmH14(C11O4)2
_symmetry_space_group_name_H-M   'P 1'
_cell_length_a   8.50927568
_cell_length_b   14.23789216
_cell_length_c   15.05111319
_cell_angle_alpha   114.64193707
_cell_angle_beta   106.36261223
_cell_angle_gamma   90.01497901
_symmetry_Int_Tables_number   1
_chemical_formula_structural   SmH14(C11O4)2
_chemical_formula_sum   'Sm2 H28 C44 O16'
_cell_volume   1575.75594351
_cell_formula_units_Z   2
loop_
 _symmetry_equiv_pos_site_id
 _symmetry_equiv_pos_as_xyz
  1  'x, y, z'
loop_
 _atom_site_type_symbol
 _atom_site_label
 _atom_site_symmetry_multiplicity
 _atom_site_fract_x
 _atom_site_fract_y
 _atom_site_fract_z
 _atom_site_occupancy
  Sm  Sm0  1  0.50155738  0.00637659  0.54456450  1.0
  Sm  Sm1  1  0.95723844  0.99344305  0.45575496  1.0
  H  H2  1  0.46393374  0.80319757  0.67172842  1.0
  H  H3  1  0.79253868  0.19626689  0.32790309  1.0
  H  H4  1  0.47887436  0.63722321  0.68941885  1.0
  H  H5  1  0.78994385  0.36212848  0.31002986  1.0
  H  H6  1  0.95209020  0.55469383  0.53980655  1.0
  H  H7  1  0.41317109  0.44517763  0.46033342  1.0
  H  H8  1  0.94076556  0.71999610  0.52292811  1.0
  H  H9  1  0.41848704  0.27995357  0.47730827  1.0
  H  H10  1  0.44076449  0.53387368  0.75479235  1.0
  H  H11  1  0.68725589  0.46603738  0.24504815  1.0
  H  H12  1  0.47828003  0.35747017  0.74465314  1.0
  H  H13  1  0.73440439  0.64250416  0.25515726  1.0
  H  H14  1  0.05237437  0.22527795  0.47502555  1.0
  H  H15  1  0.57826453  0.77443436  0.52515297  1.0
  H  H16  1  0.01861610  0.39922422  0.48111818  1.0
  H  H17  1  0.53852602  0.60049614  0.51900091  1.0
  H  H18  1  0.42471357  0.72100238  0.22772431  1.0
  H  H19  1  0.19618556  0.27905017  0.77182418  1.0
  H  H20  1  0.34817082  0.55585949  0.07035544  1.0
  H  H21  1  0.27729977  0.44462100  0.92870671  1.0
  H  H22  1  0.83355059  0.57312693  0.05190804  1.0
  H  H23  1  0.78154368  0.42822352  0.94814094  1.0
  H  H24  1  0.91541416  0.73484586  0.21411314  1.0
  H  H25  1  0.70099185  0.26609062  0.78629609  1.0
  H  H26  1  0.89253696  0.92188521  0.64967287  1.0
  H  H27  1  0.24289489  0.07791764  0.35047855  1.0
  H  H28  1  0.86974735  0.01300821  0.85187439  1.0
  H  H29  1  0.01857489  0.98677665  0.14817118  1.0
  C  C30  1  0.19756865  0.86747543  0.57745156  1.0
  C  C31  1  0.62077611  0.13246929  0.42292935  1.0
  C  C32  1  0.20203571  0.77154484  0.59530295  1.0
  C  C33  1  0.60731736  0.22820226  0.40472834  1.0
  C  C34  1  0.35270688  0.74804587  0.64372856  1.0
  C  C35  1  0.70938316  0.25148729  0.35596903  1.0
  C  C36  1  0.35976489  0.65534361  0.65387600  1.0
  C  C37  1  0.70640516  0.34417226  0.34576319  1.0
  C  C38  1  0.21702632  0.58234841  0.61465118  1.0
  C  C39  1  0.60315809  0.41732589  0.38517451  1.0
  C  C40  1  0.06565094  0.60818859  0.56881112  1.0
  C  C41  1  0.49754849  0.39161687  0.43114852  1.0
  C  C42  1  0.05818300  0.70158751  0.55982436  1.0
  C  C43  1  0.49906415  0.29829290  0.44028869  1.0
  C  C44  1  0.22918682  0.47988274  0.61708201  1.0
  C  C45  1  0.61304634  0.51984308  0.38279589  1.0
  C  C46  1  0.35640037  0.46638761  0.69234767  1.0
  C  C47  1  0.66506581  0.53347337  0.30750606  1.0
  C  C48  1  0.37669039  0.36794854  0.68803081  1.0
  C  C49  1  0.68939479  0.63194940  0.31179896  1.0
  C  C50  1  0.26946207  0.27966821  0.60896319  1.0
  C  C51  1  0.66112410  0.72016101  0.39096899  1.0
  C  C52  1  0.13779863  0.29283373  0.53640710  1.0
  C  C53  1  0.60222707  0.70690924  0.46364711  1.0
  C  C54  1  0.11841241  0.39136562  0.54041671  1.0
  C  C55  1  0.57891496  0.60835917  0.45959125  1.0
  C  C56  1  0.30676186  0.17420847  0.59908796  1.0
  C  C57  1  0.70810466  0.82568305  0.40090043  1.0
  C  C58  1  0.22140812  0.83476474  0.32998468  1.0
  C  C59  1  0.89096479  0.16529747  0.67039551  1.0
  C  C60  1  0.17529094  0.73757300  0.23151957  1.0
  C  C61  1  0.94315196  0.26299579  0.76841951  1.0
  C  C62  1  0.29563289  0.68711002  0.18908509  1.0
  C  C63  1  0.10586865  0.31336040  0.81047698  1.0
  C  C64  1  0.25072706  0.59442896  0.09951129  1.0
  C  C65  1  0.15075880  0.40616666  0.89993433  1.0
  C  C66  1  0.08403049  0.54980140  0.04757749  1.0
  C  C67  1  0.03621924  0.45106651  0.95208005  1.0
  C  C68  1  0.96431981  0.60317564  0.09029595  1.0
  C  C69  1  0.87382439  0.39787479  0.90965597  1.0
  C  C70  1  0.00860868  0.69474560  0.18090159  1.0
  C  C71  1  0.82735415  0.30610572  0.81924603  1.0
  C  C72  1  0.82927945  0.95361840  0.70875275  1.0
  C  C73  1  0.12073994  0.04606390  0.29136210  1.0
  O  O74  1  0.33409000  0.91078427  0.58444066  1.0
  O  O75  1  0.75043839  0.08932207  0.41618721  1.0
  O  O76  1  0.05827563  0.89917554  0.55497637  1.0
  O  O77  1  0.50388170  0.10078030  0.44544939  1.0
  O  O78  1  0.22710446  0.09216188  0.51651079  1.0
  O  O79  1  0.71075571  0.90765722  0.48353955  1.0
  O  O80  1  0.42663656  0.16549579  0.66637943  1.0
  O  O81  1  0.76071934  0.83453753  0.33360163  1.0
  O  O82  1  0.37368574  0.87180301  0.37602946  1.0
  O  O83  1  0.99708446  0.12805914  0.62425478  1.0
  O  O84  1  0.10452336  0.87567353  0.36298393  1.0
  O  O85  1  0.74137720  0.12409920  0.63803395  1.0
  O  O86  1  0.68197377  0.96394434  0.69180723  1.0
  O  O87  1  0.99037426  0.03551842  0.30829510  1.0
  O  O88  1  0.93285484  0.98131593  0.80363034  1.0
  O  O89  1  0.12971135  0.01856120  0.19650102  1.0
