# generated using pymatgen
data_AlH7C15NCl2O5
_symmetry_space_group_name_H-M   'P 1'
_cell_length_a   6.64485162
_cell_length_b   20.36072859
_cell_length_c   22.08185140
_cell_angle_alpha   89.99909082
_cell_angle_beta   89.99050026
_cell_angle_gamma   95.65340482
_symmetry_Int_Tables_number   1
_chemical_formula_structural   AlH7C15NCl2O5
_chemical_formula_sum   'Al4 H28 C60 N4 Cl8 O20'
_cell_volume   2973.01103864
_cell_formula_units_Z   4
loop_
 _symmetry_equiv_pos_site_id
 _symmetry_equiv_pos_as_xyz
  1  'x, y, z'
loop_
 _atom_site_type_symbol
 _atom_site_label
 _atom_site_symmetry_multiplicity
 _atom_site_fract_x
 _atom_site_fract_y
 _atom_site_fract_z
 _atom_site_occupancy
  Al  Al0  1  0.00419980  0.31410226  0.49756912  1.0
  Al  Al1  1  0.99572896  0.68590978  0.99756831  1.0
  Al  Al2  1  0.50452909  0.31102131  0.49865365  1.0
  Al  Al3  1  0.49539015  0.68896502  0.99865570  1.0
  H  H4  1  0.02196338  0.47656175  0.05426328  1.0
  H  H5  1  0.97749204  0.52348389  0.55419986  1.0
  H  H6  1  0.05178395  0.33968675  0.22666788  1.0
  H  H7  1  0.94795425  0.66034884  0.72663455  1.0
  H  H8  1  0.99402381  0.38353534  0.12878263  1.0
  H  H9  1  0.00560163  0.61650770  0.62873096  1.0
  H  H10  1  0.35754179  0.59943766  0.18416666  1.0
  H  H11  1  0.64245381  0.40055895  0.68423618  1.0
  H  H12  1  0.42590877  0.63048479  0.39406876  1.0
  H  H13  1  0.57490511  0.36947967  0.89412993  1.0
  H  H14  1  0.16857937  0.35345022  0.33180296  1.0
  H  H15  1  0.83132723  0.64657034  0.83180203  1.0
  H  H16  1  0.51147693  0.19039933  0.35606731  1.0
  H  H17  1  0.48855970  0.80954889  0.85609294  1.0
  H  H18  1  0.57719459  0.81539568  0.13961423  1.0
  H  H19  1  0.42263748  0.18458525  0.63962852  1.0
  H  H20  1  0.02937147  0.96258746  0.16374970  1.0
  H  H21  1  0.97045905  0.03740381  0.66371862  1.0
  H  H22  1  0.89683136  0.03475754  0.32858404  1.0
  H  H23  1  0.10309248  0.96525091  0.82852875  1.0
  H  H24  1  0.51371610  0.09823780  0.28077671  1.0
  H  H25  1  0.48619017  0.90170005  0.78079336  1.0
  H  H26  1  0.61398634  0.90726739  0.21604515  1.0
  H  H27  1  0.38580213  0.09270331  0.71604393  1.0
  H  H28  1  0.75890213  0.34475325  0.42540039  1.0
  H  H29  1  0.24107069  0.65526893  0.92540086  1.0
  H  H30  1  0.26446427  0.34147040  0.57166215  1.0
  H  H31  1  0.73541656  0.65854575  0.07167306  1.0
  C  C32  1  0.78490334  0.40128913  0.57234737  1.0
  C  C33  1  0.21482564  0.59871645  0.07234053  1.0
  C  C34  1  0.72671889  0.22103691  0.56742020  1.0
  C  C35  1  0.27316800  0.77896165  0.06741618  1.0
  C  C36  1  0.22092161  0.22294170  0.42643721  1.0
  C  C37  1  0.77911270  0.77705584  0.92644040  1.0
  C  C38  1  0.28859967  0.40479541  0.42681109  1.0
  C  C39  1  0.71139482  0.59520672  0.92682915  1.0
  C  C40  1  0.06653149  0.43205383  0.14132753  1.0
  C  C41  1  0.93317883  0.56797190  0.64128224  1.0
  C  C42  1  0.19415283  0.54285129  0.11631899  1.0
  C  C43  1  0.80558514  0.45715743  0.61632259  1.0
  C  C44  1  0.37391761  0.52580483  0.41066587  1.0
  C  C45  1  0.62660603  0.47416488  0.91071392  1.0
  C  C46  1  0.38488348  0.58213383  0.37416571  1.0
  C  C47  1  0.61575773  0.41783310  0.87422563  1.0
  C  C48  1  0.33857717  0.57701112  0.31294643  1.0
  C  C49  1  0.66199390  0.42295597  0.81299504  1.0
  C  C50  1  0.28026015  0.51520397  0.28430147  1.0
  C  C51  1  0.72005114  0.48478971  0.78434000  1.0
  C  C52  1  0.25932923  0.45884184  0.32412087  1.0
  C  C53  1  0.74085753  0.54114612  0.82415976  1.0
  C  C54  1  0.23113664  0.50473450  0.22032666  1.0
  C  C55  1  0.76897158  0.49527657  0.72034820  1.0
  C  C56  1  0.13730488  0.44161915  0.20138235  1.0
  C  C57  1  0.86264826  0.55840141  0.70137675  1.0
  C  C58  1  0.11772390  0.38770658  0.24285690  1.0
  C  C59  1  0.88222006  0.61231013  0.74285721  1.0
  C  C60  1  0.18214611  0.39545402  0.30107644  1.0
  C  C61  1  0.81780709  0.60455817  0.80108352  1.0
  C  C62  1  0.27052498  0.55279833  0.17446578  1.0
  C  C63  1  0.72934678  0.44721719  0.67449802  1.0
  C  C64  1  0.08514931  0.48273285  0.09968640  1.0
  C  C65  1  0.91449866  0.51728632  0.59965363  1.0
  C  C66  1  0.30932606  0.46451778  0.38655057  1.0
  C  C67  1  0.69088674  0.53547112  0.88658509  1.0
  C  C68  1  0.28370322  0.83637735  0.10984101  1.0
  C  C69  1  0.71614985  0.16361074  0.60983200  1.0
  C  C70  1  0.12966071  0.87921368  0.11616638  1.0
  C  C71  1  0.87019351  0.12077626  0.61614370  1.0
  C  C72  1  0.14770041  0.92954795  0.15896837  1.0
  C  C73  1  0.85210343  0.07042597  0.65893508  1.0
  C  C74  1  0.32046318  0.93860465  0.19571621  1.0
  C  C75  1  0.67936849  0.06137665  0.69570780  1.0
  C  C76  1  0.47848329  0.89847512  0.18822505  1.0
  C  C77  1  0.52133853  0.10148950  0.68821199  1.0
  C  C78  1  0.45753169  0.84763118  0.14609428  1.0
  C  C79  1  0.54229316  0.15234168  0.64608443  1.0
  C  C80  1  0.37978599  0.10489063  0.30764112  1.0
  C  C81  1  0.62014630  0.89507348  0.80764410  1.0
  C  C82  1  0.37765823  0.15583008  0.34911395  1.0
  C  C83  1  0.62235460  0.84414075  0.84912128  1.0
  C  C84  1  0.20399940  0.06124509  0.30026812  1.0
  C  C85  1  0.79588889  0.93873113  0.80024705  1.0
  C  C86  1  0.20593844  0.16506623  0.38444678  1.0
  C  C87  1  0.79407077  0.83492209  0.88444558  1.0
  C  C88  1  0.03209503  0.11990832  0.37734140  1.0
  C  C89  1  0.96788512  0.88010552  0.87732117  1.0
  C  C90  1  0.03117542  0.06930182  0.33473647  1.0
  C  C91  1  0.96874889  0.93070503  0.83469095  1.0
  N  N92  1  0.34690685  0.98870797  0.24022982  1.0
  N  N93  1  0.65291379  0.01125610  0.74021798  1.0
  N  N94  1  0.18266906  0.00852959  0.25849922  1.0
  N  N95  1  0.81716799  0.99145543  0.75846997  1.0
  Cl  Cl96  1  0.81574187  0.12194668  0.42028318  1.0
  Cl  Cl97  1  0.18426426  0.87810247  0.92024900  1.0
  Cl  Cl98  1  0.91760770  0.87408258  0.07042719  1.0
  Cl  Cl99  1  0.08228190  0.12591593  0.57040415  1.0
  Cl  Cl100  1  0.43049763  0.53496554  0.48689539  1.0
  Cl  Cl101  1  0.57000709  0.46499611  0.98693856  1.0
  Cl  Cl102  1  0.34513782  0.65337290  0.27699816  1.0
  Cl  Cl103  1  0.65582145  0.34659798  0.77705259  1.0
  O  O104  1  0.55888392  0.23794856  0.54801784  1.0
  O  O105  1  0.44101714  0.76206773  0.04798936  1.0
  O  O106  1  0.95052100  0.38620379  0.54959116  1.0
  O  O107  1  0.04924480  0.61379121  0.04957656  1.0
  O  O108  1  0.10976503  0.38020772  0.43883530  1.0
  O  O109  1  0.89016068  0.61984781  0.93880835  1.0
  O  O110  1  0.89953410  0.25041286  0.55553599  1.0
  O  O111  1  0.10038502  0.74957043  0.05555237  1.0
  O  O112  1  0.05857615  0.24475158  0.44424486  1.0
  O  O113  1  0.94148056  0.75531178  0.94428148  1.0
  O  O114  1  0.60906318  0.37269272  0.56182817  1.0
  O  O115  1  0.39065962  0.62736374  0.06183659  1.0
  O  O116  1  0.75400091  0.31586109  0.46042420  1.0
  O  O117  1  0.24592966  0.68415367  0.96042553  1.0
  O  O118  1  0.39869002  0.24772607  0.43998515  1.0
  O  O119  1  0.60136055  0.75222651  0.93997580  1.0
  O  O120  1  0.45222806  0.38397149  0.44485003  1.0
  O  O121  1  0.54769502  0.61598934  0.94489407  1.0
  O  O122  1  0.25479188  0.31495001  0.53506522  1.0
  O  O123  1  0.74509472  0.68506790  0.03507549  1.0
