# generated using pymatgen
data_Cu2H15C24I2(NO2)3
_symmetry_space_group_name_H-M   'P 1'
_cell_length_a   7.81373383
_cell_length_b   17.80390566
_cell_length_c   29.44340280
_cell_angle_alpha   84.80456989
_cell_angle_beta   89.99983410
_cell_angle_gamma   89.99974813
_symmetry_Int_Tables_number   1
_chemical_formula_structural   Cu2H15C24I2(NO2)3
_chemical_formula_sum   'Cu8 H60 C96 I8 N12 O24'
_cell_volume   4079.19040792
_cell_formula_units_Z   4
loop_
 _symmetry_equiv_pos_site_id
 _symmetry_equiv_pos_as_xyz
  1  'x, y, z'
loop_
 _atom_site_type_symbol
 _atom_site_label
 _atom_site_symmetry_multiplicity
 _atom_site_fract_x
 _atom_site_fract_y
 _atom_site_fract_z
 _atom_site_occupancy
  Cu  Cu0  1  0.80970339  0.23319116  0.48518990  1.0
  Cu  Cu1  1  0.80970949  0.76680752  0.51480977  1.0
  Cu  Cu2  1  0.69783676  0.34777974  0.52066177  1.0
  Cu  Cu3  1  0.69783417  0.65221914  0.47933797  1.0
  Cu  Cu4  1  0.23274861  0.72980732  0.98641212  1.0
  Cu  Cu5  1  0.23274475  0.27019184  0.01358796  1.0
  Cu  Cu6  1  0.12493419  0.84459156  0.02182344  1.0
  Cu  Cu7  1  0.12493114  0.15540893  0.97817495  1.0
  H  H8  1  0.80525160  0.16535228  0.19913043  1.0
  H  H9  1  0.80524748  0.83465147  0.80087067  1.0
  H  H10  1  0.67829957  0.28971782  0.07147911  1.0
  H  H11  1  0.67829530  0.71027940  0.92852073  1.0
  H  H12  1  0.56696237  0.38481785  0.19854212  1.0
  H  H13  1  0.56696046  0.61518579  0.80145542  1.0
  H  H14  1  0.85436499  0.32028248  0.31560046  1.0
  H  H15  1  0.85436627  0.67972456  0.68440076  1.0
  H  H16  1  0.91290502  0.32492376  0.39856605  1.0
  H  H17  1  0.91291110  0.67508036  0.60143495  1.0
  H  H18  1  0.61496885  0.13472965  0.43256381  1.0
  H  H19  1  0.61496954  0.86527108  0.56743487  1.0
  H  H20  1  0.55589903  0.11846061  0.35085390  1.0
  H  H21  1  0.55589354  0.88154192  0.64914406  1.0
  H  H22  1  0.60620890  0.97313432  0.08053820  1.0
  H  H23  1  0.60621546  0.02686135  0.91946076  1.0
  H  H24  1  0.77402309  0.87195366  0.04678475  1.0
  H  H25  1  0.77402698  0.12804453  0.95321259  1.0
  H  H26  1  0.22433518  0.99553822  0.04976742  1.0
  H  H27  1  0.22434035  0.00446039  0.95023235  1.0
  H  H28  1  0.07582792  0.10106439  0.08387192  1.0
  H  H29  1  0.07583212  0.89893222  0.91613045  1.0
  H  H30  1  0.75498765  0.57797644  0.03409954  1.0
  H  H31  1  0.75498331  0.42202235  0.96589812  1.0
  H  H32  1  0.58537914  0.68682537  0.99902834  1.0
  H  H33  1  0.58537883  0.31317371  0.00097181  1.0
  H  H34  1  0.12671686  0.58696581  0.04168384  1.0
  H  H35  1  0.12670887  0.41302904  0.95831383  1.0
  H  H36  1  0.27778072  0.47491199  0.08060300  1.0
  H  H37  1  0.27777970  0.52507978  0.91939234  1.0
  H  H38  1  0.09589296  0.88269108  0.69594292  1.0
  H  H39  1  0.09589642  0.11730775  0.30405932  1.0
  H  H40  1  0.33192845  0.66232982  0.70134846  1.0
  H  H41  1  0.33191822  0.33767028  0.29865387  1.0
  H  H42  1  0.24690899  0.78824378  0.57146047  1.0
  H  H43  1  0.24690373  0.21175478  0.42854099  1.0
  H  H44  1  0.32577008  0.07801007  0.53556561  1.0
  H  H45  1  0.32577645  0.92199453  0.46443784  1.0
  H  H46  1  0.16237280  0.18858823  0.50033736  1.0
  H  H47  1  0.16237990  0.81141162  0.49966172  1.0
  H  H48  1  0.69710848  0.09035726  0.53846212  1.0
  H  H49  1  0.69711501  0.90964106  0.46153731  1.0
  H  H50  1  0.84135621  0.97624704  0.57701868  1.0
  H  H51  1  0.84135930  0.02375607  0.42298480  1.0
  H  H52  1  0.32751171  0.81791606  0.81923465  1.0
  H  H53  1  0.32751203  0.18208462  0.18076493  1.0
  H  H54  1  0.35433451  0.82254624  0.90309102  1.0
  H  H55  1  0.35432684  0.17745382  0.09690891  1.0
  H  H56  1  0.04315246  0.63430834  0.92925591  1.0
  H  H57  1  0.04314574  0.36568890  0.07074610  1.0
  H  H58  1  0.01277572  0.61872955  0.84632746  1.0
  H  H59  1  0.01277432  0.38127001  0.15367344  1.0
  H  H60  1  0.17289856  0.47121423  0.57928280  1.0
  H  H61  1  0.17289402  0.52878447  0.42071802  1.0
  H  H62  1  0.34539041  0.37307479  0.54423796  1.0
  H  H63  1  0.34538193  0.62692472  0.45576303  1.0
  H  H64  1  0.79238986  0.49773301  0.55198636  1.0
  H  H65  1  0.79238657  0.50226683  0.44801291  1.0
  H  H66  1  0.63867518  0.60050187  0.58739092  1.0
  H  H67  1  0.63866948  0.39949937  0.41260874  1.0
  C  C68  1  0.68570639  0.27446825  0.20382482  1.0
  C  C69  1  0.68570086  0.72553799  0.79617352  1.0
  C  C70  1  0.75154729  0.21567454  0.18095964  1.0
  C  C71  1  0.75154348  0.78432591  0.81904337  1.0
  C  C72  1  0.74698759  0.22325164  0.13355050  1.0
  C  C73  1  0.74697694  0.77674715  0.86644989  1.0
  C  C74  1  0.67881258  0.28616226  0.10856537  1.0
  C  C75  1  0.67881252  0.71383271  0.89143357  1.0
  C  C76  1  0.61421564  0.34338911  0.13290196  1.0
  C  C77  1  0.61420747  0.65660995  0.86709444  1.0
  C  C78  1  0.61689530  0.33902744  0.18030424  1.0
  C  C79  1  0.61689400  0.66097442  0.81969371  1.0
  C  C80  1  0.65784895  0.20924702  0.27843241  1.0
  C  C81  1  0.65784486  0.79075870  0.72156733  1.0
  C  C82  1  0.72984289  0.10147579  0.10832329  1.0
  C  C83  1  0.72985633  0.89852360  0.89167470  1.0
  C  C84  1  0.63404966  0.45559436  0.08301673  1.0
  C  C85  1  0.63404463  0.54440409  0.91698002  1.0
  C  C86  1  0.69936016  0.21852751  0.32668969  1.0
  C  C87  1  0.69936309  0.78147644  0.67331046  1.0
  C  C88  1  0.79951293  0.27781088  0.34033511  1.0
  C  C89  1  0.79951405  0.72219514  0.65966485  1.0
  C  C90  1  0.83223965  0.28077129  0.38655332  1.0
  C  C91  1  0.83224515  0.71923353  0.61344804  1.0
  C  C92  1  0.66983501  0.17334517  0.40557679  1.0
  C  C93  1  0.66983452  0.82665714  0.59442279  1.0
  C  C94  1  0.63554696  0.16485407  0.36014323  1.0
  C  C95  1  0.63554460  0.83514830  0.63985637  1.0
  C  C96  1  0.82888814  0.04435858  0.08567911  1.0
  C  C97  1  0.82889691  0.95563779  0.91432303  1.0
  C  C98  1  0.74315367  0.97956703  0.07453006  1.0
  C  C99  1  0.74315895  0.02043233  0.92546928  1.0
  C  C100  1  0.83555802  0.92364885  0.05566625  1.0
  C  C101  1  0.83556125  0.07635036  0.94433031  1.0
  C  C102  1  0.08786135  0.99230472  0.05766811  1.0
  C  C103  1  0.08786657  0.00769528  0.94233067  1.0
  C  C104  1  0.00433486  0.05122058  0.07638963  1.0
  C  C105  1  0.00434488  0.94877786  0.92361133  1.0
  C  C106  1  0.52984832  0.51771054  0.06042193  1.0
  C  C107  1  0.52984367  0.48228528  0.93957435  1.0
  C  C108  1  0.61594783  0.57768670  0.03639886  1.0
  C  C109  1  0.61594480  0.42231009  0.96359935  1.0
  C  C110  1  0.52195289  0.63776266  0.01633283  1.0
  C  C111  1  0.52194768  0.36223710  0.98366700  1.0
  C  C112  1  0.26591155  0.58218941  0.04072282  1.0
  C  C113  1  0.26590989  0.41780913  0.95927590  1.0
  C  C114  1  0.35058189  0.52026678  0.06237957  1.0
  C  C115  1  0.35058113  0.47972882  0.93761483  1.0
  C  C116  1  0.16374457  0.84170723  0.63138863  1.0
  C  C117  1  0.16374562  0.15829430  0.36861341  1.0
  C  C118  1  0.15147363  0.83694919  0.67870305  1.0
  C  C119  1  0.15147132  0.16304953  0.32130017  1.0
  C  C120  1  0.21209145  0.77194088  0.70346958  1.0
  C  C121  1  0.21208491  0.22805775  0.29653156  1.0
  C  C122  1  0.28460905  0.71296351  0.68204527  1.0
  C  C123  1  0.28460424  0.28703724  0.31795604  1.0
  C  C124  1  0.29535446  0.72091194  0.63466756  1.0
  C  C125  1  0.29535177  0.27908597  0.36533321  1.0
  C  C126  1  0.23551477  0.78435234  0.60843328  1.0
  C  C127  1  0.23550475  0.21564906  0.39156906  1.0
  C  C128  1  0.19593887  0.95454815  0.58210038  1.0
  C  C129  1  0.19593796  0.04545501  0.41790223  1.0
  C  C130  1  0.14584007  0.70834580  0.77677860  1.0
  C  C131  1  0.14584265  0.29165520  0.22322247  1.0
  C  C132  1  0.29009012  0.59829026  0.61009884  1.0
  C  C133  1  0.29009104  0.40170934  0.38990253  1.0
  C  C134  1  0.09641639  0.01807190  0.55930178  1.0
  C  C135  1  0.09642242  0.98193144  0.44070089  1.0
  C  C136  1  0.18647943  0.07830190  0.53671971  1.0
  C  C137  1  0.18648198  0.92169958  0.46328300  1.0
  C  C138  1  0.09595273  0.13945615  0.51660654  1.0
  C  C139  1  0.09595695  0.86054438  0.48339424  1.0
  C  C140  1  0.83627245  0.08472462  0.53838667  1.0
  C  C141  1  0.83627636  0.91527514  0.46161257  1.0
  C  C142  1  0.91711108  0.02169825  0.55991969  1.0
  C  C143  1  0.91711715  0.97830414  0.44008479  1.0
  C  C144  1  0.16762704  0.71720758  0.82601394  1.0
  C  C145  1  0.16762769  0.28279338  0.17398643  1.0
  C  C146  1  0.26286793  0.77584674  0.84227853  1.0
  C  C147  1  0.26286167  0.22415349  0.15772215  1.0
  C  C148  1  0.27802814  0.77883462  0.88907437  1.0
  C  C149  1  0.27802755  0.22116332  0.11092743  1.0
  C  C150  1  0.10785131  0.67259061  0.90382766  1.0
  C  C151  1  0.10784981  0.32740708  0.09617225  1.0
  C  C152  1  0.08988709  0.66440717  0.85768916  1.0
  C  C153  1  0.08988116  0.33559225  0.14230999  1.0
  C  C154  1  0.39313729  0.54292202  0.58698954  1.0
  C  C155  1  0.39313228  0.45707741  0.41301040  1.0
  C  C156  1  0.31003401  0.47858740  0.57409203  1.0
  C  C157  1  0.31003077  0.52141330  0.42590927  1.0
  C  C158  1  0.40514001  0.42431008  0.55446683  1.0
  C  C159  1  0.40513601  0.57568876  0.44553449  1.0
  C  C160  1  0.65541947  0.49355917  0.55904863  1.0
  C  C161  1  0.65541366  0.50643697  0.44095026  1.0
  C  C162  1  0.56899944  0.55094134  0.57858683  1.0
  C  C163  1  0.56899186  0.44905665  0.42141237  1.0
  I  I164  1  0.00396628  0.35735313  0.49506006  1.0
  I  I165  1  0.00396350  0.64264475  0.50493992  1.0
  I  I166  1  0.49962479  0.23350725  0.52287006  1.0
  I  I167  1  0.49962875  0.76649424  0.47713071  1.0
  I  I168  1  0.43219930  0.85448604  0.99754945  1.0
  I  I169  1  0.43219426  0.14551332  0.00245012  1.0
  I  I170  1  0.92473164  0.73138752  0.02396913  1.0
  I  I171  1  0.92472618  0.26861151  0.97603077  1.0
  N  N172  1  0.76775199  0.22999983  0.41898974  1.0
  N  N173  1  0.76775478  0.77000513  0.58100861  1.0
  N  N174  1  0.00575885  0.92909673  0.04767441  1.0
  N  N175  1  0.00576205  0.07090341  0.95232578  1.0
  N  N176  1  0.34930045  0.64092186  0.01824725  1.0
  N  N177  1  0.34929402  0.35907597  0.98175077  1.0
  N  N178  1  0.92325629  0.14355679  0.51720327  1.0
  N  N179  1  0.92325800  0.85644337  0.48279588  1.0
  N  N180  1  0.20207734  0.72841190  0.91972297  1.0
  N  N181  1  0.20207402  0.27158450  0.08027727  1.0
  N  N182  1  0.57575244  0.43075333  0.54738216  1.0
  N  N183  1  0.57575098  0.56924464  0.45261806  1.0
  O  O184  1  0.69580117  0.27439521  0.25098997  1.0
  O  O185  1  0.69579488  0.72561157  0.74900935  1.0
  O  O186  1  0.82187410  0.16718238  0.10983747  1.0
  O  O187  1  0.82187029  0.83281401  0.89016400  1.0
  O  O188  1  0.53384158  0.40602652  0.10998531  1.0
  O  O189  1  0.53383379  0.59397324  0.89001111  1.0
  O  O190  1  0.59660202  0.15288075  0.26441843  1.0
  O  O191  1  0.59660233  0.84712564  0.73558099  1.0
  O  O192  1  0.58674225  0.09218084  0.12418077  1.0
  O  O193  1  0.58675065  0.90781936  0.87581864  1.0
  O  O194  1  0.78875168  0.44919791  0.07934660  1.0
  O  O195  1  0.78874782  0.55079857  0.92064912  1.0
  O  O196  1  0.09024943  0.90487926  0.60725959  1.0
  O  O197  1  0.09024829  0.09512297  0.39274179  1.0
  O  O198  1  0.20666869  0.77131173  0.75075972  1.0
  O  O199  1  0.20666650  0.22868803  0.24924171  1.0
  O  O200  1  0.37723505  0.66518859  0.61209453  1.0
  O  O201  1  0.37723027  0.33480804  0.38790692  1.0
  O  O202  1  0.35086357  0.94722452  0.58003177  1.0
  O  O203  1  0.35086128  0.05278004  0.41997099  1.0
  O  O204  1  0.08156642  0.65418535  0.76090235  1.0
  O  O205  1  0.08157212  0.34581747  0.23909764  1.0
  O  O206  1  0.14718146  0.58686089  0.62565984  1.0
  O  O207  1  0.14718244  0.41314012  0.37433953  1.0
