# generated using pymatgen
data_AlC24(Br2O)6
_symmetry_space_group_name_H-M   'P 1'
_cell_length_a   4.10314399
_cell_length_b   29.16793666
_cell_length_c   29.16654593
_cell_angle_alpha   59.99862939
_cell_angle_beta   89.99867642
_cell_angle_gamma   89.99916271
_symmetry_Int_Tables_number   1
_chemical_formula_structural   AlC24(Br2O)6
_chemical_formula_sum   'Al2 C48 Br24 O12'
_cell_volume   3022.95790661
_cell_formula_units_Z   2
loop_
 _symmetry_equiv_pos_site_id
 _symmetry_equiv_pos_as_xyz
  1  'x, y, z'
loop_
 _atom_site_type_symbol
 _atom_site_label
 _atom_site_symmetry_multiplicity
 _atom_site_fract_x
 _atom_site_fract_y
 _atom_site_fract_z
 _atom_site_occupancy
  Al  Al0  1  0.99980444  0.50000920  0.99998629  1.0
  Al  Al1  1  0.00090999  0.16666311  0.66667317  1.0
  C  C2  1  0.49979432  0.58116712  0.95940030  1.0
  C  C3  1  0.49977646  0.45943582  0.08114950  1.0
  C  C4  1  0.49983423  0.45941992  0.95941707  1.0
  C  C5  1  0.50090385  0.20721391  0.58550918  1.0
  C  C6  1  0.50089238  0.20726783  0.70722933  1.0
  C  C7  1  0.50088842  0.08550308  0.70728806  1.0
  C  C8  1  0.50070946  0.23721900  0.52548373  1.0
  C  C9  1  0.39083719  0.28978021  0.49746188  1.0
  C  C10  1  0.38705752  0.31751812  0.44203526  1.0
  C  C11  1  0.50019600  0.29329618  0.41329748  1.0
  C  C12  1  0.61355336  0.24034599  0.44202048  1.0
  C  C13  1  0.61030184  0.21267655  0.49744868  1.0
  C  C14  1  0.50002090  0.32122225  0.35744447  1.0
  C  C15  1  0.49993071  0.34535941  0.30918372  1.0
  C  C16  1  0.49985554  0.37331027  0.25332160  1.0
  C  C17  1  0.61322674  0.42625369  0.22462397  1.0
  C  C18  1  0.60971516  0.45394864  0.16919894  1.0
  C  C19  1  0.49977832  0.42942319  0.14115712  1.0
  C  C20  1  0.38986303  0.37685373  0.16917538  1.0
  C  C21  1  0.38643360  0.34909237  0.22460161  1.0
  C  C22  1  0.50072544  0.23728205  0.73724095  1.0
  C  C23  1  0.39079095  0.21274137  0.78980001  1.0
  C  C24  1  0.38702218  0.24042352  0.81754350  1.0
  C  C25  1  0.50026145  0.29337988  0.79332633  1.0
  C  C26  1  0.61374793  0.31760254  0.74037907  1.0
  C  C27  1  0.61044408  0.28985098  0.71270447  1.0
  C  C28  1  0.50000946  0.32130174  0.82124797  1.0
  C  C29  1  0.49981399  0.34543672  0.84537881  1.0
  C  C30  1  0.49973016  0.37335176  0.87332026  1.0
  C  C31  1  0.61315261  0.34911181  0.92626319  1.0
  C  C32  1  0.60972016  0.37685094  0.95394689  1.0
  C  C33  1  0.49979889  0.42941914  0.92941217  1.0
  C  C34  1  0.38982985  0.45396405  0.87684534  1.0
  C  C35  1  0.38631153  0.42629114  0.84909434  1.0
  C  C36  1  0.50068189  0.02547934  0.73730664  1.0
  C  C37  1  0.39072766  0.99746434  0.71276451  1.0
  C  C38  1  0.38688972  0.94204227  0.74044962  1.0
  C  C39  1  0.50007598  0.91330077  0.79340839  1.0
  C  C40  1  0.61350778  0.94201503  0.81763922  1.0
  C  C41  1  0.61029747  0.99743972  0.78988443  1.0
  C  C42  1  0.49991815  0.85745133  0.82132906  1.0
  C  C43  1  0.49974318  0.80918766  0.84545026  1.0
  C  C44  1  0.49968284  0.75333473  0.87335391  1.0
  C  C45  1  0.61310878  0.72464003  0.84910608  1.0
  C  C46  1  0.60965104  0.66921591  0.87683712  1.0
  C  C47  1  0.49973520  0.64117413  0.92940627  1.0
  C  C48  1  0.38978709  0.66918239  0.95396211  1.0
  C  C49  1  0.38626725  0.72460779  0.92629641  1.0
  Br  Br50  1  0.24987259  0.32229636  0.53604310  1.0
  Br  Br51  1  0.75172318  0.14160506  0.53601815  1.0
  Br  Br52  1  0.77158774  0.20838849  0.40403545  1.0
  Br  Br53  1  0.22854685  0.38743202  0.40407710  1.0
  Br  Br54  1  0.77230043  0.45813181  0.26262787  1.0
  Br  Br55  1  0.22749014  0.27920034  0.26258326  1.0
  Br  Br56  1  0.24851729  0.34436131  0.13059739  1.0
  Br  Br57  1  0.75098435  0.52502700  0.13064801  1.0
  Br  Br58  1  0.24976491  0.14164820  0.82231479  1.0
  Br  Br59  1  0.75191879  0.32235820  0.64163129  1.0
  Br  Br60  1  0.77191105  0.38753664  0.70842824  1.0
  Br  Br61  1  0.22838894  0.20847188  0.88745258  1.0
  Br  Br62  1  0.77220721  0.27922814  0.95815292  1.0
  Br  Br63  1  0.22726887  0.45819164  0.77920598  1.0
  Br  Br64  1  0.24852017  0.52503838  0.84434194  1.0
  Br  Br65  1  0.75107633  0.34433240  0.02502339  1.0
  Br  Br66  1  0.24973214  0.03605049  0.64166636  1.0
  Br  Br67  1  0.75178009  0.03599744  0.82239490  1.0
  Br  Br68  1  0.77159537  0.90402143  0.88758061  1.0
  Br  Br69  1  0.22829113  0.90409367  0.70848960  1.0
  Br  Br70  1  0.77220236  0.76264447  0.77922116  1.0
  Br  Br71  1  0.22724112  0.76257786  0.95821420  1.0
  Br  Br72  1  0.24846519  0.63060082  0.02503828  1.0
  Br  Br73  1  0.75097618  0.63067054  0.84430570  1.0
  O  O74  1  0.26250212  0.45105250  0.99048884  1.0
  O  O75  1  0.26248775  0.55846320  0.95103042  1.0
  O  O76  1  0.26244647  0.49050503  0.05845074  1.0
  O  O77  1  0.73715871  0.49048862  0.95104296  1.0
  O  O78  1  0.73710144  0.45106735  0.05844870  1.0
  O  O79  1  0.73713305  0.55847236  0.99046613  1.0
  O  O80  1  0.26356871  0.10820683  0.71564289  1.0
  O  O81  1  0.26356856  0.17615260  0.60821583  1.0
  O  O82  1  0.26356409  0.21562791  0.67616783  1.0
  O  O83  1  0.73830759  0.10817471  0.67623453  1.0
  O  O84  1  0.73829168  0.17621706  0.71560425  1.0
  O  O85  1  0.73830021  0.21559105  0.60818267  1.0
