# generated using pymatgen
data_Zn2H13C43N2Cl11O8
_symmetry_space_group_name_H-M   'P 1'
_cell_length_a   17.04228126
_cell_length_b   17.81742968
_cell_length_c   32.71845496
_cell_angle_alpha   89.89049818
_cell_angle_beta   88.99410326
_cell_angle_gamma   89.90435885
_symmetry_Int_Tables_number   1
_chemical_formula_structural   Zn2H13C43N2Cl11O8
_chemical_formula_sum   'Zn4 H26 C86 N4 Cl22 O16'
_cell_volume   9933.38485785
_cell_formula_units_Z   2
loop_
 _symmetry_equiv_pos_site_id
 _symmetry_equiv_pos_as_xyz
  1  'x, y, z'
loop_
 _atom_site_type_symbol
 _atom_site_label
 _atom_site_symmetry_multiplicity
 _atom_site_fract_x
 _atom_site_fract_y
 _atom_site_fract_z
 _atom_site_occupancy
  Zn  Zn0  1  0.41907715  0.50481173  0.49768518  1.0
  Zn  Zn1  1  0.59524595  0.50921717  0.49983770  1.0
  Zn  Zn2  1  0.58075058  0.50178799  0.96509698  1.0
  Zn  Zn3  1  0.40442482  0.50729794  0.96245134  1.0
  H  H4  1  0.87707960  0.41667802  0.54114345  1.0
  H  H5  1  0.87565776  0.58528175  0.44559320  1.0
  H  H6  1  0.13438153  0.43863617  0.54825005  1.0
  H  H7  1  0.14300483  0.55912551  0.43309430  1.0
  H  H8  1  0.43081834  0.11775846  0.54602638  1.0
  H  H9  1  0.61922860  0.14208103  0.45703449  1.0
  H  H10  1  0.48109599  0.88896039  0.42947290  1.0
  H  H11  1  0.54727594  0.87760646  0.55638508  1.0
  H  H12  1  0.38827100  0.58305529  0.70212176  1.0
  H  H13  1  0.61302182  0.58173284  0.76058227  1.0
  H  H14  1  0.37792712  0.48517660  0.83431591  1.0
  H  H15  1  0.38212382  0.48353503  0.75809717  1.0
  H  H16  1  0.62319725  0.48685090  0.62795304  1.0
  H  H17  1  0.61899932  0.48372070  0.70415840  1.0
  H  H18  1  0.53782909  0.31899472  0.15045998  1.0
  H  H19  1  0.43834203  0.53641842  0.17925743  1.0
  H  H20  1  0.55893400  0.53845892  0.28301428  1.0
  H  H21  1  0.46407164  0.31954587  0.31248714  1.0
  H  H22  1  0.12239902  0.41381408  0.92251940  1.0
  H  H23  1  0.12432827  0.58499364  0.01633074  1.0
  H  H24  1  0.86636474  0.43679361  0.91538735  1.0
  H  H25  1  0.85572659  0.55555013  0.03080086  1.0
  H  H26  1  0.56759701  0.11556568  0.91588189  1.0
  H  H27  1  0.38194628  0.13924105  0.00655279  1.0
  H  H28  1  0.51967356  0.88552248  0.03303185  1.0
  H  H29  1  0.45375016  0.87592734  0.90607140  1.0
  C  C30  1  0.50109049  0.36301824  0.50670562  1.0
  C  C31  1  0.51492944  0.52792391  0.57619153  1.0
  C  C32  1  0.49161016  0.65041887  0.49120719  1.0
  C  C33  1  0.52281725  0.47972455  0.42178577  1.0
  C  C34  1  0.49846952  0.36043976  0.95622740  1.0
  C  C35  1  0.48574312  0.52528117  0.88625950  1.0
  C  C36  1  0.50919315  0.64777226  0.97097391  1.0
  C  C37  1  0.47527581  0.47770885  0.04070194  1.0
  C  C38  1  0.76558993  0.46121175  0.52278514  1.0
  C  C39  1  0.84705983  0.45522559  0.52092603  1.0
  C  C40  1  0.88885871  0.50007607  0.49273755  1.0
  C  C41  1  0.84630402  0.54890349  0.46770354  1.0
  C  C42  1  0.76486455  0.55066257  0.47197184  1.0
  C  C43  1  0.97181485  0.49747117  0.49041687  1.0
  C  C44  1  0.04331642  0.49699915  0.48952939  1.0
  C  C45  1  0.12629504  0.49816565  0.49031524  1.0
  C  C46  1  0.16601443  0.46588979  0.52322446  1.0
  C  C47  1  0.24751359  0.47041314  0.52367403  1.0
  C  C48  1  0.25223286  0.53454642  0.46248045  1.0
  C  C49  1  0.17078916  0.53307975  0.45920290  1.0
  C  C50  1  0.51121459  0.27878363  0.50589822  1.0
  C  C51  1  0.46325135  0.23058718  0.52958154  1.0
  C  C52  1  0.46920596  0.15288848  0.52726421  1.0
  C  C53  1  0.52436815  0.11980838  0.50033049  1.0
  C  C54  1  0.57512311  0.16637532  0.47749557  1.0
  C  C55  1  0.56910229  0.24414609  0.48089567  1.0
  C  C56  1  0.52672092  0.04049176  0.49663991  1.0
  C  C57  1  0.52275996  0.97228312  0.49434751  1.0
  C  C58  1  0.51548802  0.89301034  0.49299685  1.0
  C  C59  1  0.49227996  0.85665124  0.45702952  1.0
  C  C60  1  0.48303436  0.77898794  0.45704238  1.0
  C  C61  1  0.49707250  0.73511665  0.49179907  1.0
  C  C62  1  0.52043855  0.77265853  0.52728591  1.0
  C  C63  1  0.52944106  0.85022335  0.52834974  1.0
  C  C64  1  0.50850321  0.53374055  0.62193210  1.0
  C  C65  1  0.49259517  0.53149651  0.84054812  1.0
  C  C66  1  0.44241368  0.56128470  0.64359557  1.0
  C  C67  1  0.43956978  0.55991728  0.68626609  1.0
  C  C68  1  0.55882970  0.55901516  0.81901110  1.0
  C  C69  1  0.56168781  0.55848049  0.77633919  1.0
  C  C70  1  0.42930246  0.50577743  0.81750875  1.0
  C  C71  1  0.43159688  0.50542802  0.77505576  1.0
  C  C72  1  0.57183321  0.50732984  0.64484161  1.0
  C  C73  1  0.56955887  0.50618296  0.68729653  1.0
  C  C74  1  0.50263409  0.53203867  0.70866052  1.0
  C  C75  1  0.49854755  0.53147026  0.75381625  1.0
  C  C76  1  0.47705524  0.45798999  0.08559431  1.0
  C  C77  1  0.50837374  0.38965536  0.09947206  1.0
  C  C78  1  0.51317066  0.37249761  0.14093730  1.0
  C  C79  1  0.48830623  0.42557202  0.17015645  1.0
  C  C80  1  0.45704073  0.49454258  0.15695454  1.0
  C  C81  1  0.45163419  0.50955479  0.11541675  1.0
  C  C82  1  0.49681324  0.41463181  0.21279606  1.0
  C  C83  1  0.50327605  0.41519621  0.24986778  1.0
  C  C84  1  0.51130208  0.42684925  0.29245098  1.0
  C  C85  1  0.54090895  0.49644677  0.30543521  1.0
  C  C86  1  0.54561274  0.51183213  0.34694202  1.0
  C  C87  1  0.52122309  0.46000988  0.37691472  1.0
  C  C88  1  0.49156882  0.39107346  0.36324315  1.0
  C  C89  1  0.48739557  0.37357103  0.32184270  1.0
  C  C90  1  0.23393663  0.45917252  0.93991401  1.0
  C  C91  1  0.15252182  0.45297805  0.94222278  1.0
  C  C92  1  0.11090162  0.49842221  0.97015433  1.0
  C  C93  1  0.15354434  0.54808068  0.99446241  1.0
  C  C94  1  0.23488869  0.55008800  0.98976501  1.0
  C  C95  1  0.02798372  0.49568252  0.97291688  1.0
  C  C96  1  0.95648528  0.49515732  0.97419437  1.0
  C  C97  1  0.87348003  0.49568079  0.97342863  1.0
  C  C98  1  0.83429870  0.46352463  0.94040729  1.0
  C  C99  1  0.75273748  0.46734024  0.93988144  1.0
  C  C100  1  0.74696582  0.53070093  0.00117383  1.0
  C  C101  1  0.82839556  0.52971124  0.00457812  1.0
  C  C102  1  0.48835620  0.27624517  0.95700079  1.0
  C  C103  1  0.53558598  0.22827908  0.93279433  1.0
  C  C104  1  0.52971584  0.15056439  0.93501316  1.0
  C  C105  1  0.47545723  0.11732244  0.96238797  1.0
  C  C106  1  0.42536828  0.16370379  0.98574548  1.0
  C  C107  1  0.43125720  0.24150466  0.98242854  1.0
  C  C108  1  0.47347847  0.03799402  0.96606128  1.0
  C  C109  1  0.47780987  0.96977251  0.96826912  1.0
  C  C110  1  0.48546612  0.89048199  0.96948862  1.0
  C  C111  1  0.50862412  0.85359179  0.00540168  1.0
  C  C112  1  0.51782983  0.77589002  0.00528522  1.0
  C  C113  1  0.50389091  0.73248752  0.97043523  1.0
  C  C114  1  0.48058370  0.77054229  0.93500877  1.0
  C  C115  1  0.47161571  0.84813548  0.93406752  1.0
  N  N116  1  0.72379881  0.50756774  0.49875667  1.0
  N  N117  1  0.29126521  0.50364510  0.49395823  1.0
  N  N118  1  0.27581959  0.50629337  0.96329155  1.0
  N  N119  1  0.70846524  0.50000377  0.96955970  1.0
  Cl  Cl120  1  0.71641915  0.40672485  0.55780434  1.0
  Cl  Cl121  1  0.71426433  0.61130982  0.44181403  1.0
  Cl  Cl122  1  0.29470022  0.43290194  0.56440901  1.0
  Cl  Cl123  1  0.30489753  0.57892924  0.42478885  1.0
  Cl  Cl124  1  0.39540140  0.26653664  0.56437093  1.0
  Cl  Cl125  1  0.63515778  0.29648791  0.45200746  1.0
  Cl  Cl126  1  0.45480914  0.73571488  0.41225574  1.0
  Cl  Cl127  1  0.53857914  0.72187748  0.57122986  1.0
  Cl  Cl128  1  0.54430915  0.32470696  0.06464359  1.0
  Cl  Cl129  1  0.41664294  0.59670447  0.10083427  1.0
  Cl  Cl130  1  0.57868486  0.59956476  0.36134687  1.0
  Cl  Cl131  1  0.45714633  0.32569981  0.39832690  1.0
  Cl  Cl132  1  0.28295852  0.40416489  0.90513068  1.0
  Cl  Cl133  1  0.28550760  0.61209651  0.01884758  1.0
  Cl  Cl134  1  0.70614099  0.42954594  0.89915799  1.0
  Cl  Cl135  1  0.69361070  0.57412671  0.03890001  1.0
  Cl  Cl136  1  0.60222059  0.26462278  0.89747939  1.0
  Cl  Cl137  1  0.36608459  0.29382684  0.01187043  1.0
  Cl  Cl138  1  0.54553306  0.73195112  0.05009489  1.0
  Cl  Cl139  1  0.46235313  0.72031831  0.89099783  1.0
  Cl  Cl140  1  0.36356570  0.60247269  0.61944322  1.0
  Cl  Cl141  1  0.63780581  0.59923572  0.84332059  1.0
  O  O142  1  0.43288030  0.38867385  0.50025068  1.0
  O  O143  1  0.56270963  0.40047074  0.51322160  1.0
  O  O144  1  0.58368263  0.53359445  0.56052971  1.0
  O  O145  1  0.45212609  0.51504237  0.55715395  1.0
  O  O146  1  0.55705747  0.61698146  0.48766625  1.0
  O  O147  1  0.42406408  0.62131267  0.49455959  1.0
  O  O148  1  0.45644506  0.49418537  0.43790927  1.0
  O  O149  1  0.58912217  0.48035120  0.43874691  1.0
  O  O150  1  0.56676784  0.38574829  0.96256350  1.0
  O  O151  1  0.43681297  0.39815301  0.94983213  1.0
  O  O152  1  0.41675360  0.53076574  0.90168762  1.0
  O  O153  1  0.54835131  0.51240006  0.90551142  1.0
  O  O154  1  0.44358603  0.61468735  0.97412565  1.0
  O  O155  1  0.57671510  0.61828740  0.96803282  1.0
  O  O156  1  0.54169988  0.49161859  0.02452933  1.0
  O  O157  1  0.40895772  0.47899383  0.02374828  1.0
