# generated using pymatgen
data_Zn4H29C44I6N16F5
_symmetry_space_group_name_H-M   'P 1'
_cell_length_a   14.59649315
_cell_length_b   15.01554872
_cell_length_c   15.15455244
_cell_angle_alpha   112.09865243
_cell_angle_beta   110.61289219
_cell_angle_gamma   104.34438013
_symmetry_Int_Tables_number   1
_chemical_formula_structural   Zn4H29C44I6N16F5
_chemical_formula_sum   'Zn4 H29 C44 I6 N16 F5'
_cell_volume   2588.89949073
_cell_formula_units_Z   1
loop_
 _symmetry_equiv_pos_site_id
 _symmetry_equiv_pos_as_xyz
  1  'x, y, z'
loop_
 _atom_site_type_symbol
 _atom_site_label
 _atom_site_symmetry_multiplicity
 _atom_site_fract_x
 _atom_site_fract_y
 _atom_site_fract_z
 _atom_site_occupancy
  Zn  Zn0  1  0.85810435  0.49766084  0.86794288  1.0
  Zn  Zn1  1  0.12821739  0.49098920  0.14360774  1.0
  Zn  Zn2  1  0.97797626  0.62874504  0.13600073  1.0
  Zn  Zn3  1  0.99820362  0.35520903  0.87314453  1.0
  H  H4  1  0.79749849  0.68380539  0.82252185  1.0
  H  H5  1  0.33038939  0.41242184  0.19027737  1.0
  H  H6  1  0.99062715  0.66666667  0.84012804  1.0
  H  H7  1  0.14789755  0.23364080  0.83517586  1.0
  H  H8  1  0.93277154  0.84418392  0.17483059  1.0
  H  H9  1  0.64885436  0.32888439  0.60445071  1.0
  H  H10  1  0.20327970  0.53205644  0.39591529  1.0
  H  H11  1  0.81084273  0.47661651  0.17062969  1.0
  H  H12  1  0.79798577  0.15880332  0.82167510  1.0
  H  H13  1  0.63031915  0.31993029  0.81578421  1.0
  H  H14  1  0.24094154  0.57496400  0.71995980  1.0
  H  H15  1  0.26951667  0.71043955  0.79352941  1.0
  H  H16  1  0.25832504  0.73139189  0.64462858  1.0
  H  H17  1  0.25613550  0.60420102  0.58568936  1.0
  H  H18  1  0.02051408  0.42644464  0.60190979  1.0
  H  H19  1  0.12403486  0.76705035  0.76052019  1.0
  H  H20  1  0.09206753  0.75863214  0.59329459  1.0
  H  H21  1  0.96379678  0.64861121  0.52544788  1.0
  H  H22  1  0.93257892  0.48655756  0.57853509  1.0
  H  H23  1  0.46692462  0.24050111  0.83225684  1.0
  H  H24  1  0.59796120  0.35168852  0.08353572  1.0
  H  H25  1  0.30534502  0.20831891  0.84285803  1.0
  H  H26  1  0.49894112  0.83558814  0.33264224  1.0
  H  H27  1  0.65719216  0.99043634  0.46986051  1.0
  H  H28  1  0.54506322  0.12869747  0.42401295  1.0
  H  H29  1  0.90294670  0.15171372  0.16181314  1.0
  H  H30  1  0.78441608  0.02350382  0.90936749  1.0
  H  H31  1  0.87022702  0.98357371  0.15504824  1.0
  H  H32  1  0.82983398  0.89426770  0.91899824  1.0
  C  C33  1  0.83237342  0.70791389  0.90875033  1.0
  C  C34  1  0.27144820  0.37326638  0.10393180  1.0
  C  C35  1  0.19176203  0.78129332  0.18397181  1.0
  C  C36  1  0.11070147  0.50915673  0.81899831  1.0
  C  C37  1  0.28246075  0.68673821  0.16215528  1.0
  C  C38  1  0.02693166  0.61190284  0.84046278  1.0
  C  C39  1  0.17896557  0.28220405  0.92250351  1.0
  C  C40  1  0.89978052  0.78939143  0.08816241  1.0
  C  C41  1  0.85477239  0.80314388  0.99798176  1.0
  C  C42  1  0.27536845  0.30670146  0.01201701  1.0
  C  C43  1  0.29703752  0.79399321  0.20353943  1.0
  C  C44  1  0.08838609  0.58407809  0.79074192  1.0
  C  C45  1  0.70922313  0.29947428  0.62670048  1.0
  C  C46  1  0.15079188  0.56923958  0.37462264  1.0
  C  C47  1  0.78191147  0.44836865  0.08414156  1.0
  C  C48  1  0.85183710  0.21443105  0.90919480  1.0
  C  C49  1  0.94799342  0.29636833  0.08730203  1.0
  C  C50  1  0.68900532  0.36831962  0.90295843  1.0
  C  C51  1  0.80378176  0.20679766  0.63596200  1.0
  C  C52  1  0.04028432  0.64549061  0.36165535  1.0
  C  C53  1  0.70302641  0.19802726  0.56584216  1.0
  C  C54  1  0.09725360  0.61110280  0.42856627  1.0
  C  C55  1  0.67850443  0.37145912  0.99320719  1.0
  C  C56  1  0.86847625  0.19510775  0.99656794  1.0
  C  C57  1  0.21306191  0.63516187  0.71498999  1.0
  C  C58  1  0.21427507  0.64719571  0.61842842  1.0
  C  C59  1  0.01399180  0.49393778  0.59297288  1.0
  C  C60  1  0.06475335  0.68721226  0.68871425  1.0
  C  C61  1  0.09761613  0.60154333  0.70168407  1.0
  C  C62  1  0.09707702  0.60616424  0.52611520  1.0
  C  C63  1  0.02773931  0.49065653  0.49618968  1.0
  C  C64  1  0.05121121  0.67920276  0.58033097  1.0
  C  C65  1  0.47948969  0.26746393  0.91524201  1.0
  C  C66  1  0.58378405  0.32627562  0.00042359  1.0
  C  C67  1  0.38073950  0.24894861  0.92100441  1.0
  C  C68  1  0.36796927  0.29048576  0.00995663  1.0
  C  C69  1  0.49494392  0.90910072  0.33885617  1.0
  C  C70  1  0.39540071  0.89351181  0.27027986  1.0
  C  C71  1  0.59172326  0.00553384  0.42510774  1.0
  C  C72  1  0.60862120  0.10927398  0.46462579  1.0
  C  C73  1  0.86189922  0.08086677  0.08013726  1.0
  C  C74  1  0.83161383  0.09419053  0.99192272  1.0
  C  C75  1  0.85489884  0.98237373  0.07844942  1.0
  C  C76  1  0.84289405  0.89468909  0.99486379  1.0
  I  I77  1  0.87784456  0.10416630  0.62090328  1.0
  I  I78  1  0.94018506  0.72335494  0.36647704  1.0
  I  I79  1  0.10326408  0.38109838  0.45466406  1.0
  I  I80  1  0.86496716  0.41534257  0.35228316  1.0
  I  I81  1  0.19484791  0.42173690  0.77815480  1.0
  I  I82  1  0.39297143  0.62890612  0.14087135  1.0
  N  N83  1  0.86066148  0.64315153  0.94285526  1.0
  N  N84  1  0.18153577  0.38916604  0.07105499  1.0
  N  N85  1  0.12296541  0.67996988  0.13934072  1.0
  N  N86  1  0.06449266  0.49299752  0.87802875  1.0
  N  N87  1  0.17952893  0.61975033  0.12620902  1.0
  N  N88  1  0.01194598  0.55638176  0.89087115  1.0
  N  N89  1  0.12421815  0.33215804  0.95819570  1.0
  N  N90  1  0.90334672  0.69439584  0.05476864  1.0
  N  N91  1  0.80291886  0.36088451  0.72333337  1.0
  N  N92  1  0.12629750  0.57607908  0.28379203  1.0
  N  N93  1  0.84661826  0.48867035  0.05051074  1.0
  N  N94  1  0.91718149  0.31673752  0.94684502  1.0
  N  N95  1  0.97725439  0.36808170  0.05895285  1.0
  N  N96  1  0.78948645  0.43916240  0.93910361  1.0
  N  N97  1  0.86184046  0.30288371  0.72878927  1.0
  N  N98  1  0.05750678  0.62393651  0.27580386  1.0
  F  F99  1  0.99803270  0.32436211  0.19340034  1.0
  F  F100  1  0.96273766  0.67377170  0.68484700  1.0
  F  F101  1  0.15796884  0.85799350  0.20876325  1.0
  F  F102  1  0.45673078  0.34176226  0.11347378  1.0
  F  F103  1  0.37810632  0.97932837  0.27025411  1.0
