# generated using pymatgen
data_AlH12C24(NO2)3
_symmetry_space_group_name_H-M   'P 1'
_cell_length_a   3.97041067
_cell_length_b   15.78183945
_cell_length_c   15.81402355
_cell_angle_alpha   60.11236777
_cell_angle_beta   89.39722244
_cell_angle_gamma   87.28041780
_symmetry_Int_Tables_number   1
_chemical_formula_structural   AlH12C24(NO2)3
_chemical_formula_sum   'Al1 H12 C24 N3 O6'
_cell_volume   858.05952767
_cell_formula_units_Z   1
loop_
 _symmetry_equiv_pos_site_id
 _symmetry_equiv_pos_as_xyz
  1  'x, y, z'
loop_
 _atom_site_type_symbol
 _atom_site_label
 _atom_site_symmetry_multiplicity
 _atom_site_fract_x
 _atom_site_fract_y
 _atom_site_fract_z
 _atom_site_occupancy
  Al  Al0  1  0.96892235  0.00122789  0.50024168  1.0
  H  H1  1  0.21791342  0.98671592  0.24847965  1.0
  H  H2  1  0.23814244  0.89824179  0.15319760  1.0
  H  H3  1  0.22784991  0.75110448  0.76803502  1.0
  H  H4  1  0.25103979  0.65635928  0.95118017  1.0
  H  H5  1  0.14229546  0.27573787  0.47646479  1.0
  H  H6  1  0.16419274  0.45892984  0.38774475  1.0
  H  H7  1  0.71422141  0.26620257  0.24893786  1.0
  H  H8  1  0.69432423  0.44991692  0.15375093  1.0
  H  H9  1  0.74267544  0.98335928  0.77040291  1.0
  H  H10  1  0.72593379  0.89425814  0.95348531  1.0
  H  H11  1  0.76588775  0.74367436  0.48432512  1.0
  H  H12  1  0.74045608  0.64944160  0.39519943  1.0
  C  C13  1  0.48581049  0.92467756  0.42604119  1.0
  C  C14  1  0.44309915  0.15186682  0.42387686  1.0
  C  C15  1  0.47783341  0.92694604  0.65041315  1.0
  C  C16  1  0.49145840  0.87028209  0.37156280  1.0
  C  C17  1  0.48409685  0.87249361  0.75894072  1.0
  C  C18  1  0.43101380  0.26068933  0.36820978  1.0
  C  C19  1  0.33970085  0.91393086  0.27864980  1.0
  C  C20  1  0.34815620  0.86464953  0.22632349  1.0
  C  C21  1  0.34361426  0.78055937  0.80945500  1.0
  C  C22  1  0.35403719  0.72848001  0.91071612  1.0
  C  C23  1  0.27009757  0.31457013  0.40698321  1.0
  C  C24  1  0.27972157  0.41602123  0.35748659  1.0
  C  C25  1  0.58644232  0.30937135  0.27717658  1.0
  C  C26  1  0.57805605  0.41093919  0.22498362  1.0
  C  C27  1  0.62833599  0.91279102  0.81078491  1.0
  C  C28  1  0.62173364  0.86307494  0.91214341  1.0
  C  C29  1  0.64335291  0.77577958  0.41287916  1.0
  C  C30  1  0.63209277  0.72396025  0.36314231  1.0
  C  C31  1  0.48829492  0.76861205  0.26904854  1.0
  C  C32  1  0.48050514  0.71501416  0.21478699  1.0
  C  C33  1  0.48760188  0.77007927  0.96280563  1.0
  C  C34  1  0.48171872  0.71603832  0.07045817  1.0
  C  C35  1  0.43257830  0.46482370  0.26596471  1.0
  C  C36  1  0.44921107  0.57237856  0.21322056  1.0
  N  N37  1  0.49529142  0.76777808  0.11687985  1.0
  N  N38  1  0.46007249  0.61828863  0.11529864  1.0
  N  N39  1  0.45672749  0.61726560  0.26659004  1.0
  O  O40  1  0.70232950  0.98924165  0.60699417  1.0
  O  O41  1  0.72336841  0.90568570  0.48763436  1.0
  O  O42  1  0.68641499  0.10739387  0.40607139  1.0
  O  O43  1  0.24764825  0.90783562  0.60745834  1.0
  O  O44  1  0.21250408  0.10982600  0.48584058  1.0
  O  O45  1  0.24132256  0.98739954  0.40723619  1.0
