# generated using pymatgen
data_Zn4H8C24S4O15
_symmetry_space_group_name_H-M   'P 1'
_cell_length_a   19.65156148
_cell_length_b   19.69087872
_cell_length_c   33.32901243
_cell_angle_alpha   79.20894271
_cell_angle_beta   79.32385012
_cell_angle_gamma   64.03915390
_symmetry_Int_Tables_number   1
_chemical_formula_structural   Zn4H8C24S4O15
_chemical_formula_sum   'Zn16 H32 C96 S16 O60'
_cell_volume   11312.27404111
_cell_formula_units_Z   4
loop_
 _symmetry_equiv_pos_site_id
 _symmetry_equiv_pos_as_xyz
  1  'x, y, z'
loop_
 _atom_site_type_symbol
 _atom_site_label
 _atom_site_symmetry_multiplicity
 _atom_site_fract_x
 _atom_site_fract_y
 _atom_site_fract_z
 _atom_site_occupancy
  Zn  Zn0  1  0.05683248  0.40054822  0.47861934  1.0
  Zn  Zn1  1  0.98393971  0.48348111  0.56016513  1.0
  Zn  Zn2  1  0.05855423  0.56205871  0.48291925  1.0
  Zn  Zn3  1  0.90016916  0.55451040  0.47921097  1.0
  Zn  Zn4  1  0.69478749  0.34968195  0.27101578  1.0
  Zn  Zn5  1  0.68960228  0.19007901  0.26687724  1.0
  Zn  Zn6  1  0.76897259  0.26529942  0.18959539  1.0
  Zn  Zn7  1  0.84824476  0.19506382  0.27233402  1.0
  Zn  Zn8  1  0.26640769  0.76688213  0.68975854  1.0
  Zn  Zn9  1  0.34876050  0.69548893  0.77158465  1.0
  Zn  Zn10  1  0.19314206  0.84838679  0.77216075  1.0
  Zn  Zn11  1  0.19133381  0.68777879  0.76700486  1.0
  Zn  Zn12  1  0.56042983  0.06011669  0.98327808  1.0
  Zn  Zn13  1  0.40120103  0.05507632  0.97817608  1.0
  Zn  Zn14  1  0.55511366  0.90135979  0.97827153  1.0
  Zn  Zn15  1  0.48351163  0.98306586  0.06034423  1.0
  H  H16  1  0.79653153  0.50195465  0.39923658  1.0
  H  H17  1  0.95369193  0.24819468  0.35090513  1.0
  H  H18  1  0.74780555  0.45431209  0.35099319  1.0
  H  H19  1  0.00239274  0.29592582  0.39910977  1.0
  H  H20  1  0.15259167  0.65265936  0.54921307  1.0
  H  H21  1  0.09770735  0.59762548  0.70067084  1.0
  H  H22  1  0.20087281  0.70081140  0.59751125  1.0
  H  H23  1  0.04947472  0.54952439  0.65231421  1.0
  H  H24  1  0.46238121  0.24069782  0.34126250  1.0
  H  H25  1  0.47991340  0.70236110  0.60123780  1.0
  H  H26  1  0.20216666  0.98011263  0.60154226  1.0
  H  H27  1  0.94869536  0.96951743  0.34821404  1.0
  H  H28  1  0.70068118  0.20064783  0.09766302  1.0
  H  H29  1  0.54929217  0.04934395  0.15249324  1.0
  H  H30  1  0.65247065  0.15256977  0.04935192  1.0
  H  H31  1  0.59749021  0.09749105  0.20076039  1.0
  H  H32  1  0.54799382  0.76939811  0.14862242  1.0
  H  H33  1  0.16216767  0.14153213  0.04068893  1.0
  H  H34  1  0.24751946  0.95421804  0.85085146  1.0
  H  H35  1  0.50203784  0.79612157  0.89911182  1.0
  H  H36  1  0.29600040  0.00214691  0.89907774  1.0
  H  H37  1  0.45350455  0.74830470  0.85086448  1.0
  H  H38  1  0.30092925  0.28054256  0.90180229  1.0
  H  H39  1  0.78768097  0.00935769  0.90874785  1.0
  H  H40  1  0.32585680  0.54275343  0.39819253  1.0
  H  H41  1  0.75649438  0.53966997  0.68445480  1.0
  H  H42  1  0.03986967  0.25646217  0.68421563  1.0
  H  H43  1  0.74284202  0.81579803  0.38807193  1.0
  H  H44  1  0.71052399  0.49332769  0.06555450  1.0
  H  H45  1  0.14838995  0.07577251  0.22072924  1.0
  H  H46  1  0.50713515  0.43399652  0.86204682  1.0
  H  H47  1  0.92418274  0.70710753  0.85178269  1.0
  C  C48  1  0.06124992  0.31652801  0.56222830  1.0
  C  C49  1  0.06933115  0.57002946  0.56932906  1.0
  C  C50  1  0.18396500  0.44080751  0.43875608  1.0
  C  C51  1  0.93608805  0.68421569  0.43872910  1.0
  C  C52  1  0.93096525  0.43008721  0.43091363  1.0
  C  C53  1  0.81658773  0.56064300  0.56250626  1.0
  C  C54  1  0.56588463  0.31114425  0.31125904  1.0
  C  C55  1  0.68093571  0.18011157  0.18071431  1.0
  C  C56  1  0.68964193  0.43290510  0.18751035  1.0
  C  C57  1  0.93559357  0.18714981  0.18969238  1.0
  C  C58  1  0.81892941  0.31990950  0.31958936  1.0
  C  C59  1  0.81125913  0.06596161  0.31153620  1.0
  C  C60  1  0.43370099  0.68935748  0.68830554  1.0
  C  C61  1  0.31897217  0.81998878  0.81930523  1.0
  C  C62  1  0.18881111  0.93377786  0.68860128  1.0
  C  C63  1  0.06582612  0.80919385  0.81139925  1.0
  C  C64  1  0.18108481  0.68025154  0.68048447  1.0
  C  C65  1  0.31396250  0.56554373  0.81145036  1.0
  C  C66  1  0.43821897  0.18391886  0.93863401  1.0
  C  C67  1  0.43055569  0.93049259  0.93053124  1.0
  C  C68  1  0.68404599  0.93903737  0.93865476  1.0
  C  C69  1  0.56129210  0.81604122  0.06159107  1.0
  C  C70  1  0.56955972  0.06945999  0.06945467  1.0
  C  C71  1  0.31584495  0.06150084  0.06114124  1.0
  C  C72  1  0.90224700  0.40166895  0.40195187  1.0
  C  C73  1  0.84794856  0.34852729  0.34816737  1.0
  C  C74  1  0.83045012  0.44651769  0.38843163  1.0
  C  C75  1  0.91979963  0.30369034  0.36164508  1.0
  C  C76  1  0.80346530  0.42013404  0.36169448  1.0
  C  C77  1  0.94677649  0.33012550  0.38836011  1.0
  C  C78  1  0.09831076  0.59848131  0.59806792  1.0
  C  C79  1  0.15209472  0.65187488  0.65181510  1.0
  C  C80  1  0.14096522  0.64104926  0.58241987  1.0
  C  C81  1  0.10939695  0.60930116  0.66747174  1.0
  C  C82  1  0.16770153  0.66764241  0.60915597  1.0
  C  C83  1  0.08266920  0.58271429  0.64073103  1.0
  C  C84  1  0.30446400  0.45609926  0.40103122  1.0
  C  C85  1  0.44572075  0.29747391  0.34906379  1.0
  C  C86  1  0.25845250  0.41666367  0.41394542  1.0
  C  C87  1  0.49116931  0.33667555  0.33630936  1.0
  C  C88  1  0.37772032  0.34068021  0.37262715  1.0
  C  C89  1  0.37269011  0.41232838  0.37737212  1.0
  C  C90  1  0.72662738  0.57543910  0.63037292  1.0
  C  C91  1  0.52449741  0.67343049  0.62139553  1.0
  C  C92  1  0.74257996  0.58514734  0.58763187  1.0
  C  C93  1  0.50874902  0.66382793  0.66372659  1.0
  C  C94  1  0.60372936  0.64131199  0.60912610  1.0
  C  C95  1  0.64693185  0.60774379  0.64253796  1.0
  C  C96  1  0.07553543  0.22652369  0.63019347  1.0
  C  C97  1  0.17332146  0.02463984  0.62161239  1.0
  C  C98  1  0.08532773  0.24249371  0.58742396  1.0
  C  C99  1  0.16367293  0.00885861  0.66396341  1.0
  C  C100  1  0.14131783  0.10375789  0.60919730  1.0
  C  C101  1  0.10774987  0.14692583  0.64250553  1.0
  C  C102  1  0.84189488  0.80062291  0.39714832  1.0
  C  C103  1  0.90410065  0.94937188  0.35262534  1.0
  C  C104  1  0.91082047  0.75836835  0.41367871  1.0
  C  C105  1  0.83569273  0.99109548  0.33633198  1.0
  C  C106  1  0.90666002  0.87994795  0.37476329  1.0
  C  C107  1  0.83980218  0.87020860  0.37488230  1.0
  C  C108  1  0.65186041  0.15172770  0.15194569  1.0
  C  C109  1  0.59812051  0.09820704  0.09815712  1.0
  C  C110  1  0.66747348  0.16748899  0.10928926  1.0
  C  C111  1  0.58243726  0.08254360  0.14083061  1.0
  C  C112  1  0.64074803  0.14088155  0.08254453  1.0
  C  C113  1  0.60914335  0.10918349  0.16756040  1.0
  C  C114  1  0.67469763  0.52317336  0.11959501  1.0
  C  C115  1  0.57683747  0.72495888  0.12849506  1.0
  C  C116  1  0.66500524  0.50697222  0.16234609  1.0
  C  C117  1  0.58646016  0.74094865  0.08615633  1.0
  C  C118  1  0.60885225  0.64578587  0.14078589  1.0
  C  C119  1  0.64240373  0.60281758  0.10738849  1.0
  C  C120  1  0.08237491  0.12335634  0.17861651  1.0
  C  C121  1  0.17010433  0.12482519  0.07306348  1.0
  C  C122  1  0.01027150  0.16237390  0.16522759  1.0
  C  C123  1  0.24147967  0.08608565  0.08639804  1.0
  C  C124  1  0.11201845  0.13852962  0.10652037  1.0
  C  C125  1  0.14049499  0.10981647  0.14484256  1.0
  C  C126  1  0.34782003  0.84863397  0.84804722  1.0
  C  C127  1  0.40181133  0.90193884  0.90182490  1.0
  C  C128  1  0.30316934  0.92018494  0.86158070  1.0
  C  C129  1  0.44643921  0.83029375  0.88833738  1.0
  C  C130  1  0.33001111  0.94670788  0.88830256  1.0
  C  C131  1  0.41959405  0.80381528  0.86158947  1.0
  C  C132  1  0.40814410  0.44903479  0.85289729  1.0
  C  C133  1  0.34561796  0.30053860  0.89743398  1.0
  C  C134  1  0.33921283  0.49130109  0.83635544  1.0
  C  C135  1  0.41397350  0.25868781  0.91376265  1.0
  C  C136  1  0.34325137  0.36983766  0.87523149  1.0
  C  C137  1  0.41018673  0.37943602  0.87514042  1.0
  C  C138  1  0.94534004  0.79390289  0.84900027  1.0
  C  C139  1  0.80421486  0.95261151  0.90094031  1.0
  C  C140  1  0.99128887  0.83338998  0.83607644  1.0
  C  C141  1  0.75875201  0.91345397  0.91370740  1.0
  C  C142  1  0.87213503  0.90935035  0.87737263  1.0
  C  C143  1  0.87711847  0.83769097  0.87266031  1.0
  S  S144  1  0.29881870  0.32678124  0.39719365  1.0
  S  S145  1  0.45160967  0.42648312  0.35283989  1.0
  S  S146  1  0.66063645  0.63335160  0.56272565  1.0
  S  S147  1  0.59005590  0.61561914  0.68905019  1.0
  S  S148  1  0.13347217  0.16060721  0.56271503  1.0
  S  S149  1  0.11550128  0.09009904  0.68909841  1.0
  S  S150  1  0.97230192  0.80372665  0.40193966  1.0
  S  S151  1  0.77384347  0.94640198  0.34775806  1.0
  S  S152  1  0.61675066  0.58872289  0.18719321  1.0
  S  S153  1  0.63458245  0.65987286  0.06087949  1.0
  S  S154  1  0.01394570  0.18222604  0.11177671  1.0
  S  S155  1  0.23867015  0.06591792  0.13970991  1.0
  S  S156  1  0.27765502  0.44606423  0.84805924  1.0
  S  S157  1  0.47601666  0.30317670  0.90230817  1.0
  S  S158  1  0.95100758  0.92325520  0.85281312  1.0
  S  S159  1  0.79820505  0.82361202  0.89722028  1.0
  O  O160  1  0.00025277  0.49973231  0.49981879  1.0
  O  O161  1  0.07796016  0.31522668  0.52315878  1.0
  O  O162  1  0.03146852  0.53122732  0.58576017  1.0
  O  O163  1  0.15534421  0.50696265  0.45027235  1.0
  O  O164  1  0.02614526  0.37530663  0.58113703  1.0
  O  O165  1  0.15433217  0.39241729  0.44660854  1.0
  O  O166  1  0.08472458  0.58696405  0.53089995  1.0
  O  O167  1  0.00294450  0.65836006  0.44995281  1.0
  O  O168  1  0.88684189  0.49525573  0.44229747  1.0
  O  O169  1  0.89024980  0.65215940  0.44720213  1.0
  O  O170  1  0.99692481  0.38685698  0.44182290  1.0
  O  O171  1  0.87568977  0.52589277  0.58135262  1.0
  O  O172  1  0.81485741  0.57669829  0.52343103  1.0
  O  O173  1  0.74975329  0.25021046  0.25001041  1.0
  O  O174  1  0.59684051  0.35816039  0.30296717  1.0
  O  O175  1  0.66401878  0.16432351  0.21913761  1.0
  O  O176  1  0.72553010  0.37389564  0.16880512  1.0
  O  O177  1  0.59283299  0.24470424  0.30011360  1.0
  O  O178  1  0.67254699  0.43454260  0.22655395  1.0
  O  O179  1  0.72018086  0.21759894  0.16447455  1.0
  O  O180  1  0.87788064  0.22233594  0.16926515  1.0
  O  O181  1  0.86210566  0.25386660  0.30895310  1.0
  O  O182  1  0.93411256  0.17186390  0.22867622  1.0
  O  O183  1  0.75344759  0.36355462  0.30810004  1.0
  O  O184  1  0.74466344  0.09336049  0.30000705  1.0
  O  O185  1  0.85831637  0.09660481  0.30381205  1.0
  O  O186  1  0.24973154  0.75028402  0.75004108  1.0
  O  O187  1  0.37553773  0.72483552  0.66866808  1.0
  O  O188  1  0.36298426  0.75468389  0.80805586  1.0
  O  O189  1  0.17229694  0.93367164  0.72762246  1.0
  O  O190  1  0.43401466  0.67343575  0.72734239  1.0
  O  O191  1  0.22456104  0.87593414  0.66889981  1.0
  O  O192  1  0.25296474  0.86308567  0.80845156  1.0
  O  O193  1  0.09535261  0.85771850  0.80366849  1.0
  O  O194  1  0.16573004  0.66331560  0.71894586  1.0
  O  O195  1  0.09479380  0.74303359  0.79988309  1.0
  O  O196  1  0.21902909  0.71919558  0.66416391  1.0
  O  O197  1  0.35986524  0.59757541  0.80317769  1.0
  O  O198  1  0.24715084  0.59169872  0.80015514  1.0
  O  O199  1  0.50003588  0.99994529  0.99999554  1.0
  O  O200  1  0.50502168  0.15626399  0.94989287  1.0
  O  O201  1  0.38709791  0.99613108  0.94162538  1.0
  O  O202  1  0.65323053  0.89186762  0.94687315  1.0
  O  O203  1  0.39085769  0.15355920  0.94670102  1.0
  O  O204  1  0.65685965  0.00547193  0.94978904  1.0
  O  O205  1  0.49633036  0.88697921  0.94169092  1.0
  O  O206  1  0.57765655  0.81607405  0.02255855  1.0
  O  O207  1  0.53119326  0.03093289  0.08566629  1.0
  O  O208  1  0.52564308  0.87400410  0.08120966  1.0
  O  O209  1  0.58579859  0.08566899  0.03097746  1.0
  O  O210  1  0.31535096  0.07811621  0.02224368  1.0
  O  O211  1  0.37435797  0.02552574  0.08069680  1.0
  O  O212  1  0.28527207  0.52689350  0.41034600  1.0
  O  O213  1  0.78111633  0.53964295  0.65626092  1.0
  O  O214  1  0.03979383  0.28093823  0.65596757  1.0
  O  O215  1  0.78518088  0.77706932  0.40213843  1.0
  O  O216  1  0.71045176  0.46883386  0.09379252  1.0
  O  O217  1  0.09382535  0.10181820  0.21878998  1.0
  O  O218  1  0.46484439  0.47262507  0.84790979  1.0
  O  O219  1  0.96473472  0.72306111  0.83971741  1.0
