# generated using pymatgen
data_BaH24(C17O6)2
_symmetry_space_group_name_H-M   'P 1'
_cell_length_a   8.95623172
_cell_length_b   12.53296471
_cell_length_c   17.39353030
_cell_angle_alpha   68.87972812
_cell_angle_beta   82.30822208
_cell_angle_gamma   90.00195201
_symmetry_Int_Tables_number   1
_chemical_formula_structural   BaH24(C17O6)2
_chemical_formula_sum   'Ba2 H48 C68 O24'
_cell_volume   1802.39356638
_cell_formula_units_Z   2
loop_
 _symmetry_equiv_pos_site_id
 _symmetry_equiv_pos_as_xyz
  1  'x, y, z'
loop_
 _atom_site_type_symbol
 _atom_site_label
 _atom_site_symmetry_multiplicity
 _atom_site_fract_x
 _atom_site_fract_y
 _atom_site_fract_z
 _atom_site_occupancy
  Ba  Ba0  1  0.25001409  0.42387000  0.00002346  1.0
  Ba  Ba1  1  0.74998672  0.57612988  0.99997604  1.0
  H  H2  1  0.21833685  0.23953222  0.21463329  1.0
  H  H3  1  0.28167511  0.45396470  0.78538106  1.0
  H  H4  1  0.78165945  0.76046965  0.78536423  1.0
  H  H5  1  0.71832566  0.54603350  0.21462096  1.0
  H  H6  1  0.80214587  0.30665812  0.10106022  1.0
  H  H7  1  0.69790330  0.40781259  0.89892017  1.0
  H  H8  1  0.19785150  0.69334273  0.89893917  1.0
  H  H9  1  0.30209740  0.59218739  0.10108093  1.0
  H  H10  1  0.87342956  0.10959326  0.35217326  1.0
  H  H11  1  0.62662142  0.46192257  0.64780393  1.0
  H  H12  1  0.12656686  0.89040678  0.64782438  1.0
  H  H13  1  0.37338046  0.53807745  0.35219629  1.0
  H  H14  1  0.42400311  0.19411742  0.29706324  1.0
  H  H15  1  0.07608043  0.49111816  0.70294865  1.0
  H  H16  1  0.57599212  0.80588317  0.70293470  1.0
  H  H17  1  0.92392145  0.50888127  0.29705215  1.0
  H  H18  1  0.61875520  0.96333721  0.31132374  1.0
  H  H19  1  0.88128838  0.27465283  0.68870260  1.0
  H  H20  1  0.38124562  0.03666152  0.68867691  1.0
  H  H21  1  0.11871237  0.72534711  0.31129770  1.0
  H  H22  1  0.64470136  0.28580265  0.41038783  1.0
  H  H23  1  0.85542196  0.69616661  0.58961677  1.0
  H  H24  1  0.35529714  0.71419712  0.58961263  1.0
  H  H25  1  0.14457992  0.30383339  0.41038346  1.0
  H  H26  1  0.69227001  0.53941958  0.45289693  1.0
  H  H27  1  0.80803742  0.99227552  0.54716923  1.0
  H  H28  1  0.30773081  0.46057914  0.54710372  1.0
  H  H29  1  0.19196333  0.00772383  0.45283165  1.0
  H  H30  1  0.60086840  0.46854085  0.39774574  1.0
  H  H31  1  0.89950011  0.86622432  0.60222425  1.0
  H  H32  1  0.39913361  0.53145675  0.60225517  1.0
  H  H33  1  0.10049953  0.13377496  0.39777670  1.0
  H  H34  1  0.77846470  0.42138533  0.43231299  1.0
  H  H35  1  0.72176304  0.85365669  0.56779426  1.0
  H  H36  1  0.22153724  0.57861348  0.56768758  1.0
  H  H37  1  0.27823771  0.14634381  0.43220547  1.0
  H  H38  1  0.74744986  0.84197767  0.26224330  1.0
  H  H39  1  0.75259116  0.10416661  0.73777176  1.0
  H  H40  1  0.25255203  0.15802119  0.73775807  1.0
  H  H41  1  0.24740847  0.89583266  0.26222920  1.0
  H  H42  1  0.57870889  0.88815916  0.21685216  1.0
  H  H43  1  0.92130652  0.10493186  0.78318788  1.0
  H  H44  1  0.42129293  0.11184032  0.78314944  1.0
  H  H45  1  0.07869536  0.89506816  0.21681234  1.0
  H  H46  1  0.65776299  0.75700235  0.21582421  1.0
  H  H47  1  0.84227440  0.97276283  0.78418324  1.0
  H  H48  1  0.34223890  0.24299709  0.78417658  1.0
  H  H49  1  0.15772749  0.02723661  0.21581755  1.0
  C  C50  1  0.01740605  0.22754200  0.19059688  1.0
  C  C51  1  0.48266114  0.41819139  0.80940513  1.0
  C  C52  1  0.98259037  0.77245803  0.80940076  1.0
  C  C53  1  0.51733962  0.58180797  0.19059574  1.0
  C  C54  1  0.60149480  0.26027267  0.19282843  1.0
  C  C55  1  0.89857943  0.45319074  0.80715097  1.0
  C  C56  1  0.39850138  0.73972872  0.80717127  1.0
  C  C57  1  0.10142127  0.54681039  0.19284899  1.0
  C  C58  1  0.85429769  0.21340279  0.22400571  1.0
  C  C59  1  0.64576574  0.43750181  0.77598273  1.0
  C  C60  1  0.14569861  0.78659851  0.77599238  1.0
  C  C61  1  0.35423502  0.56249697  0.22401871  1.0
  C  C62  1  0.75623167  0.26443914  0.16656066  1.0
  C  C63  1  0.74384203  0.43111063  0.83341619  1.0
  C  C64  1  0.24376463  0.73556273  0.83343686  1.0
  C  C65  1  0.25615867  0.56888993  0.16658434  1.0
  C  C66  1  0.79755988  0.15355365  0.30809548  1.0
  C  C67  1  0.70249737  0.46174968  0.69189010  1.0
  C  C68  1  0.20243529  0.84644699  0.69190327  1.0
  C  C69  1  0.29750339  0.53824968  0.30811077  1.0
  C  C70  1  0.54521653  0.19977039  0.27659733  1.0
  C  C71  1  0.95485430  0.47638808  0.72339736  1.0
  C  C72  1  0.45477971  0.80023096  0.72340156  1.0
  C  C73  1  0.04514645  0.52361185  0.27660294  1.0
  C  C74  1  0.64153927  0.14446136  0.33444523  1.0
  C  C75  1  0.85852920  0.47893193  0.66555029  1.0
  C  C76  1  0.35845822  0.85553940  0.66555255  1.0
  C  C77  1  0.14147149  0.52106863  0.33445024  1.0
  C  C78  1  0.49920406  0.32018483  0.13096943  1.0
  C  C79  1  0.00087359  0.45128776  0.86900228  1.0
  C  C80  1  0.50079211  0.67981714  0.86902970  1.0
  C  C81  1  0.99912824  0.54871230  0.13099874  1.0
  C  C82  1  0.57347420  0.07107521  0.42039580  1.0
  C  C83  1  0.92657297  0.49147812  0.57960534  1.0
  C  C84  1  0.42652211  0.92892493  0.57960344  1.0
  C  C85  1  0.07342891  0.50852189  0.42039488  1.0
  C  C86  1  0.54577288  0.11586961  0.48425348  1.0
  C  C87  1  0.95427980  0.60012834  0.51573653  1.0
  C  C88  1  0.45422455  0.88413002  0.51574626  1.0
  C  C89  1  0.04572321  0.39987175  0.48426362  1.0
  C  C90  1  0.52935807  0.95658158  0.43502937  1.0
  C  C91  1  0.97062480  0.39161369  0.56498191  1.0
  C  C92  1  0.47063930  0.04341927  0.56497002  1.0
  C  C93  1  0.02937595  0.60838683  0.43501781  1.0
  C  C94  1  0.55788528  0.27501530  0.53385492  1.0
  C  C95  1  0.94216847  0.80886630  0.46613872  1.0
  C  C96  1  0.44211554  0.72498342  0.46614573  1.0
  C  C97  1  0.05783348  0.19113250  0.53386185  1.0
  C  C98  1  0.55971542  0.90910647  0.37164439  1.0
  C  C99  1  0.94026946  0.28074176  0.62837278  1.0
  C  C100  1  0.44028421  0.09089338  0.62835599  1.0
  C  C101  1  0.05973130  0.71925760  0.37162809  1.0
  C  C102  1  0.58804478  0.23147538  0.47140651  1.0
  C  C103  1  0.91206489  0.70287818  0.52859741  1.0
  C  C104  1  0.41195490  0.76852384  0.52859365  1.0
  C  C105  1  0.08793700  0.29712182  0.47140282  1.0
  C  C106  1  0.51964601  0.79709487  0.38588048  1.0
  C  C107  1  0.98035716  0.18297418  0.61413542  1.0
  C  C108  1  0.48035362  0.20290498  0.61411990  1.0
  C  C109  1  0.01964359  0.81702633  0.38586431  1.0
  C  C110  1  0.67098276  0.45710345  0.44701401  1.0
  C  C111  1  0.82927064  0.90408026  0.55302077  1.0
  C  C112  1  0.32901812  0.54289407  0.55298698  1.0
  C  C113  1  0.17073012  0.09591967  0.44697953  1.0
  C  C114  1  0.63853232  0.81300324  0.25158427  1.0
  C  C115  1  0.86150648  0.06453457  0.74843508  1.0
  C  C116  1  0.36146844  0.18699611  0.74841661  1.0
  C  C117  1  0.13849434  0.93546417  0.25156556  1.0
  O  O118  1  0.06144225  0.25212646  0.11505994  1.0
  O  O119  1  0.43870308  0.36750727  0.88498583  1.0
  O  O120  1  0.93855304  0.74787235  0.88493892  1.0
  O  O121  1  0.56129893  0.63249034  0.11501508  1.0
  O  O122  1  0.35623167  0.30182548  0.15109573  1.0
  O  O123  1  0.14384511  0.45309978  0.84887754  1.0
  O  O124  1  0.64376576  0.69817532  0.84890286  1.0
  O  O125  1  0.85615559  0.54689962  0.15112414  1.0
  O  O126  1  0.55713510  0.38881974  0.05923820  1.0
  O  O127  1  0.94293513  0.44824232  0.94071464  1.0
  O  O128  1  0.44286120  0.61118155  0.94075989  1.0
  O  O129  1  0.05706781  0.55175897  0.05928516  1.0
  O  O130  1  0.11075490  0.21565227  0.24613201  1.0
  O  O131  1  0.38922626  0.46146629  0.75386351  1.0
  O  O132  1  0.88924021  0.78435015  0.75386581  1.0
  O  O133  1  0.61077563  0.53853257  0.24613786  1.0
  O  O134  1  0.59408848  0.38377564  0.52644071  1.0
  O  O135  1  0.90598065  0.91020086  0.47355431  1.0
  O  O136  1  0.40591234  0.61622251  0.47356051  1.0
  O  O137  1  0.09402123  0.08979859  0.52644648  1.0
  O  O138  1  0.54970290  0.74571013  0.32873263  1.0
  O  O139  1  0.95035310  0.07442761  0.67128679  1.0
  O  O140  1  0.45029899  0.25428873  0.67126874  1.0
  O  O141  1  0.04964766  0.92557232  0.32871351  1.0
