# generated using pymatgen
data_AlH21C27(NO)6
_symmetry_space_group_name_H-M   'P 1'
_cell_length_a   3.98472655
_cell_length_b   16.06588291
_cell_length_c   16.07006223
_cell_angle_alpha   119.89217631
_cell_angle_beta   89.95848315
_cell_angle_gamma   89.98131663
_symmetry_Int_Tables_number   1
_chemical_formula_structural   AlH21C27(NO)6
_chemical_formula_sum   'Al1 H21 C27 N6 O6'
_cell_volume   891.91177677
_cell_formula_units_Z   1
loop_
 _symmetry_equiv_pos_site_id
 _symmetry_equiv_pos_as_xyz
  1  'x, y, z'
loop_
 _atom_site_type_symbol
 _atom_site_label
 _atom_site_symmetry_multiplicity
 _atom_site_fract_x
 _atom_site_fract_y
 _atom_site_fract_z
 _atom_site_occupancy
  Al  Al0  1  0.00007637  0.50109616  0.49888513  1.0
  H  H1  1  0.49974799  0.92270436  0.07722654  1.0
  H  H2  1  0.49336026  0.65538891  0.07732996  1.0
  H  H3  1  0.50670314  0.92250260  0.34442474  1.0
  H  H4  1  0.79434676  0.05442933  0.16526842  1.0
  H  H5  1  0.18881623  0.05252819  0.38684423  1.0
  H  H6  1  0.20546288  0.83464702  0.94552046  1.0
  H  H7  1  0.81092844  0.61295001  0.94725454  1.0
  H  H8  1  0.79898341  0.61215183  0.16463902  1.0
  H  H9  1  0.20110275  0.83516556  0.38755730  1.0
  H  H10  1  0.04602545  0.30275812  0.51234449  1.0
  H  H11  1  0.99893070  0.19877400  0.50971976  1.0
  H  H12  1  0.94782400  0.30326107  0.29421055  1.0
  H  H13  1  0.98385953  0.20138474  0.19065718  1.0
  H  H14  1  0.05233790  0.70583343  0.69676456  1.0
  H  H15  1  0.01617563  0.80934964  0.79867752  1.0
  H  H16  1  0.95381182  0.48761064  0.69709426  1.0
  H  H17  1  0.00078349  0.49008671  0.80097468  1.0
  H  H18  1  0.88488280  0.47462514  0.28188691  1.0
  H  H19  1  0.98984116  0.48872606  0.18565563  1.0
  H  H20  1  0.11544080  0.71812978  0.52527816  1.0
  H  H21  1  0.01034284  0.81427233  0.51100936  1.0
  C  C22  1  0.50275161  0.57385216  0.64974856  1.0
  C  C23  1  0.50016429  0.57521218  0.42473280  1.0
  C  C24  1  0.49729755  0.35019835  0.42610674  1.0
  C  C25  1  0.50461194  0.78288758  0.06492465  1.0
  C  C26  1  0.49977266  0.88350587  0.11640015  1.0
  C  C27  1  0.49514279  0.93494597  0.21699423  1.0
  C  C28  1  0.49668734  0.88342302  0.26624544  1.0
  C  C29  1  0.50001626  0.78278191  0.21702478  1.0
  C  C30  1  0.50319948  0.73359198  0.11640624  1.0
  C  C31  1  0.66134853  0.19306260  0.28313670  1.0
  C  C32  1  0.65249793  0.09244788  0.23202721  1.0
  C  C33  1  0.49285259  0.04116091  0.27009061  1.0
  C  C34  1  0.33202034  0.09139694  0.35919823  1.0
  C  C35  1  0.32541083  0.19209859  0.41036622  1.0
  C  C36  1  0.49553565  0.24295411  0.37247555  1.0
  C  C37  1  0.34737392  0.76788586  0.90750090  1.0
  C  C38  1  0.33856175  0.71682253  0.80690819  1.0
  C  C39  1  0.50437036  0.62746938  0.75696314  1.0
  C  C40  1  0.67441513  0.58952492  0.80775459  1.0
  C  C41  1  0.66777205  0.64064566  0.90843901  1.0
  C  C42  1  0.50690911  0.72975862  0.95872030  1.0
  C  C43  1  0.66076649  0.64069010  0.23197309  1.0
  C  C44  1  0.66969530  0.58966991  0.28169296  1.0
  C  C45  1  0.50009762  0.62729344  0.37256302  1.0
  C  C46  1  0.33046200  0.71815268  0.41013509  1.0
  C  C47  1  0.33931114  0.76782806  0.35907581  1.0
  C  C48  1  0.50003667  0.72963197  0.27015272  1.0
  N  N49  1  0.16364951  0.24084841  0.49896439  1.0
  N  N50  1  0.82308939  0.24342327  0.24465696  1.0
  N  N51  1  0.17697452  0.75536444  0.75662085  1.0
  N  N52  1  0.83614531  0.50092722  0.75896850  1.0
  N  N53  1  0.82419552  0.50155757  0.23859082  1.0
  N  N54  1  0.17598582  0.76135243  0.49823546  1.0
  O  O55  1  0.26078466  0.39363296  0.40907451  1.0
  O  O56  1  0.26634580  0.51399857  0.60595412  1.0
  O  O57  1  0.27015149  0.59251674  0.48867498  1.0
  O  O58  1  0.73364198  0.39398576  0.48596240  1.0
  O  O59  1  0.73023357  0.51130944  0.40747473  1.0
  O  O60  1  0.73934670  0.59092550  0.60634456  1.0
