# generated using pymatgen
data_Zn2H14C18N4O11
_symmetry_space_group_name_H-M   'P 1'
_cell_length_a   9.94277840
_cell_length_b   11.18589303
_cell_length_c   14.49210760
_cell_angle_alpha   88.30758310
_cell_angle_beta   85.78169784
_cell_angle_gamma   80.45211649
_symmetry_Int_Tables_number   1
_chemical_formula_structural   Zn2H14C18N4O11
_chemical_formula_sum   'Zn2 H14 C18 N4 O11'
_cell_volume   1584.91591550
_cell_formula_units_Z   1
loop_
 _symmetry_equiv_pos_site_id
 _symmetry_equiv_pos_as_xyz
  1  'x, y, z'
loop_
 _atom_site_type_symbol
 _atom_site_label
 _atom_site_symmetry_multiplicity
 _atom_site_fract_x
 _atom_site_fract_y
 _atom_site_fract_z
 _atom_site_occupancy
  Zn  Zn0  1  0.35523545  0.53309993  0.50780052  1.0
  Zn  Zn1  1  0.65499412  0.47538016  0.48703655  1.0
  H  H2  1  0.70256220  0.09760661  0.47292385  1.0
  H  H3  1  0.75289234  0.56304961  0.63573485  1.0
  H  H4  1  0.04240057  0.43280090  0.41584943  1.0
  H  H5  1  0.98860878  0.28448807  0.32302064  1.0
  H  H6  1  0.81403236  0.31521934  0.36437135  1.0
  H  H7  1  0.93928656  0.24158985  0.43952171  1.0
  H  H8  1  0.38985794  0.12175814  0.50128137  1.0
  H  H9  1  0.14255597  0.46718044  0.57618506  1.0
  H  H10  1  0.79084027  0.93736686  0.40805004  1.0
  H  H11  1  0.34585936  0.85592576  0.55564688  1.0
  H  H12  1  0.91203506  0.73688037  0.45385402  1.0
  H  H13  1  0.16583701  0.80887102  0.47051008  1.0
  H  H14  1  0.07151545  0.83074260  0.36933054  1.0
  H  H15  1  0.19816393  0.69965562  0.38104034  1.0
  C  C16  1  0.50031155  0.27605846  0.49826864  1.0
  C  C17  1  0.52398836  0.73242296  0.49781022  1.0
  C  C18  1  0.50678441  0.50403777  0.68102040  1.0
  C  C19  1  0.49601672  0.51903165  0.21966218  1.0
  C  C20  1  0.49811627  0.51993627  0.13485552  1.0
  C  C21  1  0.50163388  0.51938285  0.04221923  1.0
  C  C22  1  0.50574163  0.51728087  0.95690978  1.0
  C  C23  1  0.50908379  0.51360414  0.86438555  1.0
  C  C24  1  0.11811888  0.76304746  0.41867219  1.0
  C  C25  1  0.91922579  0.31074052  0.38404447  1.0
  C  C26  1  0.51117957  0.50922386  0.77974658  1.0
  C  C27  1  0.61826085  0.93228151  0.47297305  1.0
  C  C28  1  0.51771804  0.86594199  0.50104872  1.0
  C  C29  1  0.60575988  0.06192670  0.48056950  1.0
  C  C30  1  0.49166259  0.14569389  0.49488817  1.0
  C  C31  1  0.03426363  0.59924558  0.51330195  1.0
  C  C32  1  0.90625185  0.54936040  0.54228554  1.0
  C  C33  1  0.49931116  0.51511045  0.31909875  1.0
  N  N34  1  0.15343906  0.54063500  0.53444065  1.0
  N  N35  1  0.86354511  0.47126669  0.49145817  1.0
  N  N36  1  0.01196872  0.70012418  0.46124757  1.0
  N  N37  1  0.94075701  0.43110755  0.40996779  1.0
  O  O38  1  0.38892903  0.34962661  0.48927718  1.0
  O  O39  1  0.39480911  0.92450124  0.53784805  1.0
  O  O40  1  0.84150892  0.59635916  0.61960457  1.0
  O  O41  1  0.61677765  0.30630129  0.50929307  1.0
  O  O42  1  0.39008980  0.56084240  0.36565168  1.0
  O  O43  1  0.61193205  0.46580482  0.35028689  1.0
  O  O44  1  0.41061841  0.69874502  0.52862105  1.0
  O  O45  1  0.63119317  0.66320295  0.46829978  1.0
  O  O46  1  0.39461662  0.49316031  0.64963911  1.0
  O  O47  1  0.61854661  0.51085639  0.63165742  1.0
  O  O48  1  0.74426286  0.87376973  0.43601923  1.0
