# generated using pymatgen
data_Zn2H45C51I5N4O17
_symmetry_space_group_name_H-M   'P 1'
_cell_length_a   9.34035411
_cell_length_b   10.87838696
_cell_length_c   23.42241297
_cell_angle_alpha   91.32973642
_cell_angle_beta   91.12492167
_cell_angle_gamma   107.67381699
_symmetry_Int_Tables_number   1
_chemical_formula_structural   Zn2H45C51I5N4O17
_chemical_formula_sum   'Zn2 H45 C51 I5 N4 O17'
_cell_volume   2266.07358569
_cell_formula_units_Z   1
loop_
 _symmetry_equiv_pos_site_id
 _symmetry_equiv_pos_as_xyz
  1  'x, y, z'
loop_
 _atom_site_type_symbol
 _atom_site_label
 _atom_site_symmetry_multiplicity
 _atom_site_fract_x
 _atom_site_fract_y
 _atom_site_fract_z
 _atom_site_occupancy
  Zn  Zn0  1  0.65500318  0.55991844  0.49928981  1.0
  Zn  Zn1  1  0.34250977  0.47881987  0.49667577  1.0
  H  H2  1  0.47491594  0.17359549  0.03250792  1.0
  H  H3  1  0.73610530  0.51005968  0.33018318  1.0
  H  H4  1  0.76793999  0.51828792  0.22443693  1.0
  H  H5  1  0.63635923  0.95246794  0.47985022  1.0
  H  H6  1  0.37914292  0.12870220  0.44330998  1.0
  H  H7  1  0.84987220  0.50545457  0.41653489  1.0
  H  H8  1  0.14830858  0.53893054  0.41823005  1.0
  H  H9  1  0.60896799  0.83503947  0.96082962  1.0
  H  H10  1  0.33447526  0.62634099  0.79153323  1.0
  H  H11  1  0.69521167  0.51175736  0.66442151  1.0
  H  H12  1  0.27754538  0.04477890  0.95506038  1.0
  H  H13  1  0.45454231  0.02061636  0.97227306  1.0
  H  H14  1  0.33056896  0.99730108  0.84969015  1.0
  H  H15  1  0.47517318  0.93871886  0.87631120  1.0
  H  H16  1  0.27959650  0.77809138  0.93621380  1.0
  H  H17  1  0.24430197  0.75388504  0.86154890  1.0
  H  H18  1  0.13792131  0.83193962  0.90268069  1.0
  H  H19  1  0.97212512  0.26016328  0.59479841  1.0
  H  H20  1  0.16576457  0.32246690  0.57781469  1.0
  H  H21  1  0.92352235  0.10611185  0.51167625  1.0
  H  H22  1  0.11406323  0.16841300  0.49145312  1.0
  H  H23  1  0.19990540  0.09838128  0.58465491  1.0
  H  H24  1  0.07650741  0.96511115  0.54549567  1.0
  H  H25  1  0.00942595  0.03402363  0.60468297  1.0
  H  H26  1  0.40492486  0.86906562  0.68951073  1.0
  H  H27  1  0.32132130  0.79743415  0.75322754  1.0
  H  H28  1  0.15492686  0.83779406  0.64462137  1.0
  H  H29  1  0.06573782  0.74607686  0.70299167  1.0
  H  H30  1  0.15809483  0.94416903  0.76791324  1.0
  H  H31  1  0.04874548  0.97079686  0.70952602  1.0
  H  H32  1  0.24756581  0.03584600  0.70963695  1.0
  H  H33  1  0.96583669  0.51827164  0.78263795  1.0
  H  H34  1  0.89755720  0.55501413  0.71576896  1.0
  H  H35  1  0.81325488  0.28204156  0.76235921  1.0
  H  H36  1  0.78386800  0.32295856  0.69140412  1.0
  H  H37  1  0.07016967  0.41011209  0.68093451  1.0
  H  H38  1  0.01047597  0.24387901  0.69727085  1.0
  H  H39  1  0.09390705  0.36175864  0.75126075  1.0
  H  H40  1  0.27593789  0.55585030  0.16154504  1.0
  H  H41  1  0.16853142  0.50986123  0.22393962  1.0
  H  H42  1  0.08204634  0.37177855  0.10695400  1.0
  H  H43  1  0.97295677  0.34331506  0.16886613  1.0
  H  H44  1  0.96167997  0.57648751  0.16611736  1.0
  H  H45  1  0.87920649  0.48350896  0.10390641  1.0
  H  H46  1  0.06179523  0.59653599  0.10193205  1.0
  C  C47  1  0.50529689  0.29103623  0.52130439  1.0
  C  C48  1  0.49236304  0.26673958  0.01298684  1.0
  C  C49  1  0.48632484  0.27652360  0.95288490  1.0
  C  C50  1  0.51134105  0.39932143  0.92904626  1.0
  C  C51  1  0.54244241  0.50978210  0.96622971  1.0
  C  C52  1  0.56888808  0.63473060  0.94408681  1.0
  C  C53  1  0.59002455  0.74154893  0.98018141  1.0
  C  C54  1  0.58560191  0.73061956  0.03989218  1.0
  C  C55  1  0.49448661  0.41378892  0.86677135  1.0
  C  C56  1  0.57287717  0.65518176  0.88180227  1.0
  C  C57  1  0.41389965  0.60243334  0.76321620  1.0
  C  C58  1  0.49177478  0.57531773  0.60522464  1.0
  C  C59  1  0.40442272  0.61913019  0.70445630  1.0
  C  C60  1  0.50467976  0.58163177  0.66911998  1.0
  C  C61  1  0.61885568  0.53830169  0.69335989  1.0
  C  C62  1  0.63296762  0.52822526  0.75235919  1.0
  C  C63  1  0.52479263  0.55704181  0.78675786  1.0
  C  C64  1  0.38509901  0.40724814  0.22847460  1.0
  C  C65  1  0.36843378  0.39706045  0.28793195  1.0
  C  C66  1  0.49580561  0.43834911  0.32502399  1.0
  C  C67  1  0.63865054  0.47930561  0.30113118  1.0
  C  C68  1  0.65670466  0.48475020  0.24248877  1.0
  C  C69  1  0.51067767  0.74984529  0.47139791  1.0
  C  C70  1  0.52990059  0.45131229  0.20651974  1.0
  C  C71  1  0.41545621  0.94466228  0.46103060  1.0
  C  C72  1  0.52328585  0.88819311  0.46984353  1.0
  C  C73  1  0.43425432  0.07965298  0.47280860  1.0
  C  C74  1  0.50206209  0.15233908  0.51900419  1.0
  C  C75  1  0.92703718  0.52865314  0.45411669  1.0
  C  C76  1  0.06855059  0.49846472  0.45140432  1.0
  C  C77  1  0.48935487  0.45294412  0.38896149  1.0
  C  C78  1  0.56360772  0.59260056  0.12647921  1.0
  C  C79  1  0.52594041  0.35548563  0.11139547  1.0
  C  C80  1  0.52148226  0.37450535  0.04901080  1.0
  C  C81  1  0.54513140  0.49931415  0.02687661  1.0
  C  C82  1  0.56662710  0.60989088  0.06388372  1.0
  C  C83  1  0.38676341  0.04507210  0.93779152  1.0
  C  C84  1  0.36643901  0.95218377  0.88663881  1.0
  C  C85  1  0.25075024  0.82207395  0.89754990  1.0
  C  C86  1  0.05209759  0.27494738  0.56002027  1.0
  C  C87  1  0.03970413  0.14913497  0.52812504  1.0
  C  C88  1  0.08383024  0.05650401  0.56801471  1.0
  C  C89  1  0.30589199  0.79658861  0.70643750  1.0
  C  C90  1  0.16238353  0.82770567  0.69126416  1.0
  C  C91  1  0.15424417  0.95170327  0.72121303  1.0
  C  C92  1  0.87347493  0.48572213  0.75052200  1.0
  C  C93  1  0.86196584  0.34995839  0.72867899  1.0
  C  C94  1  0.01729773  0.34103621  0.71355883  1.0
  C  C95  1  0.19496238  0.47435266  0.18214625  1.0
  C  C96  1  0.05369720  0.41902420  0.14533210  1.0
  C  C97  1  0.98524541  0.52445851  0.12838176  1.0
  I  I98  1  0.14741441  0.30754173  0.31464563  1.0
  I  I99  1  0.19476112  0.84887874  0.42864664  1.0
  I  I100  1  0.60241255  0.09113052  0.58936190  1.0
  I  I101  1  0.00801137  0.64200132  0.57038238  1.0
  I  I102  1  0.60238080  0.90426762  0.08504618  1.0
  N  N103  1  0.54329119  0.46657307  0.14578541  1.0
  N  N104  1  0.53198599  0.54283284  0.84741218  1.0
  N  N105  1  0.87876872  0.58016209  0.49671537  1.0
  N  N106  1  0.11003896  0.42411278  0.48611400  1.0
  O  O107  1  0.62679506  0.37706223  0.53510204  1.0
  O  O108  1  0.51573177  0.25084711  0.13247101  1.0
  O  O109  1  0.44833296  0.32424544  0.83177086  1.0
  O  O110  1  0.60694362  0.76346545  0.86149027  1.0
  O  O111  1  0.38126797  0.30812487  0.50614881  1.0
  O  O112  1  0.61289179  0.62061751  0.57834630  1.0
  O  O113  1  0.36265736  0.51764243  0.58291832  1.0
  O  O114  1  0.63316619  0.72217281  0.46500595  1.0
  O  O115  1  0.38331591  0.67103965  0.48224386  1.0
  O  O116  1  0.60916297  0.46282837  0.41839001  1.0
  O  O117  1  0.36730833  0.46006887  0.40918523  1.0
  O  O118  1  0.57651609  0.68113304  0.16171850  1.0
  O  O119  1  0.46010446  0.17310940  0.91742326  1.0
  O  O120  1  0.00547908  0.36633959  0.52517515  1.0
  O  O121  1  0.29794155  0.67084609  0.68204146  1.0
  O  O122  1  0.74272867  0.49295817  0.78043506  1.0
  O  O123  1  0.26394765  0.37285522  0.19098674  1.0
