# generated using pymatgen
data_Zn4H24C37O13
_symmetry_space_group_name_H-M   'P 1'
_cell_length_a   10.83650141
_cell_length_b   10.94778759
_cell_length_c   16.08024677
_cell_angle_alpha   99.25427885
_cell_angle_beta   90.25398998
_cell_angle_gamma   100.23021065
_symmetry_Int_Tables_number   1
_chemical_formula_structural   Zn4H24C37O13
_chemical_formula_sum   'Zn4 H24 C37 O13'
_cell_volume   1851.85881496
_cell_formula_units_Z   1
loop_
 _symmetry_equiv_pos_site_id
 _symmetry_equiv_pos_as_xyz
  1  'x, y, z'
loop_
 _atom_site_type_symbol
 _atom_site_label
 _atom_site_symmetry_multiplicity
 _atom_site_fract_x
 _atom_site_fract_y
 _atom_site_fract_z
 _atom_site_occupancy
  Zn  Zn0  1  0.40819801  0.57973271  0.43019519  1.0
  Zn  Zn1  1  0.38900390  0.38742969  0.56394167  1.0
  Zn  Zn2  1  0.61280543  0.62784773  0.58064949  1.0
  Zn  Zn3  1  0.60046064  0.39552994  0.42481214  1.0
  H  H4  1  0.51486605  0.25168289  0.00141148  1.0
  H  H5  1  0.44550998  0.29519998  0.91194333  1.0
  H  H6  1  0.60853364  0.34243273  0.93461618  1.0
  H  H7  1  0.57428287  0.78309480  0.95517554  1.0
  H  H8  1  0.53995088  0.98681864  0.03599341  1.0
  H  H9  1  0.39508814  0.98978168  0.15596845  1.0
  H  H10  1  0.28373259  0.78723768  0.19363898  1.0
  H  H11  1  0.31929313  0.58462097  0.11388200  1.0
  H  H12  1  0.64634700  0.00491816  0.63564138  1.0
  H  H13  1  0.62476382  0.14424244  0.59787125  1.0
  H  H14  1  0.50750997  0.06672635  0.65763895  1.0
  H  H15  1  0.38978880  0.02501528  0.34586359  1.0
  H  H16  1  0.44807113  0.88437054  0.35364686  1.0
  H  H17  1  0.30451442  0.90714186  0.39912235  1.0
  H  H18  1  0.15882940  0.61605586  0.63780506  1.0
  H  H19  1  0.29142451  0.82525867  0.68482017  1.0
  H  H20  1  0.25896449  0.00985315  0.61914944  1.0
  H  H21  1  0.09086736  0.98317941  0.50861803  1.0
  H  H22  1  0.95942977  0.77371009  0.46103981  1.0
  H  H23  1  0.98709449  0.33140009  0.32875714  1.0
  H  H24  1  0.88865688  0.10824517  0.27889032  1.0
  H  H25  1  0.81074759  0.96867258  0.38281078  1.0
  H  H26  1  0.83266276  0.05317759  0.53635750  1.0
  H  H27  1  0.93029317  0.27699062  0.58594787  1.0
  C  C28  1  0.47605819  0.16104432  0.48144999  1.0
  C  C29  1  0.51310812  0.83341934  0.52105168  1.0
  C  C30  1  0.16914545  0.46041463  0.49144914  1.0
  C  C31  1  0.83713275  0.54303377  0.50734540  1.0
  C  C32  1  0.49968572  0.52389103  0.72795387  1.0
  C  C33  1  0.50409005  0.46416994  0.27146103  1.0
  C  C34  1  0.49464292  0.53550917  0.81826952  1.0
  C  C35  1  0.47594313  0.54948721  0.98246789  1.0
  C  C36  1  0.49293143  0.44604405  0.01760324  1.0
  C  C37  1  0.49640396  0.45126686  0.10537912  1.0
  C  C38  1  0.48667720  0.54256454  0.89452458  1.0
  C  C39  1  0.50231785  0.45230208  0.18138135  1.0
  C  C40  1  0.51547834  0.97098393  0.53001949  1.0
  C  C41  1  0.46501966  0.02070115  0.46880361  1.0
  C  C42  1  0.97693375  0.55369568  0.51243459  1.0
  C  C43  1  0.02888429  0.45017098  0.48933068  1.0
  C  C44  1  0.51648303  0.32660791  0.96355656  1.0
  C  C45  1  0.45167458  0.66993714  0.03029477  1.0
  C  C46  1  0.51124114  0.78447769  0.00788403  1.0
  C  C47  1  0.49156736  0.89870268  0.05323235  1.0
  C  C48  1  0.41045835  0.90037814  0.12056265  1.0
  C  C49  1  0.34851653  0.78693426  0.14192761  1.0
  C  C50  1  0.36876207  0.67252499  0.09725951  1.0
  C  C51  1  0.57741364  0.05152376  0.60937322  1.0
  C  C52  1  0.39890193  0.95596627  0.38696822  1.0
  C  C53  1  0.05219603  0.67955979  0.54463309  1.0
  C  C54  1  0.14544929  0.69607032  0.60839616  1.0
  C  C55  1  0.21938239  0.81418430  0.63518669  1.0
  C  C56  1  0.20086080  0.91756731  0.59902902  1.0
  C  C57  1  0.10672909  0.90258204  0.53653064  1.0
  C  C58  1  0.03255239  0.78478725  0.50999075  1.0
  C  C59  1  0.96294448  0.31873406  0.46040247  1.0
  C  C60  1  0.95288746  0.26996011  0.37396881  1.0
  C  C61  1  0.89771755  0.14475713  0.34627995  1.0
  C  C62  1  0.85400616  0.06653257  0.40454070  1.0
  C  C63  1  0.86566874  0.11413692  0.49066073  1.0
  C  C64  1  0.91992761  0.23975558  0.51868913  1.0
  O  O65  1  0.50297625  0.49697502  0.50175004  1.0
  O  O66  1  0.55904541  0.21836326  0.43883595  1.0
  O  O67  1  0.44071676  0.76129569  0.46350359  1.0
  O  O68  1  0.21451471  0.40637400  0.54589499  1.0
  O  O69  1  0.78954841  0.61454157  0.56417289  1.0
  O  O70  1  0.42676397  0.42894731  0.68629593  1.0
  O  O71  1  0.56189582  0.39074614  0.30449921  1.0
  O  O72  1  0.57547194  0.60854339  0.69893141  1.0
  O  O73  1  0.44719033  0.54827427  0.31021524  1.0
  O  O74  1  0.22767913  0.51684080  0.43624860  1.0
  O  O75  1  0.77809571  0.46464944  0.44681099  1.0
  O  O76  1  0.40008675  0.20877629  0.53161977  1.0
  O  O77  1  0.58490378  0.79699892  0.57199017  1.0
