# generated using pymatgen
data_Zn2H16C29N2O13
_symmetry_space_group_name_H-M   'P 1'
_cell_length_a   9.98696277
_cell_length_b   11.12956295
_cell_length_c   15.29825258
_cell_angle_alpha   89.87456539
_cell_angle_beta   86.14094093
_cell_angle_gamma   86.00427553
_symmetry_Int_Tables_number   1
_chemical_formula_structural   Zn2H16C29N2O13
_chemical_formula_sum   'Zn2 H16 C29 N2 O13'
_cell_volume   1692.42419646
_cell_formula_units_Z   1
loop_
 _symmetry_equiv_pos_site_id
 _symmetry_equiv_pos_as_xyz
  1  'x, y, z'
loop_
 _atom_site_type_symbol
 _atom_site_label
 _atom_site_symmetry_multiplicity
 _atom_site_fract_x
 _atom_site_fract_y
 _atom_site_fract_z
 _atom_site_occupancy
  Zn  Zn0  1  0.63536683  0.50328252  0.49020691  1.0
  Zn  Zn1  1  0.35805838  0.52283905  0.50166392  1.0
  H  H2  1  0.60299060  0.91312383  0.52250535  1.0
  H  H3  1  0.82893187  0.58084067  0.06340570  1.0
  H  H4  1  0.29974475  0.91121404  0.49839557  1.0
  H  H5  1  0.69613220  0.57481183  0.27982148  1.0
  H  H6  1  0.01637316  0.64226666  0.36948091  1.0
  H  H7  1  0.18473317  0.47145383  0.65748092  1.0
  H  H8  1  0.11931598  0.47639192  0.16333182  1.0
  H  H9  1  0.88884739  0.53672227  0.82377044  1.0
  H  H10  1  0.29507654  0.13268368  0.52262720  1.0
  H  H11  1  0.59207294  0.10667441  0.45266372  1.0
  H  H12  1  0.85794926  0.64569922  0.54426269  1.0
  H  H13  1  0.89266278  0.43293405  0.42891534  1.0
  H  H14  1  0.29101428  0.48156105  0.22516123  1.0
  H  H15  1  0.18157330  0.42959168  0.92536994  1.0
  H  H16  1  0.30418254  0.45026361  0.78236241  1.0
  H  H17  1  0.71915796  0.52710473  0.76244636  1.0
  C  C18  1  0.48656244  0.28220624  0.48112396  1.0
  C  C19  1  0.39460727  0.46915538  0.81436343  1.0
  C  C20  1  0.51232491  0.49025368  0.76413688  1.0
  C  C21  1  0.51182687  0.49286909  0.66627817  1.0
  C  C22  1  0.62948711  0.51306285  0.80468974  1.0
  C  C23  1  0.39475671  0.95311216  0.50366651  1.0
  C  C24  1  0.50554663  0.87866983  0.51241548  1.0
  C  C25  1  0.39082883  0.08353321  0.50267378  1.0
  C  C26  1  0.49506763  0.14910264  0.47714255  1.0
  C  C27  1  0.90978039  0.57347187  0.50369950  1.0
  C  C28  1  0.05747157  0.57675462  0.48095928  1.0
  C  C29  1  0.61906011  0.54140671  0.08296711  1.0
  C  C30  1  0.50304793  0.74599386  0.50896422  1.0
  C  C31  1  0.48681239  0.53107140  0.32292223  1.0
  C  C32  1  0.61387017  0.55008133  0.17583787  1.0
  C  C33  1  0.49332288  0.52782042  0.22569149  1.0
  C  C34  1  0.37990979  0.49907613  0.18327897  1.0
  C  C35  1  0.37970588  0.49085070  0.09204712  1.0
  C  C36  1  0.50202388  0.51131073  0.04118252  1.0
  C  C37  1  0.10230985  0.50156480  0.61642843  1.0
  C  C38  1  0.13288981  0.44061540  0.09485150  1.0
  C  C39  1  0.87856926  0.56595417  0.89369727  1.0
  C  C40  1  0.26370481  0.45928060  0.04728281  1.0
  C  C41  1  0.27134648  0.45048283  0.95761383  1.0
  C  C42  1  0.39108075  0.47240945  0.90594142  1.0
  C  C43  1  0.50869993  0.50119044  0.94813827  1.0
  C  C44  1  0.63055493  0.52044534  0.89648490  1.0
  C  C45  1  0.74731881  0.54968967  0.94143114  1.0
  C  C46  1  0.73914927  0.55998661  0.03141772  1.0
  N  N47  1  0.83962899  0.49822362  0.46682499  1.0
  N  N48  1  0.15004224  0.53963157  0.53228396  1.0
  O  O49  1  0.59721340  0.33157406  0.46270758  1.0
  O  O50  1  0.09479512  0.61768872  0.40215686  1.0
  O  O51  1  0.98262364  0.50444736  0.64061088  1.0
  O  O52  1  0.04068680  0.39140205  0.06373011  1.0
  O  O53  1  0.97482383  0.60725396  0.92639302  1.0
  O  O54  1  0.37336912  0.33811319  0.50266238  1.0
  O  O55  1  0.62431131  0.47531641  0.62230415  1.0
  O  O56  1  0.39795077  0.51433487  0.63402369  1.0
  O  O57  1  0.61620990  0.68594267  0.51486300  1.0
  O  O58  1  0.39092362  0.70082976  0.49946293  1.0
  O  O59  1  0.59700033  0.55115922  0.35901783  1.0
  O  O60  1  0.37708936  0.51357404  0.36586051  1.0
  O  O61  1  0.72424991  0.57865296  0.21452950  1.0
