# generated using pymatgen
data_Zn6H32C71(Cl5O23)2
_symmetry_space_group_name_H-M   'P 1'
_cell_length_a   18.62719300
_cell_length_b   18.67170829
_cell_length_c   18.70718586
_cell_angle_alpha   109.65828889
_cell_angle_beta   108.87696919
_cell_angle_gamma   109.05249289
_symmetry_Int_Tables_number   1
_chemical_formula_structural   Zn6H32C71(Cl5O23)2
_chemical_formula_sum   'Zn6 H32 C71 Cl10 O46'
_cell_volume   5058.83231506
_cell_formula_units_Z   1
loop_
 _symmetry_equiv_pos_site_id
 _symmetry_equiv_pos_as_xyz
  1  'x, y, z'
loop_
 _atom_site_type_symbol
 _atom_site_label
 _atom_site_symmetry_multiplicity
 _atom_site_fract_x
 _atom_site_fract_y
 _atom_site_fract_z
 _atom_site_occupancy
  Zn  Zn0  1  0.95665637  0.94691618  0.50984641  1.0
  Zn  Zn1  1  0.08012021  0.07519914  0.50902589  1.0
  Zn  Zn2  1  0.05144594  0.49876160  0.06290356  1.0
  Zn  Zn3  1  0.93054422  0.50083878  0.93472187  1.0
  Zn  Zn4  1  0.49965055  0.92195368  0.92873220  1.0
  Zn  Zn5  1  0.49835004  0.04412341  0.05958069  1.0
  H  H6  1  0.93604577  0.71382586  0.33809080  1.0
  H  H7  1  0.90813107  0.83512375  0.21044765  1.0
  H  H8  1  0.33368403  0.15877795  0.74610257  1.0
  H  H9  1  0.18535357  0.82887833  0.73714672  1.0
  H  H10  1  0.04782381  0.75424258  0.36844599  1.0
  H  H11  1  0.95928785  0.35549339  0.70294533  1.0
  H  H12  1  0.02328819  0.23887571  0.92947614  1.0
  H  H13  1  0.90707990  0.17832677  0.87226243  1.0
  H  H14  1  0.90976007  0.05875051  0.76505761  1.0
  H  H15  1  0.58906896  0.93247507  0.26946231  1.0
  H  H16  1  0.00270046  0.62789137  0.24269141  1.0
  H  H17  1  0.79161530  0.22115859  0.18120354  1.0
  H  H18  1  0.92051906  0.33221515  0.19590503  1.0
  H  H19  1  0.11653939  0.60144813  0.86808306  1.0
  H  H20  1  0.47443125  0.82051187  0.15913180  1.0
  H  H21  1  0.89293302  0.60250291  0.20327629  1.0
  H  H22  1  0.43525745  0.89645542  0.18494147  1.0
  H  H23  1  0.37150079  0.72243367  0.18638382  1.0
  H  H24  1  0.33018778  0.79606018  0.21027799  1.0
  H  H25  1  0.12419707  0.86722287  0.35086065  1.0
  H  H26  1  0.10047114  0.74323453  0.24739359  1.0
  H  H27  1  0.20252575  0.85161915  0.16814881  1.0
  H  H28  1  0.91027328  0.83312479  0.04832018  1.0
  H  H29  1  0.07644372  0.80040528  0.85533969  1.0
  H  H30  1  0.08797026  0.76233777  0.51923408  1.0
  H  H31  1  0.15122256  0.12581993  0.83620927  1.0
  H  H32  1  0.98799541  0.97708402  0.23394356  1.0
  H  H33  1  0.77130546  0.05907070  0.02976468  1.0
  H  H34  1  0.68302890  0.83639237  0.41786309  1.0
  H  H35  1  0.12905020  0.61269440  0.69982549  1.0
  H  H36  1  0.74621926  0.79449257  0.25349076  1.0
  H  H37  1  0.68031531  0.58397354  0.03097738  1.0
  C  C38  1  0.15753387  0.04070131  0.62907563  1.0
  C  C39  1  0.96496958  0.68441578  0.16374358  1.0
  C  C40  1  0.88948084  0.70611545  0.13390132  1.0
  C  C41  1  0.05816082  0.76497421  0.21550797  1.0
  C  C42  1  0.18955747  0.97722421  0.72538092  1.0
  C  C43  1  0.21860028  0.04270274  0.70498679  1.0
  C  C44  1  0.30700680  0.10568916  0.75836499  1.0
  C  C45  1  0.36180830  0.10079610  0.82651898  1.0
  C  C46  1  0.33248740  0.03179885  0.84376068  1.0
  C  C47  1  0.24476181  0.97068065  0.79028486  1.0
  C  C48  1  0.17582657  0.88395939  0.76823562  1.0
  C  C49  1  0.99541515  0.87927430  0.38327558  1.0
  C  C50  1  0.10966087  0.89490651  0.69735336  1.0
  C  C51  1  0.96626904  0.16993637  0.74514284  1.0
  C  C52  1  0.97166863  0.16859378  0.67230408  1.0
  C  C53  1  0.97021786  0.23910413  0.65993798  1.0
  C  C54  1  0.96203978  0.30376473  0.71641674  1.0
  C  C55  1  0.96093005  0.30520222  0.79157917  1.0
  C  C56  1  0.96355902  0.23666027  0.80441511  1.0
  C  C57  1  0.96532444  0.19927610  0.86494809  1.0
  C  C58  1  0.96798638  0.12244277  0.79692125  1.0
  C  C59  1  0.77340353  0.02406229  0.33472722  1.0
  C  C60  1  0.92051231  0.03544538  0.39646238  1.0
  C  C61  1  0.84847370  0.03359126  0.32926002  1.0
  C  C62  1  0.84817373  0.03518897  0.25450750  1.0
  C  C63  1  0.77598932  0.02710365  0.18953970  1.0
  C  C64  1  0.70261187  0.02216572  0.19894019  1.0
  C  C65  1  0.70450341  0.02119469  0.27371022  1.0
  C  C66  1  0.64551250  0.99807531  0.31127491  1.0
  C  C67  1  0.72599469  0.00064951  0.38298613  1.0
  C  C68  1  0.89796121  0.37457166  0.01298871  1.0
  C  C69  1  0.96565750  0.61373773  0.09202476  1.0
  C  C70  1  0.13476366  0.60281818  0.01647797  1.0
  C  C71  1  0.98457032  0.10062693  0.61723478  1.0
  C  C72  1  0.96364201  0.37921655  0.85764112  1.0
  C  C73  1  0.61387706  0.07638738  0.96853993  1.0
  C  C74  1  0.39166733  0.02017832  0.90985704  1.0
  C  C75  1  0.38762540  0.84068691  0.96948824  1.0
  C  C76  1  0.62395828  0.01053834  0.13023363  1.0
  C  C77  1  0.81778855  0.28949424  0.06694885  1.0
  C  C78  1  0.82763494  0.29445784  0.99800773  1.0
  C  C79  1  0.76275647  0.22367751  0.91443122  1.0
  C  C80  1  0.69333126  0.15152257  0.90279718  1.0
  C  C81  1  0.68428678  0.14920814  0.97432128  1.0
  C  C82  1  0.98330532  0.73196825  0.31591611  1.0
  C  C83  1  0.74714212  0.22195497  0.05574517  1.0
  C  C84  1  0.77733660  0.26044244  0.15240922  1.0
  C  C85  1  0.86125850  0.33513872  0.16490599  1.0
  C  C86  1  0.28726294  0.72058524  0.07005511  1.0
  C  C87  1  0.20303215  0.65747832  0.00416162  1.0
  C  C88  1  0.18171869  0.65009928  0.92172982  1.0
  C  C89  1  0.23995982  0.70465136  0.90647842  1.0
  C  C90  1  0.32375836  0.77256421  0.97557072  1.0
  C  C91  1  0.34462101  0.77679208  0.05577887  1.0
  C  C92  1  0.41605371  0.82720898  0.14972548  1.0
  C  C93  1  0.95878191  0.65494363  0.23121380  1.0
  C  C94  1  0.35075700  0.76425604  0.16601176  1.0
  C  C95  1  0.90123689  0.77861841  0.21887459  1.0
  C  C96  1  0.06649575  0.84273417  0.28989241  1.0
  C  C97  1  0.98600897  0.80974397  0.30195967  1.0
  C  C98  1  0.09473979  0.79073282  0.16074036  1.0
  C  C99  1  0.88228267  0.73547727  0.06398907  1.0
  C  C100  1  0.15737352  0.87677009  0.83921275  1.0
  C  C101  1  0.06288808  0.82228050  0.60289057  1.0
  C  C102  1  0.04605822  0.11200768  0.83581826  1.0
  C  C103  1  0.92386778  0.04003036  0.23951436  1.0
  C  C104  1  0.77668439  0.01317807  0.10577877  1.0
  C  C105  1  0.70206470  0.90843667  0.36851813  1.0
  C  C106  1  0.20966888  0.69494346  0.81813588  1.0
  C  C107  1  0.82274152  0.75080396  0.23366006  1.0
  C  C108  1  0.80030646  0.62130351  0.08533961  1.0
  Cl  Cl109  1  0.47008721  0.18036117  0.88877568  1.0
  Cl  Cl110  1  0.03264940  0.91520483  0.72433722  1.0
  Cl  Cl111  1  0.97731009  0.24889221  0.57337979  1.0
  Cl  Cl112  1  0.60845441  0.07018077  0.35083777  1.0
  Cl  Cl113  1  0.76871120  0.07872506  0.49163906  1.0
  Cl  Cl114  1  0.76810302  0.22261770  0.82407474  1.0
  Cl  Cl115  1  0.61675112  0.06865850  0.79895200  1.0
  Cl  Cl116  1  0.71183260  0.29556116  0.18869892  1.0
  Cl  Cl117  1  0.88605343  0.44497655  0.22058599  1.0
  Cl  Cl118  1  0.09244184  0.93713654  0.27455410  1.0
  O  O119  1  0.07957350  0.97946055  0.59114991  1.0
  O  O120  1  0.87469409  0.40946534  0.96948176  1.0
  O  O121  1  0.02119279  0.59063926  0.12014498  1.0
  O  O122  1  0.91609797  0.58606620  0.01244321  1.0
  O  O123  1  0.15820437  0.58015069  0.07435590  1.0
  O  O124  1  0.05730963  0.58241770  0.96834268  1.0
  O  O125  1  0.01332582  0.40456080  0.93627293  1.0
  O  O126  1  0.91652405  0.41212344  0.83153695  1.0
  O  O127  1  0.58756022  0.99724147  0.91367734  1.0
  O  O128  1  0.58766836  0.09903202  0.02229198  1.0
  O  O129  1  0.41050117  0.96167138  0.87926666  1.0
  O  O130  1  0.18452259  0.09639737  0.60524355  1.0
  O  O131  1  0.41732393  0.06870741  0.99006788  1.0
  O  O132  1  0.41698439  0.81772330  0.91748039  1.0
  O  O133  1  0.41140066  0.91850954  0.02198434  1.0
  O  O134  1  0.59663795  0.95664956  0.05228996  1.0
  O  O135  1  0.59028162  0.05650026  0.15760668  1.0
  O  O136  1  0.94306480  0.85194242  0.41058988  1.0
  O  O137  1  0.05405294  0.95730607  0.41828584  1.0
  O  O138  1  0.89568187  0.98455481  0.42468724  1.0
  O  O139  1  0.99929687  0.08726022  0.42067917  1.0
  O  O140  1  0.93802458  0.02117937  0.59673892  1.0
  O  O141  1  0.04185880  0.12618109  0.59576516  1.0
  O  O142  1  0.97602738  0.40285936  0.07067316  1.0
  O  O143  1  0.05321400  0.77456049  0.08678195  1.0
  O  O144  1  0.18343562  0.83322753  0.20511653  1.0
  O  O145  1  0.84192667  0.68542873  0.98625724  1.0
  O  O146  1  0.92082638  0.82317957  0.09805167  1.0
  O  O147  1  0.20211364  0.93112483  0.91595830  1.0
  O  O148  1  0.08559334  0.79996742  0.80647563  1.0
  O  O149  1  0.98500627  0.78019646  0.55422461  1.0
  O  O150  1  0.12192375  0.80984019  0.57965114  1.0
  O  O151  1  0.05627617  0.08506738  0.88723339  1.0
  O  O152  1  0.10478844  0.13721488  0.80879728  1.0
  O  O153  1  0.96589903  0.09601791  0.22777042  1.0
  O  O154  1  0.93622556  0.97314204  0.23957205  1.0
  O  O155  1  0.78169965  0.95214308  0.06134711  1.0
  O  O156  1  0.77281745  0.07581155  0.08614282  1.0
  O  O157  1  0.68042547  0.84853945  0.29870805  1.0
  O  O158  1  0.70232743  0.89826030  0.43633928  1.0
  O  O159  1  0.23635140  0.75360200  0.80215819  1.0
  O  O160  1  0.14661698  0.61203616  0.75481409  1.0
  O  O161  1  0.79130532  0.68634554  0.24012362  1.0
  O  O162  1  0.79398294  0.80901238  0.23963872  1.0
  O  O163  1  0.78895800  0.54880978  0.07012765  1.0
  O  O164  1  0.73430020  0.63894683  0.05970977  1.0
