# generated using pymatgen
data_ZnH12C22(NO2)3
_symmetry_space_group_name_H-M   'P 1'
_cell_length_a   16.52318912
_cell_length_b   17.86018881
_cell_length_c   19.46245841
_cell_angle_alpha   89.65136440
_cell_angle_beta   89.99359446
_cell_angle_gamma   89.98666940
_symmetry_Int_Tables_number   1
_chemical_formula_structural   ZnH12C22(NO2)3
_chemical_formula_sum   'Zn2 H24 C44 N6 O12'
_cell_volume   5743.40659574
_cell_formula_units_Z   2
loop_
 _symmetry_equiv_pos_site_id
 _symmetry_equiv_pos_as_xyz
  1  'x, y, z'
loop_
 _atom_site_type_symbol
 _atom_site_label
 _atom_site_symmetry_multiplicity
 _atom_site_fract_x
 _atom_site_fract_y
 _atom_site_fract_z
 _atom_site_occupancy
  Zn  Zn0  1  0.58447903  0.49996635  0.49845561  1.0
  Zn  Zn1  1  0.41551467  0.49999993  0.49846141  1.0
  H  H2  1  0.63022781  0.50232906  0.71821847  1.0
  H  H3  1  0.36946863  0.12215181  0.52475007  1.0
  H  H4  1  0.63045700  0.12203499  0.52476487  1.0
  H  H5  1  0.36950653  0.87743888  0.52465829  1.0
  H  H6  1  0.62965427  0.73766705  0.51124973  1.0
  H  H7  1  0.37036520  0.26201954  0.51186756  1.0
  H  H8  1  0.62965293  0.26190966  0.51187323  1.0
  H  H9  1  0.37030117  0.73780221  0.51120954  1.0
  H  H10  1  0.86466354  0.41523002  0.57974772  1.0
  H  H11  1  0.13419956  0.58507237  0.42008193  1.0
  H  H12  1  0.86575810  0.58506469  0.42005240  1.0
  H  H13  1  0.36976707  0.49788962  0.27902129  1.0
  H  H14  1  0.13535759  0.41523967  0.57977397  1.0
  H  H15  1  0.71236932  0.41905460  0.57541802  1.0
  H  H16  1  0.28650227  0.58130534  0.42287050  1.0
  H  H17  1  0.71346586  0.58129364  0.42285662  1.0
  H  H18  1  0.28764622  0.41905373  0.57542405  1.0
  H  H19  1  0.63040018  0.50329047  0.27889948  1.0
  H  H20  1  0.36966675  0.49666515  0.71828732  1.0
  H  H21  1  0.63899152  0.50370805  0.89990258  1.0
  H  H22  1  0.36111716  0.49640878  0.09730313  1.0
  H  H23  1  0.63889434  0.50464021  0.09716185  1.0
  H  H24  1  0.36098559  0.49524773  0.90000622  1.0
  H  H25  1  0.63054998  0.87730523  0.52468547  1.0
  C  C26  1  0.50002921  0.35336034  0.50373017  1.0
  C  C27  1  0.16600836  0.54761287  0.45518777  1.0
  C  C28  1  0.83396961  0.54760102  0.45515965  1.0
  C  C29  1  0.16666615  0.45269740  0.54432612  1.0
  C  C30  1  0.74941547  0.45453166  0.54216606  1.0
  C  C31  1  0.24995905  0.54576918  0.45650594  1.0
  C  C32  1  0.75001749  0.54576164  0.45649444  1.0
  C  C33  1  0.25059227  0.45454409  0.54218411  1.0
  C  C34  1  0.87751082  0.50010190  0.49991869  1.0
  C  C35  1  0.12247799  0.50011126  0.49994666  1.0
  C  C36  1  0.96310447  0.50003059  0.50021674  1.0
  C  C37  1  0.49996199  0.64657329  0.50178200  1.0
  C  C38  1  0.03687951  0.50003128  0.50023339  1.0
  C  C39  1  0.49997519  0.49909738  0.63379936  1.0
  C  C40  1  0.50004635  0.50090331  0.36352601  1.0
  C  C41  1  0.57349770  0.50082500  0.74649385  1.0
  C  C42  1  0.42653471  0.49937013  0.25076038  1.0
  C  C43  1  0.57360767  0.50250557  0.25069816  1.0
  C  C44  1  0.42642899  0.49758717  0.74652511  1.0
  C  C45  1  0.57453783  0.50121623  0.81803732  1.0
  C  C46  1  0.42546916  0.49900579  0.17921065  1.0
  C  C47  1  0.57460038  0.50267515  0.17914210  1.0
  C  C48  1  0.49997801  0.72991820  0.50967868  1.0
  C  C49  1  0.42540300  0.49737618  0.81806592  1.0
  C  C50  1  0.49996725  0.49944601  0.85619789  1.0
  C  C51  1  0.50002218  0.50076596  0.14104035  1.0
  C  C52  1  0.49996464  0.49915824  0.71126431  1.0
  C  C53  1  0.50007443  0.50099817  0.28603015  1.0
  C  C54  1  0.49999762  0.50040724  0.06703243  1.0
  C  C55  1  0.49997972  0.49974646  0.93022299  1.0
  C  C56  1  0.57370244  0.84651572  0.52156918  1.0
  C  C57  1  0.42629624  0.15305892  0.52227565  1.0
  C  C58  1  0.57366127  0.15299431  0.52227287  1.0
  C  C59  1  0.50001061  0.26989830  0.51130939  1.0
  C  C60  1  0.42633257  0.84657923  0.52155758  1.0
  C  C61  1  0.57330263  0.76925365  0.51396843  1.0
  C  C62  1  0.42669680  0.23045679  0.51510743  1.0
  C  C63  1  0.57330349  0.23039451  0.51510831  1.0
  C  C64  1  0.42668020  0.76931764  0.51395316  1.0
  C  C65  1  0.50002632  0.88653408  0.52496323  1.0
  C  C66  1  0.49996685  0.11299287  0.52557622  1.0
  C  C67  1  0.50003318  0.96552223  0.52945609  1.0
  C  C68  1  0.49996353  0.03390778  0.52962944  1.0
  C  C69  1  0.83334255  0.45267899  0.54429507  1.0
  N  N70  1  0.42816841  0.49724912  0.96520458  1.0
  N  N71  1  0.57181015  0.50279039  0.03203689  1.0
  N  N72  1  0.42817865  0.49758003  0.03211750  1.0
  N  N73  1  0.57180960  0.50246227  0.96512498  1.0
  N  N74  1  0.70867235  0.50009303  0.49906503  1.0
  N  N75  1  0.29132010  0.50010582  0.49908065  1.0
  O  O76  1  0.56870425  0.38578974  0.50089799  1.0
  O  O77  1  0.35231375  0.49699523  0.14822183  1.0
  O  O78  1  0.64774740  0.50461144  0.14808599  1.0
  O  O79  1  0.35221726  0.49527371  0.84907180  1.0
  O  O80  1  0.43128579  0.61417602  0.49892669  1.0
  O  O81  1  0.56863156  0.61413261  0.49899817  1.0
  O  O82  1  0.43134577  0.38583451  0.50097910  1.0
  O  O83  1  0.56863296  0.49911175  0.60420710  1.0
  O  O84  1  0.43136801  0.50079262  0.39312737  1.0
  O  O85  1  0.56869198  0.50088261  0.39313566  1.0
  O  O86  1  0.43131443  0.49912030  0.60420357  1.0
  O  O87  1  0.64773863  0.50324035  0.84896956  1.0
