# generated using pymatgen
data_Al4H13C36Br2N3O20
_symmetry_space_group_name_H-M   'P 1'
_cell_length_a   6.69376942
_cell_length_b   18.28775973
_cell_length_c   20.70362653
_cell_angle_alpha   72.12577076
_cell_angle_beta   89.68690422
_cell_angle_gamma   89.64725047
_symmetry_Int_Tables_number   1
_chemical_formula_structural   Al4H13C36Br2N3O20
_chemical_formula_sum   'Al4 H13 C36 Br2 N3 O20'
_cell_volume   2412.02224709
_cell_formula_units_Z   1
loop_
 _symmetry_equiv_pos_site_id
 _symmetry_equiv_pos_as_xyz
  1  'x, y, z'
loop_
 _atom_site_type_symbol
 _atom_site_label
 _atom_site_symmetry_multiplicity
 _atom_site_fract_x
 _atom_site_fract_y
 _atom_site_fract_z
 _atom_site_occupancy
  Al  Al0  1  0.86219625  0.50209019  0.50059249  1.0
  Al  Al1  1  0.36235205  0.50131433  0.50072520  1.0
  Al  Al2  1  0.35777157  0.00155188  0.99989100  1.0
  Al  Al3  1  0.85765938  0.00196535  0.99962414  1.0
  H  H4  1  0.40094167  0.25661401  0.17374447  1.0
  H  H5  1  0.39919000  0.33616038  0.25268331  1.0
  H  H6  1  0.31997913  0.73951411  0.83553829  1.0
  H  H7  1  0.66241818  0.15756626  0.27513704  1.0
  H  H8  1  0.78336505  0.12939076  0.21140574  1.0
  H  H9  1  0.98947087  0.87029185  0.70323299  1.0
  H  H10  1  0.91302108  0.88133723  0.77841428  1.0
  H  H11  1  0.90395228  0.72507624  0.63143819  1.0
  H  H12  1  0.04738255  0.76681992  0.67630943  1.0
  H  H13  1  0.61532125  0.40585599  0.50119744  1.0
  H  H14  1  0.11216250  0.60190963  0.48547110  1.0
  H  H15  1  0.60566676  0.10097227  0.99013485  1.0
  H  H16  1  0.10796479  0.90069722  0.02263191  1.0
  C  C17  1  0.61384806  0.60733615  0.39559378  1.0
  C  C18  1  0.60728807  0.57942414  0.57596819  1.0
  C  C19  1  0.10941723  0.39680701  0.60532883  1.0
  C  C20  1  0.11651732  0.42372775  0.42500856  1.0
  C  C21  1  0.93743709  0.20655516  0.24612667  1.0
  C  C22  1  0.10878031  0.20925461  0.20369309  1.0
  C  C23  1  0.27307517  0.25590272  0.20675161  1.0
  C  C24  1  0.27299705  0.29982819  0.25043358  1.0
  C  C25  1  0.10792756  0.29704692  0.29417460  1.0
  C  C26  1  0.94409727  0.25007396  0.29182396  1.0
  C  C27  1  0.10954805  0.16452105  0.15919376  1.0
  C  C28  1  0.11064937  0.34117795  0.33945984  1.0
  C  C29  1  0.11535143  0.37967909  0.37812419  1.0
  C  C30  1  0.10443100  0.12463819  0.12150291  1.0
  C  C31  1  0.10990026  0.16856894  0.83217186  1.0
  C  C32  1  0.10976060  0.22206154  0.77937879  1.0
  C  C33  1  0.10974578  0.28117481  0.72112765  1.0
  C  C34  1  0.10996699  0.33478389  0.66840645  1.0
  C  C35  1  0.61190890  0.66891655  0.33217298  1.0
  C  C36  1  0.61066353  0.72216515  0.27919776  1.0
  C  C37  1  0.60919777  0.78101877  0.22075483  1.0
  C  C38  1  0.60767839  0.83439388  0.16785409  1.0
  C  C39  1  0.44012626  0.74329092  0.79909298  1.0
  C  C40  1  0.60174111  0.79384948  0.79674536  1.0
  C  C41  1  0.76133161  0.79978579  0.75028822  1.0
  C  C42  1  0.75625425  0.75531998  0.70488777  1.0
  C  C43  1  0.59426071  0.70489315  0.70738733  1.0
  C  C44  1  0.43838817  0.69962556  0.75548758  1.0
  C  C45  1  0.60418865  0.83923976  0.84080721  1.0
  C  C46  1  0.59558552  0.66045387  0.66268291  1.0
  C  C47  1  0.60525086  0.62359672  0.62258460  1.0
  C  C48  1  0.61072740  0.87935883  0.87824133  1.0
  C  C49  1  0.61344188  0.92408692  0.92446245  1.0
  C  C50  1  0.60465449  0.89619705  0.10466431  1.0
  C  C51  1  0.10230666  0.08006244  0.07513724  1.0
  C  C52  1  0.11167479  0.10669625  0.89526915  1.0
  Br  Br53  1  0.72560521  0.24355469  0.35222369  1.0
  Br  Br54  1  0.22981881  0.62742583  0.76224384  1.0
  N  N55  1  0.77597654  0.16393458  0.24137809  1.0
  N  N56  1  0.92450275  0.84582254  0.74919779  1.0
  N  N57  1  0.90810324  0.76418794  0.65746496  1.0
  O  O58  1  0.43789555  0.55886115  0.55992012  1.0
  O  O59  1  0.78517627  0.58227333  0.41868008  1.0
  O  O60  1  0.94668190  0.43856974  0.44638623  1.0
  O  O61  1  0.77766855  0.56562865  0.55419592  1.0
  O  O62  1  0.93888982  0.42287012  0.58231228  1.0
  O  O63  1  0.44408796  0.58536371  0.42225925  1.0
  O  O64  1  0.61325577  0.45644776  0.50700283  1.0
  O  O65  1  0.27938647  0.41823250  0.57868236  1.0
  O  O66  1  0.28698699  0.44293591  0.44153595  1.0
  O  O67  1  0.11202789  0.54696557  0.49313347  1.0
  O  O68  1  0.77342672  0.91686707  0.07648722  1.0
  O  O69  1  0.44484058  0.93633603  0.94835641  1.0
  O  O70  1  0.28212489  0.07918635  0.91705124  1.0
  O  O71  1  0.43347225  0.92319174  0.08307561  1.0
  O  O72  1  0.27141793  0.06727907  0.05182827  1.0
  O  O73  1  0.78358451  0.94650391  0.93815041  1.0
  O  O74  1  0.60700889  0.04706805  0.99318100  1.0
  O  O75  1  0.93163101  0.05839036  0.06102786  1.0
  O  O76  1  0.94270512  0.08641365  0.92336800  1.0
  O  O77  1  0.10804274  0.95633481  0.00753849  1.0
