# generated using pymatgen
data_FeH4C8O5
_symmetry_space_group_name_H-M   'P 1'
_cell_length_a   12.22013393
_cell_length_b   12.37547361
_cell_length_c   12.37508715
_cell_angle_alpha   75.88433864
_cell_angle_beta   60.40888456
_cell_angle_gamma   60.41583503
_symmetry_Int_Tables_number   1
_chemical_formula_structural   FeH4C8O5
_chemical_formula_sum   'Fe4 H16 C32 O20'
_cell_volume   1415.22853877
_cell_formula_units_Z   4
loop_
 _symmetry_equiv_pos_site_id
 _symmetry_equiv_pos_as_xyz
  1  'x, y, z'
loop_
 _atom_site_type_symbol
 _atom_site_label
 _atom_site_symmetry_multiplicity
 _atom_site_fract_x
 _atom_site_fract_y
 _atom_site_fract_z
 _atom_site_occupancy
  Fe  Fe0  1  0.81146078  0.00005527  0.37702982  1.0
  Fe  Fe1  1  0.56150669  0.87700797  0.50002303  1.0
  Fe  Fe2  1  0.93853056  0.12299253  0.49999355  1.0
  Fe  Fe3  1  0.18853003  0.00000568  0.62297181  1.0
  H  H4  1  0.87505905  0.93642779  0.56347101  1.0
  H  H5  1  0.37507437  0.06351702  0.43646447  1.0
  H  H6  1  0.56144471  0.06353308  0.56358024  1.0
  H  H7  1  0.18846886  0.93648245  0.43648421  1.0
  H  H8  1  0.11908141  0.99990226  0.00005944  1.0
  H  H9  1  0.63097807  0.50006123  0.49990116  1.0
  H  H10  1  0.88095599  0.99996547  0.00000217  1.0
  H  H11  1  0.86910366  0.49999597  0.49984888  1.0
  H  H12  1  0.29834777  0.05639939  0.19270144  1.0
  H  H13  1  0.20265700  0.69275012  0.55617309  1.0
  H  H14  1  0.50880171  0.94377034  0.19282238  1.0
  H  H15  1  0.24107452  0.30725805  0.55625653  1.0
  H  H16  1  0.10456880  0.69280451  0.44380693  1.0
  H  H17  1  0.64540113  0.05622974  0.80724067  1.0
  H  H18  1  0.45159877  0.30715900  0.44395869  1.0
  H  H19  1  0.54744504  0.94362405  0.80723454  1.0
  C  C20  1  0.06699447  0.05120749  0.22755489  1.0
  C  C21  1  0.40426058  0.72760552  0.55102231  1.0
  C  C22  1  0.70535295  0.94891828  0.22758723  1.0
  C  C23  1  0.04460868  0.27244299  0.55110584  1.0
  C  C24  1  0.86818967  0.72759444  0.44885459  1.0
  C  C25  1  0.88187496  0.05106678  0.77242418  1.0
  C  C26  1  0.68288987  0.27240844  0.44901615  1.0
  C  C27  1  0.34574979  0.94876871  0.77247384  1.0
  C  C28  1  0.19817113  0.02705358  0.10869319  1.0
  C  C29  1  0.41611672  0.60870638  0.52698524  1.0
  C  C30  1  0.69310274  0.97298740  0.10872307  1.0
  C  C31  1  0.05683224  0.39133468  0.52703345  1.0
  C  C32  1  0.97524168  0.60870914  0.47289935  1.0
  C  C33  1  0.77485135  0.02696153  0.89128679  1.0
  C  C34  1  0.55180054  0.39130119  0.47304083  1.0
  C  C35  1  0.33394766  0.97289093  0.89130541  1.0
  C  C36  1  0.20817241  0.99993981  0.00000824  1.0
  C  C37  1  0.54187294  0.50002926  0.49998050  1.0
  C  C38  1  0.79188382  0.99997073  0.99999379  1.0
  C  C39  1  0.95815296  0.50000935  0.49992324  1.0
  C  C40  1  0.31180448  0.02973788  0.10769543  1.0
  C  C41  1  0.30081169  0.60772612  0.52962045  1.0
  C  C42  1  0.58042194  0.97034317  0.10776084  1.0
  C  C43  1  0.16950633  0.39229441  0.52968394  1.0
  C  C44  1  0.09149304  0.60773811  0.47031484  1.0
  C  C45  1  0.65855721  0.02962377  0.89226050  1.0
  C  C46  1  0.43815855  0.39225301  0.47041643  1.0
  C  C47  1  0.44925733  0.97026202  0.89225300  1.0
  C  C48  1  0.43953828  0.99998600  0.99997157  1.0
  C  C49  1  0.31049081  0.49998127  0.49998228  1.0
  C  C50  1  0.56048731  0.99998214  0.00000711  1.0
  C  C51  1  0.18951216  0.50002038  0.49997884  1.0
  O  O52  1  0.87504537  0.00031764  0.49966898  1.0
  O  O53  1  0.37500014  0.99973681  0.50037875  1.0
  O  O54  1  0.62529790  0.99968218  0.49974724  1.0
  O  O55  1  0.12469680  0.00036494  0.50028056  1.0
  O  O56  1  0.98732358  0.00860331  0.23599931  1.0
  O  O57  1  0.51807899  0.73609195  0.50833743  1.0
  O  O58  1  0.77659805  0.99150590  0.23601981  1.0
  O  O59  1  0.97349711  0.26397822  0.50837292  1.0
  O  O60  1  0.74591325  0.73601994  0.49143471  1.0
  O  O61  1  0.00419672  0.00834004  0.76393513  1.0
  O  O62  1  0.76250181  0.26392764  0.49172013  1.0
  O  O63  1  0.23192225  0.99138100  0.76402549  1.0
  O  O64  1  0.04660343  0.11063788  0.31181058  1.0
  O  O65  1  0.28095618  0.81185906  0.61041446  1.0
  O  O66  1  0.64141910  0.88954228  0.31188847  1.0
  O  O67  1  0.10845755  0.18817610  0.61054158  1.0
  O  O68  1  0.90716756  0.81191858  0.38957702  1.0
  O  O69  1  0.84284423  0.11058529  0.68818282  1.0
  O  O70  1  0.70326471  0.18815991  0.38959684  1.0
  O  O71  1  0.46902507  0.88936771  0.68818706  1.0
