# generated using pymatgen
data_Zn4H22C38O13
_symmetry_space_group_name_H-M   'P 1'
_cell_length_a   15.10934943
_cell_length_b   20.11860570
_cell_length_c   22.54638146
_cell_angle_alpha   89.67962636
_cell_angle_beta   89.53415780
_cell_angle_gamma   90.52081138
_symmetry_Int_Tables_number   1
_chemical_formula_structural   Zn4H22C38O13
_chemical_formula_sum   'Zn8 H44 C76 O26'
_cell_volume   6853.00781232
_cell_formula_units_Z   2
loop_
 _symmetry_equiv_pos_site_id
 _symmetry_equiv_pos_as_xyz
  1  'x, y, z'
loop_
 _atom_site_type_symbol
 _atom_site_label
 _atom_site_symmetry_multiplicity
 _atom_site_fract_x
 _atom_site_fract_y
 _atom_site_fract_z
 _atom_site_occupancy
  Zn  Zn0  1  0.43585070  0.58242494  0.99596564  1.0
  Zn  Zn1  1  0.43673719  0.08178428  0.50443823  1.0
  Zn  Zn2  1  0.41760426  0.42311221  0.99974979  1.0
  Zn  Zn3  1  0.41939421  0.92193855  0.49986086  1.0
  Zn  Zn4  1  0.57422891  0.49803601  0.07134497  1.0
  Zn  Zn5  1  0.57883543  0.49266623  0.93101265  1.0
  Zn  Zn6  1  0.58275657  0.99618790  0.56668441  1.0
  Zn  Zn7  1  0.56995627  0.99389605  0.42518379  1.0
  H  H8  1  0.53917932  0.38197453  0.22290121  1.0
  H  H9  1  0.85587479  0.04523724  0.55928933  1.0
  H  H10  1  0.44430357  0.23940087  0.09652967  1.0
  H  H11  1  0.32839610  0.31315273  0.84847529  1.0
  H  H12  1  0.33788259  0.81449824  0.65229728  1.0
  H  H13  1  0.43760207  0.73693869  0.40311121  1.0
  H  H14  1  0.55364411  0.34917406  0.32948569  1.0
  H  H15  1  0.67660303  0.27051142  0.73109411  1.0
  H  H16  1  0.68520025  0.76757152  0.76666308  1.0
  H  H17  1  0.54915061  0.84861359  0.16907884  1.0
  H  H18  1  0.32157197  0.73387163  0.73616047  1.0
  H  H19  1  0.60446994  0.34123943  0.80726945  1.0
  H  H20  1  0.44210238  0.64810824  0.32643154  1.0
  H  H21  1  0.44737346  0.15009681  0.17360333  1.0
  H  H22  1  0.31370075  0.23222344  0.76561406  1.0
  H  H23  1  0.67122215  0.67936411  0.84435454  1.0
  H  H24  1  0.54367495  0.76139841  0.09098963  1.0
  H  H25  1  0.54604769  0.26153760  0.40791044  1.0
  H  H26  1  0.66502962  0.18163084  0.65467161  1.0
  H  H27  1  0.38934221  0.67067604  0.81933715  1.0
  H  H28  1  0.47522808  0.61337855  0.22237942  1.0
  H  H29  1  0.48059860  0.11444355  0.27711318  1.0
  H  H30  1  0.61485458  0.83882285  0.68962456  1.0
  H  H31  1  0.38316814  0.16983475  0.68188686  1.0
  H  H32  1  0.14827123  0.44524136  0.95570683  1.0
  H  H33  1  0.14919353  0.94379554  0.44085484  1.0
  H  H34  1  0.00008650  0.40927895  0.91846835  1.0
  H  H35  1  0.00110619  0.90892429  0.40257641  1.0
  H  H36  1  0.08304930  0.67767481  0.13560093  1.0
  H  H37  1  0.09983452  0.60846505  0.18340855  1.0
  H  H38  1  0.17999149  0.67340869  0.17895029  1.0
  H  H39  1  0.23646658  0.57838033  0.12235798  1.0
  H  H40  1  0.21636688  0.64449987  0.07439975  1.0
  H  H41  1  0.53041822  0.88098746  0.27504167  1.0
  H  H42  1  0.08398846  0.16983524  0.62771704  1.0
  H  H43  1  0.10167128  0.09919739  0.67370946  1.0
  H  H44  1  0.18161112  0.16433992  0.67017101  1.0
  H  H45  1  0.23734537  0.07108390  0.61097693  1.0
  H  H46  1  0.21702710  0.13884110  0.56508108  1.0
  H  H47  1  0.00236873  0.59250680  0.10236535  1.0
  H  H48  1  0.00284646  0.08556023  0.59168358  1.0
  H  H49  1  0.83552857  0.41456682  0.92607170  1.0
  H  H50  1  0.83641076  0.91641709  0.40819478  1.0
  H  H51  1  0.85523771  0.55023118  0.07222762  1.0
  C  C52  1  0.47640565  0.38108810  0.88084033  1.0
  C  C53  1  0.53665302  0.26809446  0.75308456  1.0
  C  C54  1  0.54533421  0.76690637  0.74570467  1.0
  C  C55  1  0.50983034  0.78152093  0.24037316  1.0
  C  C56  1  0.51825584  0.33127773  0.21289287  1.0
  C  C57  1  0.54152373  0.31659175  0.79805833  1.0
  C  C58  1  0.55133393  0.81511433  0.69993489  1.0
  C  C59  1  0.51031074  0.83002838  0.28545707  1.0
  C  C60  1  0.46537862  0.25003213  0.14161311  1.0
  C  C61  1  0.38502965  0.30063465  0.82062981  1.0
  C  C62  1  0.39432340  0.80124269  0.67955023  1.0
  C  C63  1  0.49520380  0.36865692  0.10898534  1.0
  C  C64  1  0.45838291  0.74802984  0.35771801  1.0
  C  C65  1  0.46668304  0.20099383  0.18439273  1.0
  C  C66  1  0.37741792  0.25569981  0.77512546  1.0
  C  C67  1  0.38577588  0.75648878  0.72560856  1.0
  C  C68  1  0.46060026  0.69923783  0.31517303  1.0
  C  C69  1  0.16666610  0.51898438  0.02256659  1.0
  C  C70  1  0.16713507  0.01556380  0.50931641  1.0
  C  C71  1  0.83653721  0.48238815  0.00032321  1.0
  C  C72  1  0.83746919  0.98131189  0.48454011  1.0
  C  C73  1  0.96823685  0.44051756  0.95166925  1.0
  C  C74  1  0.48558412  0.86729031  0.38887188  1.0
  C  C75  1  0.96907833  0.93961693  0.43610378  1.0
  C  C76  1  0.87751605  0.44288469  0.95597085  1.0
  C  C77  1  0.87825048  0.94314260  0.43933727  1.0
  C  C78  1  0.88762503  0.52002882  0.03853343  1.0
  C  C79  1  0.88844612  0.01649223  0.52465316  1.0
  C  C80  1  0.51060537  0.62954114  0.10663841  1.0
  C  C81  1  0.52052909  0.62002340  0.88456290  1.0
  C  C82  1  0.51637566  0.12085325  0.61616038  1.0
  C  C83  1  0.51389817  0.12938981  0.39261580  1.0
  C  C84  1  0.98108108  0.52076753  0.03330659  1.0
  C  C85  1  0.48627509  0.88024026  0.61702586  1.0
  C  C86  1  0.98184899  0.01679736  0.52015070  1.0
  C  C87  1  0.02212810  0.47924898  0.98979896  1.0
  C  C88  1  0.02283665  0.97656656  0.47568132  1.0
  C  C89  1  0.11548872  0.47838382  0.98692988  1.0
  C  C90  1  0.11618277  0.97579859  0.47288522  1.0
  C  C91  1  0.12660919  0.56299416  0.06464648  1.0
  C  C92  1  0.12717581  0.05778976  0.55297667  1.0
  C  C93  1  0.03530762  0.56142628  0.06960313  1.0
  C  C94  1  0.03592395  0.05582368  0.55797546  1.0
  C  C95  1  0.26490344  0.51431648  0.01454705  1.0
  C  C96  1  0.46038222  0.73793626  0.75972767  1.0
  C  C97  1  0.26525512  0.01209137  0.50069663  1.0
  C  C98  1  0.73804905  0.48489156  0.00338043  1.0
  C  C99  1  0.73916612  0.98476956  0.48878835  1.0
  C  C100  1  0.49319402  0.31566709  0.15562536  1.0
  C  C101  1  0.46764681  0.33221957  0.83171508  1.0
  C  C102  1  0.47769493  0.83162302  0.66698474  1.0
  C  C103  1  0.48473284  0.81408079  0.34300322  1.0
  C  C104  1  0.52876547  0.67081910  0.83642859  1.0
  C  C105  1  0.50986742  0.68224308  0.15294444  1.0
  C  C106  1  0.51408043  0.18266884  0.34629354  1.0
  C  C107  1  0.48629291  0.71423308  0.25573736  1.0
  C  C108  1  0.52270162  0.17165696  0.66381662  1.0
  C  C109  1  0.62079427  0.74553306  0.77760011  1.0
  C  C110  1  0.53141635  0.79735169  0.18041347  1.0
  C  C111  1  0.53612738  0.29801429  0.31832228  1.0
  C  C112  1  0.61280565  0.24758362  0.72090249  1.0
  C  C113  1  0.61330586  0.69725594  0.82086103  1.0
  C  C114  1  0.52922240  0.74927718  0.13725736  1.0
  C  C115  1  0.53280329  0.24962858  0.36171512  1.0
  C  C116  1  0.60662908  0.19904817  0.67838037  1.0
  C  C117  1  0.45384162  0.69143015  0.80683893  1.0
  C  C118  1  0.49218757  0.21554369  0.24348910  1.0
  C  C119  1  0.48969365  0.66516883  0.21111156  1.0
  C  C120  1  0.49493469  0.16610921  0.28825656  1.0
  C  C121  1  0.44712252  0.19138971  0.69372001  1.0
  C  C122  1  0.18242812  0.60785456  0.10325924  1.0
  C  C123  1  0.13324191  0.64359859  0.15292812  1.0
  C  C124  1  0.18316502  0.10117742  0.59288345  1.0
  C  C125  1  0.13446337  0.13520487  0.64375656  1.0
  C  C126  1  0.45236994  0.23801800  0.74030825  1.0
  C  C127  1  0.51600762  0.28265696  0.25840903  1.0
  O  O128  1  0.50036218  0.49855661  0.00023214  1.0
  O  O129  1  0.48263721  0.14432652  0.44369076  1.0
  O  O130  1  0.29571401  0.45584586  0.00873166  1.0
  O  O131  1  0.29728188  0.95422598  0.49304231  1.0
  O  O132  1  0.70152139  0.50482094  0.05150397  1.0
  O  O133  1  0.69734917  0.46689985  0.95654891  1.0
  O  O134  1  0.70642869  0.99457510  0.54030851  1.0
  O  O135  1  0.69593253  0.97803363  0.44054860  1.0
  O  O136  1  0.44685685  0.35958484  0.06334988  1.0
  O  O137  1  0.41899078  0.37737558  0.92266334  1.0
  O  O138  1  0.42524088  0.87866044  0.57819999  1.0
  O  O139  1  0.50162367  0.99805088  0.49926494  1.0
  O  O140  1  0.44382363  0.85599595  0.43760622  1.0
  O  O141  1  0.58517204  0.58000961  0.89076526  1.0
  O  O142  1  0.53817591  0.57244228  0.12260624  1.0
  O  O143  1  0.54467356  0.07320896  0.37700595  1.0
  O  O144  1  0.58063386  0.08037298  0.61150929  1.0
  O  O145  1  0.30928760  0.56867092  0.01306487  1.0
  O  O146  1  0.30846680  0.06690990  0.50042714  1.0
  O  O147  1  0.54119406  0.42218236  0.87706462  1.0
  O  O148  1  0.54527807  0.41876941  0.11889515  1.0
  O  O149  1  0.52809958  0.92045768  0.37553717  1.0
  O  O150  1  0.55386395  0.91901592  0.61708803  1.0
  O  O151  1  0.48326550  0.64567780  0.05501770  1.0
  O  O152  1  0.44942334  0.62038604  0.91569002  1.0
  O  O153  1  0.44739734  0.12190136  0.58379615  1.0
