# generated using pymatgen
data_Al2H8C23(Br3O8)2
_symmetry_space_group_name_H-M   'P 1'
_cell_length_a   7.16385920
_cell_length_b   17.21541170
_cell_length_c   20.82111467
_cell_angle_alpha   72.24347172
_cell_angle_beta   89.99918890
_cell_angle_gamma   89.99579471
_symmetry_Int_Tables_number   1
_chemical_formula_structural   Al2H8C23(Br3O8)2
_chemical_formula_sum   'Al4 H16 C46 Br12 O32'
_cell_volume   2445.51346263
_cell_formula_units_Z   2
loop_
 _symmetry_equiv_pos_site_id
 _symmetry_equiv_pos_as_xyz
  1  'x, y, z'
loop_
 _atom_site_type_symbol
 _atom_site_label
 _atom_site_symmetry_multiplicity
 _atom_site_fract_x
 _atom_site_fract_y
 _atom_site_fract_z
 _atom_site_occupancy
  Al  Al0  1  0.06383768  0.49923080  0.50305922  1.0
  Al  Al1  1  0.56382960  0.50080375  0.49691256  1.0
  Al  Al2  1  0.70394912  0.00107784  0.99822522  1.0
  Al  Al3  1  0.20395120  0.99893060  0.00175282  1.0
  H  H4  1  0.81075205  0.81189868  0.64382355  1.0
  H  H5  1  0.31071890  0.18803234  0.35617795  1.0
  H  H6  1  0.12891576  0.82341296  0.72608799  1.0
  H  H7  1  0.62891320  0.17656772  0.27389053  1.0
  H  H8  1  0.86833689  0.59923515  0.81075074  1.0
  H  H9  1  0.36817822  0.40073678  0.18930294  1.0
  H  H10  1  0.24775808  0.55945539  0.82164534  1.0
  H  H11  1  0.74769283  0.44054696  0.17840724  1.0
  H  H12  1  0.06246099  0.64244355  0.98054373  1.0
  H  H13  1  0.56236287  0.35763891  0.01946446  1.0
  H  H14  1  0.45681098  0.55450607  0.73963586  1.0
  H  H15  1  0.95676791  0.44543257  0.26042679  1.0
  H  H16  1  0.31590305  0.60221644  0.50084723  1.0
  H  H17  1  0.81593244  0.39780395  0.49916970  1.0
  H  H18  1  0.45564143  0.89437092  0.00751070  1.0
  H  H19  1  0.95560501  0.10546187  0.99303055  1.0
  C  C20  1  0.30716250  0.42446351  0.42303514  1.0
  C  C21  1  0.80718102  0.57555113  0.57694914  1.0
  C  C22  1  0.32072851  0.39267685  0.60236722  1.0
  C  C23  1  0.82075680  0.60733265  0.39759604  1.0
  C  C24  1  0.83716019  0.66760884  0.33219291  1.0
  C  C25  1  0.33716357  0.33239713  0.66777224  1.0
  C  C26  1  0.87020255  0.71859895  0.27798749  1.0
  C  C27  1  0.37025595  0.28141733  0.72197314  1.0
  C  C28  1  0.90462915  0.77525626  0.21827309  1.0
  C  C29  1  0.40467353  0.22475893  0.78169369  1.0
  C  C30  1  0.93614034  0.82685731  0.16426410  1.0
  C  C31  1  0.43614795  0.17313083  0.83570082  1.0
  C  C32  1  0.77535504  0.83677550  0.73725460  1.0
  C  C33  1  0.27532307  0.16319098  0.26273575  1.0
  C  C34  1  0.07859793  0.76528300  0.75977175  1.0
  C  C35  1  0.57855625  0.23469944  0.24021680  1.0
  C  C36  1  0.03623795  0.70850156  0.71629191  1.0
  C  C37  1  0.53614907  0.29146458  0.28371618  1.0
  C  C38  1  0.79742059  0.61742334  0.62703484  1.0
  C  C39  1  0.29734130  0.38255387  0.37297651  1.0
  C  C40  1  0.90326763  0.78545331  0.79707814  1.0
  C  C41  1  0.40322651  0.21454670  0.20291099  1.0
  C  C42  1  0.73611198  0.78401310  0.69090388  1.0
  C  C43  1  0.23606096  0.21593826  0.30910335  1.0
  C  C44  1  0.81794814  0.69546229  0.71855534  1.0
  C  C45  1  0.31784053  0.30449226  0.28146656  1.0
  C  C46  1  0.76493445  0.64909277  0.79423926  1.0
  C  C47  1  0.26479825  0.35087747  0.20578856  1.0
  C  C48  1  0.81363619  0.70112267  0.84139870  1.0
  C  C49  1  0.31354818  0.29887661  0.15861114  1.0
  C  C50  1  0.78226666  0.65019910  0.67082546  1.0
  C  C51  1  0.28217080  0.34976162  0.32919779  1.0
  C  C52  1  0.94983369  0.83628354  0.83884211  1.0
  C  C53  1  0.44978344  0.16377025  0.16110868  1.0
  C  C54  1  0.95811926  0.88016629  0.87448817  1.0
  C  C55  1  0.45806017  0.11994313  0.12540875  1.0
  C  C56  1  0.44914994  0.11060194  0.89991056  1.0
  C  C57  1  0.94915644  0.88938017  0.10005443  1.0
  C  C58  1  0.45739754  0.07387830  0.07818128  1.0
  C  C59  1  0.95742509  0.92619595  0.92175183  1.0
  C  C60  1  0.15426479  0.62871100  0.73565377  1.0
  C  C61  1  0.65418076  0.37125078  0.26436314  1.0
  C  C62  1  0.93027799  0.64564360  0.90216644  1.0
  C  C63  1  0.43021639  0.35437820  0.09786889  1.0
  C  C64  1  0.59169059  0.59483300  0.80374937  1.0
  C  C65  1  0.09155707  0.40514072  0.19627039  1.0
  Br  Br66  1  0.56490744  0.89019651  0.76512037  1.0
  Br  Br67  1  0.06485647  0.10982043  0.23483159  1.0
  Br  Br68  1  0.48441499  0.78479674  0.65777242  1.0
  Br  Br69  1  0.98436598  0.21512882  0.34226273  1.0
  Br  Br70  1  0.92421660  0.93563357  0.68215158  1.0
  Br  Br71  1  0.42416138  0.06433907  0.31781808  1.0
  Br  Br72  1  0.28014727  0.73290100  0.82339111  1.0
  Br  Br73  1  0.78007039  0.26708795  0.17659668  1.0
  Br  Br74  1  0.09961407  0.76478492  0.61909017  1.0
  Br  Br75  1  0.59954261  0.23517540  0.38090390  1.0
  Br  Br76  1  0.61473584  0.72135817  0.90289275  1.0
  Br  Br77  1  0.11471736  0.27867281  0.09708404  1.0
  O  O78  1  0.47723423  0.41516263  0.57352102  1.0
  O  O79  1  0.97727930  0.58487126  0.42644702  1.0
  O  O80  1  0.15047041  0.43820623  0.44661716  1.0
  O  O81  1  0.65048755  0.56183727  0.55335798  1.0
  O  O82  1  0.15655963  0.41536598  0.58121238  1.0
  O  O83  1  0.65660403  0.58463572  0.41874913  1.0
  O  O84  1  0.97038758  0.55732295  0.56150331  1.0
  O  O85  1  0.47037497  0.44268790  0.43846789  1.0
  O  O86  1  0.31368782  0.54887483  0.49407709  1.0
  O  O87  1  0.81368917  0.45117352  0.50588683  1.0
  O  O88  1  0.29591148  0.05534917  0.06153935  1.0
  O  O89  1  0.79594695  0.94471189  0.93841506  1.0
  O  O90  1  0.61222048  0.08754773  0.92230274  1.0
  O  O91  1  0.11223960  0.91243259  0.07768349  1.0
  O  O92  1  0.61681767  0.05866972  0.05754837  1.0
  O  O93  1  0.11682461  0.94137228  0.94241112  1.0
  O  O94  1  0.79130988  0.91372536  0.07302089  1.0
  O  O95  1  0.29131609  0.08625837  0.92693845  1.0
  O  O96  1  0.45449514  0.95160964  0.00482359  1.0
  O  O97  1  0.95448846  0.04838214  0.99520721  1.0
  O  O98  1  0.26531440  0.61042736  0.69811743  1.0
  O  O99  1  0.12785175  0.58405750  0.79981591  1.0
  O  O100  1  0.76521954  0.38951526  0.30191282  1.0
  O  O101  1  0.62778706  0.41591836  0.20020686  1.0
  O  O102  1  0.93160165  0.57176927  0.91489301  1.0
  O  O103  1  0.00726014  0.68491541  0.94266072  1.0
  O  O104  1  0.43151702  0.42824627  0.08517495  1.0
  O  O105  1  0.50726004  0.31514555  0.05735406  1.0
  O  O106  1  0.47954163  0.58044196  0.85035162  1.0
  O  O107  1  0.58713720  0.55672461  0.75645895  1.0
  O  O108  1  0.97939968  0.41951227  0.14967275  1.0
  O  O109  1  0.08705110  0.44329591  0.24353619  1.0
