# generated using pymatgen
data_Cu2H28C33O14
_symmetry_space_group_name_H-M   'P 1'
_cell_length_a   10.83923939
_cell_length_b   17.34254912
_cell_length_c   27.50351332
_cell_angle_alpha   89.99970805
_cell_angle_beta   90.00018856
_cell_angle_gamma   89.99919709
_symmetry_Int_Tables_number   1
_chemical_formula_structural   Cu2H28C33O14
_chemical_formula_sum   'Cu8 H112 C132 O56'
_cell_volume   5170.11157591
_cell_formula_units_Z   4
loop_
 _symmetry_equiv_pos_site_id
 _symmetry_equiv_pos_as_xyz
  1  'x, y, z'
loop_
 _atom_site_type_symbol
 _atom_site_label
 _atom_site_symmetry_multiplicity
 _atom_site_fract_x
 _atom_site_fract_y
 _atom_site_fract_z
 _atom_site_occupancy
  Cu  Cu0  1  0.55407948  0.94009533  0.48600641  1.0
  Cu  Cu1  1  0.55406537  0.05989791  0.01399431  1.0
  Cu  Cu2  1  0.94591695  0.44009292  0.01399068  1.0
  Cu  Cu3  1  0.94593602  0.55989693  0.48600946  1.0
  Cu  Cu4  1  0.44594549  0.05989290  0.51399036  1.0
  Cu  Cu5  1  0.44593745  0.94009723  0.98600755  1.0
  Cu  Cu6  1  0.05406188  0.55989818  0.98600282  1.0
  Cu  Cu7  1  0.05407418  0.44009302  0.51399859  1.0
  H  H8  1  0.74011249  0.18813035  0.56570847  1.0
  H  H9  1  0.93009854  0.24724354  0.59974451  1.0
  H  H10  1  0.12719672  0.03485215  0.57303793  1.0
  H  H11  1  0.93425724  0.97731753  0.53815994  1.0
  H  H12  1  0.05326712  0.23511160  0.66239669  1.0
  H  H13  1  0.12352308  0.28872587  0.61405119  1.0
  H  H14  1  0.18940132  0.16715766  0.72399556  1.0
  H  H15  1  0.29584170  0.12824384  0.68028491  1.0
  H  H16  1  0.52227185  0.24755414  0.79753534  1.0
  H  H17  1  0.55988713  0.18882238  0.87941773  1.0
  H  H18  1  0.29965583  0.00952358  0.84703108  1.0
  H  H19  1  0.25952194  0.06765798  0.76576425  1.0
  H  H20  1  0.62688691  0.81113923  0.51421324  1.0
  H  H21  1  0.73253888  0.82185650  0.47637849  1.0
  H  H22  1  0.74012078  0.81186185  0.93430619  1.0
  H  H23  1  0.93010419  0.75275625  0.90026349  1.0
  H  H24  1  0.12718946  0.96516206  0.92695558  1.0
  H  H25  1  0.93424774  0.02269145  0.96183680  1.0
  H  H26  1  0.05326552  0.76490729  0.83760472  1.0
  H  H27  1  0.12352864  0.71128549  0.88594741  1.0
  H  H28  1  0.18940227  0.83284909  0.77599985  1.0
  H  H29  1  0.29583198  0.87176373  0.81970663  1.0
  H  H30  1  0.52228232  0.75244801  0.70246631  1.0
  H  H31  1  0.55989926  0.81117715  0.62058361  1.0
  H  H32  1  0.29966876  0.99047819  0.65296884  1.0
  H  H33  1  0.25952950  0.93234356  0.73423670  1.0
  H  H34  1  0.62686829  0.18884645  0.98578127  1.0
  H  H35  1  0.73252124  0.17814846  0.02361701  1.0
  H  H36  1  0.75988280  0.68813543  0.93429622  1.0
  H  H37  1  0.56990924  0.74724766  0.90025708  1.0
  H  H38  1  0.37280569  0.53485459  0.92696152  1.0
  H  H39  1  0.56575361  0.47732574  0.96184055  1.0
  H  H40  1  0.44673073  0.73511528  0.83760430  1.0
  H  H41  1  0.37646709  0.78873207  0.88594745  1.0
  H  H42  1  0.31059900  0.66716186  0.77600310  1.0
  H  H43  1  0.20416688  0.62824687  0.81971533  1.0
  H  H44  1  0.97773407  0.74755172  0.70246516  1.0
  H  H45  1  0.94011460  0.68881460  0.62058369  1.0
  H  H46  1  0.20034716  0.50951645  0.65297282  1.0
  H  H47  1  0.24048249  0.56765562  0.73424091  1.0
  H  H48  1  0.87309912  0.31113941  0.98579069  1.0
  H  H49  1  0.76742334  0.32186420  0.02361716  1.0
  H  H50  1  0.75989384  0.31187620  0.56572064  1.0
  H  H51  1  0.56990900  0.25276447  0.59975263  1.0
  H  H52  1  0.37281976  0.46516269  0.57303958  1.0
  H  H53  1  0.56577161  0.52268930  0.53816625  1.0
  H  H54  1  0.44672797  0.26490252  0.66239544  1.0
  H  H55  1  0.37647160  0.21128691  0.61405184  1.0
  H  H56  1  0.31059244  0.33284213  0.72400192  1.0
  H  H57  1  0.20416922  0.37176207  0.68029028  1.0
  H  H58  1  0.97771612  0.25243324  0.79752690  1.0
  H  H59  1  0.94008585  0.31116434  0.87940759  1.0
  H  H60  1  0.20032973  0.49045792  0.84703460  1.0
  H  H61  1  0.24045741  0.43233859  0.76576256  1.0
  H  H62  1  0.87311775  0.68885165  0.51421396  1.0
  H  H63  1  0.76746639  0.67813007  0.47637984  1.0
  H  H64  1  0.25988757  0.81186767  0.43428794  1.0
  H  H65  1  0.06990521  0.75275737  0.40026063  1.0
  H  H66  1  0.87280703  0.96514760  0.42696248  1.0
  H  H67  1  0.06575850  0.02268222  0.46183139  1.0
  H  H68  1  0.94673478  0.76488700  0.33760663  1.0
  H  H69  1  0.87647052  0.71126927  0.38594814  1.0
  H  H70  1  0.81061534  0.83284094  0.27600449  1.0
  H  H71  1  0.70418326  0.87175995  0.31971296  1.0
  H  H72  1  0.47772174  0.75245772  0.20246871  1.0
  H  H73  1  0.44011201  0.81118545  0.12058450  1.0
  H  H74  1  0.70036729  0.99047156  0.15296716  1.0
  H  H75  1  0.74049104  0.93234062  0.23423653  1.0
  H  H76  1  0.37313068  0.18884438  0.48578499  1.0
  H  H77  1  0.26747594  0.17813230  0.52361865  1.0
  H  H78  1  0.25989312  0.18813675  0.06570949  1.0
  H  H79  1  0.06991800  0.24725331  0.09974383  1.0
  H  H80  1  0.87281705  0.03486018  0.07303502  1.0
  H  H81  1  0.06576247  0.97733079  0.03815889  1.0
  H  H82  1  0.94673454  0.23511899  0.16239569  1.0
  H  H83  1  0.87646588  0.28873387  0.11405264  1.0
  H  H84  1  0.81060702  0.16716104  0.22399729  1.0
  H  H85  1  0.70417822  0.12824237  0.18028324  1.0
  H  H86  1  0.47771774  0.24753848  0.29753337  1.0
  H  H87  1  0.44010264  0.18880416  0.37941753  1.0
  H  H88  1  0.70035805  0.00951752  0.34702903  1.0
  H  H89  1  0.74048994  0.06765850  0.26576516  1.0
  H  H90  1  0.37311239  0.81114465  0.01420787  1.0
  H  H91  1  0.26743823  0.82187840  0.97638231  1.0
  H  H92  1  0.24011542  0.31185855  0.06569910  1.0
  H  H93  1  0.43010558  0.25275210  0.09973642  1.0
  H  H94  1  0.62718514  0.46515381  0.07303998  1.0
  H  H95  1  0.43423999  0.52268208  0.03816095  1.0
  H  H96  1  0.55326563  0.26489716  0.16239502  1.0
  H  H97  1  0.62353296  0.21128210  0.11405224  1.0
  H  H98  1  0.68940475  0.33284482  0.22399986  1.0
  H  H99  1  0.79582672  0.37176557  0.18028909  1.0
  H  H100  1  0.02228351  0.25246071  0.29753598  1.0
  H  H101  1  0.05988823  0.31118919  0.37942036  1.0
  H  H102  1  0.79965106  0.49048330  0.34702832  1.0
  H  H103  1  0.75952310  0.43234587  0.26576204  1.0
  H  H104  1  0.12685573  0.68884189  0.01421627  1.0
  H  H105  1  0.23251398  0.67813786  0.97638398  1.0
  H  H106  1  0.24010991  0.68813393  0.43429068  1.0
  H  H107  1  0.43009383  0.74724566  0.40025978  1.0
  H  H108  1  0.62718860  0.53485378  0.42696156  1.0
  H  H109  1  0.43424228  0.47731737  0.46183417  1.0
  H  H110  1  0.55326840  0.73511280  0.33760606  1.0
  H  H111  1  0.62353584  0.78872841  0.38594712  1.0
  H  H112  1  0.68938640  0.66715647  0.27600359  1.0
  H  H113  1  0.79582807  0.62823711  0.31971195  1.0
  H  H114  1  0.02228025  0.74753192  0.20246042  1.0
  H  H115  1  0.05986993  0.68880024  0.12057573  1.0
  H  H116  1  0.79961866  0.50951704  0.15296799  1.0
  H  H117  1  0.75950113  0.56765367  0.23423640  1.0
  H  H118  1  0.12687769  0.31114695  0.48579008  1.0
  H  H119  1  0.23254381  0.32186507  0.52361912  1.0
  C  C120  1  0.70803606  0.04692474  0.53135234  1.0
  C  C121  1  0.82479950  0.07928042  0.55080042  1.0
  C  C122  1  0.82523693  0.15512099  0.56810463  1.0
  C  C123  1  0.93132711  0.18759434  0.58757344  1.0
  C  C124  1  0.03907591  0.14295768  0.59027768  1.0
  C  C125  1  0.04131670  0.06754265  0.57171726  1.0
  C  C126  1  0.93430307  0.03600603  0.55226183  1.0
  C  C127  1  0.13475240  0.23908769  0.63864959  1.0
  C  C128  1  0.27253792  0.17916485  0.70235290  1.0
  C  C129  1  0.38839066  0.16174158  0.77701111  1.0
  C  C130  1  0.47408000  0.19543336  0.80893903  1.0
  C  C131  1  0.49461244  0.16276835  0.85417150  1.0
  C  C132  1  0.43185887  0.09548491  0.86820759  1.0
  C  C133  1  0.34768992  0.06186001  0.83589790  1.0
  C  C134  1  0.32500696  0.09459135  0.79049672  1.0
  C  C135  1  0.45556501  0.06018415  0.91655094  1.0
  C  C136  1  0.70802481  0.95306889  0.96864847  1.0
  C  C137  1  0.82479897  0.92071451  0.94920381  1.0
  C  C138  1  0.82524075  0.84487567  0.93190396  1.0
  C  C139  1  0.93133613  0.81240371  0.91243456  1.0
  C  C140  1  0.03907281  0.85705095  0.90972590  1.0
  C  C141  1  0.04130835  0.93246769  0.92828523  1.0
  C  C142  1  0.93429140  0.96399546  0.94773890  1.0
  C  C143  1  0.13475570  0.76092703  0.86135084  1.0
  C  C144  1  0.27253471  0.82084119  0.79764661  1.0
  C  C145  1  0.38839380  0.83826000  0.72298892  1.0
  C  C146  1  0.47408734  0.80456402  0.69106365  1.0
  C  C147  1  0.49461681  0.83722713  0.64583194  1.0
  C  C148  1  0.43187266  0.90451226  0.63179286  1.0
  C  C149  1  0.34769030  0.93813500  0.66410062  1.0
  C  C150  1  0.32500662  0.90540962  0.70950358  1.0
  C  C151  1  0.45557298  0.93980590  0.58344954  1.0
  C  C152  1  0.79196521  0.54693043  0.96865026  1.0
  C  C153  1  0.67520196  0.57928784  0.94920171  1.0
  C  C154  1  0.67475726  0.65512452  0.93189762  1.0
  C  C155  1  0.56867926  0.68760125  0.91242762  1.0
  C  C156  1  0.46092865  0.64296065  0.90972470  1.0
  C  C157  1  0.45868865  0.56754953  0.92828317  1.0
  C  C158  1  0.56570860  0.53601210  0.94773790  1.0
  C  C159  1  0.36524260  0.73909303  0.86135030  1.0
  C  C160  1  0.22746674  0.67916844  0.79764753  1.0
  C  C161  1  0.11161901  0.66174331  0.72299048  1.0
  C  C162  1  0.02592244  0.69543320  0.69106463  1.0
  C  C163  1  0.00539628  0.66277103  0.64582972  1.0
  C  C164  1  0.06814678  0.59548198  0.63179566  1.0
  C  C165  1  0.15233309  0.56186129  0.66410583  1.0
  C  C166  1  0.17499963  0.59458803  0.70950871  1.0
  C  C167  1  0.04444882  0.56018758  0.58345533  1.0
  C  C168  1  0.79198013  0.45306998  0.53135792  1.0
  C  C169  1  0.67522146  0.42072222  0.55080850  1.0
  C  C170  1  0.67477034  0.34488670  0.56811550  1.0
  C  C171  1  0.56868770  0.31241435  0.58758354  1.0
  C  C172  1  0.46093702  0.35705357  0.59028051  1.0
  C  C173  1  0.45869977  0.43247221  0.57172094  1.0
  C  C174  1  0.56572067  0.46400640  0.55226999  1.0
  C  C175  1  0.36524065  0.26092489  0.63864715  1.0
  C  C176  1  0.22746211  0.32083915  0.70234938  1.0
  C  C177  1  0.11159709  0.33825086  0.77700701  1.0
  C  C178  1  0.02589694  0.30455420  0.80893020  1.0
  C  C179  1  0.00537041  0.33721598  0.85416654  1.0
  C  C180  1  0.06811949  0.40450160  0.86820322  1.0
  C  C181  1  0.15230016  0.43811523  0.83589790  1.0
  C  C182  1  0.17497167  0.40540271  0.79049394  1.0
  C  C183  1  0.04441099  0.43979678  0.91654570  1.0
  C  C184  1  0.29198061  0.95307328  0.46864371  1.0
  C  C185  1  0.17522086  0.92071587  0.44919636  1.0
  C  C186  1  0.17477051  0.84487934  0.43189069  1.0
  C  C187  1  0.06868033  0.81240311  0.41242661  1.0
  C  C188  1  0.96093245  0.85704438  0.40972274  1.0
  C  C189  1  0.95869258  0.93246056  0.42828097  1.0
  C  C190  1  0.06571267  0.96399661  0.44773204  1.0
  C  C191  1  0.86524674  0.76091149  0.36135264  1.0
  C  C192  1  0.72747597  0.82083721  0.29764860  1.0
  C  C193  1  0.61162047  0.83826048  0.22298894  1.0
  C  C194  1  0.52592190  0.80456927  0.19106211  1.0
  C  C195  1  0.50539499  0.83723429  0.14582892  1.0
  C  C196  1  0.56815595  0.90450908  0.13179028  1.0
  C  C197  1  0.65233135  0.93813455  0.16410179  1.0
  C  C198  1  0.67500971  0.90540667  0.20950114  1.0
  C  C199  1  0.54444243  0.93980868  0.08344911  1.0
  C  C200  1  0.29198078  0.04692452  0.03135231  1.0
  C  C201  1  0.17521677  0.07929158  0.05079661  1.0
  C  C202  1  0.17477314  0.15512466  0.06810555  1.0
  C  C203  1  0.06869253  0.18760354  0.08757239  1.0
  C  C204  1  0.96094200  0.14296610  0.09027597  1.0
  C  C205  1  0.95870001  0.06755167  0.07171737  1.0
  C  C206  1  0.06571788  0.03601064  0.05226006  1.0
  C  C207  1  0.86524344  0.23909175  0.13864848  1.0
  C  C208  1  0.72746996  0.17916376  0.20235453  1.0
  C  C209  1  0.61160810  0.16173226  0.27701113  1.0
  C  C210  1  0.52591364  0.19542709  0.30893749  1.0
  C  C211  1  0.50538970  0.16275936  0.35416884  1.0
  C  C212  1  0.56814585  0.09547596  0.36820574  1.0
  C  C213  1  0.65232636  0.06185610  0.33589507  1.0
  C  C214  1  0.67500912  0.09458609  0.29049646  1.0
  C  C215  1  0.54445107  0.06018117  0.41654397  1.0
  C  C216  1  0.20802193  0.45306933  0.03134760  1.0
  C  C217  1  0.32478611  0.42071422  0.05079797  1.0
  C  C218  1  0.32523818  0.34487524  0.06809879  1.0
  C  C219  1  0.43132541  0.31240427  0.08756552  1.0
  C  C220  1  0.53906310  0.35704718  0.09027535  1.0
  C  C221  1  0.54131048  0.43246118  0.07171288  1.0
  C  C222  1  0.43428316  0.46399746  0.05226070  1.0
  C  C223  1  0.63475193  0.26092402  0.13864975  1.0
  C  C224  1  0.77252963  0.32084054  0.20235542  1.0
  C  C225  1  0.88838750  0.33826509  0.27701211  1.0
  C  C226  1  0.97408223  0.30457174  0.30893942  1.0
  C  C227  1  0.99460378  0.33723852  0.35416996  1.0
  C  C228  1  0.93184959  0.40451489  0.36820948  1.0
  C  C229  1  0.84767896  0.43814135  0.33589822  1.0
  C  C230  1  0.82499674  0.40541519  0.29049642  1.0
  C  C231  1  0.95555216  0.43981678  0.41655017  1.0
  C  C232  1  0.20802731  0.54692689  0.46864831  1.0
  C  C233  1  0.32478690  0.57928388  0.44919918  1.0
  C  C234  1  0.32523249  0.65512112  0.43189255  1.0
  C  C235  1  0.43131789  0.68759636  0.41242778  1.0
  C  C236  1  0.53906672  0.64295830  0.40972317  1.0
  C  C237  1  0.54130767  0.56754139  0.42828201  1.0
  C  C238  1  0.43428676  0.53600431  0.44773369  1.0
  C  C239  1  0.63475849  0.73908697  0.36135108  1.0
  C  C240  1  0.77252872  0.67915888  0.29764449  1.0
  C  C241  1  0.88837529  0.66172814  0.22298432  1.0
  C  C242  1  0.97406714  0.69541902  0.19105821  1.0
  C  C243  1  0.99458813  0.66275379  0.14582551  1.0
  C  C244  1  0.93183536  0.59547854  0.13179137  1.0
  C  C245  1  0.84766023  0.56185569  0.16410034  1.0
  C  C246  1  0.82498410  0.59458205  0.20949920  1.0
  C  C247  1  0.95554663  0.56017587  0.08345108  1.0
  C  C248  1  0.25000219  0.25000184  0.66980457  1.0
  C  C249  1  0.24999532  0.75000554  0.83019382  1.0
  C  C250  1  0.75000617  0.74999676  0.33019402  1.0
  C  C251  1  0.75000012  0.25000343  0.16980659  1.0
  O  O252  1  0.71211789  0.98031354  0.51136103  1.0
  O  O253  1  0.61158141  0.08887918  0.53627703  1.0
  O  O254  1  0.14597434  0.16920011  0.61096161  1.0
  O  O255  1  0.37390933  0.19875080  0.73370057  1.0
  O  O256  1  0.41249883  0.99250919  0.92373650  1.0
  O  O257  1  0.51744818  0.10004987  0.94728917  1.0
  O  O258  1  0.64370710  0.81405928  0.47936389  1.0
  O  O259  1  0.71210776  0.01967890  0.98864014  1.0
  O  O260  1  0.61157570  0.91111529  0.96372219  1.0
  O  O261  1  0.14597813  0.83081106  0.88904174  1.0
  O  O262  1  0.37390354  0.80125494  0.76630125  1.0
  O  O263  1  0.41249751  0.00748238  0.57626247  1.0
  O  O264  1  0.51746233  0.89995117  0.55270557  1.0
  O  O265  1  0.64368834  0.18593087  0.02063114  1.0
  O  O266  1  0.78787167  0.48032020  0.98864345  1.0
  O  O267  1  0.88842905  0.58887427  0.96372107  1.0
  O  O268  1  0.35403147  0.66920935  0.88904286  1.0
  O  O269  1  0.12609027  0.69874859  0.76630199  1.0
  O  O270  1  0.08751346  0.49250937  0.57626621  1.0
  O  O271  1  0.98255004  0.60004631  0.55271144  1.0
  O  O272  1  0.85626360  0.31407374  0.02063616  1.0
  O  O273  1  0.78790059  0.51968312  0.51136436  1.0
  O  O274  1  0.88843666  0.41111608  0.53628178  1.0
  O  O275  1  0.35403231  0.33080982  0.61095603  1.0
  O  O276  1  0.12608820  0.30125468  0.73369188  1.0
  O  O277  1  0.08750460  0.50747059  0.92373452  1.0
  O  O278  1  0.98251061  0.39993976  0.94728899  1.0
  O  O279  1  0.85629451  0.68593533  0.47936532  1.0
  O  O280  1  0.28788955  0.01968679  0.48863284  1.0
  O  O281  1  0.38843709  0.91112403  0.46372520  1.0
  O  O282  1  0.85402940  0.83079446  0.38904790  1.0
  O  O283  1  0.62610087  0.80125876  0.26630130  1.0
  O  O284  1  0.58750492  0.00748653  0.07626319  1.0
  O  O285  1  0.48255465  0.89994469  0.05270906  1.0
  O  O286  1  0.35630495  0.18593355  0.52063507  1.0
  O  O287  1  0.28788492  0.98031393  0.01136536  1.0
  O  O288  1  0.38842897  0.08887582  0.03627495  1.0
  O  O289  1  0.85404315  0.16920945  0.11095394  1.0
  O  O290  1  0.62609467  0.19874020  0.23369879  1.0
  O  O291  1  0.58750624  0.99250007  0.42373830  1.0
  O  O292  1  0.48256725  0.10004916  0.44728939  1.0
  O  O293  1  0.35627482  0.81407177  0.97936237  1.0
  O  O294  1  0.21210994  0.51968474  0.01136096  1.0
  O  O295  1  0.11157009  0.41112145  0.03627171  1.0
  O  O296  1  0.64596859  0.33080770  0.11095755  1.0
  O  O297  1  0.87390149  0.30125981  0.23370024  1.0
  O  O298  1  0.91249397  0.50749384  0.42373748  1.0
  O  O299  1  0.01743434  0.39995114  0.44729588  1.0
  O  O300  1  0.14368571  0.68593466  0.97936680  1.0
  O  O301  1  0.21212069  0.48031375  0.48863932  1.0
  O  O302  1  0.11157078  0.58887675  0.46372736  1.0
  O  O303  1  0.64596775  0.66920319  0.38904584  1.0
  O  O304  1  0.87389710  0.69873816  0.26629653  1.0
  O  O305  1  0.91249638  0.49249457  0.07626298  1.0
  O  O306  1  0.01742210  0.60004327  0.05270706  1.0
  O  O307  1  0.14371201  0.31405981  0.52063837  1.0
