# generated using pymatgen
data_Al4H38C59(N2O5)4
_symmetry_space_group_name_H-M   'P 1'
_cell_length_a   6.67898161
_cell_length_b   21.94155577
_cell_length_c   23.78375711
_cell_angle_alpha   68.06227797
_cell_angle_beta   89.92467989
_cell_angle_gamma   89.84762715
_symmetry_Int_Tables_number   1
_chemical_formula_structural   Al4H38C59(N2O5)4
_chemical_formula_sum   'Al4 H38 C59 N8 O20'
_cell_volume   3233.05320186
_cell_formula_units_Z   1
loop_
 _symmetry_equiv_pos_site_id
 _symmetry_equiv_pos_as_xyz
  1  'x, y, z'
loop_
 _atom_site_type_symbol
 _atom_site_label
 _atom_site_symmetry_multiplicity
 _atom_site_fract_x
 _atom_site_fract_y
 _atom_site_fract_z
 _atom_site_occupancy
  Al  Al0  1  0.09150591  0.50085203  0.49810501  1.0
  Al  Al1  1  0.59162798  0.49931983  0.50083782  1.0
  Al  Al2  1  0.67380626  0.99849650  0.00115992  1.0
  Al  Al3  1  0.17378218  0.00079478  0.99811630  1.0
  H  H4  1  0.63749307  0.82064691  0.15189048  1.0
  H  H5  1  0.24350827  0.87495082  0.17205533  1.0
  H  H6  1  0.49175524  0.71936554  0.22857994  1.0
  H  H7  1  0.27245844  0.78084272  0.27108256  1.0
  H  H8  1  0.52080195  0.62497555  0.32753615  1.0
  H  H9  1  0.12634930  0.67930217  0.34806461  1.0
  H  H10  1  0.59968024  0.88343343  0.90476810  1.0
  H  H11  1  0.58409414  0.81920792  0.83679375  1.0
  H  H12  1  0.22309886  0.83572946  0.81366748  1.0
  H  H13  1  0.23782975  0.89876914  0.88277113  1.0
  H  H14  1  0.57767626  0.70692362  0.64876279  1.0
  H  H15  1  0.54913782  0.63873425  0.58508606  1.0
  H  H16  1  0.15124422  0.57024095  0.63397867  1.0
  H  H17  1  0.67057599  0.40158497  0.38884211  1.0
  H  H18  1  0.68604049  0.33612080  0.32185746  1.0
  H  H19  1  0.04457834  0.31866410  0.32935315  1.0
  H  H20  1  0.02997134  0.38542568  0.39525948  1.0
  H  H21  1  0.72122546  0.18116697  0.16958200  1.0
  H  H22  1  0.73398510  0.11465435  0.10340512  1.0
  H  H23  1  0.09361159  0.09803495  0.11121735  1.0
  H  H24  1  0.07990232  0.16355417  0.17812777  1.0
  H  H25  1  0.13946576  0.17980777  0.84811767  1.0
  H  H26  1  0.74511207  0.12450486  0.82751994  1.0
  H  H27  1  0.99317922  0.28145000  0.77117564  1.0
  H  H28  1  0.77449367  0.21909236  0.72881656  1.0
  H  H29  1  0.02177423  0.37543293  0.67203546  1.0
  H  H30  1  0.62848277  0.32052563  0.65208607  1.0
  H  H31  1  0.50797400  0.55967403  0.80160443  1.0
  H  H32  1  0.44730734  0.63385351  0.81124603  1.0
  H  H33  1  0.36730299  0.55715566  0.86592512  1.0
  H  H34  1  0.08076158  0.61460673  0.79845671  1.0
  H  H35  1  0.13889341  0.54084964  0.78853499  1.0
  H  H36  1  0.34260299  0.60242818  0.69678532  1.0
  H  H37  1  0.29176953  0.67685807  0.70688955  1.0
  H  H38  1  0.34284809  0.58558664  0.48354331  1.0
  H  H39  1  0.84590192  0.41355579  0.52977314  1.0
  H  H40  1  0.41921407  0.91325774  0.03049294  1.0
  H  H41  1  0.91847211  0.08631691  0.97161162  1.0
  C  C42  1  0.34235122  0.43532760  0.43632589  1.0
  C  C43  1  0.33958830  0.40826625  0.59643833  1.0
  C  C44  1  0.84415128  0.56432677  0.56358386  1.0
  C  C45  1  0.83691583  0.59146243  0.40295440  1.0
  C  C46  1  0.93818612  0.85249779  0.15625346  1.0
  C  C47  1  0.82601653  0.64745073  0.34335533  1.0
  C  C48  1  0.62906671  0.71117365  0.25525212  1.0
  C  C49  1  0.64495078  0.65884137  0.30958790  1.0
  C  C50  1  0.98768975  0.68905379  0.32191235  1.0
  C  C51  1  0.97363864  0.74435435  0.26697901  1.0
  C  C52  1  0.79053249  0.75574579  0.23282839  1.0
  C  C53  1  0.77639223  0.81098932  0.17791508  1.0
  C  C54  1  0.11934545  0.84110598  0.18995867  1.0
  C  C55  1  0.13513021  0.78891413  0.24441808  1.0
  C  C56  1  0.73502254  0.87219639  0.88487316  1.0
  C  C57  1  0.72629835  0.83671470  0.84731038  1.0
  C  C58  1  0.90263440  0.82389993  0.82120553  1.0
  C  C59  1  0.08786633  0.84593226  0.83436088  1.0
  C  C60  1  0.09580421  0.88099740  0.87239225  1.0
  C  C61  1  0.91946591  0.89480155  0.89754708  1.0
  C  C62  1  0.88295539  0.71938760  0.71228741  1.0
  C  C63  1  0.89233630  0.78922324  0.77907694  1.0
  C  C64  1  0.70142320  0.67583864  0.64586068  1.0
  C  C65  1  0.68588211  0.63840560  0.61014785  1.0
  C  C66  1  0.85068821  0.60122558  0.60509916  1.0
  C  C67  1  0.02543717  0.60012624  0.63804724  1.0
  C  C68  1  0.04297450  0.63590231  0.67563780  1.0
  C  C69  1  0.87808589  0.67573987  0.67801996  1.0
  C  C70  1  0.53474716  0.38320959  0.37539910  1.0
  C  C71  1  0.54347625  0.34694592  0.33847137  1.0
  C  C72  1  0.36615838  0.32342463  0.32193829  1.0
  C  C73  1  0.18040998  0.33732229  0.34251017  1.0
  C  C74  1  0.17257740  0.37410437  0.37902578  1.0
  C  C75  1  0.34950742  0.39701564  0.39600238  1.0
  C  C76  1  0.39101171  0.21562398  0.21579788  1.0
  C  C77  1  0.37511422  0.28449513  0.28335330  1.0
  C  C78  1  0.58504623  0.16251633  0.15661897  1.0
  C  C79  1  0.59181546  0.12583897  0.11998747  1.0
  C  C80  1  0.41445493  0.10290109  0.10329155  1.0
  C  C81  1  0.22978980  0.11647668  0.12439373  1.0
  C  C82  1  0.22207730  0.15273578  0.16131081  1.0
  C  C83  1  0.39976695  0.17641113  0.17747360  1.0
  C  C84  1  0.43995238  0.14741932  0.84347696  1.0
  C  C85  1  0.32781961  0.35281237  0.65638943  1.0
  C  C86  1  0.13069346  0.28944005  0.74456853  1.0
  C  C87  1  0.14645107  0.34160872  0.69006734  1.0
  C  C88  1  0.48960321  0.31113204  0.67811492  1.0
  C  C89  1  0.47550720  0.25586440  0.73303092  1.0
  C  C90  1  0.29231352  0.24466577  0.76715147  1.0
  C  C91  1  0.27831837  0.18932513  0.82204424  1.0
  C  C92  1  0.62110308  0.15863920  0.80971356  1.0
  C  C93  1  0.63703663  0.21105565  0.75544964  1.0
  C  C94  1  0.42840317  0.09115121  0.90285610  1.0
  C  C95  1  0.42025987  0.06490777  0.06265241  1.0
  C  C96  1  0.92614890  0.90830339  0.09661384  1.0
  C  C97  1  0.92575109  0.93366178  0.93742003  1.0
  C  C98  1  0.22964059  0.62842440  0.71320234  1.0
  C  C99  1  0.19722682  0.59012858  0.78144409  1.0
  C  C100  1  0.39046264  0.58484784  0.81726499  1.0
  N  N101  1  0.05810941  0.78806577  0.74668180  1.0
  N  N102  1  0.05314280  0.75282082  0.71241064  1.0
  N  N103  1  0.70821350  0.72989689  0.73643144  1.0
  N  N104  1  0.71286294  0.76556282  0.77023848  1.0
  N  N105  1  0.20080919  0.26145473  0.26993074  1.0
  N  N106  1  0.20886101  0.22646837  0.23557018  1.0
  N  N107  1  0.56514350  0.23901021  0.22889655  1.0
  N  N108  1  0.55708545  0.27401974  0.26325390  1.0
  O  O109  1  0.51232630  0.42916240  0.57508426  1.0
  O  O110  1  0.17066725  0.45196182  0.44932386  1.0
  O  O111  1  0.00889907  0.57246298  0.42616216  1.0
  O  O112  1  0.17266380  0.42965680  0.57068037  1.0
  O  O113  1  0.01286991  0.54916532  0.54735824  1.0
  O  O114  1  0.50961706  0.44774181  0.45527377  1.0
  O  O115  1  0.34194820  0.53905677  0.49130916  1.0
  O  O116  1  0.67287246  0.55178936  0.54679745  1.0
  O  O117  1  0.66991207  0.56749014  0.42672857  1.0
  O  O118  1  0.84233264  0.46070588  0.50835244  1.0
  O  O119  1  0.25167739  0.05036491  0.04608712  1.0
  O  O120  1  0.59525193  0.06685638  0.92683658  1.0
  O  O121  1  0.75793634  0.94569294  0.95665094  1.0
  O  O122  1  0.59155309  0.05077687  0.04706522  1.0
  O  O123  1  0.75322152  0.92922007  0.07534145  1.0
  O  O124  1  0.25608284  0.07211579  0.92570392  1.0
  O  O125  1  0.42312307  0.96029804  0.00842134  1.0
  O  O126  1  0.09249849  0.93030236  0.07081456  1.0
  O  O127  1  0.09685609  0.95132851  0.94943368  1.0
  O  O128  1  0.92241701  0.03891980  0.99092684  1.0
