# generated using pymatgen
data_Al4H12C29O22
_symmetry_space_group_name_H-M   'P 1'
_cell_length_a   6.69038669
_cell_length_b   16.79591615
_cell_length_c   18.67372830
_cell_angle_alpha   105.20555785
_cell_angle_beta   90.80112117
_cell_angle_gamma   90.07156950
_symmetry_Int_Tables_number   1
_chemical_formula_structural   Al4H12C29O22
_chemical_formula_sum   'Al4 H12 C29 O22'
_cell_volume   2024.70217917
_cell_formula_units_Z   1
loop_
 _symmetry_equiv_pos_site_id
 _symmetry_equiv_pos_as_xyz
  1  'x, y, z'
loop_
 _atom_site_type_symbol
 _atom_site_label
 _atom_site_symmetry_multiplicity
 _atom_site_fract_x
 _atom_site_fract_y
 _atom_site_fract_z
 _atom_site_occupancy
  Al  Al0  1  0.88905578  0.50088422  0.49811607  1.0
  Al  Al1  1  0.38842720  0.49953458  0.49727008  1.0
  Al  Al2  1  0.37458067  0.00033952  0.00008006  1.0
  Al  Al3  1  0.87444334  0.99984638  0.99881106  1.0
  H  H4  1  0.43112048  0.19415984  0.19285569  1.0
  H  H5  1  0.43260382  0.30648719  0.30780013  1.0
  H  H6  1  0.92057276  0.82016405  0.80128973  1.0
  H  H7  1  0.45983574  0.80815804  0.79134068  1.0
  H  H8  1  0.97116856  0.19629465  0.19976878  1.0
  H  H9  1  0.97253450  0.30547381  0.29605023  1.0
  H  H10  1  0.05223352  0.76028412  0.57398986  1.0
  H  H11  1  0.50298144  0.67596840  0.71593934  1.0
  H  H12  1  0.64024393  0.40161674  0.51049086  1.0
  H  H13  1  0.14646786  0.59774959  0.55398338  1.0
  H  H14  1  0.62502228  0.10558122  0.00218076  1.0
  H  H15  1  0.12429759  0.89168536  0.97285309  1.0
  C  C16  1  0.63651767  0.58560692  0.41246330  1.0
  C  C17  1  0.63964443  0.61109903  0.61179776  1.0
  C  C18  1  0.14089138  0.41139638  0.58285413  1.0
  C  C19  1  0.13450380  0.39083051  0.38516231  1.0
  C  C20  1  0.28645240  0.21655890  0.21614005  1.0
  C  C21  1  0.12165405  0.17873184  0.18022515  1.0
  C  C22  1  0.28731876  0.28432350  0.28295462  1.0
  C  C23  1  0.12374038  0.32288801  0.31684072  1.0
  C  C24  1  0.12342609  0.13630466  0.86100512  1.0
  C  C25  1  0.12856675  0.17994514  0.81769715  1.0
  C  C26  1  0.13369075  0.22775530  0.77044199  1.0
  C  C27  1  0.13806730  0.27181351  0.72698628  1.0
  C  C28  1  0.14095096  0.31919591  0.67933598  1.0
  C  C29  1  0.14225934  0.36216025  0.63541095  1.0
  C  C30  1  0.63494650  0.63494318  0.35993299  1.0
  C  C31  1  0.63578204  0.67837002  0.31639108  1.0
  C  C32  1  0.63595902  0.72642266  0.26926628  1.0
  C  C33  1  0.63543530  0.77127320  0.22644943  1.0
  C  C34  1  0.63375519  0.82001093  0.17992080  1.0
  C  C35  1  0.63143664  0.86449152  0.13727876  1.0
  C  C36  1  0.77611404  0.79575138  0.77714691  1.0
  C  C37  1  0.60936869  0.82656649  0.81369243  1.0
  C  C38  1  0.78040675  0.73335145  0.70630557  1.0
  C  C39  1  0.63537131  0.67601351  0.68251566  1.0
  C  C40  1  0.61829267  0.88938828  0.88585989  1.0
  C  C41  1  0.62875236  0.91480182  0.08552316  1.0
  C  C42  1  0.12877048  0.11168532  0.11120946  1.0
  C  C43  1  0.12207605  0.08656396  0.91323693  1.0
  C  C44  1  0.96570022  0.73563703  0.66219508  1.0
  O  O45  1  0.46923976  0.58356838  0.58501194  1.0
  O  O46  1  0.80771260  0.56610092  0.43277932  1.0
  O  O47  1  0.96667971  0.41741802  0.41330037  1.0
  O  O48  1  0.80938483  0.58746662  0.58373006  1.0
  O  O49  1  0.96913032  0.43192099  0.56344611  1.0
  O  O50  1  0.46719258  0.56719522  0.43398756  1.0
  O  O51  1  0.63903821  0.45091666  0.49266419  1.0
  O  O52  1  0.31095819  0.42869196  0.56081511  1.0
  O  O53  1  0.30569147  0.41745434  0.41176561  1.0
  O  O54  1  0.13981793  0.55106678  0.51029696  1.0
  O  O55  1  0.79810095  0.93426534  0.06485573  1.0
  O  O56  1  0.44953981  0.91410221  0.91440927  1.0
  O  O57  1  0.29294104  0.06828512  0.93509268  1.0
  O  O58  1  0.45722915  0.93385418  0.06502005  1.0
  O  O59  1  0.29837483  0.08563662  0.08476965  1.0
  O  O60  1  0.78971514  0.91361442  0.91429462  1.0
  O  O61  1  0.62498175  0.04897511  0.00541738  1.0
  O  O62  1  0.95848803  0.08573429  0.08257117  1.0
  O  O63  1  0.95119189  0.06694804  0.93268014  1.0
  O  O64  1  0.12415594  0.95117394  0.99165664  1.0
  O  O65  1  0.13373812  0.72244087  0.68266227  1.0
  O  O66  1  0.92562288  0.75973594  0.59978203  1.0
