# generated using pymatgen
data_ZnH9C16S2NO10
_symmetry_space_group_name_H-M   'P 1'
_cell_length_a   9.72568935
_cell_length_b   10.79686193
_cell_length_c   14.99444596
_cell_angle_alpha   90.78358081
_cell_angle_beta   103.48339107
_cell_angle_gamma   90.49566136
_symmetry_Int_Tables_number   1
_chemical_formula_structural   ZnH9C16S2NO10
_chemical_formula_sum   'Zn2 H18 C32 S4 N2 O20'
_cell_volume   1530.86633806
_cell_formula_units_Z   2
loop_
 _symmetry_equiv_pos_site_id
 _symmetry_equiv_pos_as_xyz
  1  'x, y, z'
loop_
 _atom_site_type_symbol
 _atom_site_label
 _atom_site_symmetry_multiplicity
 _atom_site_fract_x
 _atom_site_fract_y
 _atom_site_fract_z
 _atom_site_occupancy
  Zn  Zn0  1  0.14096660  0.50390431  0.48458437  1.0
  Zn  Zn1  1  0.85159101  0.50012271  0.50304553  1.0
  H  H2  1  0.79318787  0.45675893  0.88388039  1.0
  H  H3  1  0.23851376  0.66723366  0.09682003  1.0
  H  H4  1  0.34512843  0.51715401  0.76318506  1.0
  H  H5  1  0.67417986  0.55773574  0.22292364  1.0
  H  H6  1  0.93191237  0.60217425  0.79953923  1.0
  H  H7  1  0.07347155  0.42627569  0.18951219  1.0
  H  H8  1  0.98455013  0.42576544  0.01983551  1.0
  H  H9  1  0.03420289  0.65477725  0.96410330  1.0
  H  H10  1  0.54639137  0.50394537  0.81465768  1.0
  H  H11  1  0.48748741  0.62778796  0.16574811  1.0
  H  H12  1  0.66506075  0.44787355  0.63589062  1.0
  H  H13  1  0.32821751  0.56134074  0.35519987  1.0
  H  H14  1  0.40031988  0.44283399  0.62420663  1.0
  H  H15  1  0.59336243  0.55491329  0.36437232  1.0
  H  H16  1  0.64497050  0.85401499  0.36046952  1.0
  H  H17  1  0.09160068  0.29682670  0.34716746  1.0
  H  H18  1  0.93033441  0.31656188  0.66184954  1.0
  H  H19  1  0.24213197  0.71090540  0.60185212  1.0
  C  C20  1  0.99043078  0.73473597  0.49568885  1.0
  C  C21  1  0.00595503  0.27136667  0.50532637  1.0
  C  C22  1  0.58404133  0.51137123  0.88883889  1.0
  C  C23  1  0.44682420  0.60908195  0.09269080  1.0
  C  C24  1  0.72255840  0.48532850  0.92702345  1.0
  C  C25  1  0.30720320  0.63156958  0.05454686  1.0
  C  C26  1  0.88197552  0.94205426  0.52067500  1.0
  C  C27  1  0.11114574  0.06552455  0.47786411  1.0
  C  C28  1  0.89994386  0.06991801  0.53824688  1.0
  C  C29  1  0.11773986  0.93725863  0.49190286  1.0
  C  C30  1  0.00686141  0.13251489  0.50748482  1.0
  C  C31  1  0.99570858  0.87377589  0.50261606  1.0
  C  C32  1  0.58937122  0.47198557  0.57311054  1.0
  C  C33  1  0.40412695  0.53410961  0.41713074  1.0
  C  C34  1  0.44451913  0.47068660  0.56710833  1.0
  C  C35  1  0.54861082  0.53177619  0.42221367  1.0
  C  C36  1  0.92344435  0.48994984  0.31679775  1.0
  C  C37  1  0.08092420  0.52758648  0.67341155  1.0
  C  C38  1  0.87623415  0.49273652  0.21520843  1.0
  C  C39  1  0.13517118  0.55501209  0.77286756  1.0
  C  C40  1  0.91677211  0.45561849  0.06446318  1.0
  C  C41  1  0.10188851  0.62158577  0.92039169  1.0
  C  C42  1  0.96645326  0.45579424  0.15839319  1.0
  C  C43  1  0.04470142  0.59258784  0.82927846  1.0
  C  C44  1  0.73949174  0.53072264  0.17632837  1.0
  C  C45  1  0.27952221  0.54541466  0.80929047  1.0
  C  C46  1  0.68524075  0.53102517  0.08074096  1.0
  C  C47  1  0.33984335  0.56750679  0.90303136  1.0
  C  C48  1  0.77642958  0.49126594  0.02378785  1.0
  C  C49  1  0.24837885  0.60775357  0.95953392  1.0
  C  C50  1  0.54023451  0.56345707  0.03935429  1.0
  C  C51  1  0.48841099  0.54800233  0.94331124  1.0
  S  S52  1  0.70051462  0.88291279  0.50375210  1.0
  S  S53  1  0.21847904  0.13392467  0.40421610  1.0
  S  S54  1  0.80571081  0.14557516  0.61701939  1.0
  S  S55  1  0.29631734  0.87150559  0.52415353  1.0
  N  N56  1  0.35319710  0.50313682  0.48960195  1.0
  N  N57  1  0.64025048  0.50164206  0.50034559  1.0
  O  O58  1  0.07876329  0.68338116  0.45689787  1.0
  O  O59  1  0.88520625  0.32002626  0.47914810  1.0
  O  O60  1  0.90057352  0.67994938  0.53048217  1.0
  O  O61  1  0.12371221  0.32765725  0.52883829  1.0
  O  O62  1  0.05000958  0.45029313  0.35208979  1.0
  O  O63  1  0.95923811  0.47507818  0.64493003  1.0
  O  O64  1  0.83869171  0.52694426  0.36367410  1.0
  O  O65  1  0.16211821  0.55880230  0.62113016  1.0
  O  O66  1  0.67641359  0.80166081  0.57280335  1.0
  O  O67  1  0.61619275  0.99018013  0.47512158  1.0
  O  O68  1  0.69011098  0.79983534  0.41055688  1.0
  O  O69  1  0.32591792  0.22057067  0.44870346  1.0
  O  O70  1  0.25075257  0.02986148  0.35251896  1.0
  O  O71  1  0.09460831  0.20482985  0.33578289  1.0
  O  O72  1  0.69362008  0.22666121  0.57551095  1.0
  O  O73  1  0.78297890  0.04655744  0.67485248  1.0
  O  O74  1  0.93428026  0.22608807  0.67670118  1.0
  O  O75  1  0.33561739  0.79149682  0.45730398  1.0
  O  O76  1  0.38038919  0.97763462  0.56155727  1.0
  O  O77  1  0.28230046  0.79627853  0.61279321  1.0
