# generated using pymatgen
data_AlH13C20O7
_symmetry_space_group_name_H-M   'P 1'
_cell_length_a   6.74747406
_cell_length_b   25.66769946
_cell_length_c   28.81734818
_cell_angle_alpha   90.04904228
_cell_angle_beta   90.11991903
_cell_angle_gamma   89.87361359
_symmetry_Int_Tables_number   1
_chemical_formula_structural   AlH13C20O7
_chemical_formula_sum   'Al4 H52 C80 O28'
_cell_volume   4990.91321072
_cell_formula_units_Z   4
loop_
 _symmetry_equiv_pos_site_id
 _symmetry_equiv_pos_as_xyz
  1  'x, y, z'
loop_
 _atom_site_type_symbol
 _atom_site_label
 _atom_site_symmetry_multiplicity
 _atom_site_fract_x
 _atom_site_fract_y
 _atom_site_fract_z
 _atom_site_occupancy
  Al  Al0  1  0.75852896  0.75160713  0.75053774  1.0
  Al  Al1  1  0.23971942  0.24891021  0.24968615  1.0
  Al  Al2  1  0.25792570  0.74848233  0.75019391  1.0
  Al  Al3  1  0.73998062  0.25196400  0.24950376  1.0
  H  H4  1  0.31641071  0.41766011  0.42097248  1.0
  H  H5  1  0.67992254  0.58246582  0.57872624  1.0
  H  H6  1  0.68231611  0.58136785  0.91976815  1.0
  H  H7  1  0.31832417  0.41904679  0.08030487  1.0
  H  H8  1  0.81617175  0.08183147  0.07951334  1.0
  H  H9  1  0.17920818  0.92196133  0.91756350  1.0
  H  H10  1  0.21639953  0.89335560  0.55768367  1.0
  H  H11  1  0.82230480  0.08722946  0.42271868  1.0
  H  H12  1  0.67552139  0.42051097  0.41961244  1.0
  H  H13  1  0.32081611  0.57896271  0.57991911  1.0
  H  H14  1  0.32340174  0.58135720  0.92144313  1.0
  H  H15  1  0.67728792  0.42000259  0.07864071  1.0
  H  H16  1  0.17497989  0.08106865  0.07897688  1.0
  H  H17  1  0.82022523  0.91894567  0.92105836  1.0
  H  H18  1  0.79988254  0.94253688  0.60094928  1.0
  H  H19  1  0.18161978  0.07632953  0.41589312  1.0
  H  H20  1  0.67605974  0.35607080  0.35648448  1.0
  H  H21  1  0.32149978  0.64326416  0.64321573  1.0
  H  H22  1  0.32289590  0.64458964  0.85747872  1.0
  H  H23  1  0.67623006  0.35684128  0.14262196  1.0
  H  H24  1  0.17529632  0.14423370  0.14292772  1.0
  H  H25  1  0.81954292  0.85530514  0.85725780  1.0
  H  H26  1  0.79307548  0.87559857  0.66266828  1.0
  H  H27  1  0.18023922  0.14018600  0.35356136  1.0
  H  H28  1  0.72382671  0.43597057  0.49407886  1.0
  H  H29  1  0.27221090  0.56378883  0.50554258  1.0
  H  H30  1  0.27859889  0.50141545  0.94393151  1.0
  H  H31  1  0.72291715  0.49980111  0.05634342  1.0
  H  H32  1  0.21727124  0.00249385  0.05478513  1.0
  H  H33  1  0.77821529  0.99898541  0.94385131  1.0
  H  H34  1  0.82673926  0.96699205  0.53035698  1.0
  H  H35  1  0.18584552  0.03210457  0.46979563  1.0
  H  H36  1  0.72556810  0.49999115  0.55747845  1.0
  H  H37  1  0.27070083  0.49975806  0.44217812  1.0
  H  H38  1  0.27724021  0.43719319  0.00689722  1.0
  H  H39  1  0.72449368  0.56405134  0.99340174  1.0
  H  H40  1  0.21860741  0.93870090  0.99144057  1.0
  H  H41  1  0.77689930  0.06286984  0.00707376  1.0
  H  H42  1  0.82496798  0.03101478  0.46828565  1.0
  H  H43  1  0.18834329  0.96917349  0.53251518  1.0
  H  H44  1  0.32284524  0.32608570  0.33017426  1.0
  H  H45  1  0.67682484  0.67369473  0.67002795  1.0
  H  H46  1  0.67605989  0.67500215  0.83080781  1.0
  H  H47  1  0.32215393  0.32572833  0.16944877  1.0
  H  H48  1  0.82111164  0.17553319  0.16843312  1.0
  H  H49  1  0.17121484  0.82856101  0.82821318  1.0
  H  H50  1  0.07413155  0.83335060  0.59959496  1.0
  H  H51  1  0.82517869  0.17677274  0.33160068  1.0
  H  H52  1  0.51057830  0.68015574  0.74947256  1.0
  H  H53  1  0.48801955  0.32002221  0.24917031  1.0
  H  H54  1  0.01392949  0.81269416  0.72983757  1.0
  H  H55  1  0.98894091  0.18084517  0.24632036  1.0
  C  C56  1  0.50430742  0.81186638  0.68715146  1.0
  C  C57  1  0.49048872  0.18687914  0.31275022  1.0
  C  C58  1  0.48822349  0.18733916  0.18600059  1.0
  C  C59  1  0.50727119  0.81312795  0.81358174  1.0
  C  C60  1  0.01026240  0.68739034  0.81400585  1.0
  C  C61  1  0.98822739  0.31386602  0.18633711  1.0
  C  C62  1  0.98892121  0.31326180  0.31333320  1.0
  C  C63  1  0.00981038  0.68608772  0.68685844  1.0
  C  C64  1  0.17580045  0.36894942  0.37064315  1.0
  C  C65  1  0.82170865  0.63099179  0.62909859  1.0
  C  C66  1  0.82320737  0.63203658  0.87129433  1.0
  C  C67  1  0.17622880  0.36866958  0.12881275  1.0
  C  C68  1  0.67493516  0.13228661  0.12822754  1.0
  C  C69  1  0.31977720  0.87029048  0.86962345  1.0
  C  C70  1  0.33472931  0.85502907  0.61766569  1.0
  C  C71  1  0.67890744  0.13341589  0.37164740  1.0
  C  C72  1  0.17423101  0.40536311  0.40679696  1.0
  C  C73  1  0.82241210  0.59465359  0.59283728  1.0
  C  C74  1  0.82467419  0.59530601  0.90715186  1.0
  C  C75  1  0.17562904  0.40536513  0.09294510  1.0
  C  C76  1  0.67364014  0.09551031  0.09238976  1.0
  C  C77  1  0.32145276  0.90718428  0.90544892  1.0
  C  C78  1  0.34276429  0.89114402  0.58135695  1.0
  C  C79  1  0.67867398  0.09735400  0.40803276  1.0
  C  C80  1  0.99627930  0.42425079  0.42511559  1.0
  C  C81  1  0.00002622  0.57559771  0.57446954  1.0
  C  C82  1  0.00251271  0.57623314  0.92551382  1.0
  C  C83  1  0.99823135  0.42477718  0.07461397  1.0
  C  C84  1  0.49594715  0.07619344  0.07425736  1.0
  C  C85  1  0.49930029  0.92542302  0.92433706  1.0
  C  C86  1  0.50776976  0.92319841  0.57421065  1.0
  C  C87  1  0.50268435  0.07578016  0.42489250  1.0
  C  C88  1  0.81594791  0.40565704  0.40644852  1.0
  C  C89  1  0.18065153  0.59397862  0.59310157  1.0
  C  C90  1  0.18290938  0.59464408  0.90694595  1.0
  C  C91  1  0.81747258  0.40653000  0.09316581  1.0
  C  C92  1  0.31560656  0.09447780  0.09320680  1.0
  C  C93  1  0.67972592  0.90615920  0.90629954  1.0
  C  C94  1  0.67154006  0.91713185  0.60423728  1.0
  C  C95  1  0.32255590  0.09199846  0.40419906  1.0
  C  C96  1  0.81589699  0.36978373  0.37065214  1.0
  C  C97  1  0.18142476  0.62975545  0.62901163  1.0
  C  C98  1  0.18305312  0.63054540  0.87121773  1.0
  C  C99  1  0.81644696  0.37066760  0.12890624  1.0
  C  C100  1  0.31530316  0.13036526  0.12897461  1.0
  C  C101  1  0.67982756  0.86998283  0.87072483  1.0
  C  C102  1  0.66681783  0.88028460  0.63939755  1.0
  C  C103  1  0.32074487  0.12793720  0.36852293  1.0
  C  C104  1  0.99395913  0.35066384  0.35177375  1.0
  C  C105  1  0.00389763  0.64897881  0.64799124  1.0
  C  C106  1  0.00511756  0.64995094  0.85241308  1.0
  C  C107  1  0.99398021  0.35104058  0.14779291  1.0
  C  C108  1  0.49320677  0.15003131  0.14752468  1.0
  C  C109  1  0.50188751  0.85118923  0.85159976  1.0
  C  C110  1  0.50009406  0.84885973  0.64750544  1.0
  C  C111  1  0.49708629  0.14934197  0.35113891  1.0
  C  C112  1  0.84321410  0.46448104  0.49593491  1.0
  C  C113  1  0.15270172  0.53532710  0.50363653  1.0
  C  C114  1  0.15748186  0.50182117  0.96893241  1.0
  C  C115  1  0.84406391  0.49938097  0.03136160  1.0
  C  C116  1  0.33964169  0.00257555  0.03012666  1.0
  C  C117  1  0.65570061  0.99903854  0.96846814  1.0
  C  C118  1  0.68469526  0.98139572  0.51756807  1.0
  C  C119  1  0.32836979  0.01808480  0.48244258  1.0
  C  C120  1  0.84407786  0.50073001  0.53180807  1.0
  C  C121  1  0.15194922  0.49906562  0.46779013  1.0
  C  C122  1  0.15667226  0.46544699  0.00462865  1.0
  C  C123  1  0.84494762  0.53577150  0.99568622  1.0
  C  C124  1  0.34034092  0.96641762  0.99420246  1.0
  C  C125  1  0.65497315  0.03520816  0.00437498  1.0
  C  C126  1  0.68332499  0.01782677  0.48194215  1.0
  C  C127  1  0.32954271  0.98177461  0.51810249  1.0
  C  C128  1  0.99871407  0.53703484  0.53646463  1.0
  C  C129  1  0.99720631  0.46279149  0.46311551  1.0
  C  C130  1  0.99989612  0.46333864  0.03668419  1.0
  C  C131  1  0.00146740  0.53780356  0.96356463  1.0
  C  C132  1  0.49823924  0.96379433  0.96248372  1.0
  C  C133  1  0.49703477  0.03785173  0.03609893  1.0
  C  C134  1  0.50517142  0.03724328  0.46309266  1.0
  C  C135  1  0.50762032  0.96212849  0.53657847  1.0
  O  O136  1  0.33841989  0.79645915  0.79806129  1.0
  O  O137  1  0.65749457  0.20373254  0.20194304  1.0
  O  O138  1  0.65914686  0.20330473  0.29694387  1.0
  O  O139  1  0.33932279  0.79695638  0.70374915  1.0
  O  O140  1  0.84028317  0.70202888  0.70299049  1.0
  O  O141  1  0.15806620  0.29690168  0.29739865  1.0
  O  O142  1  0.15734286  0.29755124  0.20251066  1.0
  O  O143  1  0.84122261  0.70411514  0.79828187  1.0
  O  O144  1  0.67529221  0.79848793  0.70247947  1.0
  O  O145  1  0.32339422  0.20111474  0.29658031  1.0
  O  O146  1  0.32172790  0.20159712  0.20249561  1.0
  O  O147  1  0.67399597  0.79879133  0.79737027  1.0
  O  O148  1  0.17632398  0.70146505  0.79750326  1.0
  O  O149  1  0.82151645  0.29965355  0.20261489  1.0
  O  O150  1  0.82245361  0.29885716  0.29694420  1.0
  O  O151  1  0.17684771  0.70009194  0.70308126  1.0
  O  O152  1  0.51077506  0.71788478  0.75029012  1.0
  O  O153  1  0.48774521  0.28228216  0.24983412  1.0
  O  O154  1  0.00959172  0.78213545  0.74965842  1.0
  O  O155  1  0.98815000  0.21841827  0.24955064  1.0
  O  O156  1  0.35353337  0.35208571  0.35508163  1.0
  O  O157  1  0.64451030  0.64811947  0.64475132  1.0
  O  O158  1  0.64556093  0.64893128  0.85562193  1.0
  O  O159  1  0.35360920  0.35145160  0.14443323  1.0
  O  O160  1  0.85255791  0.14957793  0.14353230  1.0
  O  O161  1  0.14214557  0.85466107  0.85318983  1.0
  O  O162  1  0.17059324  0.82489807  0.62373145  1.0
  O  O163  1  0.85579242  0.15208811  0.35755421  1.0
