# generated using pymatgen
data_Zn2H13C27N8Cl
_symmetry_space_group_name_H-M   'P 1'
_cell_length_a   18.50490483
_cell_length_b   18.50783530
_cell_length_c   18.55865275
_cell_angle_alpha   111.35531696
_cell_angle_beta   111.41771901
_cell_angle_gamma   100.24446386
_symmetry_Int_Tables_number   1
_chemical_formula_structural   Zn2H13C27N8Cl
_chemical_formula_sum   'Zn4 H26 C54 N16 Cl2'
_cell_volume   5144.57424645
_cell_formula_units_Z   2
loop_
 _symmetry_equiv_pos_site_id
 _symmetry_equiv_pos_as_xyz
  1  'x, y, z'
loop_
 _atom_site_type_symbol
 _atom_site_label
 _atom_site_symmetry_multiplicity
 _atom_site_fract_x
 _atom_site_fract_y
 _atom_site_fract_z
 _atom_site_occupancy
  Zn  Zn98  1  0.60127968  0.48539447  0.13744322  1.0
  Zn  Zn99  1  0.48539694  0.60135671  0.13747172  1.0
  Zn  Zn100  1  0.39093082  0.50585148  0.92191752  1.0
  Zn  Zn101  1  0.50580022  0.39092763  0.92191174  1.0
  H  H56  1  0.78453216  0.45919295  0.17111354  1.0
  H  H57  1  0.86421915  0.01590827  0.38376878  1.0
  H  H58  1  0.01597597  0.86435273  0.38471245  1.0
  H  H59  1  0.87447823  0.93709685  0.47087866  1.0
  H  H60  1  0.93632462  0.87463826  0.47094733  1.0
  H  H61  1  0.98911267  0.05112331  0.59131578  1.0
  H  H62  1  0.05119860  0.98876428  0.59106858  1.0
  H  H63  1  0.45913417  0.78441978  0.17103466  1.0
  H  H64  1  0.33756551  0.65761452  0.88740275  1.0
  H  H65  1  0.65745931  0.33758191  0.88746632  1.0
  H  H66  1  0.63519326  0.48243339  0.87566810  1.0
  H  H67  1  0.48245154  0.63525155  0.87563295  1.0
  H  H68  1  0.61418120  0.76679244  0.17534903  1.0
  H  H69  1  0.76692777  0.61423604  0.17543013  1.0
  H  H70  1  0.65796208  0.50539636  0.34007033  1.0
  H  H71  1  0.50544122  0.65792738  0.33999216  1.0
  H  H72  1  0.21701897  0.36942021  0.73928253  1.0
  H  H73  1  0.36949876  0.21721688  0.73938235  1.0
  H  H74  1  0.37778226  0.22436337  0.88662033  1.0
  H  H75  1  0.22433324  0.37774880  0.88657684  1.0
  H  H76  1  0.34566951  0.50606130  0.17066022  1.0
  H  H77  1  0.50606317  0.34554987  0.17070644  1.0
  H  H78  1  0.03311016  0.11793425  0.43763124  1.0
  H  H79  1  0.91614721  0.00691902  0.31943230  1.0
  H  H80  1  0.11769662  0.03311464  0.43744469  1.0
  H  H81  1  0.00696865  0.91559537  0.31964969  1.0
  C  C0  1  0.74056019  0.43092176  0.10199043  1.0
  C  C1  1  0.48071102  0.32915733  0.10174563  1.0
  C  C2  1  0.72275210  0.72269728  0.19625148  1.0
  C  C3  1  0.61858542  0.54049884  0.32545944  1.0
  C  C4  1  0.54054805  0.61856397  0.32543873  1.0
  C  C5  1  0.26662026  0.34455791  0.75141170  1.0
  C  C6  1  0.34455786  0.26674702  0.75144739  1.0
  C  C7  1  0.32921847  0.48068224  0.10169676  1.0
  C  C8  1  0.58660171  0.58653890  0.37714008  1.0
  C  C9  1  0.26177631  0.26185109  0.71060652  1.0
  C  C10  1  0.42851440  0.25099326  0.02789375  1.0
  C  C11  1  0.25100745  0.42844623  0.02783597  1.0
  C  C12  1  0.43086049  0.74050717  0.10191652  1.0
  C  C13  1  0.92112420  0.00946398  0.38119558  1.0
  C  C14  1  0.00951226  0.92103398  0.38154464  1.0
  C  C15  1  0.08468039  0.99776730  0.45946679  1.0
  C  C16  1  0.99769790  0.08462863  0.45938601  1.0
  C  C17  1  0.19076481  0.19082516  0.64564242  1.0
  C  C18  1  0.92795085  0.92799979  0.38301862  1.0
  C  C19  1  0.05703060  0.05700506  0.51946087  1.0
  C  C20  1  0.36863152  0.67557689  0.95678420  1.0
  C  C21  1  0.67551937  0.36866010  0.95685510  1.0
  C  C22  1  0.00856953  0.00848777  0.54998432  1.0
  C  C23  1  0.93271595  0.93296661  0.47011873  1.0
  C  C24  1  0.12922547  0.12921397  0.59105363  1.0
  C  C25  1  0.85633996  0.85636890  0.30895029  1.0
  C  C26  1  0.79504485  0.79500452  0.25218325  1.0
  C  C27  1  0.39058286  0.82831928  0.02764022  1.0
  C  C28  1  0.41515609  0.26696520  0.95611478  1.0
  C  C29  1  0.82834609  0.39060648  0.02775704  1.0
  C  C30  1  0.38761603  0.89363237  0.02600338  1.0
  C  C31  1  0.89363893  0.38760079  0.02606407  1.0
  C  C32  1  0.38655065  0.96533155  0.02468819  1.0
  C  C33  1  0.96532073  0.38650206  0.02468387  1.0
  C  C34  1  0.26695081  0.41512926  0.95607161  1.0
  C  C35  1  0.38809088  0.03220785  0.02416352  1.0
  C  C36  1  0.03219561  0.38801447  0.02413066  1.0
  C  C37  1  0.39451331  0.10568003  0.02468791  1.0
  C  C38  1  0.10567584  0.39441544  0.02464284  1.0
  C  C39  1  0.59223545  0.51395834  0.88315476  1.0
  C  C40  1  0.51395481  0.59226886  0.88312886  1.0
  C  C41  1  0.40548220  0.17383820  0.02602537  1.0
  C  C42  1  0.17383323  0.40538219  0.02594949  1.0
  C  C43  1  0.59703721  0.59694601  0.45929401  1.0
  C  C44  1  0.60448053  0.60443188  0.53058578  1.0
  C  C45  1  0.60957734  0.60954892  0.60633933  1.0
  C  C46  1  0.61073344  0.61072423  0.67384734  1.0
  C  C47  1  0.60616551  0.60616088  0.74260820  1.0
  C  C48  1  0.59589524  0.59591225  0.80062586  1.0
  C  C49  1  0.63929965  0.71734790  0.16817923  1.0
  C  C50  1  0.71743613  0.63930304  0.16823072  1.0
  C  C51  1  0.75430818  0.39582802  0.02892765  1.0
  C  C52  1  0.39578258  0.75429301  0.02882850  1.0
  C  C53  1  0.57291012  0.57292667  0.85539685  1.0
  N  N82  1  0.66083886  0.42491850  0.07522700  1.0
  N  N83  1  0.49875257  0.54675115  0.92177941  1.0
  N  N84  1  0.54672641  0.49876484  0.92179902  1.0
  N  N85  1  0.58936264  0.63726051  0.12902810  1.0
  N  N86  1  0.63731605  0.58935554  0.12905652  1.0
  N  N87  1  0.59369507  0.54520241  0.25025793  1.0
  N  N88  1  0.54521349  0.59370965  0.25025206  1.0
  N  N89  1  0.42486869  0.66083088  0.07518473  1.0
  N  N90  1  0.34554598  0.39411480  0.81178731  1.0
  N  N91  1  0.39408812  0.34564154  0.81180023  1.0
  N  N92  1  0.45779039  0.34731507  0.98570450  1.0
  N  N93  1  0.34731635  0.45782414  0.98567555  1.0
  N  N94  1  0.38548791  0.49789831  0.07494041  1.0
  N  N95  1  0.49787068  0.38544508  0.07497592  1.0
  N  N96  1  0.38617753  0.62048985  0.98495330  1.0
  N  N97  1  0.62043944  0.38619821  0.98499687  1.0
  Cl  Cl54  1  0.16179185  0.96697727  0.52156860  1.0
  Cl  Cl55  1  0.96650237  0.16126487  0.52134271  1.0
