# generated using pymatgen
data_Zn2H19C42Br5(NO2)4
_symmetry_space_group_name_H-M   'P 1'
_cell_length_a   12.51332157
_cell_length_b   13.35943227
_cell_length_c   15.93242305
_cell_angle_alpha   89.18050755
_cell_angle_beta   74.66778344
_cell_angle_gamma   80.41361383
_symmetry_Int_Tables_number   1
_chemical_formula_structural   Zn2H19C42Br5(NO2)4
_chemical_formula_sum   'Zn2 H19 C42 Br5 N4 O8'
_cell_volume   2531.53466637
_cell_formula_units_Z   1
loop_
 _symmetry_equiv_pos_site_id
 _symmetry_equiv_pos_as_xyz
  1  'x, y, z'
loop_
 _atom_site_type_symbol
 _atom_site_label
 _atom_site_symmetry_multiplicity
 _atom_site_fract_x
 _atom_site_fract_y
 _atom_site_fract_z
 _atom_site_occupancy
  Zn  Zn0  1  0.60980298  0.51733513  0.48511361  1.0
  Zn  Zn1  1  0.38128806  0.48832523  0.52573704  1.0
  H  H2  1  0.53064606  0.31227271  0.96917620  1.0
  H  H3  1  0.08073630  0.29639434  0.68627215  1.0
  H  H4  1  0.25330432  0.58656532  0.43302183  1.0
  H  H5  1  0.33081098  0.58282600  0.98124820  1.0
  H  H6  1  0.24053548  0.79401466  0.47734472  1.0
  H  H7  1  0.30616848  0.11715059  0.36104650  1.0
  H  H8  1  0.22111037  0.96757605  0.41592146  1.0
  H  H9  1  0.27608369  0.40224964  0.09180876  1.0
  H  H10  1  0.35213605  0.38201984  0.16395731  1.0
  H  H11  1  0.49695569  0.74589624  0.99031035  1.0
  H  H12  1  0.44144367  0.72628760  0.09562084  1.0
  H  H13  1  0.55578154  0.82821896  0.51966049  1.0
  H  H14  1  0.75053116  0.21612163  0.49606225  1.0
  H  H15  1  0.66940260  0.91513077  0.51461897  1.0
  H  H16  1  0.71993914  0.68301612  0.39627482  1.0
  H  H17  1  0.10846297  0.69482408  0.37765775  1.0
  H  H18  1  0.80966842  0.44448909  0.54464653  1.0
  H  H19  1  0.27425015  0.33631034  0.62428905  1.0
  H  H20  1  0.68952476  0.40690311  0.02352644  1.0
  C  C21  1  0.56700402  0.31181346  0.46496607  1.0
  C  C22  1  0.40114148  0.80251220  0.50072671  1.0
  C  C23  1  0.69928410  0.16239637  0.48398635  1.0
  C  C24  1  0.49703111  0.46921423  0.66531292  1.0
  C  C25  1  0.72372878  0.05911537  0.50096832  1.0
  C  C26  1  0.65125820  0.99341588  0.49587026  1.0
  C  C27  1  0.55438260  0.02754427  0.46654189  1.0
  C  C28  1  0.53532545  0.13012174  0.43919914  1.0
  C  C29  1  0.47315718  0.96133256  0.46635478  1.0
  C  C30  1  0.37763631  0.99846976  0.43489606  1.0
  C  C31  1  0.37114141  0.09470022  0.39494153  1.0
  C  C32  1  0.50696201  0.48019087  0.91799230  1.0
  C  C33  1  0.44776820  0.15643282  0.39535914  1.0
  C  C34  1  0.48319081  0.86202428  0.49736549  1.0
  C  C35  1  0.30442430  0.84158676  0.47313999  1.0
  C  C36  1  0.42090905  0.69420518  0.52631923  1.0
  C  C37  1  0.60417498  0.19830083  0.45612637  1.0
  C  C38  1  0.88945287  0.67229578  0.41007588  1.0
  C  C39  1  0.20274257  0.37574430  0.60310961  1.0
  C  C40  1  0.09509457  0.35303367  0.63659334  1.0
  C  C41  1  0.00582153  0.40620854  0.60910469  1.0
  C  C42  1  0.02517411  0.47856575  0.54239454  1.0
  C  C43  1  0.50033111  0.59704657  0.02025385  1.0
  C  C44  1  0.13810399  0.49910064  0.51522407  1.0
  C  C45  1  0.94353333  0.53465795  0.50106740  1.0
  C  C46  1  0.97353376  0.61634521  0.44513172  1.0
  C  C47  1  0.08616648  0.63507692  0.42288175  1.0
  C  C48  1  0.51213606  0.53504226  0.34109063  1.0
  C  C49  1  0.16590827  0.57623432  0.45401890  1.0
  C  C50  1  0.83674919  0.50915081  0.50829502  1.0
  C  C51  1  0.78569312  0.64324837  0.42363200  1.0
  C  C52  1  0.60984881  0.44504896  0.01345235  1.0
  C  C53  1  0.52159433  0.39326466  0.98478139  1.0
  C  C54  1  0.51349288  0.50935314  0.08711186  1.0
  C  C55  1  0.50004868  0.46371826  0.75528674  1.0
  C  C56  1  0.51522902  0.53427084  0.25004394  1.0
  C  C57  1  0.59631980  0.53146289  0.94875093  1.0
  C  C58  1  0.41051433  0.54419261  0.99133077  1.0
  C  C59  1  0.42298055  0.45840616  0.05737961  1.0
  C  C60  1  0.50354630  0.46830491  0.83083183  1.0
  C  C61  1  0.51585134  0.52385673  0.17402158  1.0
  C  C62  1  0.29398377  0.93745019  0.43963996  1.0
  Br  Br63  1  0.85574048  0.01123760  0.53797618  1.0
  Br  Br64  1  0.44379442  0.27319734  0.32523477  1.0
  Br  Br65  1  0.91634972  0.78744076  0.34163127  1.0
  Br  Br66  1  0.86220663  0.38055680  0.67286560  1.0
  Br  Br67  1  0.71803878  0.58440247  0.87208603  1.0
  N  N68  1  0.76264056  0.56046663  0.47021071  1.0
  N  N69  1  0.22313151  0.44896615  0.54639985  1.0
  N  N70  1  0.32966457  0.43114166  0.11946836  1.0
  N  N71  1  0.50188850  0.69891013  0.04066196  1.0
  O  O72  1  0.64091097  0.36836497  0.43999880  1.0
  O  O73  1  0.46415685  0.34028339  0.50512059  1.0
  O  O74  1  0.59181683  0.46575902  0.60931322  1.0
  O  O75  1  0.40077136  0.47883944  0.65034896  1.0
  O  O76  1  0.51862241  0.65780004  0.53384998  1.0
  O  O77  1  0.34042260  0.64417840  0.53478214  1.0
  O  O78  1  0.59406655  0.56156512  0.36326153  1.0
  O  O79  1  0.42594334  0.50635604  0.39173804  1.0
