# generated using pymatgen
data_Zn4H8C24S4O19
_symmetry_space_group_name_H-M   'P 1'
_cell_length_a   19.66412868
_cell_length_b   19.71602199
_cell_length_c   33.35911547
_cell_angle_alpha   79.09998791
_cell_angle_beta   79.25058453
_cell_angle_gamma   63.99136469
_symmetry_Int_Tables_number   1
_chemical_formula_structural   Zn4H8C24S4O19
_chemical_formula_sum   'Zn16 H32 C96 S16 O76'
_cell_volume   11334.88293161
_cell_formula_units_Z   4
loop_
 _symmetry_equiv_pos_site_id
 _symmetry_equiv_pos_as_xyz
  1  'x, y, z'
loop_
 _atom_site_type_symbol
 _atom_site_label
 _atom_site_symmetry_multiplicity
 _atom_site_fract_x
 _atom_site_fract_y
 _atom_site_fract_z
 _atom_site_occupancy
  Zn  Zn0  1  0.05661330  0.40003152  0.47862379  1.0
  Zn  Zn1  1  0.98417705  0.48276727  0.56061342  1.0
  Zn  Zn2  1  0.05857178  0.56073854  0.48259227  1.0
  Zn  Zn3  1  0.90112604  0.55465946  0.47966811  1.0
  Zn  Zn4  1  0.69300814  0.34975018  0.27161154  1.0
  Zn  Zn5  1  0.69048165  0.18807370  0.26725601  1.0
  Zn  Zn6  1  0.76826986  0.26658643  0.19029743  1.0
  Zn  Zn7  1  0.84746909  0.19488913  0.27180723  1.0
  Zn  Zn8  1  0.26657438  0.76644022  0.68940228  1.0
  Zn  Zn9  1  0.35035096  0.69544895  0.77082310  1.0
  Zn  Zn10  1  0.19328903  0.84848328  0.77098950  1.0
  Zn  Zn11  1  0.19174353  0.68890072  0.76740221  1.0
  Zn  Zn12  1  0.55903167  0.06223716  0.98280024  1.0
  Zn  Zn13  1  0.40090669  0.05503814  0.97767743  1.0
  Zn  Zn14  1  0.55695686  0.90164221  0.97886895  1.0
  Zn  Zn15  1  0.48092019  0.98419731  0.05968051  1.0
  H  H16  1  0.74806700  0.45354469  0.35052837  1.0
  H  H17  1  0.00152129  0.29732646  0.39956100  1.0
  H  H18  1  0.20088027  0.70046463  0.59874726  1.0
  H  H19  1  0.04905499  0.54960106  0.65117378  1.0
  H  H20  1  0.65103770  0.15196440  0.04931456  1.0
  H  H21  1  0.59904093  0.09788458  0.20069503  1.0
  H  H22  1  0.29829243  0.00071536  0.89973391  1.0
  H  H23  1  0.45226541  0.74839947  0.85010203  1.0
  H  H24  1  0.80909920  0.52744641  0.41840696  1.0
  H  H25  1  0.94058702  0.22312460  0.33183852  1.0
  H  H26  1  0.13677885  0.63734556  0.52685566  1.0
  H  H27  1  0.11311025  0.61276211  0.72306250  1.0
  H  H28  1  0.72320106  0.22269208  0.11326781  1.0
  H  H29  1  0.52674477  0.02729646  0.13673523  1.0
  H  H30  1  0.22209225  0.94150434  0.83197355  1.0
  H  H31  1  0.52830920  0.80751563  0.91804487  1.0
  H  H32  1  0.32732235  0.54069009  0.39829138  1.0
  H  H33  1  0.42209303  0.20964919  0.35213000  1.0
  H  H34  1  0.75517802  0.54118660  0.68408626  1.0
  H  H35  1  0.49529805  0.70859809  0.56562382  1.0
  H  H36  1  0.04148001  0.25490734  0.68388485  1.0
  H  H37  1  0.20873025  0.99451651  0.56649638  1.0
  H  H38  1  0.74409835  0.81622451  0.38723172  1.0
  H  H39  1  0.00566187  0.93282615  0.36314046  1.0
  H  H40  1  0.70819178  0.49553654  0.06580617  1.0
  H  H41  1  0.54156525  0.75495499  0.18393012  1.0
  H  H42  1  0.14825172  0.07709945  0.21988697  1.0
  H  H43  1  0.10100739  0.17331641  0.03053309  1.0
  H  H44  1  0.50613402  0.43359417  0.86266675  1.0
  H  H45  1  0.24431043  0.31735952  0.88693769  1.0
  H  H46  1  0.92291910  0.70925102  0.85157240  1.0
  H  H47  1  0.82764645  0.04045135  0.89797509  1.0
  C  C48  1  0.06181931  0.31596134  0.56195085  1.0
  C  C49  1  0.06980765  0.57045885  0.56931927  1.0
  C  C50  1  0.18378616  0.44051596  0.43873329  1.0
  C  C51  1  0.93609148  0.68391652  0.43902697  1.0
  C  C52  1  0.93050736  0.42991581  0.43063250  1.0
  C  C53  1  0.81684729  0.56039537  0.56223958  1.0
  C  C54  1  0.56577143  0.30971153  0.31136325  1.0
  C  C55  1  0.68152276  0.17935157  0.18025500  1.0
  C  C56  1  0.68925875  0.43340258  0.18781922  1.0
  C  C57  1  0.93476333  0.18801877  0.18956420  1.0
  C  C58  1  0.81879080  0.32070644  0.31969518  1.0
  C  C59  1  0.81321666  0.06539542  0.31167468  1.0
  C  C60  1  0.43365120  0.68947668  0.68756797  1.0
  C  C61  1  0.31916272  0.82068326  0.81927648  1.0
  C  C62  1  0.18841238  0.93346346  0.68830026  1.0
  C  C63  1  0.06610664  0.80960949  0.81127996  1.0
  C  C64  1  0.18027633  0.67945328  0.68062552  1.0
  C  C65  1  0.31405052  0.56606092  0.81095720  1.0
  C  C66  1  0.43673208  0.18459825  0.93836819  1.0
  C  C67  1  0.43166552  0.92883063  0.93024784  1.0
  C  C68  1  0.68406631  0.94040299  0.93863645  1.0
  C  C69  1  0.56057714  0.81712597  0.06201005  1.0
  C  C70  1  0.56850968  0.07055382  0.06975553  1.0
  C  C71  1  0.31467900  0.06220212  0.06060101  1.0
  C  C72  1  0.90110205  0.40298085  0.40202992  1.0
  C  C73  1  0.84851268  0.34795372  0.34798823  1.0
  C  C74  1  0.82833749  0.44810587  0.38802766  1.0
  C  C75  1  0.92135192  0.30286089  0.36194504  1.0
  C  C76  1  0.80363655  0.41949283  0.36125780  1.0
  C  C77  1  0.94604601  0.33149067  0.38872132  1.0
  C  C78  1  0.09856480  0.59904670  0.59735857  1.0
  C  C79  1  0.15134876  0.65105119  0.65257091  1.0
  C  C80  1  0.14203961  0.64227086  0.58203378  1.0
  C  C81  1  0.10782725  0.60786052  0.66788570  1.0
  C  C82  1  0.16757648  0.66742307  0.61008644  1.0
  C  C83  1  0.08231144  0.58269067  0.63984317  1.0
  C  C84  1  0.30468652  0.45491930  0.40086754  1.0
  C  C85  1  0.44482048  0.29539102  0.34937383  1.0
  C  C86  1  0.25818075  0.41614262  0.41405321  1.0
  C  C87  1  0.49136348  0.33411862  0.33612864  1.0
  C  C88  1  0.37671668  0.33968243  0.37301771  1.0
  C  C89  1  0.37279771  0.41065632  0.37722037  1.0
  C  C90  1  0.72605934  0.57580782  0.62980822  1.0
  C  C91  1  0.52441902  0.67394129  0.61990789  1.0
  C  C92  1  0.74283063  0.58494834  0.58713177  1.0
  C  C93  1  0.50765510  0.66479243  0.66259643  1.0
  C  C94  1  0.60429373  0.64133865  0.60803630  1.0
  C  C95  1  0.64618928  0.60836170  0.64166393  1.0
  C  C96  1  0.07629086  0.22544139  0.62974881  1.0
  C  C97  1  0.17396039  0.02401261  0.62061244  1.0
  C  C98  1  0.08590597  0.24200823  0.58703945  1.0
  C  C99  1  0.16438290  0.00742913  0.66331295  1.0
  C  C100  1  0.14172173  0.10371067  0.60847306  1.0
  C  C101  1  0.10854031  0.14572840  0.64190244  1.0
  C  C102  1  0.84270330  0.80085397  0.39727563  1.0
  C  C103  1  0.90699826  0.94812670  0.35316777  1.0
  C  C104  1  0.91119790  0.75796315  0.41411516  1.0
  C  C105  1  0.83840093  0.99107325  0.33639052  1.0
  C  C106  1  0.90844196  0.87858214  0.37533591  1.0
  C  C107  1  0.84143375  0.87023397  0.37499239  1.0
  C  C108  1  0.65304619  0.15190262  0.15143393  1.0
  C  C109  1  0.59715213  0.09783864  0.09857596  1.0
  C  C110  1  0.66808230  0.16767286  0.10802495  1.0
  C  C111  1  0.58209607  0.08208395  0.14198450  1.0
  C  C112  1  0.63977795  0.14017800  0.08249916  1.0
  C  C113  1  0.61041409  0.10957001  0.16751097  1.0
  C  C114  1  0.67395561  0.52458744  0.12005574  1.0
  C  C115  1  0.57575982  0.72592762  0.12968219  1.0
  C  C116  1  0.66464626  0.50751543  0.16275472  1.0
  C  C117  1  0.58505716  0.74300604  0.08699909  1.0
  C  C118  1  0.60827926  0.64611661  0.14163537  1.0
  C  C119  1  0.64146468  0.60440836  0.10808671  1.0
  C  C120  1  0.08160991  0.12407527  0.17803542  1.0
  C  C121  1  0.16782061  0.12609005  0.07226092  1.0
  C  C122  1  0.00920134  0.16296442  0.16503664  1.0
  C  C123  1  0.24025548  0.08724765  0.08520801  1.0
  C  C124  1  0.11003808  0.13939818  0.10625908  1.0
  C  C125  1  0.13945177  0.11063599  0.14404873  1.0
  C  C126  1  0.34691669  0.84926932  0.84787998  1.0
  C  C127  1  0.40373468  0.89990751  0.90189681  1.0
  C  C128  1  0.30236928  0.92162250  0.86205569  1.0
  C  C129  1  0.44816059  0.82745339  0.88783035  1.0
  C  C130  1  0.33185728  0.94546403  0.88880393  1.0
  C  C131  1  0.41873931  0.80364945  0.86103484  1.0
  C  C132  1  0.40750330  0.44901491  0.85265763  1.0
  C  C133  1  0.34302216  0.30192503  0.89689669  1.0
  C  C134  1  0.33902004  0.49193347  0.83582195  1.0
  C  C135  1  0.41159615  0.25895564  0.91368044  1.0
  C  C136  1  0.34170521  0.37136481  0.87464143  1.0
  C  C137  1  0.40875859  0.37963771  0.87494600  1.0
  C  C138  1  0.94522923  0.79521488  0.84912309  1.0
  C  C139  1  0.80501151  0.95467087  0.90066431  1.0
  C  C140  1  0.99175589  0.83398586  0.83600954  1.0
  C  C141  1  0.75842652  0.91598616  0.91383772  1.0
  C  C142  1  0.87314487  0.91038505  0.87703821  1.0
  C  C143  1  0.87705262  0.83944487  0.87275814  1.0
  S  S144  1  0.29770913  0.32606984  0.39772562  1.0
  S  S145  1  0.45179805  0.42422803  0.35245444  1.0
  S  S146  1  0.66147313  0.63305934  0.56169178  1.0
  S  S147  1  0.58903037  0.61663863  0.68801040  1.0
  S  S148  1  0.13406226  0.16060736  0.56198233  1.0
  S  S149  1  0.11626185  0.08880780  0.68840286  1.0
  S  S150  1  0.97363234  0.80218860  0.40271343  1.0
  S  S151  1  0.77616003  0.94662343  0.34769296  1.0
  S  S152  1  0.61626067  0.58874239  0.18801473  1.0
  S  S153  1  0.63345418  0.66180653  0.06171297  1.0
  S  S154  1  0.01192379  0.18290627  0.11162339  1.0
  S  S155  1  0.23759178  0.06717334  0.13863294  1.0
  S  S156  1  0.27653819  0.44775274  0.84726410  1.0
  S  S157  1  0.47396730  0.30322857  0.90228757  1.0
  S  S158  1  0.95221422  0.92399011  0.85243086  1.0
  S  S159  1  0.79796192  0.82591774  0.89744115  1.0
  O  O160  1  0.00059253  0.49886095  0.50013976  1.0
  O  O161  1  0.07859968  0.31476289  0.52287865  1.0
  O  O162  1  0.03204382  0.53161576  0.58493737  1.0
  O  O163  1  0.15514666  0.50689244  0.44994178  1.0
  O  O164  1  0.02663613  0.37461281  0.58088733  1.0
  O  O165  1  0.15401068  0.39230783  0.44681463  1.0
  O  O166  1  0.08525609  0.58712899  0.53019118  1.0
  O  O167  1  0.00274998  0.65786035  0.45054041  1.0
  O  O168  1  0.88660460  0.49603592  0.44246022  1.0
  O  O169  1  0.89033473  0.65177767  0.44716877  1.0
  O  O170  1  0.99597955  0.38758766  0.44191592  1.0
  O  O171  1  0.87587149  0.52609617  0.58113484  1.0
  O  O172  1  0.81528499  0.57604197  0.52311301  1.0
  O  O173  1  0.74879400  0.25057085  0.25033381  1.0
  O  O174  1  0.59529932  0.35815926  0.30314675  1.0
  O  O175  1  0.66654618  0.16321393  0.21863231  1.0
  O  O176  1  0.72540193  0.37462669  0.16895867  1.0
  O  O177  1  0.59455250  0.24328237  0.30025612  1.0
  O  O178  1  0.67204975  0.43452410  0.22685856  1.0
  O  O179  1  0.72045486  0.21858770  0.16415854  1.0
  O  O180  1  0.87678156  0.22228858  0.16928912  1.0
  O  O181  1  0.86225350  0.25407206  0.30843175  1.0
  O  O182  1  0.93354027  0.17402975  0.22856287  1.0
  O  O183  1  0.75349861  0.36310204  0.30815684  1.0
  O  O184  1  0.74677904  0.09147290  0.29992131  1.0
  O  O185  1  0.85884394  0.09768260  0.30397287  1.0
  O  O186  1  0.25046367  0.75007322  0.74989017  1.0
  O  O187  1  0.37466143  0.72417567  0.66863865  1.0
  O  O188  1  0.36206531  0.75614255  0.80736857  1.0
  O  O189  1  0.17187456  0.93460020  0.72740455  1.0
  O  O190  1  0.43523601  0.67360784  0.72666206  1.0
  O  O191  1  0.22325386  0.87481304  0.66937029  1.0
  O  O192  1  0.25208449  0.86400111  0.80812049  1.0
  O  O193  1  0.09605592  0.85771139  0.80340725  1.0
  O  O194  1  0.16475264  0.66284959  0.71975450  1.0
  O  O195  1  0.09467100  0.74350852  0.79975430  1.0
  O  O196  1  0.21828978  0.71805389  0.66501646  1.0
  O  O197  1  0.35987902  0.59805712  0.80265862  1.0
  O  O198  1  0.24715770  0.59216569  0.79969400  1.0
  O  O199  1  0.49997969  0.00046305  0.99963904  1.0
  O  O200  1  0.50341420  0.15842349  0.94987132  1.0
  O  O201  1  0.38917866  0.99397600  0.94150001  1.0
  O  O202  1  0.65438611  0.89203445  0.94670819  1.0
  O  O203  1  0.39099482  0.15248965  0.94624289  1.0
  O  O204  1  0.65534456  0.00661513  0.94997787  1.0
  O  O205  1  0.49837545  0.88532829  0.94184143  1.0
  O  O206  1  0.57777371  0.81599543  0.02294155  1.0
  O  O207  1  0.52927719  0.03161533  0.08585172  1.0
  O  O208  1  0.52465328  0.87594547  0.08082297  1.0
  O  O209  1  0.58361336  0.08657341  0.03138034  1.0
  O  O210  1  0.31583167  0.07644469  0.02163539  1.0
  O  O211  1  0.37265360  0.02764617  0.08089304  1.0
  O  O212  1  0.78157535  0.51776620  0.39945818  1.0
  O  O213  1  0.96817314  0.23318728  0.35057464  1.0
  O  O214  1  0.16000104  0.66018453  0.54139445  1.0
  O  O215  1  0.08987892  0.58993570  0.70852663  1.0
  O  O216  1  0.70867433  0.20831906  0.09015521  1.0
  O  O217  1  0.54141570  0.04152262  0.15985124  1.0
  O  O218  1  0.23242506  0.96876726  0.85073458  1.0
  O  O219  1  0.51802939  0.78027364  0.89925905  1.0
  O  O220  1  0.28599413  0.52559437  0.40987844  1.0
  O  O221  1  0.46341082  0.22469562  0.34041754  1.0
  O  O222  1  0.77994316  0.54023807  0.65589404  1.0
  O  O223  1  0.47053057  0.70959919  0.59381746  1.0
  O  O224  1  0.04058856  0.27938430  0.65560309  1.0
  O  O225  1  0.20963821  0.97004713  0.59477673  1.0
  O  O226  1  0.78564954  0.77806138  0.40207426  1.0
  O  O227  1  0.96393896  0.97105000  0.34843367  1.0
  O  O228  1  0.70962278  0.47087821  0.09405240  1.0
  O  O229  1  0.54011146  0.77962488  0.15568420  1.0
  O  O230  1  0.09361826  0.10251190  0.21805140  1.0
  O  O231  1  0.15566689  0.14774840  0.03227038  1.0
  O  O232  1  0.46454158  0.47184575  0.84788199  1.0
  O  O233  1  0.28597187  0.27912286  0.90168129  1.0
  O  O234  1  0.96411258  0.72455989  0.84003633  1.0
  O  O235  1  0.78637833  0.02532450  0.90967056  1.0
