# generated using pymatgen
data_Zn4H9C24S4N2O13F
_symmetry_space_group_name_H-M   'P 1'
_cell_length_a   19.67403800
_cell_length_b   19.68133496
_cell_length_c   33.37285672
_cell_angle_alpha   79.16255340
_cell_angle_beta   79.18959108
_cell_angle_gamma   63.87229863
_symmetry_Int_Tables_number   1
_chemical_formula_structural   Zn4H9C24S4N2O13F
_chemical_formula_sum   'Zn16 H36 C96 S16 N8 O52 F4'
_cell_volume   11314.25208556
_cell_formula_units_Z   4
loop_
 _symmetry_equiv_pos_site_id
 _symmetry_equiv_pos_as_xyz
  1  'x, y, z'
loop_
 _atom_site_type_symbol
 _atom_site_label
 _atom_site_symmetry_multiplicity
 _atom_site_fract_x
 _atom_site_fract_y
 _atom_site_fract_z
 _atom_site_occupancy
  Zn  Zn0  1  0.59937043  0.94443324  0.52182062  1.0
  Zn  Zn1  1  0.51610573  0.01577948  0.43975662  1.0
  Zn  Zn2  1  0.43928216  0.94111809  0.51748472  1.0
  Zn  Zn3  1  0.44416056  0.09906412  0.52051113  1.0
  Zn  Zn4  1  0.65048772  0.30575980  0.72865206  1.0
  Zn  Zn5  1  0.80999121  0.31134623  0.73353155  1.0
  Zn  Zn6  1  0.73365475  0.23143347  0.80947621  1.0
  Zn  Zn7  1  0.80588700  0.15169790  0.72786990  1.0
  Zn  Zn8  1  0.23276629  0.73274803  0.31033725  1.0
  Zn  Zn9  1  0.30406563  0.65184299  0.22776028  1.0
  Zn  Zn10  1  0.15116330  0.80739397  0.22832676  1.0
  Zn  Zn11  1  0.31102533  0.80882149  0.23289073  1.0
  Zn  Zn12  1  0.94038606  0.43930408  0.01695169  1.0
  Zn  Zn13  1  0.94413209  0.59889869  0.02146417  1.0
  Zn  Zn14  1  0.09891961  0.44475755  0.02172291  1.0
  Zn  Zn15  1  0.01738782  0.51617353  0.93957365  1.0
  H  H16  1  0.75168638  0.04512581  0.64825983  1.0
  H  H17  1  0.54557568  0.25286120  0.64976710  1.0
  H  H18  1  0.70081859  0.00011576  0.60007076  1.0
  H  H19  1  0.40273777  0.90281938  0.29978929  1.0
  H  H20  1  0.29859720  0.79836286  0.40224053  1.0
  H  H21  1  0.44970304  0.94933937  0.34923692  1.0
  H  H22  1  0.75909585  0.53709518  0.65922282  1.0
  H  H23  1  0.29901809  0.51995106  0.39793553  1.0
  H  H24  1  0.02000204  0.79604325  0.39842288  1.0
  H  H25  1  0.03063321  0.05195885  0.65254006  1.0
  H  H26  1  0.94990199  0.44987936  0.84696660  1.0
  H  H27  1  0.84714358  0.34802617  0.95146798  1.0
  H  H28  1  0.90075212  0.40015782  0.80025859  1.0
  H  H29  1  0.23003102  0.45161340  0.85184571  1.0
  H  H30  1  0.85749333  0.83700586  0.95894829  1.0
  H  H31  1  0.20422656  0.49895295  0.10137669  1.0
  H  H32  1  0.99614031  0.70472623  0.10032905  1.0
  H  H33  1  0.24928960  0.54957768  0.14968465  1.0
  H  H34  1  0.72024017  0.69796035  0.09828575  1.0
  H  H35  1  0.99051378  0.21354748  0.09185890  1.0
  H  H36  1  0.44269847  0.68670115  0.60395069  1.0
  H  H37  1  0.44708817  0.76676985  0.57269307  1.0
  H  H38  1  0.47862624  0.23210091  0.31442566  1.0
  H  H39  1  0.48191914  0.16368286  0.35637675  1.0
  H  H40  1  0.73155654  0.95414629  0.31429107  1.0
  H  H41  1  0.66373156  0.97945431  0.35692195  1.0
  H  H42  1  0.19758602  0.25757760  0.61473069  1.0
  H  H43  1  0.27465867  0.20582855  0.58095156  1.0
  H  H44  1  0.51825616  0.27354388  0.93553862  1.0
  H  H45  1  0.58710638  0.26732896  0.89326434  1.0
  H  H46  1  0.91512788  0.85468904  0.77253356  1.0
  H  H47  1  0.88449996  0.95286295  0.75986263  1.0
  H  H48  1  0.56359725  0.48317744  0.14554681  1.0
  H  H49  1  0.47655107  0.54369874  0.16953514  1.0
  H  H50  1  0.29923680  0.07375880  0.15600992  1.0
  H  H51  1  0.30311616  0.98452214  0.17769428  1.0
  C  C52  1  0.68373864  0.94126004  0.43733669  1.0
  C  C53  1  0.43021245  0.93037707  0.43092098  1.0
  C  C54  1  0.56082672  0.81457683  0.56069430  1.0
  C  C55  1  0.31435069  0.06436539  0.56109371  1.0
  C  C56  1  0.56810241  0.06999610  0.56912211  1.0
  C  C57  1  0.43691835  0.18368692  0.43662729  1.0
  C  C58  1  0.68749825  0.43517871  0.68923861  1.0
  C  C59  1  0.81957006  0.31798620  0.81961965  1.0
  C  C60  1  0.56611497  0.31182544  0.81253833  1.0
  C  C61  1  0.81366250  0.06344567  0.81032418  1.0
  C  C62  1  0.68121178  0.17983799  0.68081651  1.0
  C  C63  1  0.93466127  0.18915556  0.68885705  1.0
  C  C64  1  0.31292270  0.56574805  0.31112218  1.0
  C  C65  1  0.17923812  0.68179218  0.18090948  1.0
  C  C66  1  0.06579339  0.81076102  0.31159859  1.0
  C  C67  1  0.19181532  0.93455300  0.18778115  1.0
  C  C68  1  0.31919758  0.81935425  0.31899896  1.0
  C  C69  1  0.43440123  0.68664525  0.18752752  1.0
  C  C70  1  0.81635869  0.56074936  0.06187866  1.0
  C  C71  1  0.06931852  0.56951579  0.06908121  1.0
  C  C72  1  0.06128050  0.31626277  0.06205169  1.0
  C  C73  1  0.18458891  0.43722937  0.93863462  1.0
  C  C74  1  0.93090784  0.43068421  0.93053569  1.0
  C  C75  1  0.93758084  0.68391469  0.93841999  1.0
  C  C76  1  0.59549719  0.09993465  0.59788350  1.0
  C  C77  1  0.65193941  0.15158644  0.65213034  1.0
  C  C78  1  0.55301956  0.17126375  0.61255200  1.0
  C  C79  1  0.69579427  0.08016056  0.63807287  1.0
  C  C80  1  0.58016382  0.19724369  0.63920138  1.0
  C  C81  1  0.66759258  0.05528571  0.61140467  1.0
  C  C82  1  0.40096257  0.90073115  0.40299402  1.0
  C  C83  1  0.34771270  0.84790991  0.34786751  1.0
  C  C84  1  0.35805339  0.85775217  0.41704444  1.0
  C  C85  1  0.39044704  0.89053894  0.33283392  1.0
  C  C86  1  0.33157109  0.83150317  0.39020602  1.0
  C  C87  1  0.41640160  0.91619319  0.36020185  1.0
  C  C88  1  0.54427030  0.69605232  0.59781292  1.0
  C  C89  1  0.70213649  0.55442871  0.65130997  1.0
  C  C90  1  0.58582654  0.74067467  0.58489791  1.0
  C  C91  1  0.66201386  0.50989993  0.66421085  1.0
  C  C92  1  0.65963012  0.62234128  0.62730177  1.0
  C  C93  1  0.58774746  0.62815349  0.62232186  1.0
  C  C94  1  0.42318598  0.27235341  0.36924336  1.0
  C  C95  1  0.32799076  0.47515962  0.37797273  1.0
  C  C96  1  0.41200492  0.25750999  0.41226379  1.0
  C  C97  1  0.33834295  0.49060007  0.33563654  1.0
  C  C98  1  0.35912969  0.39591359  0.39046979  1.0
  C  C99  1  0.39250246  0.35245926  0.35725063  1.0
  C  C100  1  0.77247310  0.92713614  0.36996509  1.0
  C  C101  1  0.97519280  0.82559945  0.37846559  1.0
  C  C102  1  0.75765939  0.91702528  0.41303942  1.0
  C  C103  1  0.99060150  0.83573255  0.33611487  1.0
  C  C104  1  0.89598047  0.85849377  0.39102172  1.0
  C  C105  1  0.85251421  0.89308238  0.35782882  1.0
  C  C106  1  0.19938440  0.15887200  0.60168269  1.0
  C  C107  1  0.05102350  0.09632071  0.64794955  1.0
  C  C108  1  0.24057227  0.08901604  0.58533044  1.0
  C  C109  1  0.00961595  0.16485051  0.66414194  1.0
  C  C110  1  0.12031885  0.09346157  0.62546378  1.0
  C  C111  1  0.13026347  0.16021944  0.62486041  1.0
  C  C112  1  0.84702229  0.34646083  0.84903583  1.0
  C  C113  1  0.90183996  0.40195067  0.90204746  1.0
  C  C114  1  0.83263054  0.33287259  0.89201649  1.0
  C  C115  1  0.91691643  0.41684099  0.85931613  1.0
  C  C116  1  0.85935159  0.35981540  0.91837953  1.0
  C  C117  1  0.88970790  0.38930317  0.83351003  1.0
  C  C118  1  0.47805397  0.32626015  0.88014876  1.0
  C  C119  1  0.27493866  0.42256639  0.87175991  1.0
  C  C120  1  0.49254589  0.33736921  0.83704385  1.0
  C  C121  1  0.25969331  0.41207994  0.91411179  1.0
  C  C122  1  0.35415621  0.39131121  0.85916923  1.0
  C  C123  1  0.39785739  0.35761796  0.89229888  1.0
  C  C124  1  0.87827829  0.91810514  0.82093501  1.0
  C  C125  1  0.87432306  0.82949757  0.92656898  1.0
  C  C126  1  0.83894458  0.99010855  0.83508821  1.0
  C  C127  1  0.91306817  0.75826348  0.91309515  1.0
  C  C128  1  0.86112461  0.88790536  0.89323755  1.0
  C  C129  1  0.89034561  0.85987661  0.85491878  1.0
  C  C130  1  0.14921221  0.65461605  0.15215231  1.0
  C  C131  1  0.09753905  0.59854351  0.09785046  1.0
  C  C132  1  0.07776039  0.69720104  0.13758703  1.0
  C  C133  1  0.16911263  0.55462361  0.11177306  1.0
  C  C134  1  0.05178060  0.67014787  0.11089647  1.0
  C  C135  1  0.19397641  0.58271872  0.13847538  1.0
  C  C136  1  0.54940981  0.59265696  0.14661255  1.0
  C  C137  1  0.69988043  0.65357816  0.10282752  1.0
  C  C138  1  0.50768001  0.66267118  0.16273095  1.0
  C  C139  1  0.74156385  0.58496032  0.08676791  1.0
  C  C140  1  0.63013083  0.65664737  0.12480932  1.0
  C  C141  1  0.61997151  0.59015665  0.12495090  1.0
  C  C142  1  0.20816774  0.05295207  0.15033090  1.0
  C  C143  1  0.04754653  0.19642472  0.09959828  1.0
  C  C144  1  0.16732188  0.00767523  0.16284263  1.0
  C  C145  1  0.08705558  0.24156394  0.08697930  1.0
  C  C146  1  0.09106000  0.12789643  0.12280247  1.0
  C  C147  1  0.16315317  0.12216901  0.12733897  1.0
  S  S148  1  0.67580169  0.69972190  0.60209433  1.0
  S  S149  1  0.57253403  0.55010037  0.64715956  1.0
  S  S150  1  0.36466953  0.33967607  0.43709718  1.0
  S  S151  1  0.38561533  0.40907767  0.31072517  1.0
  S  S152  1  0.83987325  0.86731681  0.43777757  1.0
  S  S153  1  0.90909179  0.88542470  0.31125877  1.0
  S  S154  1  0.19528840  0.02741144  0.59781897  1.0
  S  S155  1  0.05442043  0.22633570  0.65201855  1.0
  S  S156  1  0.41003881  0.38557444  0.81241874  1.0
  S  S157  1  0.34140943  0.36447093  0.93890653  1.0
  S  S158  1  0.81827690  0.98607486  0.88856816  1.0
  S  S159  1  0.93406047  0.76175729  0.85993047  1.0
  S  S160  1  0.55369538  0.72365046  0.15119919  1.0
  S  S161  1  0.69624569  0.52391859  0.09808440  1.0
  S  S162  1  0.07670870  0.04880478  0.14648542  1.0
  S  S163  1  0.17737793  0.20100715  0.10302601  1.0
  N  N164  1  0.47425647  0.71364651  0.58743034  1.0
  N  N165  1  0.45601871  0.21816008  0.34284363  1.0
  N  N166  1  0.71836781  0.96621359  0.34370125  1.0
  N  N167  1  0.22100600  0.21730431  0.59525800  1.0
  N  N168  1  0.53231782  0.29290473  0.90635450  1.0
  N  N169  1  0.90330825  0.90592022  0.78088100  1.0
  N  N170  1  0.52490914  0.53674322  0.15000989  1.0
  N  N171  1  0.28077212  0.03262435  0.15785489  1.0
  O  O172  1  0.50060105  0.99985723  0.49962340  1.0
  O  O173  1  0.68246993  0.92508116  0.47642187  1.0
  O  O174  1  0.47189321  0.96497721  0.41351406  1.0
  O  O175  1  0.49362834  0.84258101  0.54897212  1.0
  O  O176  1  0.62457540  0.97723013  0.41756935  1.0
  O  O177  1  0.60680906  0.84694635  0.55281483  1.0
  O  O178  1  0.41135977  0.91926370  0.46928906  1.0
  O  O179  1  0.34386152  0.99672276  0.55066488  1.0
  O  O180  1  0.50239375  0.11197975  0.55787679  1.0
  O  O181  1  0.34515186  0.11221564  0.55191394  1.0
  O  O182  1  0.61337407  0.00438468  0.55832445  1.0
  O  O183  1  0.47141628  0.12425243  0.41709055  1.0
  O  O184  1  0.42310540  0.18288994  0.47575954  1.0
  O  O185  1  0.75046268  0.25028040  0.74933013  1.0
  O  O186  1  0.64057276  0.40412226  0.69730672  1.0
  O  O187  1  0.83502451  0.33727256  0.78144023  1.0
  O  O188  1  0.62563340  0.27576742  0.83193933  1.0
  O  O189  1  0.75400965  0.40796637  0.70055886  1.0
  O  O190  1  0.56677844  0.32653219  0.77335210  1.0
  O  O191  1  0.78360087  0.27713675  0.83472129  1.0
  O  O192  1  0.77570122  0.12256029  0.82928824  1.0
  O  O193  1  0.74686860  0.13554454  0.69185057  1.0
  O  O194  1  0.83087450  0.06392640  0.77092097  1.0
  O  O195  1  0.63808608  0.24573201  0.69171123  1.0
  O  O196  1  0.90700894  0.25534127  0.70076118  1.0
  O  O197  1  0.90383840  0.14220736  0.69610567  1.0
  O  O198  1  0.25003698  0.74967239  0.25017161  1.0
  O  O199  1  0.27659875  0.62365850  0.33085666  1.0
  O  O200  1  0.24459339  0.63582658  0.19204043  1.0
  O  O201  1  0.06606830  0.82806848  0.27264336  1.0
  O  O202  1  0.32934319  0.56613586  0.27209646  1.0
  O  O203  1  0.12390605  0.77437175  0.33128219  1.0
  O  O204  1  0.13801652  0.74767083  0.19189026  1.0
  O  O205  1  0.14457769  0.90368894  0.19677673  1.0
  O  O206  1  0.33540158  0.83605311  0.28068014  1.0
  O  O207  1  0.25921600  0.90600482  0.19927045  1.0
  O  O208  1  0.28113567  0.78070453  0.33527197  1.0
  O  O209  1  0.40211421  0.64002684  0.19513660  1.0
  O  O210  1  0.40705153  0.75229991  0.20024187  1.0
  O  O211  1  0.00011420  0.50000642  0.99988669  1.0
  O  O212  1  0.84420590  0.49415185  0.05046464  1.0
  O  O213  1  0.00358394  0.61297347  0.05794278  1.0
  O  O214  1  0.10806511  0.34748629  0.05400229  1.0
  O  O215  1  0.84667506  0.60812180  0.05379657  1.0
  O  O216  1  0.99492409  0.34321926  0.05057943  1.0
  O  O217  1  0.11340338  0.50382828  0.05818454  1.0
  O  O218  1  0.18436849  0.42105098  0.97766792  1.0
  O  O219  1  0.96939972  0.46875188  0.91398978  1.0
  O  O220  1  0.12641194  0.47302279  0.91899206  1.0
  O  O221  1  0.91476217  0.41456961  0.96896550  1.0
  O  O222  1  0.92085186  0.68441351  0.97730294  1.0
  O  O223  1  0.97376452  0.62523311  0.91909240  1.0
  F  F224  1  0.48301778  0.21841747  0.60122675  1.0
  F  F225  1  0.34079517  0.83956744  0.45769064  1.0
  F  F226  1  0.79148124  0.29277080  0.90981196  1.0
  F  F227  1  0.03064698  0.76692493  0.14908436  1.0
