# generated using pymatgen
data_Al6H17C72I3O40
_symmetry_space_group_name_H-M   'P 1'
_cell_length_a   12.66030615
_cell_length_b   12.71647481
_cell_length_c   26.78702218
_cell_angle_alpha   82.18603574
_cell_angle_beta   82.34813328
_cell_angle_gamma   65.47079928
_symmetry_Int_Tables_number   1
_chemical_formula_structural   Al6H17C72I3O40
_chemical_formula_sum   'Al6 H17 C72 I3 O40'
_cell_volume   3872.81976382
_cell_formula_units_Z   1
loop_
 _symmetry_equiv_pos_site_id
 _symmetry_equiv_pos_as_xyz
  1  'x, y, z'
loop_
 _atom_site_type_symbol
 _atom_site_label
 _atom_site_symmetry_multiplicity
 _atom_site_fract_x
 _atom_site_fract_y
 _atom_site_fract_z
 _atom_site_occupancy
  Al  Al0  1  0.39458108  0.42187075  0.51049811  1.0
  Al  Al1  1  0.64085751  0.44300448  0.49186816  1.0
  Al  Al2  1  0.42319441  0.66370819  0.49770613  1.0
  Al  Al3  1  0.92860241  0.93554544  0.97654241  1.0
  Al  Al4  1  0.89612565  0.69572605  0.99668286  1.0
  Al  Al5  1  0.68054480  0.91833844  0.99071862  1.0
  H  H6  1  0.82979047  0.09827733  0.27478862  1.0
  H  H7  1  0.47585915  0.75704063  0.78494389  1.0
  H  H8  1  0.57925607  0.85670392  0.70228873  1.0
  H  H9  1  0.76798336  0.46730284  0.78741456  1.0
  H  H10  1  0.78839234  0.77373965  0.75199551  1.0
  H  H11  1  0.30525749  0.76879726  0.24908241  1.0
  H  H12  1  0.34418729  0.57483182  0.19702031  1.0
  H  H13  1  0.45807155  0.30519484  0.19977949  1.0
  H  H14  1  0.49903993  0.13708937  0.28488348  1.0
  H  H15  1  0.82705256  0.82230350  0.20818488  1.0
  H  H16  1  0.44222135  0.50031131  0.70490580  1.0
  H  H17  1  0.99891044  0.45044290  0.65148298  1.0
  H  H18  1  0.81472734  0.80029030  0.33570235  1.0
  H  H19  1  0.85371688  0.62579827  0.21438384  1.0
  H  H20  1  0.54219096  0.56752601  0.27746480  1.0
  H  H21  1  0.30932224  0.30022718  0.55357011  1.0
  H  H22  1  0.02669855  0.04549058  0.99356321  1.0
  C  C23  1  0.59023411  0.31514919  0.43066999  1.0
  C  C24  1  0.63655078  0.69696544  0.26753868  1.0
  C  C25  1  0.63160441  0.68494808  0.31816865  1.0
  C  C26  1  0.62456215  0.66886787  0.36446217  1.0
  C  C27  1  0.06106897  0.74696997  0.27309906  1.0
  C  C28  1  0.12052400  0.79737064  0.22650022  1.0
  C  C29  1  0.08698018  0.70797665  0.10391006  1.0
  C  C30  1  0.22999898  0.66052089  0.39022034  1.0
  C  C31  1  0.08404994  0.63758502  0.24506901  1.0
  C  C32  1  0.14158643  0.68916549  0.19688012  1.0
  C  C33  1  0.20633129  0.57342256  0.26624746  1.0
  C  C34  1  0.60086372  0.63642278  0.41693292  1.0
  C  C35  1  0.18491418  0.68193597  0.29561370  1.0
  C  C36  1  0.26391246  0.62376774  0.21927530  1.0
  C  C37  1  0.24240604  0.73124031  0.24764569  1.0
  C  C38  1  0.11586231  0.69539716  0.14663094  1.0
  C  C39  1  0.20603944  0.67573774  0.34655406  1.0
  C  C40  1  0.56278665  0.16693852  0.26373556  1.0
  C  C41  1  0.54051643  0.25822883  0.21688203  1.0
  C  C42  1  0.68873053  0.11666306  0.09497809  1.0
  C  C43  1  0.61187839  0.27023123  0.38226543  1.0
  C  C44  1  0.67847557  0.08604296  0.23608347  1.0
  C  C45  1  0.27906149  0.62912306  0.43833322  1.0
  C  C46  1  0.65690934  0.17764374  0.18749906  1.0
  C  C47  1  0.74683717  0.14587540  0.25824623  1.0
  C  C48  1  0.63022062  0.22555674  0.28764048  1.0
  C  C49  1  0.72356709  0.23716063  0.21161191  1.0
  C  C50  1  0.60581168  0.31867687  0.23991150  1.0
  C  C51  1  0.67220613  0.14807865  0.13736996  1.0
  C  C52  1  0.61961421  0.24917720  0.33859496  1.0
  C  C53  1  0.62131590  0.77036792  0.72172669  1.0
  C  C54  1  0.56419242  0.71604602  0.76704745  1.0
  C  C55  1  0.69393403  0.69851528  0.88939889  1.0
  C  C56  1  0.60192021  0.30037768  0.57351324  1.0
  C  C57  1  0.64727106  0.63916702  0.59954347  1.0
  C  C58  1  0.73627407  0.72530438  0.74854902  1.0
  C  C59  1  0.67889069  0.67050608  0.79545957  1.0
  C  C60  1  0.78375486  0.60962198  0.72283602  1.0
  C  C61  1  0.66823928  0.65469535  0.69434119  1.0
  C  C62  1  0.72616803  0.55450914  0.76872207  1.0
  C  C63  1  0.61223471  0.59838805  0.74150283  1.0
  C  C64  1  0.68621127  0.68318142  0.84630768  1.0
  C  C65  1  0.65910845  0.64641038  0.64319228  1.0
  C  C66  1  0.09834940  0.69554363  0.86642587  1.0
  C  C67  1  0.61665248  0.61764983  0.55369412  1.0
  C  C68  1  0.12925315  0.68149760  0.82156552  1.0
  C  C69  1  0.15942942  0.66940829  0.77215855  1.0
  C  C70  1  0.18273368  0.66179828  0.72624769  1.0
  C  C71  1  0.21043036  0.65242332  0.67655167  1.0
  C  C72  1  0.23888218  0.64332076  0.63120917  1.0
  C  C73  1  0.70700663  0.10076110  0.85717945  1.0
  C  C74  1  0.69281095  0.13184796  0.81227825  1.0
  C  C75  1  0.67832204  0.16276912  0.76298048  1.0
  C  C76  1  0.66609172  0.18829551  0.71736852  1.0
  C  C77  1  0.65012493  0.21841397  0.66813976  1.0
  C  C78  1  0.28873068  0.61897849  0.58051444  1.0
  C  C79  1  0.63378877  0.24766995  0.62326339  1.0
  C  C80  1  0.03454302  0.73647057  0.05668697  1.0
  C  C81  1  0.70331602  0.74082611  0.07186223  1.0
  C  C82  1  0.71990252  0.06011425  0.04903095  1.0
  C  C83  1  0.04318833  0.72732626  0.91575286  1.0
  C  C84  1  0.71603190  0.72934141  0.93508577  1.0
  C  C85  1  0.73324236  0.04881800  0.90761282  1.0
  C  C86  1  0.66816305  0.71878993  0.12411032  1.0
  C  C87  1  0.65074483  0.71046358  0.17034353  1.0
  C  C88  1  0.63914594  0.70243360  0.22101341  1.0
  C  C89  1  0.71861968  0.95809959  0.23980797  1.0
  C  C90  1  0.54235913  0.52843200  0.74292772  1.0
  C  C91  1  0.90661754  0.55013078  0.70180970  1.0
  C  C92  1  0.95302422  0.81319949  0.30442323  1.0
  C  C93  1  0.99742274  0.58837974  0.24210167  1.0
  C  C94  1  0.56640135  0.44607842  0.23791086  1.0
  I  I95  1  0.05659875  0.97039317  0.19420812  1.0
  I  I96  1  0.84704980  0.29562884  0.17110875  1.0
  I  I97  1  0.27756019  0.40346685  0.30158449  1.0
  O  O98  1  0.29665325  0.52887831  0.45911582  1.0
  O  O99  1  0.68393362  0.52357710  0.53395252  1.0
  O  O100  1  0.52054888  0.69135439  0.53695588  1.0
  O  O101  1  0.31546785  0.69815648  0.55364470  1.0
  O  O102  1  0.48720299  0.51078332  0.49994454  1.0
  O  O103  1  0.82084108  0.03840496  0.02758713  1.0
  O  O104  1  0.01552868  0.83579666  0.03449943  1.0
  O  O105  1  0.00722918  0.65870052  0.04223213  1.0
  O  O106  1  0.80207038  0.66820444  0.05481357  1.0
  O  O107  1  0.63628670  0.83393567  0.04835202  1.0
  O  O108  1  0.64235068  0.03199034  0.03458616  1.0
  O  O109  1  0.49307868  0.33185970  0.45513913  1.0
  O  O110  1  0.83415984  0.02452148  0.91971369  1.0
  O  O111  1  0.02668208  0.82659726  0.92675170  1.0
  O  O112  1  0.01130422  0.65267969  0.94354610  1.0
  O  O113  1  0.80673755  0.65848451  0.95673761  1.0
  O  O114  1  0.64656988  0.82860012  0.94978949  1.0
  O  O115  1  0.65126751  0.02821321  0.93536558  1.0
  O  O116  1  0.83390476  0.84872109  0.98851107  1.0
  O  O117  1  0.67144603  0.33898497  0.44447415  1.0
  O  O118  1  0.67255478  0.53922480  0.43557188  1.0
  O  O119  1  0.50634936  0.70508871  0.43900299  1.0
  O  O120  1  0.30572092  0.70500925  0.45477934  1.0
  O  O121  1  0.30590517  0.52130796  0.56724394  1.0
  O  O122  1  0.49962176  0.32253901  0.56354791  1.0
  O  O123  1  0.67952501  0.32455228  0.54409653  1.0
  O  O124  1  0.68586051  0.90504549  0.27589098  1.0
  O  O125  1  0.79603555  0.90812027  0.20156122  1.0
  O  O126  1  0.53108351  0.46536427  0.77998756  1.0
  O  O127  1  0.49022487  0.54543025  0.69967295  1.0
  O  O128  1  0.98913771  0.55643520  0.71814877  1.0
  O  O129  1  0.91599345  0.48703827  0.66318984  1.0
  O  O130  1  0.92448248  0.91324877  0.31357194  1.0
  O  O131  1  0.89150122  0.74842816  0.32123936  1.0
  O  O132  1  0.00357409  0.49332379  0.25993052  1.0
  O  O133  1  0.90719208  0.66388695  0.21441512  1.0
  O  O134  1  0.54102565  0.51018556  0.19887409  1.0
  O  O135  1  0.56310396  0.48360697  0.28318917  1.0
  O  O136  1  0.30756729  0.34319947  0.52081328  1.0
  O  O137  1  0.01604784  0.01347511  0.96484309  1.0
