# generated using pymatgen
data_AlH6C21Br6NO6
_symmetry_space_group_name_H-M   'P 1'
_cell_length_a   4.16743647
_cell_length_b   13.55047858
_cell_length_c   13.55033746
_cell_angle_alpha   59.99736519
_cell_angle_beta   89.99881264
_cell_angle_gamma   90.00034747
_symmetry_Int_Tables_number   1
_chemical_formula_structural   AlH6C21Br6NO6
_chemical_formula_sum   'Al1 H6 C21 Br6 N1 O6'
_cell_volume   662.66316961
_cell_formula_units_Z   1
loop_
 _symmetry_equiv_pos_site_id
 _symmetry_equiv_pos_as_xyz
  1  'x, y, z'
loop_
 _atom_site_type_symbol
 _atom_site_label
 _atom_site_symmetry_multiplicity
 _atom_site_fract_x
 _atom_site_fract_y
 _atom_site_fract_z
 _atom_site_occupancy
  Al  Al0  1  0.99999507  0.00000071  0.50000574  1.0
  H  H1  1  0.76379927  0.12715400  0.97131493  1.0
  H  H2  1  0.23620182  0.40154325  0.97128802  1.0
  H  H3  1  0.23620388  0.12716018  0.90154959  1.0
  H  H4  1  0.76378708  0.40154700  0.62714982  1.0
  H  H5  1  0.23622603  0.47131095  0.62715844  1.0
  H  H6  1  0.76378577  0.47129162  0.90154826  1.0
  C  C7  1  0.49998059  0.08710421  0.58710785  1.0
  C  C8  1  0.49999251  0.82580064  0.58710342  1.0
  C  C9  1  0.50000374  0.08710831  0.32580492  1.0
  C  C10  1  0.63593083  0.10580845  0.13393097  1.0
  C  C11  1  0.64753724  0.16575563  0.01547378  1.0
  C  C12  1  0.50000120  0.27284987  0.95430093  1.0
  C  C13  1  0.35245566  0.31877903  0.01546432  1.0
  C  C14  1  0.36406017  0.26027818  0.13391884  1.0
  C  C15  1  0.50000868  0.15145597  0.19710545  1.0
  C  C16  1  0.35246565  0.16576009  0.81878556  1.0
  C  C17  1  0.36404728  0.10581279  0.76027735  1.0
  C  C18  1  0.49999586  0.15145266  0.65145344  1.0
  C  C19  1  0.63595733  0.26027142  0.60581186  1.0
  C  C20  1  0.64754815  0.31878009  0.66575673  1.0
  C  C21  1  0.50001207  0.27285140  0.77285148  1.0
  C  C22  1  0.35247889  0.51547345  0.66575484  1.0
  C  C23  1  0.36405992  0.63392658  0.60580750  1.0
  C  C24  1  0.49999149  0.69710413  0.65145220  1.0
  C  C25  1  0.63593651  0.63391789  0.76027392  1.0
  C  C26  1  0.64755445  0.51546305  0.81877839  1.0
  C  C27  1  0.50002105  0.45430151  0.77284914  1.0
  Br  Br28  1  0.19150384  0.33431343  0.20957201  1.0
  Br  Br29  1  0.80842624  0.95610509  0.20959170  1.0
  Br  Br30  1  0.19150089  0.95611431  0.83432489  1.0
  Br  Br31  1  0.80846960  0.33432269  0.45610704  1.0
  Br  Br32  1  0.19154954  0.70957841  0.45610523  1.0
  Br  Br33  1  0.80843890  0.70956933  0.83431903  1.0
  N  N34  1  0.50001544  0.33333333  0.83333510  1.0
  O  O35  1  0.26311963  0.02183698  0.37459157  1.0
  O  O36  1  0.26308910  0.10358427  0.52183719  1.0
  O  O37  1  0.26306980  0.87458388  0.60359772  1.0
  O  O38  1  0.73692249  0.10360232  0.37459106  1.0
  O  O39  1  0.73687700  0.87459269  0.52182879  1.0
  O  O40  1  0.73689483  0.02181810  0.60359629  1.0
