# generated using pymatgen
data_AlH9C24(NO4)3
_symmetry_space_group_name_H-M   'P 1'
_cell_length_a   4.01523143
_cell_length_b   29.01518978
_cell_length_c   29.01468479
_cell_angle_alpha   120.00559926
_cell_angle_beta   90.00144985
_cell_angle_gamma   89.99812824
_symmetry_Int_Tables_number   1
_chemical_formula_structural   AlH9C24(NO4)3
_chemical_formula_sum   'Al2 H18 C48 N6 O24'
_cell_volume   2927.25111154
_cell_formula_units_Z   2
loop_
 _symmetry_equiv_pos_site_id
 _symmetry_equiv_pos_as_xyz
  1  'x, y, z'
loop_
 _atom_site_type_symbol
 _atom_site_label
 _atom_site_symmetry_multiplicity
 _atom_site_fract_x
 _atom_site_fract_y
 _atom_site_fract_z
 _atom_site_occupancy
  Al  Al0  1  0.99598621  0.50000861  0.00000217  1.0
  Al  Al1  1  0.99594049  0.83333549  0.66668438  1.0
  H  H2  1  0.55141888  0.69517202  0.52367187  1.0
  H  H3  1  0.57221424  0.64187704  0.42483474  1.0
  H  H4  1  0.47669582  0.78665932  0.41759401  1.0
  H  H5  1  0.47661579  0.54667518  0.24907298  1.0
  H  H6  1  0.55155533  0.63816486  0.14300281  1.0
  H  H7  1  0.57229431  0.69145863  0.24184208  1.0
  H  H8  1  0.55139084  0.82849885  0.80482780  1.0
  H  H9  1  0.57221918  0.78295034  0.85812843  1.0
  H  H10  1  0.47686519  0.63092596  0.71335799  1.0
  H  H11  1  0.47666944  0.70240547  0.95331660  1.0
  H  H12  1  0.55152858  0.50483604  0.86185046  1.0
  H  H13  1  0.57236047  0.55038489  0.80854883  1.0
  H  H14  1  0.55124556  0.97630798  0.67150859  1.0
  H  H15  1  0.57206924  0.07515211  0.71702097  1.0
  H  H16  1  0.47695066  0.08244309  0.86906976  1.0
  H  H17  1  0.47671341  0.25092324  0.79759078  1.0
  H  H18  1  0.55143228  0.35701006  0.99514976  1.0
  H  H19  1  0.57225134  0.25816630  0.94961116  1.0
  C  C20  1  0.49595432  0.41916763  0.95288990  1.0
  C  C21  1  0.49596414  0.53374129  0.08084015  1.0
  C  C22  1  0.49592491  0.54711013  0.96626883  1.0
  C  C23  1  0.49592806  0.79960598  0.58583693  1.0
  C  C24  1  0.49596231  0.78622043  0.70040308  1.0
  C  C25  1  0.49592044  0.91417369  0.71379872  1.0
  C  C26  1  0.50436029  0.77029385  0.52623492  1.0
  C  C27  1  0.53609248  0.71475384  0.49997731  1.0
  C  C28  1  0.54755527  0.68501809  0.44478991  1.0
  C  C29  1  0.52462615  0.71003985  0.41381457  1.0
  C  C30  1  0.49690869  0.76582589  0.43993347  1.0
  C  C31  1  0.48768485  0.79474381  0.49516576  1.0
  C  C32  1  0.52619917  0.67973422  0.35757960  1.0
  C  C33  1  0.52618767  0.65359687  0.30909331  1.0
  C  C34  1  0.52461019  0.62329400  0.25285833  1.0
  C  C35  1  0.49684143  0.56750893  0.22673526  1.0
  C  C36  1  0.48760806  0.53859488  0.17150569  1.0
  C  C37  1  0.50435784  0.56304843  0.14044062  1.0
  C  C38  1  0.53614876  0.61858670  0.16669886  1.0
  C  C39  1  0.54758129  0.64831818  0.22188553  1.0
  C  C40  1  0.50440905  0.75593442  0.72971774  1.0
  C  C41  1  0.53609828  0.78522296  0.78525759  1.0
  C  C42  1  0.54756863  0.75976804  0.81498649  1.0
  C  C43  1  0.52468865  0.70376694  0.78996383  1.0
  C  C44  1  0.49700057  0.67409828  0.73417913  1.0
  C  C45  1  0.48774923  0.70041340  0.70526758  1.0
  C  C46  1  0.52622925  0.67783986  0.82026656  1.0
  C  C47  1  0.52623368  0.65548980  0.84640758  1.0
  C  C48  1  0.52466113  0.62956303  0.87670951  1.0
  C  C49  1  0.49685054  0.65923232  0.93249283  1.0
  C  C50  1  0.48759485  0.63291726  0.96140431  1.0
  C  C51  1  0.50435639  0.57739860  0.93695859  1.0
  C  C52  1  0.53614682  0.54811119  0.88144452  1.0
  C  C53  1  0.54760665  0.57356415  0.85168900  1.0
  C  C54  1  0.50438247  0.97377825  0.74407780  1.0
  C  C55  1  0.53598440  0.00001473  0.71477911  1.0
  C  C56  1  0.54747518  0.05519747  0.74021106  1.0
  C  C57  1  0.52470043  0.08618801  0.79621560  1.0
  C  C58  1  0.49702732  0.06008631  0.82589743  1.0
  C  C59  1  0.48775317  0.00485908  0.79959769  1.0
  C  C60  1  0.52625156  0.14243134  0.82213673  1.0
  C  C61  1  0.52620881  0.19091276  0.84449828  1.0
  C  C62  1  0.52465426  0.24715021  0.87043452  1.0
  C  C63  1  0.49686855  0.27326824  0.84076962  1.0
  C  C64  1  0.48762072  0.32849684  0.86707605  1.0
  C  C65  1  0.50437052  0.35957097  0.92259576  1.0
  C  C66  1  0.53608380  0.33333333  0.95189653  1.0
  C  C67  1  0.54755558  0.27812544  0.92643165  1.0
  N  N68  1  0.44249655  0.85294244  0.52062793  1.0
  N  N69  1  0.44241302  0.48039626  0.14604400  1.0
  N  N70  1  0.44264372  0.66767356  0.64706705  1.0
  N  N71  1  0.44236548  0.66565496  0.01959970  1.0
  N  N72  1  0.44263494  0.97940336  0.83234479  1.0
  N  N73  1  0.44239169  0.35395217  0.83433392  1.0
  O  O74  1  0.73266085  0.55391996  0.99804374  1.0
  O  O75  1  0.73268679  0.44412957  0.94607892  1.0
  O  O76  1  0.73267895  0.50196236  0.05587194  1.0
  O  O77  1  0.25889503  0.51394390  0.95353526  1.0
  O  O78  1  0.25892399  0.54647442  0.06040700  1.0
  O  O79  1  0.25895699  0.43960791  0.98606368  1.0
  O  O80  1  0.73264511  0.88920515  0.72060618  1.0
  O  O81  1  0.73263552  0.83138702  0.61081078  1.0
  O  O82  1  0.73267853  0.77941252  0.66862585  1.0
  O  O83  1  0.25887785  0.89373870  0.68063203  1.0
  O  O84  1  0.25890245  0.81938338  0.71313419  1.0
  O  O85  1  0.25887101  0.78686852  0.60626205  1.0
  O  O86  1  0.30320627  0.87554867  0.56466458  1.0
  O  O87  1  0.54212508  0.87491627  0.49600573  1.0
  O  O88  1  0.30325360  0.45778655  0.10199683  1.0
  O  O89  1  0.54190626  0.45842703  0.17067884  1.0
  O  O90  1  0.30341409  0.68909904  0.62445378  1.0
  O  O91  1  0.54230602  0.62107685  0.62510207  1.0
  O  O92  1  0.30325249  0.64421826  0.04221040  1.0
  O  O93  1  0.54180389  0.71226302  0.04156662  1.0
  O  O94  1  0.30341304  0.93536250  0.81092432  1.0
  O  O95  1  0.54230089  0.00404002  0.87894210  1.0
  O  O96  1  0.30329089  0.39800391  0.85577330  1.0
  O  O97  1  0.54181892  0.32931164  0.78772286  1.0
