# generated using pymatgen
data_Zn4H28C32O13F2
_symmetry_space_group_name_H-M   'P 1'
_cell_length_a   17.97094964
_cell_length_b   18.47903455
_cell_length_c   19.46879565
_cell_angle_alpha   63.77131223
_cell_angle_beta   63.72954824
_cell_angle_gamma   89.90554942
_symmetry_Int_Tables_number   1
_chemical_formula_structural   Zn4H28C32O13F2
_chemical_formula_sum   'Zn8 H56 C64 O26 F4'
_cell_volume   5047.14870132
_cell_formula_units_Z   2
loop_
 _symmetry_equiv_pos_site_id
 _symmetry_equiv_pos_as_xyz
  1  'x, y, z'
loop_
 _atom_site_type_symbol
 _atom_site_label
 _atom_site_symmetry_multiplicity
 _atom_site_fract_x
 _atom_site_fract_y
 _atom_site_fract_z
 _atom_site_occupancy
  Zn  Zn0  1  0.94598077  0.53256275  0.92343935  1.0
  Zn  Zn1  1  0.97132376  0.38241799  0.06858333  1.0
  Zn  Zn2  1  0.96937899  0.55837053  0.06270721  1.0
  Zn  Zn3  1  0.13093363  0.54311581  0.91288430  1.0
  Zn  Zn4  1  0.56068491  0.96862509  0.06248425  1.0
  Zn  Zn5  1  0.53619164  0.95177799  0.91895765  1.0
  Zn  Zn6  1  0.54525047  0.12612680  0.91435228  1.0
  Zn  Zn7  1  0.37848775  0.97156195  0.06755302  1.0
  H  H8  1  0.22262619  0.82940846  0.34765195  1.0
  H  H9  1  0.47294034  0.83812678  0.32470406  1.0
  H  H10  1  0.27888152  0.68056564  0.63549878  1.0
  H  H11  1  0.02834967  0.66958043  0.65907362  1.0
  H  H12  1  0.68303770  0.27647942  0.63883462  1.0
  H  H13  1  0.67946799  0.03649999  0.65359171  1.0
  H  H14  1  0.83516782  0.23248383  0.34385793  1.0
  H  H15  1  0.83849599  0.47242428  0.32918055  1.0
  H  H16  1  0.89850952  0.80037846  0.88440161  1.0
  H  H17  1  0.88165015  0.78501126  0.98705002  1.0
  H  H18  1  0.79485420  0.87972852  0.98138603  1.0
  H  H19  1  0.80965986  0.89192866  0.88043296  1.0
  H  H20  1  0.67545243  0.76638660  0.12490875  1.0
  H  H21  1  0.60264770  0.70098315  0.12628457  1.0
  H  H22  1  0.76107534  0.67037775  0.12849291  1.0
  H  H23  1  0.68936036  0.60741446  0.12616144  1.0
  H  H24  1  0.79661107  0.70830214  0.88067583  1.0
  H  H25  1  0.71271056  0.62812738  0.97925615  1.0
  H  H26  1  0.62231367  0.71916452  0.98115987  1.0
  H  H27  1  0.70531232  0.79842854  0.88091637  1.0
  H  H28  1  0.21522746  0.30704511  0.87595428  1.0
  H  H29  1  0.13270053  0.22897824  0.97959066  1.0
  H  H30  1  0.22241273  0.13729299  0.97873789  1.0
  H  H31  1  0.30497599  0.21634808  0.87587313  1.0
  H  H32  1  0.20746958  0.12191770  0.11929696  1.0
  H  H33  1  0.28013844  0.18782847  0.11736800  1.0
  H  H34  1  0.11937234  0.21533106  0.11931041  1.0
  H  H35  1  0.19356972  0.28172575  0.11519396  1.0
  H  H36  1  0.32125806  0.40426059  0.86874534  1.0
  H  H37  1  0.31235472  0.39532799  0.96585435  1.0
  H  H38  1  0.40037123  0.30208052  0.96871169  1.0
  H  H39  1  0.41048125  0.31224956  0.87076519  1.0
  H  H40  1  0.90526254  0.27190939  0.91757718  1.0
  H  H41  1  0.86856477  0.35603834  0.86319375  1.0
  H  H42  1  0.78208816  0.26525031  0.85924322  1.0
  H  H43  1  0.81859842  0.18141992  0.91446236  1.0
  H  H44  1  0.65318155  0.30410738  0.94508001  1.0
  H  H45  1  0.59640667  0.24729667  0.06114792  1.0
  H  H46  1  0.73873057  0.39414698  0.95120374  1.0
  H  H47  1  0.68283298  0.33532556  0.06722460  1.0
  H  H48  1  0.82598621  0.18887615  0.08475848  1.0
  H  H49  1  0.73567781  0.21524998  0.14575429  1.0
  H  H50  1  0.64785005  0.12565763  0.14193258  1.0
  H  H51  1  0.73805231  0.09865332  0.08173810  1.0
  H  H52  1  0.17904913  0.81295418  0.90626704  1.0
  H  H53  1  0.27162544  0.78505645  0.84918866  1.0
  H  H54  1  0.35441620  0.87969082  0.85238466  1.0
  H  H55  1  0.26100519  0.90413343  0.91316347  1.0
  H  H56  1  0.40631327  0.76018794  0.93116138  1.0
  H  H57  1  0.35289147  0.70321953  0.04714398  1.0
  H  H58  1  0.31959813  0.66552845  0.93130164  1.0
  H  H59  1  0.26487823  0.61075246  0.04738232  1.0
  H  H60  1  0.09867792  0.73486504  0.07357252  1.0
  H  H61  1  0.13122208  0.65056403  0.13199030  1.0
  H  H62  1  0.22013358  0.73993372  0.13493946  1.0
  H  H63  1  0.18421698  0.82356740  0.08041092  1.0
  C  C64  1  0.85764823  0.35924412  0.00305501  1.0
  C  C65  1  0.89204331  0.39750722  0.22923697  1.0
  C  C66  1  0.85522725  0.63640979  0.99808129  1.0
  C  C67  1  0.14865440  0.64601073  0.98687626  1.0
  C  C68  1  0.10978239  0.61997026  0.75487221  1.0
  C  C69  1  0.15013257  0.36922702  0.98738642  1.0
  C  C70  1  0.64000174  0.85962166  0.99492411  1.0
  C  C71  1  0.62758650  0.11152300  0.75354200  1.0
  C  C72  1  0.64547797  0.14084883  0.99524849  1.0
  C  C73  1  0.36674556  0.14614886  0.98911964  1.0
  C  C74  1  0.39280135  0.88842598  0.22855185  1.0
  C  C75  1  0.35971539  0.86869948  0.99164632  1.0
  C  C76  1  0.26247157  0.81308382  0.37850180  1.0
  C  C77  1  0.40371818  0.81785085  0.36591713  1.0
  C  C78  1  0.36640137  0.77221726  0.45558587  1.0
  C  C79  1  0.27658893  0.74381907  0.51242573  1.0
  C  C80  1  0.23884707  0.69655142  0.60487969  1.0
  C  C81  1  0.09754497  0.69053854  0.61785693  1.0
  C  C82  1  0.13466197  0.73658734  0.52816139  1.0
  C  C83  1  0.22444851  0.76553870  0.47107534  1.0
  C  C84  1  0.35070503  0.83865734  0.32685883  1.0
  C  C85  1  0.15069729  0.67030856  0.65675716  1.0
  C  C86  1  0.70037978  0.23950628  0.60593805  1.0
  C  C87  1  0.69856527  0.10396467  0.61398279  1.0
  C  C88  1  0.74361390  0.14250198  0.52403983  1.0
  C  C89  1  0.77023623  0.23015756  0.46946112  1.0
  C  C90  1  0.81752004  0.26942488  0.37678194  1.0
  C  C91  1  0.81935556  0.40496657  0.36875717  1.0
  C  C92  1  0.77354610  0.36637113  0.45867659  1.0
  C  C93  1  0.74700178  0.27871718  0.51325189  1.0
  C  C94  1  0.67683404  0.15358488  0.65530585  1.0
  C  C95  1  0.84176275  0.35535613  0.32746147  1.0
  C  C96  1  0.84879280  0.78381548  0.95142873  1.0
  C  C97  1  0.79039675  0.84558561  0.94879837  1.0
  C  C98  1  0.69630130  0.79800028  0.99555052  1.0
  C  C99  1  0.67028414  0.73349981  0.09147028  1.0
  C  C100  1  0.72791333  0.67099182  0.09262722  1.0
  C  C101  1  0.79497145  0.69435215  0.99757775  1.0
  C  C102  1  0.74887618  0.69211273  0.94809849  1.0
  C  C103  1  0.68922358  0.75248950  0.94826450  1.0
  C  C104  1  0.19998772  0.26260427  0.94362313  1.0
  C  C105  1  0.25951395  0.20169060  0.94357466  1.0
  C  C106  1  0.31009644  0.20778588  0.98856303  1.0
  C  C107  1  0.24520198  0.18603338  0.08365393  1.0
  C  C108  1  0.18697175  0.24789634  0.08298180  1.0
  C  C109  1  0.21069618  0.31128578  0.98747095  1.0
  C  C110  1  0.30462990  0.35895372  0.93647687  1.0
  C  C111  1  0.36337927  0.29758122  0.93782455  1.0
  C  C112  1  0.84745178  0.29338010  0.92001557  1.0
  C  C113  1  0.78990249  0.23329209  0.91759042  1.0
  C  C114  1  0.70061917  0.19804436  0.00103188  1.0
  C  C115  1  0.66088211  0.27162902  0.00338754  1.0
  C  C116  1  0.71816629  0.33095562  0.00693978  1.0
  C  C117  1  0.79793823  0.29875458  0.00538219  1.0
  C  C118  1  0.76934900  0.21142359  0.08505650  1.0
  C  C119  1  0.71125754  0.15183385  0.08270175  1.0
  C  C120  1  0.23529571  0.79087989  0.90833341  1.0
  C  C121  1  0.29077170  0.85248837  0.91124058  1.0
  C  C122  1  0.30136074  0.80715543  0.99375422  1.0
  C  C123  1  0.34287093  0.73463996  0.99008035  1.0
  C  C124  1  0.28512573  0.67281589  0.98966721  1.0
  C  C125  1  0.20517869  0.70401004  0.99068222  1.0
  C  C126  1  0.15529654  0.71247025  0.07343460  1.0
  C  C127  1  0.21277836  0.77206135  0.07627848  1.0
  O  O128  1  0.00631451  0.50353647  0.99116980  1.0
  O  O129  1  0.87589139  0.43561563  0.94558870  1.0
  O  O130  1  0.91373181  0.35130377  0.19413195  1.0
  O  O131  1  0.89061588  0.62817874  0.04450931  1.0
  O  O132  1  0.88639312  0.32952194  0.05658558  1.0
  O  O133  1  0.86712028  0.60158237  0.95156624  1.0
  O  O134  1  0.90893230  0.47677310  0.18898076  1.0
  O  O135  1  0.06840821  0.62942138  0.03778466  1.0
  O  O136  1  0.15908823  0.60346672  0.78808881  1.0
  O  O137  1  0.18510067  0.61961957  0.93239541  1.0
  O  O138  1  0.02822769  0.59787092  0.79689572  1.0
  O  O139  1  0.07056839  0.33446762  0.04042107  1.0
  O  O140  1  0.18265452  0.44690465  0.93444662  1.0
  O  O141  1  0.50350685  0.00529533  0.99179133  1.0
  O  O142  1  0.63775626  0.89786925  0.03650447  1.0
  O  O143  1  0.61052882  0.03223231  0.79389780  1.0
  O  O144  1  0.62305386  0.17526048  0.93667133  1.0
  O  O145  1  0.59971196  0.86901455  0.95286046  1.0
  O  O146  1  0.62687876  0.06313290  0.04815994  1.0
  O  O147  1  0.60681442  0.15776886  0.78870405  1.0
  O  O148  1  0.44682905  0.17618705  0.93637298  1.0
  O  O149  1  0.34492322  0.91182418  0.19414810  1.0
  O  O150  1  0.32933445  0.06904894  0.04178515  1.0
  O  O151  1  0.47422604  0.90300096  0.18764532  1.0
  O  O152  1  0.43751887  0.89363091  0.93016853  1.0
  O  O153  1  0.32753088  0.89136831  0.04966902  1.0
  F  F154  1  0.08368581  0.75612744  0.49075761  1.0
  F  F155  1  0.41709607  0.75233888  0.49331447  1.0
  F  F156  1  0.75197764  0.41350690  0.49891238  1.0
  F  F157  1  0.76469766  0.09530343  0.48386375  1.0
