# generated using pymatgen
data_CuH7C9N2
_symmetry_space_group_name_H-M   'P 1'
_cell_length_a   28.04616725
_cell_length_b   29.20565530
_cell_length_c   30.40274565
_cell_angle_alpha   88.38706205
_cell_angle_beta   88.28757972
_cell_angle_gamma   85.05816237
_symmetry_Int_Tables_number   1
_chemical_formula_structural   CuH7C9N2
_chemical_formula_sum   'Cu12 H84 C108 N24'
_cell_volume   24791.26042821
_cell_formula_units_Z   12
loop_
 _symmetry_equiv_pos_site_id
 _symmetry_equiv_pos_as_xyz
  1  'x, y, z'
loop_
 _atom_site_type_symbol
 _atom_site_label
 _atom_site_symmetry_multiplicity
 _atom_site_fract_x
 _atom_site_fract_y
 _atom_site_fract_z
 _atom_site_occupancy
  Cu  Cu0  1  0.75665522  0.23126765  0.15756718  1.0
  Cu  Cu1  1  0.83054085  0.23166578  0.23335825  1.0
  Cu  Cu2  1  0.76560832  0.14829730  0.22814924  1.0
  Cu  Cu3  1  0.79412791  0.80310676  0.84595094  1.0
  Cu  Cu4  1  0.88425557  0.79439115  0.77975221  1.0
  Cu  Cu5  1  0.82144872  0.88902088  0.78878464  1.0
  Cu  Cu6  1  0.20495052  0.21507635  0.83490761  1.0
  Cu  Cu7  1  0.12348838  0.20233474  0.76852019  1.0
  Cu  Cu8  1  0.21609836  0.13156162  0.76984082  1.0
  Cu  Cu9  1  0.22409790  0.76288374  0.13691669  1.0
  Cu  Cu10  1  0.15506227  0.74568007  0.21833431  1.0
  Cu  Cu11  1  0.22623549  0.82409576  0.22244906  1.0
  H  H12  1  0.79379195  0.31014348  0.09349685  1.0
  H  H13  1  0.88869303  0.31532153  0.20282872  1.0
  H  H14  1  0.68537969  0.08774761  0.19454710  1.0
  H  H15  1  0.66935764  0.20480693  0.10380259  1.0
  H  H16  1  0.89299694  0.20037293  0.31474551  1.0
  H  H17  1  0.81396267  0.08056135  0.30176121  1.0
  H  H18  1  0.81738552  0.71500501  0.90750245  1.0
  H  H19  1  0.93901026  0.70259064  0.81604400  1.0
  H  H20  1  0.74482976  0.96569127  0.82696725  1.0
  H  H21  1  0.69469357  0.84278961  0.88935635  1.0
  H  H22  1  0.94714365  0.81613312  0.69348035  1.0
  H  H23  1  0.87118313  0.94942825  0.71554403  1.0
  H  H24  1  0.16532369  0.30862432  0.87906779  1.0
  H  H25  1  0.04379391  0.27842510  0.80346409  1.0
  H  H26  1  0.30010809  0.06867093  0.81466527  1.0
  H  H27  1  0.28367873  0.18219146  0.90414819  1.0
  H  H28  1  0.06810785  0.16324770  0.69010987  1.0
  H  H29  1  0.20004885  0.07443852  0.68494879  1.0
  H  H30  1  0.19247808  0.68793345  0.07126353  1.0
  H  H31  1  0.10564186  0.65905134  0.18737470  1.0
  H  H32  1  0.30497842  0.89112374  0.19143413  1.0
  H  H33  1  0.29970901  0.80929782  0.07527833  1.0
  H  H34  1  0.08450158  0.77325777  0.29812738  1.0
  H  H35  1  0.18885775  0.87288201  0.31040075  1.0
  H  H36  1  0.91884071  0.00388688  0.50295324  1.0
  H  H37  1  0.06571779  0.95956576  0.53301947  1.0
  H  H38  1  0.01151416  0.09603818  0.48910815  1.0
  H  H39  1  0.01535974  0.99684443  0.40289699  1.0
  H  H40  1  0.98874424  0.49658767  0.09910801  1.0
  H  H41  1  0.03745111  0.53637756  0.96830637  1.0
  H  H42  1  0.89250651  0.51123177  0.00942617  1.0
  H  H43  1  0.99043041  0.40353874  0.00648050  1.0
  H  H44  1  0.47564417  0.10164140  0.01588683  1.0
  H  H45  1  0.45576929  0.96338155  0.97643445  1.0
  H  H46  1  0.48578951  0.00389238  0.10803002  1.0
  H  H47  1  0.58914930  0.00935074  0.01832134  1.0
  H  H48  1  0.93233270  0.36951624  0.15653311  1.0
  H  H49  1  0.98033341  0.41514598  0.10811516  1.0
  H  H50  1  0.86285163  0.37124312  0.08008495  1.0
  H  H51  1  0.88899586  0.44150034  0.05646567  1.0
  H  H52  1  0.97407799  0.64078823  0.86875098  1.0
  H  H53  1  0.00760189  0.58345632  0.92025378  1.0
  H  H54  1  0.88297788  0.64384144  0.92783810  1.0
  H  H55  1  0.90375835  0.57422384  0.95266076  1.0
  H  H56  1  0.11400934  0.38673015  0.89539800  1.0
  H  H57  1  0.00659227  0.39816413  0.92512820  1.0
  H  H58  1  0.02317205  0.34164454  0.87145997  1.0
  H  H59  1  0.08795478  0.45914105  0.94246657  1.0
  H  H60  1  0.09449427  0.58670568  0.15191558  1.0
  H  H61  1  0.05554351  0.52875652  0.11934160  1.0
  H  H62  1  0.12459717  0.62250103  0.06009272  1.0
  H  H63  1  0.06646647  0.57784722  0.02922388  1.0
  H  H64  1  0.60814762  0.16264503  0.06706020  1.0
  H  H65  1  0.56272627  0.11380031  0.02380238  1.0
  H  H66  1  0.61976705  0.07906733  0.13079664  1.0
  H  H67  1  0.54696294  0.05821537  0.10960118  1.0
  H  H68  1  0.35620380  0.86403075  0.03931466  1.0
  H  H69  1  0.40755882  0.91804922  0.00569809  1.0
  H  H70  1  0.36406565  0.91690293  0.12451421  1.0
  H  H71  1  0.43034895  0.94194924  0.10034027  1.0
  H  H72  1  0.61671935  0.89489081  0.90794262  1.0
  H  H73  1  0.60456101  0.99587089  0.93918735  1.0
  H  H74  1  0.67008341  0.98159890  0.88913528  1.0
  H  H75  1  0.53791011  0.91787086  0.95249566  1.0
  H  H76  1  0.35564938  0.02866063  0.87236291  1.0
  H  H77  1  0.40830867  0.99317169  0.92773548  1.0
  H  H78  1  0.34888879  0.11382635  0.93016588  1.0
  H  H79  1  0.41708200  0.09198450  0.95722679  1.0
  H  H80  1  0.94539424  0.15224753  0.36414962  1.0
  H  H81  1  0.99898833  0.10293675  0.40979259  1.0
  H  H82  1  0.88366097  0.07017927  0.36499036  1.0
  H  H83  1  0.91133231  0.05051198  0.43514620  1.0
  H  H84  1  0.15826905  0.02954141  0.62752720  1.0
  H  H85  1  0.11142923  0.99041616  0.57505029  1.0
  H  H86  1  0.07251536  0.10239312  0.62335794  1.0
  H  H87  1  0.07141765  0.08893531  0.55037973  1.0
  H  H88  1  0.14603328  0.88488873  0.39088701  1.0
  H  H89  1  0.03619150  0.90863464  0.40296246  1.0
  H  H90  1  0.05631303  0.84877517  0.35277590  1.0
  H  H91  1  0.11858474  0.93446857  0.45952933  1.0
  H  H92  1  0.99950624  0.86084168  0.63579322  1.0
  H  H93  1  0.03813113  0.90945931  0.57879399  1.0
  H  H94  1  0.92979574  0.94765328  0.64274054  1.0
  H  H95  1  0.93418777  0.95050814  0.56860988  1.0
  C  C96  1  0.81293547  0.30575649  0.12404910  1.0
  C  C97  1  0.85211301  0.32827543  0.13772768  1.0
  C  C98  1  0.86155241  0.30856818  0.17973805  1.0
  C  C99  1  0.68759405  0.11975722  0.17583898  1.0
  C  C100  1  0.66084426  0.13685080  0.13958849  1.0
  C  C101  1  0.67912148  0.17944945  0.12945558  1.0
  C  C102  1  0.86931996  0.17474544  0.30611059  1.0
  C  C103  1  0.86588196  0.12981225  0.32326034  1.0
  C  C104  1  0.82874055  0.11373055  0.29940274  1.0
  C  C105  1  0.84378149  0.71834470  0.88101488  1.0
  C  C106  1  0.88706424  0.69133474  0.87296664  1.0
  C  C107  1  0.90610560  0.71191055  0.83456748  1.0
  C  C108  1  0.73890420  0.93116528  0.83883279  1.0
  C  C109  1  0.70193276  0.91632755  0.86665125  1.0
  C  C110  1  0.71279229  0.86836055  0.87021982  1.0
  C  C111  1  0.92490693  0.84583433  0.70509746  1.0
  C  C112  1  0.92062111  0.89142056  0.68827409  1.0
  C  C113  1  0.88575881  0.91375709  0.71635881  1.0
  C  C114  1  0.14053116  0.29586650  0.85657308  1.0
  C  C115  1  0.09202106  0.31041300  0.84984142  1.0
  C  C116  1  0.07825946  0.27986327  0.81848673  1.0
  C  C117  1  0.29043962  0.10014812  0.83215355  1.0
  C  C118  1  0.30738531  0.11505587  0.87205889  1.0
  C  C119  1  0.28199129  0.15834311  0.87759419  1.0
  C  C120  1  0.10312934  0.14521339  0.69496274  1.0
  C  C121  1  0.12633299  0.10867352  0.67113452  1.0
  C  C122  1  0.17031536  0.09959012  0.69227844  1.0
  C  C123  1  0.17453448  0.68670320  0.10334662  1.0
  C  C124  1  0.14069517  0.65693727  0.11934826  1.0
  C  C125  1  0.13066108  0.67138916  0.16279980  1.0
  C  C126  1  0.29802132  0.86665837  0.16665709  1.0
  C  C127  1  0.31778647  0.86225845  0.12367999  1.0
  C  C128  1  0.29543529  0.82512087  0.10717039  1.0
  C  C129  1  0.11469934  0.79415565  0.29536418  1.0
  C  C130  1  0.12489588  0.83141546  0.32085576  1.0
  C  C131  1  0.16848999  0.84445970  0.30228871  1.0
  C  C132  1  0.98199783  0.03121350  0.46436674  1.0
  C  C133  1  0.95776774  0.00199020  0.49946688  1.0
  C  C134  1  0.98802881  0.97535107  0.52524568  1.0
  C  C135  1  0.04087078  0.98109021  0.51258281  1.0
  C  C136  1  0.01547102  0.05859450  0.49049927  1.0
  C  C137  1  0.04582232  0.03284978  0.51687281  1.0
  C  C138  1  0.01594768  0.99667406  0.43867874  1.0
  C  C139  1  0.04673350  0.97004662  0.46359164  1.0
  C  C140  1  0.95794010  0.46970790  0.03756595  1.0
  C  C141  1  0.99211126  0.49652211  0.06336610  1.0
  C  C142  1  0.02154959  0.52155257  0.03844598  1.0
  C  C143  1  0.01354445  0.51655971  0.98892332  1.0
  C  C144  1  0.93150683  0.50638269  0.00829873  1.0
  C  C145  1  0.96006757  0.53125165  0.98203164  1.0
  C  C146  1  0.99061578  0.44079239  0.00544049  1.0
  C  C147  1  0.01956733  0.46494398  0.97934039  1.0
  C  C148  1  0.51704251  0.03854390  0.04673450  1.0
  C  C149  1  0.48143079  0.06429132  0.01555757  1.0
  C  C150  1  0.45843960  0.03713386  0.98934218  1.0
  C  C151  1  0.47383483  0.98575986  0.99753691  1.0
  C  C152  1  0.48765927  0.00430840  0.07214965  1.0
  C  C153  1  0.46411909  0.97660721  0.04693796  1.0
  C  C154  1  0.55059588  0.00831771  0.01630135  1.0
  C  C155  1  0.52846798  0.98109223  0.98982638  1.0
  C  C156  1  0.87704860  0.36192134  0.11256997  1.0
  C  C157  1  0.91683809  0.38081151  0.12502194  1.0
  C  C158  1  0.94296598  0.41346272  0.09917441  1.0
  C  C159  1  0.92649432  0.44094387  0.06558397  1.0
  C  C160  1  0.90617343  0.65316455  0.90002322  1.0
  C  C161  1  0.95001108  0.62974855  0.89521284  1.0
  C  C162  1  0.96895801  0.59215441  0.92320496  1.0
  C  C163  1  0.94275367  0.56710914  0.95198484  1.0
  C  C164  1  0.06167939  0.34533817  0.87215662  1.0
  C  C165  1  0.07602365  0.38056642  0.89547280  1.0
  C  C166  1  0.04323200  0.40852499  0.92253549  1.0
  C  C167  1  0.05312603  0.44496702  0.94666279  1.0
  C  C168  1  0.12000073  0.62142839  0.09597239  1.0
  C  C169  1  0.09509075  0.58823718  0.11587108  1.0
  C  C170  1  0.06814374  0.55474248  0.09618963  1.0
  C  C171  1  0.05422872  0.55293181  0.05370367  1.0
  C  C172  1  0.62539065  0.11349231  0.11760012  1.0
  C  C173  1  0.60095271  0.12916695  0.08163162  1.0
  C  C174  1  0.56776406  0.10357190  0.05845110  1.0
  C  C175  1  0.54423585  0.06820042  0.07474442  1.0
  C  C176  1  0.35223449  0.89066666  0.10331926  1.0
  C  C177  1  0.36990873  0.88866952  0.06118035  1.0
  C  C178  1  0.40449867  0.91766585  0.04164238  1.0
  C  C179  1  0.43238950  0.94425578  0.06432673  1.0
  C  C180  1  0.66449626  0.94497297  0.88838590  1.0
  C  C181  1  0.62453483  0.93091589  0.90936832  1.0
  C  C182  1  0.59333028  0.96117186  0.93563064  1.0
  C  C183  1  0.55260325  0.95076667  0.95787092  1.0
  C  C184  1  0.34174210  0.09322510  0.90197814  1.0
  C  C185  1  0.36469887  0.05041728  0.89908661  1.0
  C  C186  1  0.40006981  0.03038040  0.92920110  1.0
  C  C187  1  0.42389679  0.05449069  0.95793235  1.0
  C  C188  1  0.89425188  0.10452469  0.35615110  1.0
  C  C189  1  0.93314795  0.11912616  0.37513882  1.0
  C  C190  1  0.96212242  0.09353511  0.40777804  1.0
  C  C191  1  0.94837125  0.05963515  0.43504344  1.0
  C  C192  1  0.10701445  0.08668433  0.63457549  1.0
  C  C193  1  0.12591007  0.04799907  0.61443345  1.0
  C  C194  1  0.10415400  0.02760346  0.57810870  1.0
  C  C195  1  0.07490461  0.05137154  0.54885277  1.0
  C  C196  1  0.09453037  0.85349965  0.35460155  1.0
  C  C197  1  0.10796247  0.88121632  0.38638674  1.0
  C  C198  1  0.07354964  0.90861464  0.41252645  1.0
  C  C199  1  0.08261080  0.93618333  0.44609768  1.0
  C  C200  1  0.94401473  0.91249843  0.65103616  1.0
  C  C201  1  0.98151432  0.89417698  0.62605614  1.0
  C  C202  1  0.00020815  0.91723994  0.58737968  1.0
  C  C203  1  0.97282145  0.94715297  0.56147273  1.0
  N  N204  1  0.83062671  0.27681470  0.18979250  1.0
  N  N205  1  0.80030003  0.27505115  0.15525463  1.0
  N  N206  1  0.71405596  0.18662255  0.15724364  1.0
  N  N207  1  0.71931045  0.14959938  0.18621844  1.0
  N  N208  1  0.81174522  0.14633367  0.27027954  1.0
  N  N209  1  0.83706760  0.18420059  0.27450554  1.0
  N  N210  1  0.87659732  0.74822128  0.82135070  1.0
  N  N211  1  0.83775038  0.75223416  0.85017910  1.0
  N  N212  1  0.75296173  0.85598865  0.84653417  1.0
  N  N213  1  0.76903726  0.89500679  0.82679213  1.0
  N  N214  1  0.87070339  0.88399905  0.74730431  1.0
  N  N215  1  0.89507381  0.84176895  0.74029497  1.0
  N  N216  1  0.11556755  0.24985110  0.80742540  1.0
  N  N217  1  0.15419216  0.25957987  0.83137875  1.0
  N  N218  1  0.25240351  0.16826715  0.84391380  1.0
  N  N219  1  0.25760994  0.13199116  0.81572358  1.0
  N  N220  1  0.17263372  0.12826745  0.72593606  1.0
  N  N221  1  0.13088396  0.15669916  0.72761135  1.0
  N  N222  1  0.15648931  0.70664304  0.17158763  1.0
  N  N223  1  0.18396471  0.71612323  0.13472232  1.0
  N  N224  1  0.26495709  0.80913659  0.13785117  1.0
  N  N225  1  0.26659902  0.83488385  0.17493824  1.0
  N  N226  1  0.18271483  0.81721308  0.26846763  1.0
  N  N227  1  0.14947908  0.78565519  0.26442878  1.0
