# generated using pymatgen
data_AlH9C20Br4O5
_symmetry_space_group_name_H-M   'P 1'
_cell_length_a   6.70656570
_cell_length_b   25.62822354
_cell_length_c   28.88619477
_cell_angle_alpha   90.00012967
_cell_angle_beta   89.99553067
_cell_angle_gamma   89.99930880
_symmetry_Int_Tables_number   1
_chemical_formula_structural   AlH9C20Br4O5
_chemical_formula_sum   'Al4 H36 C80 Br16 O20'
_cell_volume   4964.88302489
_cell_formula_units_Z   4
loop_
 _symmetry_equiv_pos_site_id
 _symmetry_equiv_pos_as_xyz
  1  'x, y, z'
loop_
 _atom_site_type_symbol
 _atom_site_label
 _atom_site_symmetry_multiplicity
 _atom_site_fract_x
 _atom_site_fract_y
 _atom_site_fract_z
 _atom_site_occupancy
  Al  Al0  1  0.80428353  0.74945429  0.74999893  1.0
  Al  Al1  1  0.19570821  0.25054745  0.24999975  1.0
  Al  Al2  1  0.30428243  0.75054702  0.75000247  1.0
  Al  Al3  1  0.69570633  0.24945550  0.24999863  1.0
  H  H4  1  0.23309424  0.32512265  0.37218719  1.0
  H  H5  1  0.76690197  0.67487792  0.62781218  1.0
  H  H6  1  0.76688304  0.67490453  0.87222651  1.0
  H  H7  1  0.23308782  0.32509644  0.12777632  1.0
  H  H8  1  0.73307689  0.17490441  0.12777217  1.0
  H  H9  1  0.26691485  0.82510006  0.87222686  1.0
  H  H10  1  0.26687413  0.82513082  0.62781426  1.0
  H  H11  1  0.73311462  0.17487405  0.37218650  1.0
  H  H12  1  0.26845410  0.38784216  0.43728023  1.0
  H  H13  1  0.73154361  0.61215725  0.56271983  1.0
  H  H14  1  0.73155018  0.61218897  0.93732473  1.0
  H  H15  1  0.26842814  0.38781044  0.06267672  1.0
  H  H16  1  0.76842387  0.11218444  0.06267615  1.0
  H  H17  1  0.23159471  0.88781419  0.93732876  1.0
  H  H18  1  0.23153893  0.88784724  0.56271867  1.0
  H  H19  1  0.76849158  0.11215373  0.43727793  1.0
  H  H20  1  0.70077253  0.45480493  0.40052031  1.0
  H  H21  1  0.29923114  0.54519642  0.59947698  1.0
  H  H22  1  0.29913189  0.54519339  0.90050902  1.0
  H  H23  1  0.70085388  0.45480835  0.09949105  1.0
  H  H24  1  0.20084842  0.04519138  0.09949732  1.0
  H  H25  1  0.79916717  0.95480685  0.90050447  1.0
  H  H26  1  0.79923213  0.95480169  0.59947901  1.0
  H  H27  1  0.20078347  0.04520084  0.40052451  1.0
  H  H28  1  0.72344446  0.43667414  0.49242549  1.0
  H  H29  1  0.27655623  0.56332487  0.50757423  1.0
  H  H30  1  0.27659333  0.56330863  0.99239579  1.0
  H  H31  1  0.72339692  0.43669038  0.00760497  1.0
  H  H32  1  0.22341723  0.06331159  0.00760266  1.0
  H  H33  1  0.77660433  0.93668275  0.99240433  1.0
  H  H34  1  0.77657617  0.93667324  0.50757723  1.0
  H  H35  1  0.22346478  0.06332578  0.49241833  1.0
  H  H36  1  0.54967384  0.68117478  0.75006676  1.0
  H  H37  1  0.45031343  0.31882735  0.24994681  1.0
  H  H38  1  0.04967172  0.81882594  0.75007366  1.0
  H  H39  1  0.95031853  0.18117541  0.24993610  1.0
  C  C40  1  0.55541540  0.81389172  0.68818684  1.0
  C  C41  1  0.44453757  0.18611237  0.31181391  1.0
  C  C42  1  0.44457998  0.18611818  0.18817700  1.0
  C  C43  1  0.55538492  0.81388552  0.81182306  1.0
  C  C44  1  0.05539356  0.68611641  0.81182292  1.0
  C  C45  1  0.94461756  0.31388534  0.18817749  1.0
  C  C46  1  0.94457664  0.31388889  0.31181406  1.0
  C  C47  1  0.05545983  0.68611403  0.68818462  1.0
  C  C48  1  0.11629222  0.35360038  0.37920764  1.0
  C  C49  1  0.88371592  0.64640020  0.62079104  1.0
  C  C50  1  0.88366723  0.64641862  0.87923214  1.0
  C  C51  1  0.11630513  0.35357923  0.12076931  1.0
  C  C52  1  0.61629885  0.14641876  0.12076886  1.0
  C  C53  1  0.38370184  0.85358259  0.87923190  1.0
  C  C54  1  0.38368939  0.85360632  0.62079253  1.0
  C  C55  1  0.61631279  0.14639894  0.37920581  1.0
  C  C56  1  0.13619785  0.38889427  0.41538182  1.0
  C  C57  1  0.86380135  0.61110592  0.58461755  1.0
  C  C58  1  0.86377511  0.61112631  0.91540705  1.0
  C  C59  1  0.13620321  0.38887310  0.08459267  1.0
  C  C60  1  0.63619452  0.11112210  0.08459487  1.0
  C  C61  1  0.36381958  0.88887692  0.91540935  1.0
  C  C62  1  0.36379065  0.88889828  0.58461743  1.0
  C  C63  1  0.63622346  0.11110347  0.41537744  1.0
  C  C64  1  0.98581856  0.42583070  0.42358686  1.0
  C  C65  1  0.01418362  0.57416988  0.57641252  1.0
  C  C66  1  0.01412589  0.57417857  0.92359843  1.0
  C  C67  1  0.98585541  0.42582084  0.07640267  1.0
  C  C68  1  0.48584676  0.07417394  0.07640766  1.0
  C  C69  1  0.51417033  0.92582351  0.92359828  1.0
  C  C70  1  0.51417736  0.92583160  0.57641133  1.0
  C  C71  1  0.48583973  0.07416663  0.42358596  1.0
  C  C72  1  0.81747599  0.42599320  0.39495108  1.0
  C  C73  1  0.18252767  0.57400894  0.60504622  1.0
  C  C74  1  0.18245043  0.57401097  0.89495114  1.0
  C  C75  1  0.81752491  0.42598999  0.10504927  1.0
  C  C76  1  0.31752223  0.07400714  0.10505496  1.0
  C  C77  1  0.68249039  0.92599071  0.89494822  1.0
  C  C78  1  0.68251693  0.92599062  0.60504814  1.0
  C  C79  1  0.31748972  0.07400879  0.39495400  1.0
  C  C80  1  0.79859626  0.39045934  0.35863667  1.0
  C  C81  1  0.20141040  0.60954397  0.64135923  1.0
  C  C82  1  0.20132713  0.60954910  0.85863950  1.0
  C  C83  1  0.79864522  0.39045108  0.14136091  1.0
  C  C84  1  0.29864792  0.10954885  0.14136326  1.0
  C  C85  1  0.70135277  0.89045017  0.85863611  1.0
  C  C86  1  0.70139130  0.89045752  0.64136381  1.0
  C  C87  1  0.29861088  0.10954306  0.35863937  1.0
  C  C88  1  0.94812184  0.35327282  0.35005623  1.0
  C  C89  1  0.05188630  0.64673127  0.64994280  1.0
  C  C90  1  0.05181224  0.64674108  0.85006711  1.0
  C  C91  1  0.94815565  0.35325988  0.14993364  1.0
  C  C92  1  0.44816063  0.14674049  0.14993370  1.0
  C  C93  1  0.55184304  0.85326087  0.85006532  1.0
  C  C94  1  0.55186043  0.85327408  0.64994551  1.0
  C  C95  1  0.44813727  0.14673040  0.35005733  1.0
  C  C96  1  0.84488105  0.46468843  0.49535136  1.0
  C  C97  1  0.15511367  0.53531098  0.50464801  1.0
  C  C98  1  0.15513676  0.53529942  0.99533501  1.0
  C  C99  1  0.84485349  0.46470038  0.00466540  1.0
  C  C100  1  0.34487843  0.03529897  0.00466611  1.0
  C  C101  1  0.65515506  0.96469497  0.99534192  1.0
  C  C102  1  0.65513495  0.96468897  0.50464939  1.0
  C  C103  1  0.34490748  0.03531004  0.49534617  1.0
  C  C104  1  0.84780772  0.49950045  0.53235245  1.0
  C  C105  1  0.15218701  0.50049857  0.46764589  1.0
  C  C106  1  0.15225669  0.50047541  0.03232929  1.0
  C  C107  1  0.84773058  0.49952438  0.96767147  1.0
  C  C108  1  0.34777247  0.00047905  0.96766720  1.0
  C  C109  1  0.65225058  0.99951333  0.03233736  1.0
  C  C110  1  0.65221221  0.99949668  0.46764531  1.0
  C  C111  1  0.34780935  0.00049531  0.53234610  1.0
  C  C112  1  0.00239126  0.53602912  0.53790181  1.0
  C  C113  1  0.99760495  0.46397185  0.46209756  1.0
  C  C114  1  0.99764666  0.46396313  0.03789492  1.0
  C  C115  1  0.00234359  0.53603744  0.96210584  1.0
  C  C116  1  0.50238280  0.96396391  0.96210686  1.0
  C  C117  1  0.49764771  0.03603081  0.03790013  1.0
  C  C118  1  0.49763581  0.03602586  0.46209549  1.0
  C  C119  1  0.50239917  0.96397159  0.53790145  1.0
  Br  Br120  1  0.56725341  0.39914767  0.32101229  1.0
  Br  Br121  1  0.43276517  0.60085837  0.67898154  1.0
  Br  Br122  1  0.43267466  0.60085568  0.82100232  1.0
  Br  Br123  1  0.56729769  0.39914529  0.17899670  1.0
  Br  Br124  1  0.06728599  0.10086143  0.17899660  1.0
  Br  Br125  1  0.93270873  0.89914148  0.82100069  1.0
  Br  Br126  1  0.93273065  0.89914456  0.67898822  1.0
  Br  Br127  1  0.06727451  0.10085406  0.32101288  1.0
  Br  Br128  1  0.64277586  0.49270780  0.57763201  1.0
  Br  Br129  1  0.35722631  0.50728927  0.42236840  1.0
  Br  Br130  1  0.35744782  0.50722907  0.07756908  1.0
  Br  Br131  1  0.64254094  0.49277072  0.92243237  1.0
  Br  Br132  1  0.14262866  0.00724018  0.92241912  1.0
  Br  Br133  1  0.85738842  0.99275025  0.07759098  1.0
  Br  Br134  1  0.85721017  0.99268324  0.42235914  1.0
  Br  Br135  1  0.14270255  0.00727870  0.57761012  1.0
  O  O136  1  0.38547874  0.79935446  0.79688344  1.0
  O  O137  1  0.61452493  0.20065236  0.20311627  1.0
  O  O138  1  0.61449003  0.20063795  0.29686036  1.0
  O  O139  1  0.38550916  0.79936653  0.70313901  1.0
  O  O140  1  0.88552058  0.70064003  0.70313529  1.0
  O  O141  1  0.11447563  0.29936288  0.29686442  1.0
  O  O142  1  0.11451053  0.29935505  0.20311791  1.0
  O  O143  1  0.88546034  0.70064708  0.79687973  1.0
  O  O144  1  0.72365104  0.79790369  0.70249291  1.0
  O  O145  1  0.27634666  0.20209650  0.29750992  1.0
  O  O146  1  0.27637721  0.20209022  0.20249568  1.0
  O  O147  1  0.72362347  0.79790957  0.79750300  1.0
  O  O148  1  0.22360732  0.70209039  0.79750776  1.0
  O  O149  1  0.77636056  0.29791252  0.20249854  1.0
  O  O150  1  0.77632703  0.29790202  0.29750655  1.0
  O  O151  1  0.22366173  0.70209700  0.70249247  1.0
  O  O152  1  0.55340043  0.71898739  0.75000343  1.0
  O  O153  1  0.44659430  0.28101475  0.24999768  1.0
  O  O154  1  0.05339158  0.78101333  0.75000431  1.0
  O  O155  1  0.94659122  0.21898842  0.24999576  1.0
