# generated using pymatgen
data_Zn4H31C42SN9O19
_symmetry_space_group_name_H-M   'P 1'
_cell_length_a   9.65667178
_cell_length_b   11.04773752
_cell_length_c   22.12545283
_cell_angle_alpha   92.33725048
_cell_angle_beta   90.91875049
_cell_angle_gamma   91.08827989
_symmetry_Int_Tables_number   1
_chemical_formula_structural   Zn4H31C42SN9O19
_chemical_formula_sum   'Zn4 H31 C42 S1 N9 O19'
_cell_volume   2357.71718828
_cell_formula_units_Z   1
loop_
 _symmetry_equiv_pos_site_id
 _symmetry_equiv_pos_as_xyz
  1  'x, y, z'
loop_
 _atom_site_type_symbol
 _atom_site_label
 _atom_site_symmetry_multiplicity
 _atom_site_fract_x
 _atom_site_fract_y
 _atom_site_fract_z
 _atom_site_occupancy
  Zn  Zn0  1  0.64143535  0.49217097  0.49921737  1.0
  Zn  Zn1  1  0.35403406  0.48422270  0.50450061  1.0
  Zn  Zn2  1  0.35690765  0.49229889  0.99669153  1.0
  Zn  Zn3  1  0.64436433  0.49540656  0.00135935  1.0
  H  H4  1  0.11653240  0.31894282  0.45582728  1.0
  H  H5  1  0.14673641  0.64955484  0.55234761  1.0
  H  H6  1  0.85412378  0.33450110  0.45302521  1.0
  H  H7  1  0.71932890  0.10170873  0.49926642  1.0
  H  H8  1  0.27499472  0.10585809  0.49269776  1.0
  H  H9  1  0.70892232  0.87542723  0.50062193  1.0
  H  H10  1  0.27779846  0.52367626  0.18791149  1.0
  H  H11  1  0.81324373  0.40955046  0.20033938  1.0
  H  H12  1  0.83007275  0.57012342  0.20373043  1.0
  H  H13  1  0.81467153  0.57160469  0.31675417  1.0
  H  H14  1  0.80092087  0.41077741  0.31363127  1.0
  H  H15  1  0.28435522  0.50288096  0.80442972  1.0
  H  H16  1  0.72796103  0.49118377  0.81086384  1.0
  H  H17  1  0.29192746  0.50903161  0.69078568  1.0
  H  H18  1  0.87574691  0.36957292  0.06718490  1.0
  H  H19  1  0.85707964  0.62644611  0.93543236  1.0
  H  H20  1  0.13986441  0.37346568  0.06166000  1.0
  H  H21  1  0.27189617  0.09847479  0.99706453  1.0
  H  H22  1  0.71561665  0.12374004  0.99805322  1.0
  H  H23  1  0.28594255  0.87156045  0.99600077  1.0
  H  H24  1  0.76816289  0.70031531  0.54727131  1.0
  H  H25  1  0.93184902  0.75281597  0.57523985  1.0
  H  H26  1  0.23632545  0.78102357  0.47175536  1.0
  H  H27  1  0.15674225  0.91909416  0.46962630  1.0
  H  H28  1  0.76396793  0.47490183  0.64784574  1.0
  H  H29  1  0.84799586  0.46775485  0.71809150  1.0
  H  H30  1  0.23821423  0.67981863  0.93792341  1.0
  H  H31  1  0.07855795  0.72048795  0.90631986  1.0
  H  H32  1  0.76121666  0.80119861  0.01150038  1.0
  H  H33  1  0.84187003  0.94348485  0.01226056  1.0
  H  H34  1  0.25638831  0.41429000  0.37275507  1.0
  C  C35  1  0.49827657  0.25248620  0.49779201  1.0
  C  C36  1  0.48895219  0.49206221  0.38211971  1.0
  C  C37  1  0.49030363  0.72763436  0.49882336  1.0
  C  C38  1  0.50673740  0.49973515  0.61972659  1.0
  C  C39  1  0.49023770  0.25858646  0.99829858  1.0
  C  C40  1  0.50401588  0.50495490  0.11682247  1.0
  C  C41  1  0.50740424  0.73518910  0.99743468  1.0
  C  C42  1  0.50579861  0.49372158  0.88122931  1.0
  C  C43  1  0.93389461  0.59000399  0.52876204  1.0
  C  C44  1  0.06315834  0.39528683  0.47656825  1.0
  C  C45  1  0.08038816  0.57914141  0.53041368  1.0
  C  C46  1  0.92071063  0.40459060  0.47489013  1.0
  C  C47  1  0.48740879  0.86158432  0.49656467  1.0
  C  C48  1  0.49639613  0.11656100  0.49649537  1.0
  C  C49  1  0.36166068  0.92634196  0.49176773  1.0
  C  C50  1  0.62064899  0.05231091  0.49812830  1.0
  C  C51  1  0.36995812  0.05403077  0.49370494  1.0
  C  C52  1  0.61405537  0.92708647  0.49903557  1.0
  C  C53  1  0.49970558  0.50838401  0.18435926  1.0
  C  C54  1  0.48441900  0.50455836  0.31518594  1.0
  C  C55  1  0.61721705  0.50214180  0.22107251  1.0
  C  C56  1  0.36410749  0.51409081  0.27741404  1.0
  C  C57  1  0.60898444  0.50163832  0.28421520  1.0
  C  C58  1  0.37267092  0.51635289  0.21460956  1.0
  C  C59  1  0.77335319  0.49293517  0.22170846  1.0
  C  C60  1  0.76465244  0.49320057  0.29284510  1.0
  C  C61  1  0.51249796  0.50097640  0.68669182  1.0
  C  C62  1  0.50698067  0.49668367  0.81355135  1.0
  C  C63  1  0.63932108  0.49534032  0.72029851  1.0
  C  C64  1  0.38182553  0.50174801  0.78038137  1.0
  C  C65  1  0.63263188  0.49440755  0.78388890  1.0
  C  C66  1  0.38662978  0.50483050  0.71797850  1.0
  C  C67  1  0.06873005  0.58058020  0.96336954  1.0
  C  C68  1  0.93247712  0.42708191  0.03699385  1.0
  C  C69  1  0.92174976  0.57190892  0.96426970  1.0
  C  C70  1  0.07548602  0.43096183  0.03439159  1.0
  C  C71  1  0.50762726  0.86925628  0.99686147  1.0
  C  C72  1  0.49420449  0.12300894  0.99752820  1.0
  C  C73  1  0.63251076  0.94015109  0.99836081  1.0
  C  C74  1  0.37097116  0.05314441  0.99680882  1.0
  C  C75  1  0.62192826  0.06701952  0.99784519  1.0
  C  C76  1  0.37960979  0.92815030  0.99601698  1.0
  S  S77  1  0.19210407  0.52862052  0.30621423  1.0
  N  N78  1  0.85585584  0.50009290  0.50061653  1.0
  N  N79  1  0.14124463  0.48445187  0.50458606  1.0
  N  N80  1  0.14328245  0.50560279  0.99784088  1.0
  N  N81  1  0.85769120  0.49757953  0.00061770  1.0
  N  N82  1  0.87247885  0.68650048  0.55460748  1.0
  N  N83  1  0.23349074  0.86919045  0.48718658  1.0
  N  N84  1  0.76622500  0.49475500  0.69321403  1.0
  N  N85  1  0.13491866  0.66034179  0.92904025  1.0
  N  N86  1  0.76127247  0.88867751  0.99842265  1.0
  O  O87  1  0.61230588  0.30691656  0.48676140  1.0
  O  O88  1  0.38455514  0.30414913  0.51021466  1.0
  O  O89  1  0.38171149  0.45169862  0.40949497  1.0
  O  O90  1  0.60286206  0.51868080  0.40898021  1.0
  O  O91  1  0.37889434  0.66586191  0.48706732  1.0
  O  O92  1  0.60509590  0.67837330  0.51269362  1.0
  O  O93  1  0.61836107  0.47732956  0.59054360  1.0
  O  O94  1  0.39051904  0.51975501  0.59395466  1.0
  O  O95  1  0.37306528  0.30836429  0.00496083  1.0
  O  O96  1  0.60573655  0.31427190  0.99222716  1.0
  O  O97  1  0.62183507  0.48743944  0.09328720  1.0
  O  O98  1  0.39018420  0.51907016  0.08821811  1.0
  O  O99  1  0.62023274  0.68223464  0.01046694  1.0
  O  O100  1  0.39313769  0.67784988  0.98527906  1.0
  O  O101  1  0.38974409  0.47185921  0.90558843  1.0
  O  O102  1  0.62066635  0.51352573  0.90950925  1.0
  O  O103  1  0.17392787  0.40799583  0.34164174  1.0
  O  O104  1  0.09444043  0.52091939  0.25632522  1.0
  O  O105  1  0.19058352  0.63198094  0.34842712  1.0
