# generated using pymatgen
data_CoH16C24(NO2)2
_symmetry_space_group_name_H-M   'P 1'
_cell_length_a   12.66635594
_cell_length_b   22.69362219
_cell_length_c   22.69363728
_cell_angle_alpha   89.99980275
_cell_angle_beta   89.99995262
_cell_angle_gamma   89.99999200
_symmetry_Int_Tables_number   1
_chemical_formula_structural   CoH16C24(NO2)2
_chemical_formula_sum   'Co8 H128 C192 N16 O32'
_cell_volume   6523.18382909
_cell_formula_units_Z   8
loop_
 _symmetry_equiv_pos_site_id
 _symmetry_equiv_pos_as_xyz
  1  'x, y, z'
loop_
 _atom_site_type_symbol
 _atom_site_label
 _atom_site_symmetry_multiplicity
 _atom_site_fract_x
 _atom_site_fract_y
 _atom_site_fract_z
 _atom_site_occupancy
  Co  Co0  1  0.74582324  0.25810469  0.74118511  1.0
  Co  Co1  1  0.74582433  0.74189475  0.25881471  1.0
  Co  Co2  1  0.74582317  0.75881451  0.75810485  1.0
  Co  Co3  1  0.74582203  0.24118538  0.24189497  1.0
  Co  Co4  1  0.25417708  0.24189485  0.24118563  1.0
  Co  Co5  1  0.25417663  0.75810507  0.75881397  1.0
  Co  Co6  1  0.25417700  0.74118532  0.25810537  1.0
  Co  Co7  1  0.25417749  0.25881460  0.74189467  1.0
  H  H8  1  0.22691314  0.65109981  0.68348997  1.0
  H  H9  1  0.22691266  0.34890012  0.31651053  1.0
  H  H10  1  0.22691193  0.81651020  0.15109993  1.0
  H  H11  1  0.22691386  0.18348929  0.84890013  1.0
  H  H12  1  0.77308793  0.84889984  0.18348944  1.0
  H  H13  1  0.77308676  0.15109961  0.81651081  1.0
  H  H14  1  0.77308761  0.68349000  0.65110009  1.0
  H  H15  1  0.77308630  0.31651076  0.34889928  1.0
  H  H16  1  0.32711799  0.55929519  0.66239961  1.0
  H  H17  1  0.32711588  0.44070561  0.33759952  1.0
  H  H18  1  0.32711603  0.83759954  0.05929440  1.0
  H  H19  1  0.32711862  0.16239950  0.94070517  1.0
  H  H20  1  0.67288311  0.94070585  0.16240057  1.0
  H  H21  1  0.67288272  0.05929361  0.83759928  1.0
  H  H22  1  0.67288443  0.66240010  0.55929468  1.0
  H  H23  1  0.67288219  0.33759935  0.44070517  1.0
  H  H24  1  0.57204233  0.62498789  0.77849277  1.0
  H  H25  1  0.57204277  0.37501113  0.22150801  1.0
  H  H26  1  0.57204280  0.72150865  0.12498873  1.0
  H  H27  1  0.57204230  0.27849302  0.87501249  1.0
  H  H28  1  0.42795703  0.87501143  0.27849187  1.0
  H  H29  1  0.42795600  0.12498848  0.72150853  1.0
  H  H30  1  0.42795915  0.77849296  0.62498740  1.0
  H  H31  1  0.42795861  0.22150607  0.37501301  1.0
  H  H32  1  0.46439651  0.71419135  0.79263846  1.0
  H  H33  1  0.46439620  0.28580768  0.20736237  1.0
  H  H34  1  0.46439694  0.70736223  0.21419263  1.0
  H  H35  1  0.46439577  0.29263944  0.78580908  1.0
  H  H36  1  0.53560361  0.78580704  0.29263782  1.0
  H  H37  1  0.53560180  0.21419242  0.70736254  1.0
  H  H38  1  0.53560409  0.79263819  0.71419209  1.0
  H  H39  1  0.53560290  0.20736083  0.28580827  1.0
  H  H40  1  0.37861345  0.47334367  0.69646039  1.0
  H  H41  1  0.37861294  0.52665712  0.30354003  1.0
  H  H42  1  0.37861241  0.80353993  0.97334272  1.0
  H  H43  1  0.37861398  0.19646042  0.02665639  1.0
  H  H44  1  0.62138773  0.02665691  0.19646016  1.0
  H  H45  1  0.62138637  0.97334299  0.80353927  1.0
  H  H46  1  0.62138744  0.69646048  0.47334367  1.0
  H  H47  1  0.62138666  0.30353942  0.52665665  1.0
  H  H48  1  0.47628007  0.37848133  0.69670774  1.0
  H  H49  1  0.47627954  0.62151858  0.30329220  1.0
  H  H50  1  0.47627909  0.80329245  0.87848131  1.0
  H  H51  1  0.47627894  0.19670834  0.12151908  1.0
  H  H52  1  0.52372032  0.12151880  0.19670723  1.0
  H  H53  1  0.52371898  0.87848066  0.80329181  1.0
  H  H54  1  0.52371932  0.69670785  0.37848142  1.0
  H  H55  1  0.52371919  0.30329205  0.62151850  1.0
  H  H56  1  0.76684348  0.47132674  0.72700147  1.0
  H  H57  1  0.76684223  0.52867315  0.27299834  1.0
  H  H58  1  0.76684168  0.77299830  0.97132626  1.0
  H  H59  1  0.76684324  0.22700203  0.02867443  1.0
  H  H60  1  0.23315765  0.02867285  0.22700141  1.0
  H  H61  1  0.23315713  0.97132619  0.77299776  1.0
  H  H62  1  0.23315817  0.72700168  0.47132728  1.0
  H  H63  1  0.23315740  0.27299869  0.52867321  1.0
  H  H64  1  0.67015109  0.56658742  0.72921208  1.0
  H  H65  1  0.67014908  0.43341203  0.27078822  1.0
  H  H66  1  0.67014919  0.77078823  0.06658723  1.0
  H  H67  1  0.67015098  0.22921211  0.93341263  1.0
  H  H68  1  0.32985070  0.93341162  0.22921190  1.0
  H  H69  1  0.32984962  0.06658741  0.77078766  1.0
  H  H70  1  0.32985127  0.72921226  0.56658832  1.0
  H  H71  1  0.32985063  0.27078810  0.43341213  1.0
  H  H72  1  0.32270438  0.25828822  0.11564732  1.0
  H  H73  1  0.32270533  0.74171214  0.88435226  1.0
  H  H74  1  0.32270467  0.38435337  0.75828802  1.0
  H  H75  1  0.32270503  0.61564699  0.24171155  1.0
  H  H76  1  0.67729534  0.24171176  0.61564644  1.0
  H  H77  1  0.67729624  0.75828813  0.38435385  1.0
  H  H78  1  0.67729483  0.11564656  0.25828790  1.0
  H  H79  1  0.67729438  0.88435289  0.74171195  1.0
  H  H80  1  0.23423938  0.26909407  0.01850159  1.0
  H  H81  1  0.23424019  0.73090674  0.98149803  1.0
  H  H82  1  0.23423959  0.48149871  0.76909355  1.0
  H  H83  1  0.23423919  0.51850166  0.23090607  1.0
  H  H84  1  0.76576127  0.23090624  0.51850115  1.0
  H  H85  1  0.76576281  0.76909408  0.48149866  1.0
  H  H86  1  0.76576069  0.01850118  0.26909372  1.0
  H  H87  1  0.76576023  0.98149870  0.73090653  1.0
  H  H88  1  0.93592495  0.27356253  0.11210122  1.0
  H  H89  1  0.93592589  0.72643734  0.88789895  1.0
  H  H90  1  0.93592523  0.38789969  0.77356264  1.0
  H  H91  1  0.93592482  0.61210062  0.22643753  1.0
  H  H92  1  0.06407556  0.22643745  0.61210068  1.0
  H  H93  1  0.06407645  0.77356293  0.38789901  1.0
  H  H94  1  0.06407425  0.11210063  0.27356281  1.0
  H  H95  1  0.06407382  0.88789931  0.72643732  1.0
  H  H96  1  0.03679493  0.26755984  0.20476750  1.0
  H  H97  1  0.03679522  0.73244054  0.79523220  1.0
  H  H98  1  0.03679530  0.29523273  0.76755956  1.0
  H  H99  1  0.03679564  0.70476721  0.23244058  1.0
  H  H100  1  0.96320466  0.23244027  0.70476697  1.0
  H  H101  1  0.96320489  0.76755960  0.29523275  1.0
  H  H102  1  0.96320419  0.20476761  0.26755988  1.0
  H  H103  1  0.96320457  0.79523270  0.73244027  1.0
  H  H104  1  0.12916743  0.22080533  0.95219160  1.0
  H  H105  1  0.12916725  0.77919417  0.04780851  1.0
  H  H106  1  0.12916599  0.54780906  0.72080547  1.0
  H  H107  1  0.12916633  0.45219088  0.27919463  1.0
  H  H108  1  0.87083099  0.27919261  0.45219038  1.0
  H  H109  1  0.87083324  0.72080595  0.54780894  1.0
  H  H110  1  0.87083345  0.95219134  0.22080587  1.0
  H  H111  1  0.87083157  0.04780897  0.77919433  1.0
  H  H112  1  0.02490389  0.22168680  0.85913999  1.0
  H  H113  1  0.02490278  0.77831315  0.14085928  1.0
  H  H114  1  0.02490315  0.64086075  0.72168664  1.0
  H  H115  1  0.02490431  0.35913919  0.27831307  1.0
  H  H116  1  0.97509546  0.27831278  0.35913917  1.0
  H  H117  1  0.97509599  0.72168709  0.64086054  1.0
  H  H118  1  0.97509628  0.85913964  0.22168731  1.0
  H  H119  1  0.97509675  0.14085978  0.77831329  1.0
  H  H120  1  0.78903441  0.32954072  0.94205185  1.0
  H  H121  1  0.78903423  0.67045917  0.05794751  1.0
  H  H122  1  0.78903367  0.55794825  0.82954063  1.0
  H  H123  1  0.78903417  0.44205163  0.17045961  1.0
  H  H124  1  0.21096641  0.17045946  0.44205132  1.0
  H  H125  1  0.21096624  0.82954091  0.55794875  1.0
  H  H126  1  0.21096560  0.94205177  0.32954048  1.0
  H  H127  1  0.21096467  0.05794772  0.67046003  1.0
  H  H128  1  0.89447661  0.33109557  0.03472966  1.0
  H  H129  1  0.89447746  0.66890386  0.96526964  1.0
  H  H130  1  0.89447601  0.46527023  0.83109582  1.0
  H  H131  1  0.89447649  0.53472965  0.16890437  1.0
  H  H132  1  0.10552480  0.16890424  0.53472974  1.0
  H  H133  1  0.10552398  0.83109614  0.46527037  1.0
  H  H134  1  0.10552339  0.03472989  0.33109580  1.0
  H  H135  1  0.10552224  0.96527049  0.66890519  1.0
  C  C136  1  0.30335658  0.64291025  0.70403449  1.0
  C  C137  1  0.30335613  0.35709012  0.29596641  1.0
  C  C138  1  0.30335540  0.79596567  0.14290954  1.0
  C  C139  1  0.30335731  0.20403425  0.85709048  1.0
  C  C140  1  0.69664367  0.85708977  0.20403353  1.0
  C  C141  1  0.69664253  0.14291012  0.79596631  1.0
  C  C142  1  0.69664495  0.70403412  0.64290967  1.0
  C  C143  1  0.69664284  0.29596577  0.35708973  1.0
  C  C144  1  0.35945086  0.59161788  0.69300680  1.0
  C  C145  1  0.35944880  0.40838204  0.30699319  1.0
  C  C146  1  0.35944812  0.80699308  0.09161760  1.0
  C  C147  1  0.35945154  0.19300639  0.90838240  1.0
  C  C148  1  0.64055098  0.90838173  0.19300613  1.0
  C  C149  1  0.64054826  0.09161772  0.80699417  1.0
  C  C150  1  0.64055072  0.69300644  0.59161823  1.0
  C  C151  1  0.64055011  0.30699345  0.40838163  1.0
  C  C152  1  0.45762351  0.58227600  0.72050393  1.0
  C  C153  1  0.45762228  0.41772347  0.27949646  1.0
  C  C154  1  0.45762238  0.77949638  0.08227624  1.0
  C  C155  1  0.45762341  0.22050441  0.91772415  1.0
  C  C156  1  0.54237829  0.91772352  0.22050371  1.0
  C  C157  1  0.54237561  0.08227682  0.77949708  1.0
  C  C158  1  0.54237726  0.72050361  0.58227638  1.0
  C  C159  1  0.54237586  0.27949629  0.41772353  1.0
  C  C160  1  0.49556810  0.62791607  0.75669725  1.0
  C  C161  1  0.49556693  0.37208340  0.24330357  1.0
  C  C162  1  0.49556618  0.74330375  0.12791684  1.0
  C  C163  1  0.49556727  0.25669791  0.87208441  1.0
  C  C164  1  0.50443287  0.87208333  0.25669677  1.0
  C  C165  1  0.50443102  0.12791658  0.74330404  1.0
  C  C166  1  0.50443339  0.75669696  0.62791643  1.0
  C  C167  1  0.50443286  0.24330250  0.37208394  1.0
  C  C168  1  0.43510713  0.67810813  0.76534453  1.0
  C  C169  1  0.43510678  0.32189178  0.23465587  1.0
  C  C170  1  0.43510677  0.73465543  0.17810803  1.0
  C  C171  1  0.43510714  0.26534581  0.82189237  1.0
  C  C172  1  0.56489303  0.82189167  0.26534420  1.0
  C  C173  1  0.56489197  0.17810823  0.73465570  1.0
  C  C174  1  0.56489352  0.76534468  0.67810757  1.0
  C  C175  1  0.56489306  0.23465434  0.32189233  1.0
  C  C176  1  0.51692393  0.52681857  0.71388057  1.0
  C  C177  1  0.51692346  0.47318089  0.28612112  1.0
  C  C178  1  0.51692283  0.78612036  0.02681882  1.0
  C  C179  1  0.51692456  0.21388042  0.97318154  1.0
  C  C180  1  0.48307710  0.97318097  0.21387975  1.0
  C  C181  1  0.48307521  0.02681894  0.78612107  1.0
  C  C182  1  0.48307611  0.71387938  0.52681901  1.0
  C  C183  1  0.48307620  0.28612097  0.47318093  1.0
  C  C184  1  0.46392843  0.47335864  0.70297497  1.0
  C  C185  1  0.46392794  0.52664171  0.29702585  1.0
  C  C186  1  0.46392819  0.79702576  0.97335858  1.0
  C  C187  1  0.46392818  0.20297503  0.02664137  1.0
  C  C188  1  0.53607273  0.02664148  0.20297434  1.0
  C  C189  1  0.53607139  0.97335799  0.79702601  1.0
  C  C190  1  0.53607166  0.70297509  0.47335910  1.0
  C  C191  1  0.53607167  0.29702570  0.52664125  1.0
  C  C192  1  0.51808135  0.42003705  0.70311915  1.0
  C  C193  1  0.51808084  0.57996286  0.29688078  1.0
  C  C194  1  0.51808035  0.79688132  0.92003701  1.0
  C  C195  1  0.51808105  0.20311947  0.07996291  1.0
  C  C196  1  0.48191903  0.07996263  0.20311836  1.0
  C  C197  1  0.48191927  0.92003772  0.79688026  1.0
  C  C198  1  0.48191958  0.70311883  0.42003756  1.0
  C  C199  1  0.48191872  0.29688107  0.57996238  1.0
  C  C200  1  0.62748455  0.41910681  0.71291041  1.0
  C  C201  1  0.62748406  0.58089309  0.28708902  1.0
  C  C202  1  0.62748356  0.78708958  0.91910678  1.0
  C  C203  1  0.62748346  0.21291076  0.08089353  1.0
  C  C204  1  0.37251660  0.08089283  0.21291011  1.0
  C  C205  1  0.37251607  0.91910620  0.78708899  1.0
  C  C206  1  0.37251558  0.71291058  0.41910779  1.0
  C  C207  1  0.37251551  0.28708978  0.58089264  1.0
  C  C208  1  0.68166823  0.47242662  0.72051112  1.0
  C  C209  1  0.68166698  0.52757327  0.27948917  1.0
  C  C210  1  0.68166643  0.77948955  0.97242658  1.0
  C  C211  1  0.68166799  0.22051166  0.02757371  1.0
  C  C212  1  0.31833291  0.02757255  0.22051015  1.0
  C  C213  1  0.31833158  0.97242693  0.77948899  1.0
  C  C214  1  0.31833342  0.72051042  0.47242758  1.0
  C  C215  1  0.31833186  0.27948950  0.52757287  1.0
  C  C216  1  0.62722715  0.52559266  0.72160914  1.0
  C  C217  1  0.62722907  0.47440768  0.27839205  1.0
  C  C218  1  0.62722922  0.77839220  0.02559247  1.0
  C  C219  1  0.62722779  0.22160902  0.97440784  1.0
  C  C220  1  0.37277149  0.97440730  0.22160837  1.0
  C  C221  1  0.37277198  0.02559218  0.77839206  1.0
  C  C222  1  0.37276972  0.72160887  0.52559313  1.0
  C  C223  1  0.37277060  0.27839236  0.47440730  1.0
  C  C224  1  0.68530308  0.36220182  0.71885269  1.0
  C  C225  1  0.68530258  0.63779807  0.28114671  1.0
  C  C226  1  0.68530213  0.78114704  0.86220184  1.0
  C  C227  1  0.68530037  0.21885285  0.13779844  1.0
  C  C228  1  0.31469886  0.13779780  0.21885178  1.0
  C  C229  1  0.31469835  0.86220124  0.78114735  1.0
  C  C230  1  0.31469868  0.71885199  0.36220198  1.0
  C  C231  1  0.31469853  0.28114749  0.63779804  1.0
  C  C232  1  0.23708544  0.26244402  0.11270862  1.0
  C  C233  1  0.23708559  0.73755635  0.88729099  1.0
  C  C234  1  0.23708494  0.38729207  0.76244427  1.0
  C  C235  1  0.23708530  0.61270829  0.23755579  1.0
  C  C236  1  0.76291507  0.23755553  0.61270816  1.0
  C  C237  1  0.76291597  0.76244480  0.38729165  1.0
  C  C238  1  0.76291377  0.11270828  0.26244412  1.0
  C  C239  1  0.76291411  0.88729161  0.73755613  1.0
  C  C240  1  0.18700319  0.26780112  0.05864281  1.0
  C  C241  1  0.18700406  0.73219925  0.94135639  1.0
  C  C242  1  0.18700344  0.44135748  0.76780119  1.0
  C  C243  1  0.18700303  0.55864245  0.23219888  1.0
  C  C244  1  0.81299740  0.23219905  0.55864234  1.0
  C  C245  1  0.81299821  0.76780127  0.44135789  1.0
  C  C246  1  0.81299605  0.05864242  0.26780121  1.0
  C  C247  1  0.81299560  0.94135747  0.73219946  1.0
  C  C248  1  0.07636522  0.27236277  0.05633292  1.0
  C  C249  1  0.07636529  0.72763717  0.94366676  1.0
  C  C250  1  0.07636467  0.44366737  0.77236241  1.0
  C  C251  1  0.07636506  0.55633301  0.22763772  1.0
  C  C252  1  0.92363537  0.22763741  0.55633243  1.0
  C  C253  1  0.92363697  0.77236202  0.44366687  1.0
  C  C254  1  0.92363482  0.05633294  0.27236282  1.0
  C  C255  1  0.92363437  0.94366737  0.72763780  1.0
  C  C256  1  0.02195411  0.27256846  0.11027361  1.0
  C  C257  1  0.02195426  0.72743192  0.88972610  1.0
  C  C258  1  0.02195439  0.38972667  0.77256785  1.0
  C  C259  1  0.02195398  0.61027327  0.22743230  1.0
  C  C260  1  0.97804720  0.22743197  0.61027397  1.0
  C  C261  1  0.97804729  0.77256701  0.38972663  1.0
  C  C262  1  0.97804588  0.11027321  0.27256806  1.0
  C  C263  1  0.97804545  0.88972710  0.72743254  1.0
  C  C264  1  0.07774833  0.26751364  0.16258915  1.0
  C  C265  1  0.07774856  0.73248673  0.83741098  1.0
  C  C266  1  0.07774788  0.33741154  0.76751321  1.0
  C  C267  1  0.07774744  0.66258884  0.23248691  1.0
  C  C268  1  0.92225210  0.23248661  0.66258819  1.0
  C  C269  1  0.92225386  0.76751370  0.33741110  1.0
  C  C270  1  0.92225162  0.16258880  0.26751326  1.0
  C  C271  1  0.92225198  0.83741152  0.73248648  1.0
  C  C272  1  0.01851516  0.27536283  0.00016785  1.0
  C  C273  1  0.01851515  0.72463623  0.99983142  1.0
  C  C274  1  0.01851455  0.49983249  0.77536360  1.0
  C  C275  1  0.01851417  0.50016789  0.22463655  1.0
  C  C276  1  0.98148552  0.22463622  0.50016734  1.0
  C  C277  1  0.98148782  0.77536276  0.49983193  1.0
  C  C278  1  0.98148571  0.00016782  0.27536374  1.0
  C  C279  1  0.98148368  0.99983249  0.72463685  1.0
  C  C280  1  0.05541378  0.24552153  0.94985523  1.0
  C  C281  1  0.05541439  0.75447797  0.05014446  1.0
  C  C282  1  0.05541311  0.55014535  0.74552210  1.0
  C  C283  1  0.05541269  0.44985459  0.25447803  1.0
  C  C284  1  0.94458623  0.25447729  0.44985451  1.0
  C  C285  1  0.94458846  0.74552169  0.55014521  1.0
  C  C286  1  0.94458629  0.94985496  0.24552203  1.0
  C  C287  1  0.94458524  0.05014447  0.75447813  1.0
  C  C288  1  0.99692455  0.24529377  0.89799775  1.0
  C  C289  1  0.99692271  0.75470522  0.10200063  1.0
  C  C290  1  0.99692383  0.60200218  0.74529398  1.0
  C  C291  1  0.99692422  0.39799813  0.25470616  1.0
  C  C292  1  0.00307554  0.25470568  0.39799790  1.0
  C  C293  1  0.00307691  0.74529338  0.60200138  1.0
  C  C294  1  0.00307636  0.89799858  0.24529408  1.0
  C  C295  1  0.00307608  0.10200269  0.75470608  1.0
  C  C296  1  0.89962269  0.27476152  0.89553227  1.0
  C  C297  1  0.89962243  0.72523791  0.10446791  1.0
  C  C298  1  0.89962195  0.60446802  0.77476173  1.0
  C  C299  1  0.89962238  0.39553185  0.22523846  1.0
  C  C300  1  0.10037740  0.22523793  0.39553160  1.0
  C  C301  1  0.10037876  0.77476113  0.60446763  1.0
  C  C302  1  0.10037741  0.89553219  0.27476135  1.0
  C  C303  1  0.10037639  0.10446819  0.72523832  1.0
  C  C304  1  0.86403546  0.30617379  0.94487249  1.0
  C  C305  1  0.86403449  0.69382565  0.05512683  1.0
  C  C306  1  0.86403474  0.55512768  0.80617371  1.0
  C  C307  1  0.86403521  0.44487264  0.19382605  1.0
  C  C308  1  0.13596535  0.19382593  0.44487235  1.0
  C  C309  1  0.13596519  0.80617356  0.55512731  1.0
  C  C310  1  0.13596457  0.94487243  0.30617403  1.0
  C  C311  1  0.13596439  0.05512795  0.69382739  1.0
  C  C312  1  0.92279107  0.30659100  0.99652263  1.0
  C  C313  1  0.92279255  0.69340843  0.00347710  1.0
  C  C314  1  0.92279040  0.50347748  0.80659153  1.0
  C  C315  1  0.92279085  0.49652239  0.19340865  1.0
  C  C316  1  0.07720966  0.19340855  0.49652252  1.0
  C  C317  1  0.07721037  0.80659139  0.50347716  1.0
  C  C318  1  0.07720891  0.99652263  0.30659169  1.0
  C  C319  1  0.07720796  0.00347731  0.69340931  1.0
  C  C320  1  0.83198607  0.27149682  0.84203316  1.0
  C  C321  1  0.83198494  0.72850350  0.15796662  1.0
  C  C322  1  0.83198607  0.65796720  0.77149642  1.0
  C  C323  1  0.83198572  0.34203268  0.22850336  1.0
  C  C324  1  0.16801331  0.22850369  0.34203288  1.0
  C  C325  1  0.16801301  0.77149624  0.65796676  1.0
  C  C326  1  0.16801487  0.84203302  0.27149708  1.0
  C  C327  1  0.16801382  0.15796691  0.72850345  1.0
  N  N328  1  0.33915295  0.68556269  0.74034679  1.0
  N  N329  1  0.33915177  0.31443722  0.25965410  1.0
  N  N330  1  0.33915098  0.75965319  0.18556252  1.0
  N  N331  1  0.33915295  0.24034717  0.81443792  1.0
  N  N332  1  0.66084883  0.81443676  0.24034643  1.0
  N  N333  1  0.66084694  0.18556270  0.75965387  1.0
  N  N334  1  0.66084851  0.74034689  0.68556254  1.0
  N  N335  1  0.66084805  0.25965344  0.31443732  1.0
  N  N336  1  0.18379620  0.26166750  0.16420765  1.0
  N  N337  1  0.18379643  0.73833243  0.83579199  1.0
  N  N338  1  0.18379653  0.33579303  0.76166750  1.0
  N  N339  1  0.18379609  0.66420734  0.23833258  1.0
  N  N340  1  0.81620424  0.23833231  0.66420716  1.0
  N  N341  1  0.81620521  0.76166757  0.33579306  1.0
  N  N342  1  0.81620376  0.16420733  0.26166759  1.0
  N  N343  1  0.81620253  0.83579299  0.73833264  1.0
  O  O344  1  0.62977961  0.31406231  0.72007692  1.0
  O  O345  1  0.62977910  0.68593803  0.27992295  1.0
  O  O346  1  0.62977791  0.77992343  0.81406237  1.0
  O  O347  1  0.62977607  0.22007691  0.18593794  1.0
  O  O348  1  0.37022232  0.18593731  0.22007670  1.0
  O  O349  1  0.37022340  0.81406216  0.77992285  1.0
  O  O350  1  0.37022297  0.72007709  0.31406292  1.0
  O  O351  1  0.37022275  0.27992327  0.68593751  1.0
  O  O352  1  0.78424313  0.36043303  0.72490723  1.0
  O  O353  1  0.78424185  0.63956774  0.27509213  1.0
  O  O354  1  0.78424140  0.77509291  0.86043217  1.0
  O  O355  1  0.78424200  0.22490697  0.13956807  1.0
  O  O356  1  0.21575721  0.13956745  0.22490636  1.0
  O  O357  1  0.21575751  0.86043159  0.77509370  1.0
  O  O358  1  0.21575783  0.72490613  0.36043277  1.0
  O  O359  1  0.21575689  0.27509336  0.63956773  1.0
  O  O360  1  0.73720663  0.28877569  0.84296204  1.0
  O  O361  1  0.73720551  0.71122508  0.15703822  1.0
  O  O362  1  0.73720663  0.65703828  0.78877486  1.0
  O  O363  1  0.73720631  0.34296161  0.21122497  1.0
  O  O364  1  0.26279353  0.21122438  0.34296179  1.0
  O  O365  1  0.26279323  0.78877554  0.65703869  1.0
  O  O366  1  0.26279350  0.84296188  0.28877503  1.0
  O  O367  1  0.26279327  0.15703804  0.71122413  1.0
  O  O368  1  0.87240183  0.24945283  0.79445069  1.0
  O  O369  1  0.87240221  0.75054705  0.20554863  1.0
  O  O370  1  0.87240260  0.70554933  0.74945271  1.0
  O  O371  1  0.87240223  0.29445010  0.25054705  1.0
  O  O372  1  0.12759841  0.25054742  0.29445080  1.0
  O  O373  1  0.12759804  0.74945208  0.70554887  1.0
  O  O374  1  0.12759837  0.79445053  0.24945311  1.0
  O  O375  1  0.12759807  0.20554941  0.75054700  1.0
