# generated using pymatgen
data_ZnH17C17N4O7
_symmetry_space_group_name_H-M   'P 1'
_cell_length_a   9.56046437
_cell_length_b   10.87051505
_cell_length_c   18.97559025
_cell_angle_alpha   90.40183579
_cell_angle_beta   90.47506587
_cell_angle_gamma   90.76019649
_symmetry_Int_Tables_number   1
_chemical_formula_structural   ZnH17C17N4O7
_chemical_formula_sum   'Zn2 H34 C34 N8 O14'
_cell_volume   1971.78802820
_cell_formula_units_Z   2
loop_
 _symmetry_equiv_pos_site_id
 _symmetry_equiv_pos_as_xyz
  1  'x, y, z'
loop_
 _atom_site_type_symbol
 _atom_site_label
 _atom_site_symmetry_multiplicity
 _atom_site_fract_x
 _atom_site_fract_y
 _atom_site_fract_z
 _atom_site_occupancy
  Zn  Zn0  1  0.64631156  0.49518456  0.50079722  1.0
  Zn  Zn1  1  0.35006847  0.49094953  0.49999394  1.0
  H  H2  1  0.72377263  0.54098037  0.28027046  1.0
  H  H3  1  0.27523227  0.54185139  0.27736811  1.0
  H  H4  1  0.72652885  0.60005528  0.15257691  1.0
  H  H5  1  0.27652035  0.59962671  0.14955377  1.0
  H  H6  1  0.72353924  0.59137500  0.85145137  1.0
  H  H7  1  0.27313256  0.59510045  0.84967744  1.0
  H  H8  1  0.72106621  0.53541246  0.72313442  1.0
  H  H9  1  0.27227913  0.53651354  0.72162546  1.0
  H  H10  1  0.70608762  0.87464360  0.55504375  1.0
  H  H11  1  0.28145355  0.89588911  0.47955530  1.0
  H  H12  1  0.56278069  0.90552124  0.61186463  1.0
  H  H13  1  0.31864143  0.87115633  0.56944114  1.0
  H  H14  1  0.71821732  0.08184610  0.51622477  1.0
  H  H15  1  0.27519777  0.10531702  0.50695863  1.0
  H  H16  1  0.59279440  0.12522602  0.40934946  1.0
  H  H17  1  0.41277350  0.08668575  0.40662932  1.0
  H  H18  1  0.12354906  0.57750596  0.40055368  1.0
  H  H19  1  0.87461976  0.57409302  0.39956082  1.0
  H  H20  1  0.12430836  0.67934762  0.47356527  1.0
  H  H21  1  0.87486488  0.67923455  0.47084597  1.0
  H  H22  1  0.11875240  0.35784087  0.41988510  1.0
  H  H23  1  0.87018072  0.35796139  0.41982281  1.0
  H  H24  1  0.12237584  0.44075274  0.60564702  1.0
  H  H25  1  0.87486024  0.44048183  0.60515769  1.0
  H  H26  1  0.12486331  0.60114652  0.59102500  1.0
  H  H27  1  0.87670239  0.60104499  0.59103424  1.0
  H  H28  1  0.11843511  0.30068349  0.50702565  1.0
  H  H29  1  0.87142569  0.30089562  0.50734441  1.0
  H  H30  1  0.80997918  0.06559854  0.41417521  1.0
  H  H31  1  0.72866929  0.01992370  0.33248195  1.0
  H  H32  1  0.86854715  0.93232391  0.36820699  1.0
  H  H33  1  0.58795607  0.85592085  0.29284287  1.0
  H  H34  1  0.47984627  0.99039375  0.29586994  1.0
  H  H35  1  0.40418763  0.84190983  0.27755436  1.0
  C  C36  1  0.50328692  0.73275139  0.50030908  1.0
  C  C37  1  0.49651037  0.50554423  0.36294629  1.0
  C  C38  1  0.49562538  0.25519444  0.50714971  1.0
  C  C39  1  0.49773750  0.50833209  0.63723815  1.0
  C  C40  1  0.62655471  0.55404860  0.25104367  1.0
  C  C41  1  0.37326484  0.55454874  0.24932335  1.0
  C  C42  1  0.62821113  0.58691910  0.18034962  1.0
  C  C43  1  0.37391321  0.58682734  0.17865038  1.0
  C  C44  1  0.50166003  0.60361190  0.14351157  1.0
  C  C45  1  0.49928464  0.53758301  0.28620329  1.0
  C  C46  1  0.50009900  0.63104305  0.93283819  1.0
  C  C47  1  0.50206024  0.63397525  0.06841714  1.0
  C  C48  1  0.62525111  0.57963406  0.82260519  1.0
  C  C49  1  0.37069936  0.58136426  0.82163442  1.0
  C  C50  1  0.62388050  0.54860780  0.75155484  1.0
  C  C51  1  0.37027202  0.54932444  0.75060059  1.0
  C  C52  1  0.49670685  0.53428085  0.71483037  1.0
  C  C53  1  0.49845376  0.59781681  0.85805021  1.0
  C  C54  1  0.60651744  0.92256781  0.55937127  1.0
  C  C55  1  0.35501500  0.91920858  0.52235562  1.0
  C  C56  1  0.62776535  0.06169612  0.54923165  1.0
  C  C57  1  0.35718775  0.05759556  0.53654529  1.0
  C  C58  1  0.54328600  0.92971225  0.43076556  1.0
  C  C59  1  0.50185033  0.87397039  0.50339268  1.0
  C  C60  1  0.49681657  0.11462640  0.51250651  1.0
  C  C61  1  0.51145410  0.06915737  0.43449838  1.0
  C  C62  1  0.07993486  0.59249335  0.45315773  1.0
  C  C63  1  0.91808545  0.59192849  0.45241374  1.0
  C  C64  1  0.07623246  0.37231007  0.47281655  1.0
  C  C65  1  0.91447648  0.37227769  0.47287984  1.0
  C  C66  1  0.07997145  0.51338223  0.57223989  1.0
  C  C67  1  0.91851531  0.51353593  0.57204818  1.0
  C  C68  1  0.77574960  0.98585375  0.38160707  1.0
  C  C69  1  0.48514389  0.89135063  0.30809228  1.0
  N  N70  1  0.37880159  0.65468393  0.03520350  1.0
  N  N71  1  0.62564067  0.65137492  0.03542700  1.0
  N  N72  1  0.37772226  0.65337041  0.96585101  1.0
  N  N73  1  0.62470775  0.65029308  0.96608331  1.0
  N  N74  1  0.13209370  0.49251977  0.49938802  1.0
  N  N75  1  0.86380468  0.49293644  0.49910481  1.0
  N  N76  1  0.67070011  0.12120940  0.61919869  1.0
  N  N77  1  0.31636526  0.09136764  0.61316275  1.0
  O  O78  1  0.62115335  0.68221307  0.49341061  1.0
  O  O79  1  0.38597110  0.67796975  0.50628284  1.0
  O  O80  1  0.61280215  0.48108649  0.39294218  1.0
  O  O81  1  0.37759605  0.50661217  0.39254826  1.0
  O  O82  1  0.61288309  0.30909539  0.51582478  1.0
  O  O83  1  0.38145080  0.30366269  0.48881343  1.0
  O  O84  1  0.61600189  0.51560594  0.60710373  1.0
  O  O85  1  0.38124328  0.48419298  0.60683086  1.0
  O  O86  1  0.78842639  0.17010168  0.62204247  1.0
  O  O87  1  0.58877004  0.11280671  0.66887729  1.0
  O  O88  1  0.32274796  0.20175795  0.62846859  1.0
  O  O89  1  0.27227288  0.00912105  0.65191684  1.0
  O  O90  1  0.68737208  0.90312799  0.41932723  1.0
  O  O91  1  0.45653545  0.86727232  0.38042016  1.0
