# generated using pymatgen
data_ZnH15C11Br(NO)2
_symmetry_space_group_name_H-M   'P 1'
_cell_length_a   10.47026143
_cell_length_b   17.74466450
_cell_length_c   17.74548663
_cell_angle_alpha   119.99949786
_cell_angle_beta   90.00001628
_cell_angle_gamma   89.99999413
_symmetry_Int_Tables_number   1
_chemical_formula_structural   ZnH15C11Br(NO)2
_chemical_formula_sum   'Zn6 H90 C66 Br6 N12 O12'
_cell_volume   2855.26262585
_cell_formula_units_Z   6
loop_
 _symmetry_equiv_pos_site_id
 _symmetry_equiv_pos_as_xyz
  1  'x, y, z'
loop_
 _atom_site_type_symbol
 _atom_site_label
 _atom_site_symmetry_multiplicity
 _atom_site_fract_x
 _atom_site_fract_y
 _atom_site_fract_z
 _atom_site_occupancy
  Zn  Zn0  1  0.73346581  0.07514953  0.53111183  1.0
  Zn  Zn1  1  0.56684551  0.53102848  0.45588459  1.0
  Zn  Zn2  1  0.40019625  0.45593988  0.92483722  1.0
  Zn  Zn3  1  0.23346603  0.92485045  0.46888757  1.0
  Zn  Zn4  1  0.06684536  0.46897182  0.54411543  1.0
  Zn  Zn5  1  0.90019621  0.54406044  0.07516288  1.0
  H  H6  1  0.84017007  0.92632883  0.45186679  1.0
  H  H7  1  0.67356947  0.45185406  0.52554579  1.0
  H  H8  1  0.50692428  0.52555478  0.07369013  1.0
  H  H9  1  0.34017095  0.07367060  0.54813265  1.0
  H  H10  1  0.17356975  0.54814568  0.47445425  1.0
  H  H11  1  0.00692431  0.47444440  0.92630989  1.0
  H  H12  1  0.61601424  0.84393885  0.37022069  1.0
  H  H13  1  0.44935444  0.37025546  0.52629193  1.0
  H  H14  1  0.28273505  0.52629566  0.15603547  1.0
  H  H15  1  0.11601419  0.15606000  0.62977870  1.0
  H  H16  1  0.94935458  0.62974430  0.47370818  1.0
  H  H17  1  0.78273491  0.47370497  0.84396524  1.0
  H  H18  1  0.59213903  0.79940713  0.47650333  1.0
  H  H19  1  0.42551361  0.47652629  0.67707972  1.0
  H  H20  1  0.25879391  0.67710204  0.20058097  1.0
  H  H21  1  0.09213892  0.20059261  0.52349670  1.0
  H  H22  1  0.92551369  0.52347403  0.32292038  1.0
  H  H23  1  0.75879378  0.32289859  0.79941974  1.0
  H  H24  1  0.74083067  0.84213334  0.59889678  1.0
  H  H25  1  0.57416607  0.59898107  0.75683530  1.0
  H  H26  1  0.40750556  0.75680974  0.15787544  1.0
  H  H27  1  0.24083050  0.15786641  0.40110328  1.0
  H  H28  1  0.07416627  0.40101900  0.24316538  1.0
  H  H29  1  0.90750546  0.24319025  0.84212400  1.0
  H  H30  1  0.64953877  0.93270090  0.61345765  1.0
  H  H31  1  0.48285028  0.61348202  0.68076342  1.0
  H  H32  1  0.31622224  0.68077354  0.06728433  1.0
  H  H33  1  0.14953957  0.06729885  0.38654240  1.0
  H  H34  1  0.98285038  0.38651830  0.31923668  1.0
  H  H35  1  0.81622217  0.31922677  0.93271574  1.0
  H  H36  1  0.81071716  0.92361158  0.58095409  1.0
  H  H37  1  0.64405351  0.58100808  0.65736869  1.0
  H  H38  1  0.47740351  0.65737181  0.07641530  1.0
  H  H39  1  0.31071798  0.07638841  0.41904533  1.0
  H  H40  1  0.14405376  0.41899223  0.34263136  1.0
  H  H41  1  0.97740344  0.34262851  0.92358481  1.0
  H  H42  1  0.87448918  0.78758146  0.42475872  1.0
  H  H43  1  0.70782365  0.42475461  0.63721247  1.0
  H  H44  1  0.54116986  0.63720452  0.21242908  1.0
  H  H45  1  0.37449005  0.21241886  0.57524137  1.0
  H  H46  1  0.20782293  0.57524538  0.36278694  1.0
  H  H47  1  0.04116985  0.36279555  0.78757160  1.0
  H  H48  1  0.74886576  0.72269726  0.35492943  1.0
  H  H49  1  0.58216395  0.35494052  0.63225019  1.0
  H  H50  1  0.41554933  0.63224627  0.27729347  1.0
  H  H51  1  0.24886569  0.27730305  0.64507064  1.0
  H  H52  1  0.08216417  0.64505947  0.36774920  1.0
  H  H53  1  0.91554915  0.36775461  0.72270662  1.0
  H  H54  1  0.78672921  0.71672327  0.44941084  1.0
  H  H55  1  0.62003695  0.44942295  0.73272943  1.0
  H  H56  1  0.45340225  0.73271183  0.28329718  1.0
  H  H57  1  0.28672910  0.28327616  0.55058859  1.0
  H  H58  1  0.12003618  0.55057736  0.26727061  1.0
  H  H59  1  0.95340113  0.26728849  0.71670293  1.0
  H  H60  1  0.68424649  0.66788290  0.10143267  1.0
  H  H61  1  0.51756573  0.10147369  0.43353397  1.0
  H  H62  1  0.35092633  0.43346672  0.33204863  1.0
  H  H63  1  0.18424654  0.33211741  0.89856738  1.0
  H  H64  1  0.01756600  0.89852661  0.56646605  1.0
  H  H65  1  0.85092514  0.56653303  0.66795145  1.0
  H  H66  1  0.03318159  0.69220382  0.22110466  1.0
  H  H67  1  0.86650736  0.22109280  0.52888409  1.0
  H  H68  1  0.69979249  0.52887467  0.30776704  1.0
  H  H69  1  0.53318145  0.30779673  0.77889472  1.0
  H  H70  1  0.36650761  0.77890752  0.47111600  1.0
  H  H71  1  0.19979241  0.47112564  0.69223301  1.0
  H  H72  1  0.62690123  0.82282915  0.20599759  1.0
  H  H73  1  0.46023476  0.20600012  0.38314399  1.0
  H  H74  1  0.29347119  0.38313189  0.17713861  1.0
  H  H75  1  0.12690221  0.17717116  0.79400245  1.0
  H  H76  1  0.96023494  0.79400020  0.61685612  1.0
  H  H77  1  0.79347102  0.61686842  0.82286146  1.0
  H  H78  1  0.99207361  0.84756394  0.33065855  1.0
  H  H79  1  0.82540331  0.33065331  0.48308675  1.0
  H  H80  1  0.65862061  0.48307169  0.15244518  1.0
  H  H81  1  0.49207454  0.15243638  0.66934155  1.0
  H  H82  1  0.32540264  0.66934644  0.51691332  1.0
  H  H83  1  0.15861964  0.51692862  0.84755486  1.0
  H  H84  1  0.68295334  0.96157464  0.33519635  1.0
  H  H85  1  0.51634318  0.33522783  0.37361591  1.0
  H  H86  1  0.34966460  0.37364633  0.03839618  1.0
  H  H87  1  0.18295428  0.03842511  0.66480371  1.0
  H  H88  1  0.01634257  0.66477191  0.62638411  1.0
  H  H89  1  0.84966544  0.62635229  0.96160390  1.0
  H  H90  1  0.84886706  0.98375256  0.35863851  1.0
  H  H91  1  0.68227314  0.35866697  0.37486356  1.0
  H  H92  1  0.51556876  0.37489623  0.01625568  1.0
  H  H93  1  0.34886704  0.01624752  0.64136223  1.0
  H  H94  1  0.18227348  0.64133367  0.62513715  1.0
  H  H95  1  0.01556880  0.62510262  0.98374368  1.0
  C  C96  1  0.52938319  0.94595543  0.48189194  1.0
  C  C97  1  0.36276252  0.48194344  0.53593701  1.0
  C  C98  1  0.19604283  0.53595427  0.05402427  1.0
  C  C99  1  0.02938405  0.05404375  0.51810808  1.0
  C  C100  1  0.86276267  0.51805663  0.46406371  1.0
  C  C101  1  0.69604274  0.46404548  0.94597578  1.0
  C  C102  1  0.64738023  0.88903660  0.43748994  1.0
  C  C103  1  0.48077963  0.43751842  0.54846373  1.0
  C  C104  1  0.31409911  0.54847508  0.11094390  1.0
  C  C105  1  0.14738111  0.11096282  0.56250946  1.0
  C  C106  1  0.98078073  0.56248222  0.45153702  1.0
  C  C107  1  0.81409900  0.45152500  0.88905683  1.0
  C  C108  1  0.68186745  0.83228077  0.47787405  1.0
  C  C109  1  0.51526876  0.47790614  0.64561216  1.0
  C  C110  1  0.34853092  0.64561937  0.16771082  1.0
  C  C111  1  0.18186830  0.16771898  0.52212601  1.0
  C  C112  1  0.01526900  0.52209416  0.35438785  1.0
  C  C113  1  0.84852984  0.35438094  0.83228925  1.0
  C  C114  1  0.72331438  0.88591440  0.57295927  1.0
  C  C115  1  0.55667461  0.57304625  0.68711575  1.0
  C  C116  1  0.38998736  0.68709443  0.11409340  1.0
  C  C117  1  0.22331424  0.11408535  0.42704080  1.0
  C  C118  1  0.05667484  0.42695439  0.31288494  1.0
  C  C119  1  0.88998727  0.31290532  0.88590668  1.0
  C  C120  1  0.77885356  0.76117054  0.42333602  1.0
  C  C121  1  0.61218421  0.42335119  0.66220627  1.0
  C  C122  1  0.44552851  0.66219139  0.23882799  1.0
  C  C123  1  0.27885347  0.23882921  0.57666405  1.0
  C  C124  1  0.11218348  0.57664912  0.33779377  1.0
  C  C125  1  0.94552836  0.33780836  0.76117210  1.0
  C  C126  1  0.74907392  0.71051215  0.15343530  1.0
  C  C127  1  0.58242084  0.15346018  0.44289020  1.0
  C  C128  1  0.41577762  0.44281340  0.28941719  1.0
  C  C129  1  0.24907490  0.28948872  0.84656476  1.0
  C  C130  1  0.08242112  0.84653980  0.55710918  1.0
  C  C131  1  0.91577740  0.55718691  0.71058290  1.0
  C  C132  1  0.94411300  0.72385125  0.22110506  1.0
  C  C133  1  0.77745323  0.22109200  0.49722389  1.0
  C  C134  1  0.61071925  0.49723487  0.27613124  1.0
  C  C135  1  0.44411395  0.27614963  0.77889504  1.0
  C  C136  1  0.27745253  0.77890774  0.50277617  1.0
  C  C137  1  0.11071823  0.50276543  0.72386879  1.0
  C  C138  1  0.71823133  0.79676544  0.21210280  1.0
  C  C139  1  0.55160593  0.21209509  0.41526168  1.0
  C  C140  1  0.38481180  0.41528814  0.20319470  1.0
  C  C141  1  0.21823230  0.20323487  0.78789726  1.0
  C  C142  1  0.05160623  0.78790522  0.58473836  1.0
  C  C143  1  0.88481162  0.58471161  0.79680539  1.0
  C  C144  1  0.80380323  0.84782939  0.27895371  1.0
  C  C145  1  0.63719978  0.27892626  0.43102805  1.0
  C  C146  1  0.47037507  0.43110904  0.15215441  1.0
  C  C147  1  0.30380322  0.15217092  0.72104636  1.0
  C  C148  1  0.13720009  0.72107349  0.56897200  1.0
  C  C149  1  0.97037397  0.56888982  0.84784503  1.0
  C  C150  1  0.91991781  0.81024352  0.28163745  1.0
  C  C151  1  0.75327330  0.28160723  0.47134185  1.0
  C  C152  1  0.58644859  0.47139827  0.18976952  1.0
  C  C153  1  0.41991780  0.18975647  0.71836199  1.0
  C  C154  1  0.25327359  0.71839252  0.52865821  1.0
  C  C155  1  0.08644761  0.52860203  0.81023050  1.0
  C  C156  1  0.77134846  0.93846183  0.35034557  1.0
  C  C157  1  0.60476314  0.35035535  0.41185022  1.0
  C  C158  1  0.43805208  0.41191279  0.06153917  1.0
  C  C159  1  0.27134844  0.06153848  0.64965449  1.0
  C  C160  1  0.10476347  0.64964439  0.58814981  1.0
  C  C161  1  0.93805197  0.58808607  0.93846027  1.0
  Br  Br162  1  0.75257520  0.12712395  0.68231421  1.0
  Br  Br163  1  0.58548593  0.68228348  0.55477804  1.0
  Br  Br164  1  0.41907637  0.55497407  0.87264865  1.0
  Br  Br165  1  0.25257536  0.87287636  0.31768585  1.0
  Br  Br166  1  0.08548672  0.31771594  0.44522135  1.0
  Br  Br167  1  0.91907637  0.44502624  0.12735143  1.0
  N  N168  1  0.75439379  0.94275883  0.43560805  1.0
  N  N169  1  0.58779987  0.43560922  0.49285148  1.0
  N  N170  1  0.42113081  0.49288209  0.05723632  1.0
  N  N171  1  0.25439468  0.05724092  0.56439202  1.0
  N  N172  1  0.08780017  0.56439085  0.50714920  1.0
  N  N173  1  0.92113167  0.50711766  0.94276377  1.0
  N  N174  1  0.85927652  0.67400914  0.15839518  1.0
  N  N175  1  0.69259384  0.15839486  0.48436616  1.0
  N  N176  1  0.52594010  0.48429044  0.32594436  1.0
  N  N177  1  0.35927750  0.32599117  0.84160490  1.0
  N  N178  1  0.19259410  0.84160488  0.51563388  1.0
  N  N179  1  0.02593906  0.51570930  0.67405566  1.0
  O  O180  1  0.53434757  0.02764742  0.51001972  1.0
  O  O181  1  0.36767666  0.51000524  0.48231686  1.0
  O  O182  1  0.20095768  0.48238146  0.97234336  1.0
  O  O183  1  0.03434875  0.97235232  0.48998030  1.0
  O  O184  1  0.86767827  0.48999451  0.51768322  1.0
  O  O185  1  0.70095763  0.51761885  0.02765669  1.0
  O  O186  1  0.43256708  0.90551875  0.48584514  1.0
  O  O187  1  0.26595788  0.48597012  0.58036906  1.0
  O  O188  1  0.09924964  0.58036484  0.09447644  1.0
  O  O189  1  0.93256780  0.09448044  0.51415496  1.0
  O  O190  1  0.76595896  0.51403028  0.41963231  1.0
  O  O191  1  0.59924859  0.41963636  0.90552425  1.0
