# generated using pymatgen
data_Zn4H44C55O16
_symmetry_space_group_name_H-M   'P 1'
_cell_length_a   19.51010532
_cell_length_b   19.52968889
_cell_length_c   19.53798638
_cell_angle_alpha   84.68865147
_cell_angle_beta   85.30951837
_cell_angle_gamma   89.94845744
_symmetry_Int_Tables_number   1
_chemical_formula_structural   Zn4H44C55O16
_chemical_formula_sum   'Zn4 H44 C55 O16'
_cell_volume   7387.53111508
_cell_formula_units_Z   1
loop_
 _symmetry_equiv_pos_site_id
 _symmetry_equiv_pos_as_xyz
  1  'x, y, z'
loop_
 _atom_site_type_symbol
 _atom_site_label
 _atom_site_symmetry_multiplicity
 _atom_site_fract_x
 _atom_site_fract_y
 _atom_site_fract_z
 _atom_site_occupancy
  Zn  Zn0  1  0.55339413  0.44189416  0.55539162  1.0
  Zn  Zn1  1  0.43315599  0.55165327  0.55733598  1.0
  Zn  Zn2  1  0.44385837  0.44327732  0.44427214  1.0
  Zn  Zn3  1  0.55511670  0.56492377  0.43463751  1.0
  H  H4  1  0.75351116  0.46480150  0.60121937  1.0
  H  H5  1  0.58351247  0.00198269  0.49728549  1.0
  H  H6  1  0.43020176  0.10654617  0.44510990  1.0
  H  H7  1  0.23197296  0.47512127  0.40376072  1.0
  H  H8  1  0.37439133  0.89158723  0.52814422  1.0
  H  H9  1  0.45919581  0.41355152  0.23829830  1.0
  H  H10  1  0.45278058  0.58629408  0.76562647  1.0
  H  H11  1  0.52115603  0.37656139  0.76876091  1.0
  H  H12  1  0.49129955  0.41886812  0.00377661  1.0
  H  H13  1  0.53782350  0.62407163  0.09075539  1.0
  H  H14  1  0.45674959  0.58095690  0.89282517  1.0
  H  H15  1  0.09823356  0.47418560  0.63095184  1.0
  H  H16  1  0.54302252  0.61826907  0.21832815  1.0
  H  H17  1  0.50573495  0.57678768  0.99028352  1.0
  H  H18  1  0.45488981  0.41778388  0.11150322  1.0
  H  H19  1  0.22673587  0.48511958  0.62242735  1.0
  H  H20  1  0.89953166  0.58090085  0.40445627  1.0
  H  H21  1  0.77192476  0.58164502  0.40334624  1.0
  H  H22  1  0.00104350  0.55320733  0.45820341  1.0
  H  H23  1  0.88068118  0.46360124  0.60308218  1.0
  H  H24  1  0.59389950  0.30863130  0.96401266  1.0
  H  H25  1  0.60802032  0.39907446  0.94732480  1.0
  H  H26  1  0.42201138  0.23302368  0.44944365  1.0
  H  H27  1  0.63503590  0.29219090  0.84242165  1.0
  H  H28  1  0.64753973  0.38185206  0.82380837  1.0
  H  H29  1  0.73639064  0.38080129  0.91119698  1.0
  H  H30  1  0.75958593  0.32376788  0.84775051  1.0
  H  H31  1  0.72402352  0.29082955  0.93072176  1.0
  H  H32  1  0.98522699  0.32492714  0.62224030  1.0
  H  H33  1  0.05768150  0.34647295  0.56218972  1.0
  H  H34  1  0.90719428  0.33961860  0.52687460  1.0
  H  H35  1  0.97737025  0.36539869  0.46733745  1.0
  H  H36  1  0.03124278  0.24798147  0.48781858  1.0
  H  H37  1  0.58899633  0.77359634  0.45177803  1.0
  H  H38  1  0.94775024  0.24151868  0.45907553  1.0
  H  H39  1  0.96056910  0.22134237  0.54744074  1.0
  H  H40  1  0.16219947  0.41592993  0.33920105  1.0
  H  H41  1  0.16227930  0.50754920  0.31846707  1.0
  H  H42  1  0.09084157  0.45663844  0.29977970  1.0
  H  H43  1  0.37711791  0.76365257  0.53117373  1.0
  H  H44  1  0.42613327  0.00122540  0.49418605  1.0
  H  H45  1  0.62341800  0.10794446  0.53760672  1.0
  H  H46  1  0.58826110  0.90083010  0.45165262  1.0
  H  H47  1  0.61389211  0.23490578  0.54215031  1.0
  C  C48  1  0.48544333  0.68460088  0.49290843  1.0
  C  C49  1  0.97445605  0.51679674  0.49723129  1.0
  C  C50  1  0.01549710  0.47221741  0.53191855  1.0
  C  C51  1  0.51049493  0.31705523  0.49946324  1.0
  C  C52  1  0.23597768  0.48155893  0.51216191  1.0
  C  C53  1  0.51685114  0.24137339  0.49696579  1.0
  C  C54  1  0.46530974  0.20471294  0.46950970  1.0
  C  C55  1  0.47002257  0.13408079  0.46770754  1.0
  C  C56  1  0.52656753  0.09764440  0.49301179  1.0
  C  C57  1  0.57892823  0.13530449  0.51863902  1.0
  C  C58  1  0.57391995  0.20602125  0.52134606  1.0
  C  C59  1  0.89976864  0.51988453  0.50261896  1.0
  C  C60  1  0.54194214  0.87113790  0.46978772  1.0
  C  C61  1  0.54270790  0.80014160  0.46953245  1.0
  C  C62  1  0.42293396  0.79434318  0.51382050  1.0
  C  C63  1  0.48658779  0.48609819  0.68283662  1.0
  C  C64  1  0.42180871  0.86561726  0.51218515  1.0
  C  C65  1  0.48141389  0.90544816  0.49133108  1.0
  C  C66  1  0.53191245  0.02321842  0.49325388  1.0
  C  C67  1  0.47804214  0.97983530  0.49208684  1.0
  C  C68  1  0.48345489  0.76094158  0.49220860  1.0
  C  C69  1  0.50237922  0.51515503  0.23595925  1.0
  C  C70  1  0.86748891  0.55513217  0.44763800  1.0
  C  C71  1  0.47723378  0.45897517  0.20517729  1.0
  C  C72  1  0.47528968  0.46160883  0.13424842  1.0
  C  C73  1  0.49798480  0.52077652  0.09142998  1.0
  C  C74  1  0.52120570  0.57751168  0.12311118  1.0
  C  C75  1  0.50430438  0.51087460  0.31226588  1.0
  C  C76  1  0.52419055  0.57463560  0.19418082  1.0
  C  C77  1  0.47223380  0.53649076  0.86550409  1.0
  C  C78  1  0.46928719  0.53975878  0.79465418  1.0
  C  C79  1  0.50738864  0.42146621  0.79593997  1.0
  C  C80  1  0.50947245  0.41805402  0.86723958  1.0
  C  C81  1  0.79641148  0.55576971  0.44668284  1.0
  C  C82  1  0.49234898  0.47603589  0.90377902  1.0
  C  C83  1  0.49836779  0.52508468  0.01664982  1.0
  C  C84  1  0.49345844  0.47116374  0.97837172  1.0
  C  C85  1  0.48735037  0.48218362  0.75923173  1.0
  C  C86  1  0.31248472  0.48745245  0.50658294  1.0
  C  C87  1  0.67916589  0.51732660  0.49902571  1.0
  C  C88  1  0.75490441  0.52168246  0.50143038  1.0
  C  C89  1  0.78617793  0.48958163  0.55810160  1.0
  C  C90  1  0.85717981  0.48879655  0.55901705  1.0
  C  C91  1  0.59553510  0.35190429  0.92364057  1.0
  C  C92  1  0.12951245  0.47407874  0.45704836  1.0
  C  C93  1  0.64894601  0.33941844  0.86490541  1.0
  C  C94  1  0.72113714  0.33333333  0.89001585  1.0
  C  C95  1  0.00184236  0.35395910  0.57279420  1.0
  C  C96  1  0.96246251  0.33148764  0.51441219  1.0
  C  C97  1  0.97629667  0.25653964  0.50160096  1.0
  C  C98  1  0.12982535  0.46219728  0.33620334  1.0
  C  C99  1  0.20140427  0.47643790  0.45271816  1.0
  C  C100  1  0.19913733  0.48127988  0.57670286  1.0
  C  C101  1  0.12788479  0.47584525  0.58103281  1.0
  C  C102  1  0.09156728  0.47409388  0.52208844  1.0
  O  O103  1  0.49634914  0.50143797  0.49725239  1.0
  O  O104  1  0.33922431  0.51495329  0.55500697  1.0
  O  O105  1  0.65293417  0.54821336  0.44669519  1.0
  O  O106  1  0.34509352  0.46464478  0.45395632  1.0
  O  O107  1  0.64584557  0.48185323  0.54940780  1.0
  O  O108  1  0.52614541  0.35637311  0.90239041  1.0
  O  O109  1  0.98830942  0.42525599  0.58426416  1.0
  O  O110  1  0.09243453  0.47012783  0.40099652  1.0
  O  O111  1  0.51586110  0.43734356  0.65235246  1.0
  O  O112  1  0.53454346  0.55948524  0.33790510  1.0
  O  O113  1  0.43591645  0.65061321  0.52741083  1.0
  O  O114  1  0.45855049  0.34568002  0.47301055  1.0
  O  O115  1  0.53673760  0.65932384  0.45918229  1.0
  O  O116  1  0.55703491  0.34757192  0.52804082  1.0
  O  O117  1  0.45724288  0.53826028  0.65355883  1.0
  O  O118  1  0.47525294  0.45813545  0.34622773  1.0
