# generated using pymatgen
data_AlH12C17O9
_symmetry_space_group_name_H-M   'P 1'
_cell_length_a   6.71710348
_cell_length_b   19.54273349
_cell_length_c   19.74259403
_cell_angle_alpha   98.80278554
_cell_angle_beta   91.35985757
_cell_angle_gamma   91.45304107
_symmetry_Int_Tables_number   1
_chemical_formula_structural   AlH12C17O9
_chemical_formula_sum   'Al4 H48 C68 O36'
_cell_volume   2559.27076901
_cell_formula_units_Z   4
loop_
 _symmetry_equiv_pos_site_id
 _symmetry_equiv_pos_as_xyz
  1  'x, y, z'
loop_
 _atom_site_type_symbol
 _atom_site_label
 _atom_site_symmetry_multiplicity
 _atom_site_fract_x
 _atom_site_fract_y
 _atom_site_fract_z
 _atom_site_occupancy
  Al  Al0  1  0.80197410  0.24673620  0.24778053  1.0
  Al  Al1  1  0.20860929  0.74811210  0.74380818  1.0
  Al  Al2  1  0.30165239  0.25323903  0.24846864  1.0
  Al  Al3  1  0.70908361  0.74543290  0.74673210  1.0
  H  H4  1  0.28559179  0.34526152  0.07333305  1.0
  H  H5  1  0.65919238  0.60884716  0.89459329  1.0
  H  H6  1  0.77205631  0.16533159  0.43259174  1.0
  H  H7  1  0.17006636  0.87917129  0.59593701  1.0
  H  H8  1  0.26519144  0.41989811  0.98427232  1.0
  H  H9  1  0.69913412  0.53681059  0.98553100  1.0
  H  H10  1  0.75870222  0.09060227  0.52213201  1.0
  H  H11  1  0.19964947  0.95974823  0.51178120  1.0
  H  H12  1  0.73015486  0.06266765  0.91646941  1.0
  H  H13  1  0.32682193  0.94982084  0.05897007  1.0
  H  H14  1  0.15161322  0.43906754  0.53751901  1.0
  H  H15  1  0.86464440  0.55430033  0.46034895  1.0
  H  H16  1  0.98178591  0.62899353  0.10328887  1.0
  H  H17  1  0.87702864  0.61199224  0.18296865  1.0
  H  H18  1  0.72738607  0.64863197  0.12177780  1.0
  H  H19  1  0.46713238  0.49934444  0.85038325  1.0
  H  H20  1  0.29819875  0.43743265  0.87833054  1.0
  H  H21  1  0.55049608  0.44701838  0.91172016  1.0
  H  H22  1  0.49212958  0.87628516  0.40547514  1.0
  H  H23  1  0.38815887  0.88311824  0.32147629  1.0
  H  H24  1  0.24188565  0.84593937  0.38264725  1.0
  H  H25  1  0.00412140  0.00269123  0.65057705  1.0
  H  H26  1  0.84240695  0.06862963  0.62954232  1.0
  H  H27  1  0.08238186  0.05796135  0.59129765  1.0
  H  H28  1  0.73530617  0.40783634  0.21669964  1.0
  H  H29  1  0.40807658  0.61701038  0.82549608  1.0
  H  H30  1  0.16138695  0.08448685  0.29465151  1.0
  H  H31  1  0.92679515  0.89466812  0.67917516  1.0
  H  H32  1  0.82787010  0.19380862  0.06915317  1.0
  H  H33  1  0.16960505  0.80654293  0.92443655  1.0
  H  H34  1  0.13235641  0.37936231  0.38997907  1.0
  H  H35  1  0.88146607  0.61499119  0.61237404  1.0
  H  H36  1  0.58825806  0.01029762  0.11104137  1.0
  H  H37  1  0.44860162  0.96544366  0.16873111  1.0
  H  H38  1  0.60192304  0.04044513  0.20142985  1.0
  H  H39  1  0.70753069  0.05997286  0.80023381  1.0
  H  H40  1  0.50429147  0.01337819  0.83179698  1.0
  H  H41  1  0.57319490  0.99249134  0.74380079  1.0
  H  H42  1  0.12163013  0.51906675  0.40042013  1.0
  H  H43  1  0.95375778  0.55827684  0.34597307  1.0
  H  H44  1  0.12523180  0.49467756  0.30924703  1.0
  H  H45  1  0.27477786  0.55709136  0.73343360  1.0
  H  H46  1  0.20703566  0.46698016  0.70730961  1.0
  H  H47  1  0.02048506  0.52870242  0.73526530  1.0
  H  H48  1  0.53389218  0.21594004  0.16157713  1.0
  H  H49  1  0.46500878  0.74513790  0.83573004  1.0
  H  H50  1  0.05938090  0.24306420  0.33735047  1.0
  H  H51  1  0.95204220  0.75713177  0.65763728  1.0
  C  C52  1  0.57849006  0.34925856  0.33657608  1.0
  C  C53  1  0.43719236  0.64474121  0.65836230  1.0
  C  C54  1  0.04056997  0.15577305  0.15417176  1.0
  C  C55  1  0.97859509  0.84624603  0.83331313  1.0
  C  C56  1  0.53775490  0.16271643  0.32287990  1.0
  C  C57  1  0.46769890  0.83170560  0.66923456  1.0
  C  C58  1  0.05446140  0.33952785  0.17741278  1.0
  C  C59  1  0.95136087  0.66396080  0.82497435  1.0
  C  C60  1  0.90887121  0.49400286  0.08914623  1.0
  C  C61  1  0.18249976  0.55064005  0.94199927  1.0
  C  C62  1  0.40441802  0.00676560  0.41115678  1.0
  C  C63  1  0.68700683  0.95690490  0.56171608  1.0
  C  C64  1  0.90916553  0.44793968  0.13792750  1.0
  C  C65  1  0.16134348  0.59931808  0.89721187  1.0
  C  C66  1  0.39758432  0.05320800  0.36300599  1.0
  C  C67  1  0.66943453  0.90799485  0.60646572  1.0
  C  C68  1  0.04488759  0.39330804  0.13083341  1.0
  C  C69  1  0.97051490  0.61774909  0.87756766  1.0
  C  C70  1  0.53169800  0.11100460  0.37145779  1.0
  C  C71  1  0.48101723  0.88206252  0.62044164  1.0
  C  C72  1  0.17777510  0.38633156  0.07712350  1.0
  C  C73  1  0.80529777  0.59261904  0.90838374  1.0
  C  C74  1  0.66641074  0.12151418  0.42737253  1.0
  C  C75  1  0.31302075  0.90233669  0.58692760  1.0
  C  C76  1  0.16765530  0.42950145  0.02747664  1.0
  C  C77  1  0.82918877  0.55154610  0.95905591  1.0
  C  C78  1  0.66087965  0.07838108  0.47710180  1.0
  C  C79  1  0.33206453  0.94700113  0.53924481  1.0
  C  C80  1  0.03336158  0.48387851  0.03135836  1.0
  C  C81  1  0.01730367  0.52862605  0.97727032  1.0
  C  C82  1  0.53041138  0.02032424  0.47092238  1.0
  C  C83  1  0.51839483  0.97517544  0.52464126  1.0
  C  C84  1  0.05751804  0.09641674  0.09693522  1.0
  C  C85  1  0.97735002  0.91012047  0.88639335  1.0
  C  C86  1  0.58466541  0.41028799  0.39166839  1.0
  C  C87  1  0.43728086  0.58106997  0.60574719  1.0
  C  C88  1  0.83274634  0.02216965  0.92378951  1.0
  C  C89  1  0.21782120  0.98897632  0.05401896  1.0
  C  C90  1  0.27464065  0.47706246  0.54201619  1.0
  C  C91  1  0.74630770  0.51479051  0.45467788  1.0
  C  C92  1  0.85315764  0.96494489  0.87393843  1.0
  C  C93  1  0.21111982  0.04839203  0.10218085  1.0
  C  C94  1  0.27668548  0.53045018  0.59644143  1.0
  C  C95  1  0.74528753  0.46107959  0.40018541  1.0
  C  C96  1  0.09482069  0.91632298  0.94628291  1.0
  C  C97  1  0.92910910  0.08829725  0.03895634  1.0
  C  C98  1  0.59454897  0.57432669  0.56050973  1.0
  C  C99  1  0.42828503  0.41644707  0.43693832  1.0
  C  C100  1  0.08736685  0.97795243  0.99623622  1.0
  C  C101  1  0.94544234  0.02949157  0.98610626  1.0
  C  C102  1  0.59238108  0.52036678  0.50285883  1.0
  C  C103  1  0.42875228  0.47080417  0.49391391  1.0
  C  C104  1  0.84713292  0.61298181  0.12818988  1.0
  C  C105  1  0.42311150  0.47440455  0.89437561  1.0
  C  C106  1  0.35641809  0.88508989  0.37607690  1.0
  C  C107  1  0.95382028  0.03089910  0.60934861  1.0
  C  C108  1  0.77000300  0.45632101  0.19625897  1.0
  C  C109  1  0.33940942  0.63739640  0.87506261  1.0
  C  C110  1  0.24559015  0.03904667  0.30522635  1.0
  C  C111  1  0.84760504  0.87254941  0.63027726  1.0
  C  C112  1  0.79364953  0.14564839  0.03235688  1.0
  C  C113  1  0.21612177  0.85611842  0.95723335  1.0
  C  C114  1  0.25040016  0.36643102  0.42592250  1.0
  C  C115  1  0.77511606  0.62311012  0.57073984  1.0
  C  C116  1  0.50459298  0.01619236  0.15873724  1.0
  C  C117  1  0.62926226  0.00920329  0.79645205  1.0
  C  C118  1  0.02987619  0.51053724  0.35278605  1.0
  C  C119  1  0.15957250  0.52064121  0.70760800  1.0
  O  O120  1  0.37172827  0.17967971  0.29892380  1.0
  O  O121  1  0.63314871  0.81814600  0.69709441  1.0
  O  O122  1  0.89354254  0.30611165  0.18514869  1.0
  O  O123  1  0.11554144  0.69050043  0.80798593  1.0
  O  O124  1  0.73925551  0.32742972  0.31024259  1.0
  O  O125  1  0.27208906  0.66561047  0.68233788  1.0
  O  O126  1  0.19983619  0.19153380  0.17027291  1.0
  O  O127  1  0.81339178  0.81317090  0.82118302  1.0
  O  O128  1  0.70920405  0.18723344  0.31089019  1.0
  O  O129  1  0.29874050  0.80572321  0.68034925  1.0
  O  O130  1  0.22526573  0.32894899  0.20219321  1.0
  O  O131  1  0.78050567  0.67383057  0.79991599  1.0
  O  O132  1  0.87263357  0.16595122  0.18249397  1.0
  O  O133  1  0.14413781  0.83078990  0.80570936  1.0
  O  O134  1  0.40577533  0.32108095  0.32104486  1.0
  O  O135  1  0.60653743  0.67529849  0.67371357  1.0
  O  O136  1  0.54875414  0.24566115  0.20566639  1.0
  O  O137  1  0.46050509  0.74947573  0.78705496  1.0
  O  O138  1  0.05471991  0.25117741  0.29006372  1.0
  O  O139  1  0.95382092  0.74331488  0.70339502  1.0
  O  O140  1  0.77427957  0.54575219  0.09542042  1.0
  O  O141  1  0.36945260  0.52489571  0.95165415  1.0
  O  O142  1  0.27357526  0.95104220  0.40185955  1.0
  O  O143  1  0.87296379  0.98457412  0.55096880  1.0
  O  O144  1  0.69793581  0.51106128  0.22168775  1.0
  O  O145  1  0.41435151  0.68755108  0.91291479  1.0
  O  O146  1  0.21275458  0.98165588  0.27170261  1.0
  O  O147  1  0.90926351  0.82216345  0.59249469  1.0
  O  O148  1  0.65539471  0.14530505  0.99014649  1.0
  O  O149  1  0.35538708  0.85656657  0.99868877  1.0
  O  O150  1  0.22723660  0.31826584  0.45839007  1.0
  O  O151  1  0.81182283  0.66431410  0.53152003  1.0
  O  O152  1  0.34408808  0.06298157  0.15550875  1.0
  O  O153  1  0.76225546  0.95688035  0.81060194  1.0
  O  O154  1  0.88791420  0.45426691  0.35227126  1.0
  O  O155  1  0.11671848  0.53271180  0.63910900  1.0
