# generated using pymatgen
data_Al4H12C29O24
_symmetry_space_group_name_H-M   'P 1'
_cell_length_a   6.67887167
_cell_length_b   16.82655530
_cell_length_c   18.66939201
_cell_angle_alpha   74.87551600
_cell_angle_beta   89.42685288
_cell_angle_gamma   89.96645788
_symmetry_Int_Tables_number   1
_chemical_formula_structural   Al4H12C29O24
_chemical_formula_sum   'Al4 H12 C29 O24'
_cell_volume   2025.32934796
_cell_formula_units_Z   1
loop_
 _symmetry_equiv_pos_site_id
 _symmetry_equiv_pos_as_xyz
  1  'x, y, z'
loop_
 _atom_site_type_symbol
 _atom_site_label
 _atom_site_symmetry_multiplicity
 _atom_site_fract_x
 _atom_site_fract_y
 _atom_site_fract_z
 _atom_site_occupancy
  Al  Al0  1  0.10511066  0.49970063  0.50011858  1.0
  Al  Al1  1  0.60686401  0.49995821  0.50064919  1.0
  Al  Al2  1  0.62895995  0.00139250  0.99975928  1.0
  Al  Al3  1  0.13179263  0.00226901  0.99798108  1.0
  H  H4  1  0.58553146  0.81481696  0.19236101  1.0
  H  H5  1  0.01099322  0.69939811  0.30174715  1.0
  H  H6  1  0.07947099  0.17782502  0.80064256  1.0
  H  H7  1  0.54068089  0.19319723  0.79094716  1.0
  H  H8  1  0.49050327  0.32402876  0.71873817  1.0
  H  H9  1  0.16083056  0.84196465  0.16318895  1.0
  H  H10  1  0.41716925  0.73502823  0.27589717  1.0
  H  H11  1  0.94871738  0.24382362  0.57028943  1.0
  H  H12  1  0.35790147  0.60132379  0.45380914  1.0
  H  H13  1  0.85174547  0.40233364  0.55748801  1.0
  H  H14  1  0.38158997  0.90616080  0.98074137  1.0
  H  H15  1  0.87967520  0.10764949  0.98987201  1.0
  C  C16  1  0.35693115  0.41077788  0.41688534  1.0
  C  C17  1  0.35629240  0.39052859  0.61448153  1.0
  C  C18  1  0.85589346  0.58594552  0.58697625  1.0
  C  C19  1  0.85619851  0.61026034  0.38860785  1.0
  C  C20  1  0.72320564  0.78785119  0.21925558  1.0
  C  C21  1  0.89082448  0.82353774  0.18310221  1.0
  C  C22  1  0.70273393  0.72067645  0.28547115  1.0
  C  C23  1  0.86275495  0.67908592  0.32290046  1.0
  C  C24  1  0.88031826  0.86250545  0.86414518  1.0
  C  C25  1  0.87457436  0.81817185  0.82139123  1.0
  C  C26  1  0.86844824  0.76970612  0.77474050  1.0
  C  C27  1  0.86280357  0.72512158  0.73175507  1.0
  C  C28  1  0.85828583  0.67741672  0.68442789  1.0
  C  C29  1  0.85556086  0.63443081  0.64054973  1.0
  C  C30  1  0.35985826  0.36193575  0.36354088  1.0
  C  C31  1  0.36145145  0.31917842  0.31941989  1.0
  C  C32  1  0.36340806  0.27188366  0.27163603  1.0
  C  C33  1  0.36564326  0.22784881  0.22810518  1.0
  C  C34  1  0.36923720  0.18002927  0.18080212  1.0
  C  C35  1  0.37352753  0.13635066  0.13742609  1.0
  C  C36  1  0.22318528  0.20318155  0.77663812  1.0
  C  C37  1  0.39178584  0.17375946  0.81325162  1.0
  C  C38  1  0.21694367  0.26573154  0.70606065  1.0
  C  C39  1  0.36000495  0.32405825  0.68405745  1.0
  C  C40  1  0.38489762  0.11146843  0.88533314  1.0
  C  C41  1  0.37681045  0.08612440  0.08596278  1.0
  C  C42  1  0.87642744  0.89087324  0.11271642  1.0
  C  C43  1  0.88181184  0.91315447  0.91512234  1.0
  C  C44  1  0.03230092  0.26328914  0.66120133  1.0
  O  O45  1  0.52646535  0.41927602  0.58920226  1.0
  O  O46  1  0.18443375  0.43086619  0.43557078  1.0
  O  O47  1  0.02641147  0.58357723  0.41663855  1.0
  O  O48  1  0.18744815  0.41437422  0.58572545  1.0
  O  O49  1  0.02767413  0.56540995  0.56799201  1.0
  O  O50  1  0.52670309  0.42705691  0.43982897  1.0
  O  O51  1  0.35602699  0.54877519  0.49107284  1.0
  O  O52  1  0.68529021  0.57017283  0.56441373  1.0
  O  O53  1  0.68754181  0.58002773  0.41542564  1.0
  O  O54  1  0.85559866  0.44799799  0.51312825  1.0
  O  O55  1  0.20767898  0.06615813  0.06475446  1.0
  O  O56  1  0.55414741  0.08687143  0.91429349  1.0
  O  O57  1  0.71132976  0.93241753  0.93702821  1.0
  O  O58  1  0.54813686  0.06613318  0.06558817  1.0
  O  O59  1  0.70681843  0.91559247  0.08678198  1.0
  O  O60  1  0.21354364  0.08705931  0.91383033  1.0
  O  O61  1  0.37983471  0.95037799  0.00538698  1.0
  O  O62  1  0.04823772  0.91593783  0.08462121  1.0
  O  O63  1  0.05251685  0.93367672  0.93475925  1.0
  O  O64  1  0.88025820  0.04929410  0.99293713  1.0
  O  O65  1  0.08247437  0.80372556  0.20336788  1.0
  O  O66  1  0.51159210  0.69974647  0.30923271  1.0
  O  O67  1  0.86287317  0.27315182  0.68263547  1.0
  O  O68  1  0.07476399  0.24363666  0.59693624  1.0
