# generated using pymatgen
data_ZnH6C11NO10
_symmetry_space_group_name_H-M   'P 1'
_cell_length_a   10.45078943
_cell_length_b   10.96945894
_cell_length_c   11.78962822
_cell_angle_alpha   88.58904335
_cell_angle_beta   81.75103858
_cell_angle_gamma   84.37195003
_symmetry_Int_Tables_number   1
_chemical_formula_structural   ZnH6C11NO10
_chemical_formula_sum   'Zn2 H12 C22 N2 O20'
_cell_volume   1331.04974523
_cell_formula_units_Z   2
loop_
 _symmetry_equiv_pos_site_id
 _symmetry_equiv_pos_as_xyz
  1  'x, y, z'
loop_
 _atom_site_type_symbol
 _atom_site_label
 _atom_site_symmetry_multiplicity
 _atom_site_fract_x
 _atom_site_fract_y
 _atom_site_fract_z
 _atom_site_occupancy
  Zn  Zn0  1  0.61953965  0.48844821  0.49389758  1.0
  Zn  Zn1  1  0.35224186  0.51271560  0.53670978  1.0
  H  H2  1  0.68123688  0.10065750  0.57307848  1.0
  H  H3  1  0.22758614  0.05261979  0.45845870  1.0
  H  H4  1  0.38897758  0.83968627  0.70873000  1.0
  H  H5  1  0.27578602  0.81058892  0.52032600  1.0
  H  H6  1  0.65858658  0.06776994  0.39131028  1.0
  H  H7  1  0.69661325  0.90939809  0.51328121  1.0
  H  H8  1  0.61931631  0.87859983  0.35446971  1.0
  H  H9  1  0.53658879  0.07205756  0.87769906  1.0
  H  H10  1  0.45792426  0.27404584  0.21350742  1.0
  H  H11  1  0.60393495  0.72306863  0.78786421  1.0
  H  H12  1  0.31098429  0.93265442  0.21559213  1.0
  H  H13  1  0.30243786  0.22732911  0.64317185  1.0
  C  C14  1  0.46015025  0.51325247  0.30222273  1.0
  C  C15  1  0.47664757  0.49974293  0.73495973  1.0
  C  C16  1  0.46049249  0.51256447  0.17993943  1.0
  C  C17  1  0.58721450  0.06323394  0.59916693  1.0
  C  C18  1  0.55259433  0.06768763  0.39513145  1.0
  C  C19  1  0.60888219  0.92214401  0.57699223  1.0
  C  C20  1  0.52737885  0.92994307  0.39034552  1.0
  C  C21  1  0.46854971  0.50864950  0.07556151  1.0
  C  C22  1  0.35458992  0.08532549  0.55338215  1.0
  C  C23  1  0.36190858  0.94080138  0.57335674  1.0
  C  C24  1  0.55008222  0.11323617  0.72062269  1.0
  C  C25  1  0.49526646  0.12258614  0.51479878  1.0
  C  C26  1  0.53372128  0.13409086  0.28254777  1.0
  C  C27  1  0.65363384  0.84273453  0.67472900  1.0
  C  C28  1  0.43431696  0.88788789  0.31329985  1.0
  C  C29  1  0.49711344  0.88099055  0.51641368  1.0
  C  C30  1  0.48226213  0.50101973  0.85634977  1.0
  C  C31  1  0.47620653  0.50513403  0.96054458  1.0
  C  C32  1  0.50221746  0.26253974  0.51319581  1.0
  C  C33  1  0.50407541  0.73954048  0.51355869  1.0
  C  C34  1  0.04478668  0.50867286  0.53577970  1.0
  C  C35  1  0.92402925  0.49395453  0.50954197  1.0
  N  N36  1  0.14756332  0.52172100  0.55751506  1.0
  N  N37  1  0.82186179  0.48138014  0.48615387  1.0
  O  O38  1  0.57177370  0.50407682  0.33434797  1.0
  O  O39  1  0.55239117  0.02793088  0.80490294  1.0
  O  O40  1  0.59214842  0.09463617  0.19148570  1.0
  O  O41  1  0.45564225  0.23935444  0.29131338  1.0
  O  O42  1  0.76478817  0.83535008  0.69579415  1.0
  O  O43  1  0.56208058  0.77494642  0.73214236  1.0
  O  O44  1  0.43427326  0.77932476  0.29231528  1.0
  O  O45  1  0.35825147  0.97566403  0.26590835  1.0
  O  O46  1  0.29901178  0.13918762  0.65809590  1.0
  O  O47  1  0.28095827  0.12023154  0.46501426  1.0
  O  O48  1  0.34169616  0.91754846  0.69120633  1.0
  O  O49  1  0.34990739  0.51981425  0.36507039  1.0
  O  O50  1  0.26089768  0.90087034  0.51827626  1.0
  O  O51  1  0.61332091  0.30143841  0.48685485  1.0
  O  O52  1  0.39566700  0.32945956  0.53712050  1.0
  O  O53  1  0.61516185  0.68160489  0.49167606  1.0
  O  O54  1  0.39676624  0.69081479  0.53566402  1.0
  O  O55  1  0.58452566  0.49407003  0.66822525  1.0
  O  O56  1  0.36304432  0.50794124  0.70700444  1.0
  O  O57  1  0.53246143  0.22294980  0.73944175  1.0
