# generated using pymatgen
data_Zn4H18C28O19
_symmetry_space_group_name_H-M   'P 1'
_cell_length_a   15.95876616
_cell_length_b   15.96132565
_cell_length_c   21.35207735
_cell_angle_alpha   111.93667019
_cell_angle_beta   111.94206632
_cell_angle_gamma   89.99397452
_symmetry_Int_Tables_number   1
_chemical_formula_structural   Zn4H18C28O19
_chemical_formula_sum   'Zn8 H36 C56 O38'
_cell_volume   4617.71539584
_cell_formula_units_Z   2
loop_
 _symmetry_equiv_pos_site_id
 _symmetry_equiv_pos_as_xyz
  1  'x, y, z'
loop_
 _atom_site_type_symbol
 _atom_site_label
 _atom_site_symmetry_multiplicity
 _atom_site_fract_x
 _atom_site_fract_y
 _atom_site_fract_z
 _atom_site_occupancy
  Zn  Zn0  1  0.88169942  0.28216949  0.56439330  1.0
  Zn  Zn1  1  0.28206776  0.68257179  0.56421718  1.0
  Zn  Zn2  1  0.68254962  0.28205363  0.56421636  1.0
  Zn  Zn3  1  0.31744965  0.71795076  0.43578634  1.0
  Zn  Zn4  1  0.71793343  0.31742655  0.43578495  1.0
  Zn  Zn5  1  0.11830464  0.71783564  0.43561014  1.0
  Zn  Zn6  1  0.71780737  0.11830931  0.43560298  1.0
  Zn  Zn7  1  0.28219450  0.88169517  0.56440119  1.0
  H  H8  1  0.83967785  0.33991860  0.01933212  1.0
  H  H9  1  0.32228076  0.90625268  0.03719693  1.0
  H  H10  1  0.37941621  0.80886280  0.02017087  1.0
  H  H11  1  0.26140989  0.79905984  0.96188804  1.0
  H  H12  1  0.94929504  0.30367565  0.03716746  1.0
  H  H13  1  0.84920817  0.22806209  0.96157415  1.0
  H  H14  1  0.05070284  0.69632370  0.96283295  1.0
  H  H15  1  0.16031848  0.66007764  0.98066381  1.0
  H  H16  1  0.15079347  0.77193390  0.03842494  1.0
  H  H17  1  0.62058338  0.19113389  0.97982483  1.0
  H  H18  1  0.67772071  0.09374523  0.96279998  1.0
  H  H19  1  0.73858943  0.20093910  0.03810852  1.0
  H  H20  1  0.13439012  0.31630473  0.96324210  1.0
  H  H21  1  0.05443086  0.25769928  0.97966496  1.0
  H  H22  1  0.17425088  0.28024509  0.03826256  1.0
  H  H23  1  0.94556737  0.74229505  0.02033522  1.0
  H  H24  1  0.86560035  0.68369095  0.03675259  1.0
  H  H25  1  0.82574957  0.71975169  0.96173254  1.0
  H  H26  1  0.71217061  0.90239671  0.03589964  1.0
  H  H27  1  0.74986351  0.99609435  0.02084608  1.0
  H  H28  1  0.74734230  0.88072808  0.96123286  1.0
  H  H29  1  0.25013606  0.00390301  0.97915028  1.0
  H  H30  1  0.28782984  0.09760007  0.96409546  1.0
  H  H31  1  0.25265565  0.11927111  0.03876122  1.0
  H  H32  1  0.76096355  0.43268577  0.96128646  1.0
  H  H33  1  0.75691734  0.55100491  0.97875793  1.0
  H  H34  1  0.73308830  0.50460015  0.03619003  1.0
  H  H35  1  0.24308142  0.44899089  0.02124098  1.0
  H  H36  1  0.23903606  0.56731012  0.03871185  1.0
  H  H37  1  0.26690989  0.49539499  0.96380753  1.0
  H  H38  1  0.52068903  0.24398843  0.03838329  1.0
  H  H39  1  0.40222672  0.22537948  0.02142237  1.0
  H  H40  1  0.43567954  0.26332756  0.96363904  1.0
  H  H41  1  0.59777447  0.77461836  0.97857583  1.0
  H  H42  1  0.47931194  0.75601330  0.96161470  1.0
  H  H43  1  0.56431810  0.73666989  0.03635741  1.0
  C  C44  1  0.64924916  0.14997636  0.29917052  1.0
  C  C45  1  0.03683697  0.53750196  0.07513949  1.0
  C  C46  1  0.28708517  0.07455450  0.00650293  1.0
  C  C47  1  0.11837082  0.30672837  0.00623853  1.0
  C  C48  1  0.88162535  0.69326667  0.99375825  1.0
  C  C49  1  0.71291453  0.92544471  0.99349322  1.0
  C  C50  1  0.77455272  0.50187641  0.00475554  1.0
  C  C51  1  0.22544665  0.49812106  0.99524298  1.0
  C  C52  1  0.45069328  0.22049110  0.99513979  1.0
  C  C53  1  0.54930766  0.77950831  0.00485862  1.0
  C  C54  1  0.53798064  0.03696006  0.07513765  1.0
  C  C55  1  0.46202074  0.96303816  0.92486231  1.0
  C  C56  1  0.96316319  0.46249525  0.92486083  1.0
  C  C57  1  0.92371014  0.42363930  0.84710198  1.0
  C  C58  1  0.07629010  0.57636224  0.15290404  1.0
  C  C59  1  0.57649230  0.07637626  0.15289798  1.0
  C  C60  1  0.35075106  0.85002533  0.70083223  1.0
  C  C61  1  0.42351457  0.92362573  0.84710780  1.0
  C  C62  1  0.52689935  0.02678248  0.49995991  1.0
  C  C63  1  0.47310415  0.97322249  0.50004611  1.0
  C  C64  1  0.97324119  0.47310122  0.50006839  1.0
  C  C65  1  0.02675875  0.52689988  0.49993172  1.0
  C  C66  1  0.85018123  0.35053209  0.70082999  1.0
  C  C67  1  0.52691071  0.47317593  0.50005676  1.0
  C  C68  1  0.47308661  0.52682276  0.49994230  1.0
  C  C69  1  0.90923945  0.40897788  0.50009292  1.0
  C  C70  1  0.09076491  0.59102072  0.49990810  1.0
  C  C71  1  0.59100993  0.09080005  0.49993985  1.0
  C  C72  1  0.14981745  0.64946931  0.29917178  1.0
  C  C73  1  0.40899015  0.90920640  0.50006422  1.0
  C  C74  1  0.59103696  0.40915264  0.50012670  1.0
  C  C75  1  0.40895860  0.59084422  0.49987464  1.0
  C  C76  1  0.90905713  0.09095513  0.49991958  1.0
  C  C77  1  0.09094849  0.90905259  0.50008441  1.0
  C  C78  1  0.97314015  0.02688023  0.49997214  1.0
  C  C79  1  0.02686394  0.97312722  0.50003088  1.0
  C  C80  1  0.05455949  0.44276738  0.02545272  1.0
  C  C81  1  0.94543936  0.55722862  0.97454707  1.0
  C  C82  1  0.56429480  0.96095566  0.97445755  1.0
  C  C83  1  0.43570621  0.03904526  0.02554306  1.0
  C  C84  1  0.94768654  0.41602651  0.97451887  1.0
  C  C85  1  0.05231304  0.58397069  0.02548076  1.0
  C  C86  1  0.57416372  0.06631221  0.02535149  1.0
  C  C87  1  0.42583837  0.93368787  0.97464896  1.0
  C  C88  1  0.88973879  0.39009852  0.77996353  1.0
  C  C89  1  0.11025584  0.60989987  0.22003318  1.0
  C  C90  1  0.60973386  0.11037551  0.22003201  1.0
  C  C91  1  0.39026676  0.88962165  0.77996484  1.0
  C  C92  1  0.06927218  0.48876516  0.97490413  1.0
  C  C93  1  0.93072714  0.51123131  0.02509613  1.0
  C  C94  1  0.52842812  0.93230883  0.02513369  1.0
  C  C95  1  0.47157418  0.06769099  0.97486787  1.0
  C  C96  1  0.88286529  0.29957738  0.99354509  1.0
  C  C97  1  0.11713384  0.70041869  0.00645341  1.0
  C  C98  1  0.67230780  0.15552390  0.00607230  1.0
  C  C99  1  0.32769211  0.84447438  0.99392429  1.0
  O  O100  1  0.75004009  0.24993416  0.50000099  1.0
  O  O101  1  0.33502823  0.90601995  0.66938918  1.0
  O  O102  1  0.90621071  0.33484486  0.66941466  1.0
  O  O103  1  0.09378784  0.66515766  0.33058755  1.0
  O  O104  1  0.82655097  0.39715176  0.45488459  1.0
  O  O105  1  0.17344988  0.60284500  0.54511664  1.0
  O  O106  1  0.60247249  0.17355201  0.54487539  1.0
  O  O107  1  0.39752841  0.82645286  0.45512916  1.0
  O  O108  1  0.24996305  0.75006988  0.50000478  1.0
  O  O109  1  0.62927980  0.39805604  0.45548651  1.0
  O  O110  1  0.37071543  0.60193560  0.54451303  1.0
  O  O111  1  0.60212958  0.37097572  0.54480385  1.0
  O  O112  1  0.39786508  0.62902535  0.45519963  1.0
  O  O113  1  0.82644272  0.05762872  0.45449841  1.0
  O  O114  1  0.17356247  0.94238071  0.54550796  1.0
  O  O115  1  0.94237651  0.17356456  0.54530504  1.0
  O  O116  1  0.05763086  0.82644268  0.45469709  1.0
  O  O117  1  0.94265855  0.37146811  0.54528062  1.0
  O  O118  1  0.05734848  0.62853093  0.45471948  1.0
  O  O119  1  0.62886870  0.05731190  0.45500902  1.0
  O  O120  1  0.37112575  0.94269553  0.54499056  1.0
  O  O121  1  0.66500070  0.23739413  0.33066453  1.0
  O  O122  1  0.33499582  0.76260896  0.66933756  1.0
  O  O123  1  0.76274696  0.33475319  0.66929886  1.0
  O  O124  1  0.23725184  0.66524775  0.33070314  1.0
  O  O125  1  0.66497449  0.09398165  0.33061415  1.0
  O  O126  1  0.89425634  0.33106348  0.94169881  1.0
  O  O127  1  0.10574528  0.66893316  0.05830094  1.0
  O  O128  1  0.64990303  0.13315767  0.05801350  1.0
  O  O129  1  0.35009830  0.86684202  0.94198450  1.0
  O  O130  1  0.11118298  0.39242832  0.05824115  1.0
  O  O131  1  0.88881542  0.60756655  0.94175752  1.0
  O  O132  1  0.62144567  0.91907341  0.94154581  1.0
  O  O133  1  0.37855364  0.08092618  0.05845141  1.0
  O  O134  1  0.86860692  0.52549504  0.05724961  1.0
  O  O135  1  0.13139170  0.47450188  0.94274974  1.0
  O  O136  1  0.44067727  0.12836105  0.94265171  1.0
  O  O137  1  0.55932524  0.87163799  0.05734702  1.0
