# generated using pymatgen
data_ZnH3C9NO5F2
_symmetry_space_group_name_H-M   'P 1'
_cell_length_a   9.03441890
_cell_length_b   9.68049828
_cell_length_c   11.02010857
_cell_angle_alpha   82.69493753
_cell_angle_beta   79.46180697
_cell_angle_gamma   83.12868301
_symmetry_Int_Tables_number   1
_chemical_formula_structural   ZnH3C9NO5F2
_chemical_formula_sum   'Zn2 H6 C18 N2 O10 F4'
_cell_volume   935.24386672
_cell_formula_units_Z   2
loop_
 _symmetry_equiv_pos_site_id
 _symmetry_equiv_pos_as_xyz
  1  'x, y, z'
loop_
 _atom_site_type_symbol
 _atom_site_label
 _atom_site_symmetry_multiplicity
 _atom_site_fract_x
 _atom_site_fract_y
 _atom_site_fract_z
 _atom_site_occupancy
  Zn  Zn0  1  0.48916614  0.64435457  0.48500493  1.0
  Zn  Zn1  1  0.51082296  0.35564012  0.51497522  1.0
  H  H2  1  0.62560270  0.30059238  0.11953689  1.0
  H  H3  1  0.37441100  0.69933337  0.88046918  1.0
  H  H4  1  0.33261448  0.85455002  0.64927852  1.0
  H  H5  1  0.66737914  0.14544809  0.35071659  1.0
  H  H6  1  0.98533306  0.32617119  0.32098444  1.0
  H  H7  1  0.01462101  0.67399192  0.67888805  1.0
  C  C8  1  0.50525631  0.50336689  0.26346739  1.0
  C  C9  1  0.49474420  0.49658822  0.73656988  1.0
  C  C10  1  0.79527106  0.47864738  0.47411912  1.0
  C  C11  1  0.20473596  0.52136155  0.52589165  1.0
  C  C12  1  0.96458697  0.47381270  0.46004211  1.0
  C  C13  1  0.03540230  0.52623184  0.53994328  1.0
  C  C14  1  0.57024294  0.38866754  0.06750725  1.0
  C  C15  1  0.42976404  0.61128167  0.93246967  1.0
  C  C16  1  0.56954756  0.38507135  0.94232022  1.0
  C  C17  1  0.43042555  0.61489379  0.05766109  1.0
  C  C18  1  0.49916721  0.49590206  0.87157654  1.0
  C  C19  1  0.50083766  0.50405445  0.12840010  1.0
  C  C20  1  0.41672859  0.05968135  0.59487017  1.0
  C  C21  1  0.58326281  0.94031507  0.40511700  1.0
  C  C22  1  0.40623881  0.91985789  0.58267005  1.0
  C  C23  1  0.59377378  0.08013107  0.41732597  1.0
  C  C24  1  0.04811691  0.40489236  0.35052850  1.0
  C  C25  1  0.95187803  0.59519938  0.64943632  1.0
  N  N26  1  0.49173020  0.86170916  0.48588866  1.0
  N  N27  1  0.50826197  0.13828545  0.51409400  1.0
  O  O28  1  0.49003589  0.62105734  0.30619696  1.0
  O  O29  1  0.51000979  0.37893663  0.69377522  1.0
  O  O30  1  0.52712214  0.38397507  0.32508056  1.0
  O  O31  1  0.47283446  0.61594386  0.67493761  1.0
  O  O32  1  0.72074504  0.59788968  0.46560152  1.0
  O  O33  1  0.27926601  0.40211789  0.53443457  1.0
  O  O34  1  0.74570375  0.35938643  0.48545892  1.0
  O  O35  1  0.25427246  0.64064419  0.51449181  1.0
  O  O36  1  0.17238917  0.43243931  0.29406209  1.0
  O  O37  1  0.82762764  0.56759596  0.70594728  1.0
  F  F38  1  0.64247934  0.27077454  0.88993058  1.0
  F  F39  1  0.35749163  0.72920169  0.11007579  1.0
  F  F40  1  0.33321190  0.11943679  0.69042423  1.0
  F  F41  1  0.66678277  0.88057704  0.30955162  1.0
