# generated using pymatgen
data_Zn2H29C40S2N3O10
_symmetry_space_group_name_H-M   'P 1'
_cell_length_a   12.75513147
_cell_length_b   16.38685054
_cell_length_c   17.60771610
_cell_angle_alpha   96.07585657
_cell_angle_beta   90.05788336
_cell_angle_gamma   94.04829363
_symmetry_Int_Tables_number   1
_chemical_formula_structural   Zn2H29C40S2N3O10
_chemical_formula_sum   'Zn2 H29 C40 S2 N3 O10'
_cell_volume   3650.36377545
_cell_formula_units_Z   1
loop_
 _symmetry_equiv_pos_site_id
 _symmetry_equiv_pos_as_xyz
  1  'x, y, z'
loop_
 _atom_site_type_symbol
 _atom_site_label
 _atom_site_symmetry_multiplicity
 _atom_site_fract_x
 _atom_site_fract_y
 _atom_site_fract_z
 _atom_site_occupancy
  Zn  Zn0  1  0.49164556  0.40974981  0.49555496  1.0
  Zn  Zn1  1  0.51033896  0.58735274  0.49867026  1.0
  H  H2  1  0.39384254  0.70894946  0.44023554  1.0
  H  H3  1  0.38797416  0.86004640  0.44222231  1.0
  H  H4  1  0.66726835  0.88483111  0.58475361  1.0
  H  H5  1  0.34536904  0.10975395  0.40804740  1.0
  H  H6  1  0.60488473  0.14151710  0.56934467  1.0
  H  H7  1  0.60037993  0.29192998  0.56442138  1.0
  H  H8  1  0.59878590  0.00708382  0.55541334  1.0
  H  H9  1  0.40576112  0.99076727  0.44811146  1.0
  H  H10  1  0.46317786  0.60751010  0.26410679  1.0
  H  H11  1  0.46463575  0.60658549  0.12339693  1.0
  H  H12  1  0.54540117  0.35441470  0.10461965  1.0
  H  H13  1  0.45296250  0.64820930  0.88633165  1.0
  H  H14  1  0.52766058  0.39463726  0.87413090  1.0
  H  H15  1  0.52789790  0.38886229  0.73318313  1.0
  H  H16  1  0.52747163  0.41216383  0.99313324  1.0
  H  H17  1  0.46941839  0.59199127  0.00085334  1.0
  H  H18  1  0.86441511  0.61696169  0.46678265  1.0
  H  H19  1  0.73030171  0.68276477  0.54506983  1.0
  H  H20  1  0.64888036  0.67732913  0.62456528  1.0
  H  H21  1  0.73998247  0.76545921  0.62072154  1.0
  H  H22  1  0.30116890  0.22953428  0.34760609  1.0
  H  H23  1  0.35960808  0.32999038  0.37942065  1.0
  H  H24  1  0.25720293  0.28529969  0.43229503  1.0
  H  H25  1  0.48470727  0.30462442  0.28111182  1.0
  H  H26  1  0.61668861  0.34157531  0.29209364  1.0
  H  H27  1  0.57281654  0.28578523  0.20352976  1.0
  H  H28  1  0.41691681  0.71055400  0.78139338  1.0
  H  H29  1  0.39020369  0.65212193  0.69097127  1.0
  H  H30  1  0.51818761  0.69489486  0.71283044  1.0
  C  C31  1  0.49769792  0.49036568  0.34986726  1.0
  C  C32  1  0.29766661  0.51088531  0.50583003  1.0
  C  C33  1  0.50037130  0.50478931  0.64463436  1.0
  C  C34  1  0.70458656  0.49158143  0.49454790  1.0
  C  C35  1  0.45331531  0.75081718  0.47113535  1.0
  C  C36  1  0.45071989  0.83526070  0.47272948  1.0
  C  C37  1  0.52877023  0.88669045  0.51415923  1.0
  C  C38  1  0.60520179  0.84777748  0.55174181  1.0
  C  C39  1  0.60404019  0.76208431  0.54786507  1.0
  C  C40  1  0.53449911  0.97631943  0.51966983  1.0
  C  C41  1  0.46924063  0.02199333  0.48434978  1.0
  C  C42  1  0.40334211  0.14820942  0.44382431  1.0
  C  C43  1  0.47439131  0.11144888  0.48806956  1.0
  C  C44  1  0.54698535  0.16463956  0.53310073  1.0
  C  C45  1  0.54487403  0.24866998  0.53105931  1.0
  C  C46  1  0.40469584  0.23363358  0.44419808  1.0
  C  C47  1  0.50176541  0.48255644  0.26445508  1.0
  C  C48  1  0.48063448  0.55210841  0.22789706  1.0
  C  C49  1  0.48173041  0.55129858  0.14918506  1.0
  C  C50  1  0.50492989  0.47934676  0.10290784  1.0
  C  C51  1  0.52670692  0.41040844  0.13993154  1.0
  C  C52  1  0.52595008  0.40950960  0.21931296  1.0
  C  C53  1  0.50775785  0.47240311  0.01991118  1.0
  C  C54  1  0.48885156  0.53152201  0.97446527  1.0
  C  C55  1  0.47135483  0.59119822  0.85250273  1.0
  C  C56  1  0.49166549  0.52312615  0.89136468  1.0
  C  C57  1  0.51274395  0.44946351  0.84688430  1.0
  C  C58  1  0.51346243  0.44592311  0.76800084  1.0
  C  C59  1  0.49541188  0.51492102  0.72989294  1.0
  C  C60  1  0.47299734  0.58947688  0.77287009  1.0
  C  C61  1  0.10906208  0.44280507  0.52595283  1.0
  C  C62  1  0.89031982  0.55960963  0.48350102  1.0
  C  C63  1  0.18081221  0.50724104  0.51171553  1.0
  C  C64  1  0.82082159  0.49448290  0.49747497  1.0
  C  C65  1  0.99525664  0.53985758  0.49308911  1.0
  C  C66  1  0.00328160  0.46001815  0.51404851  1.0
  C  C67  1  0.68592874  0.72054312  0.58724339  1.0
  C  C68  1  0.32688739  0.27173614  0.39774687  1.0
  C  C69  1  0.55167355  0.33107640  0.25054002  1.0
  C  C70  1  0.44791559  0.66585009  0.73771337  1.0
  S  S71  1  0.11790079  0.59044326  0.48644997  1.0
  S  S72  1  0.88216115  0.40879898  0.52111750  1.0
  N  N73  1  0.52772521  0.71449642  0.50744416  1.0
  N  N74  1  0.47591240  0.28293662  0.48777996  1.0
  N  N75  1  0.13494957  0.36599562  0.55280375  1.0
  O  O76  1  0.51065128  0.42613787  0.38298324  1.0
  O  O77  1  0.48129480  0.56090382  0.38441326  1.0
  O  O78  1  0.34515808  0.58215474  0.51643098  1.0
  O  O79  1  0.33757771  0.44313918  0.48772357  1.0
  O  O80  1  0.52424079  0.56894877  0.61106786  1.0
  O  O81  1  0.48177900  0.43241001  0.61123055  1.0
  O  O82  1  0.65534594  0.42452231  0.50863149  1.0
  O  O83  1  0.66461215  0.55686311  0.47873490  1.0
  O  O84  1  0.07176186  0.30524704  0.53385000  1.0
  O  O85  1  0.21400940  0.36492814  0.59319614  1.0
