# generated using pymatgen
data_Zn3H8C50I8(NO8)2
_symmetry_space_group_name_H-M   'P 1'
_cell_length_a   23.61927816
_cell_length_b   23.61931781
_cell_length_c   32.62377918
_cell_angle_alpha   111.23060652
_cell_angle_beta   111.21901619
_cell_angle_gamma   89.99438253
_symmetry_Int_Tables_number   1
_chemical_formula_structural   Zn3H8C50I8(NO8)2
_chemical_formula_sum   'Zn6 H16 C100 I16 N4 O32'
_cell_volume   15633.85339831
_cell_formula_units_Z   2
loop_
 _symmetry_equiv_pos_site_id
 _symmetry_equiv_pos_as_xyz
  1  'x, y, z'
loop_
 _atom_site_type_symbol
 _atom_site_label
 _atom_site_symmetry_multiplicity
 _atom_site_fract_x
 _atom_site_fract_y
 _atom_site_fract_z
 _atom_site_occupancy
  Zn  Zn0  1  0.02327449  0.02329747  0.04658641  1.0
  Zn  Zn1  1  0.05505760  0.49998848  0.99999603  1.0
  Zn  Zn2  1  0.49999235  0.05506298  0.00000378  1.0
  Zn  Zn3  1  0.94493600  0.50000154  0.00000124  1.0
  Zn  Zn4  1  0.97671224  0.97668843  0.95341364  1.0
  Zn  Zn5  1  0.50000219  0.94493551  0.00000015  1.0
  H  H6  1  0.36115076  0.87583799  0.53424069  1.0
  H  H7  1  0.65838885  0.36116078  0.53424796  1.0
  H  H8  1  0.17307863  0.65838638  0.53422453  1.0
  H  H9  1  0.87585814  0.17306099  0.53422059  1.0
  H  H10  1  0.82691050  0.12413797  0.46575156  1.0
  H  H11  1  0.12416121  0.63885570  0.46577614  1.0
  H  H12  1  0.63884531  0.34164157  0.46577869  1.0
  H  H13  1  0.34159617  0.82691073  0.46575849  1.0
  H  H14  1  0.40139155  0.92129267  0.62248843  1.0
  H  H15  1  0.70122410  0.40146181  0.62250013  1.0
  H  H16  1  0.22103535  0.70120420  0.62247082  1.0
  H  H17  1  0.92129278  0.22106040  0.62248084  1.0
  H  H18  1  0.77896009  0.07872131  0.37749940  1.0
  H  H19  1  0.07873274  0.59856714  0.37752997  1.0
  H  H20  1  0.59858764  0.29881775  0.37751875  1.0
  H  H21  1  0.29880390  0.77890406  0.37751131  1.0
  C  C22  1  0.99996041  0.10931045  0.99995584  1.0
  C  C23  1  0.69842088  0.34381436  0.55249782  1.0
  C  C24  1  0.88867197  0.36953434  0.82867224  1.0
  C  C25  1  0.63046900  0.11131676  0.17130747  1.0
  C  C26  1  0.11128360  0.54081573  0.17130169  1.0
  C  C27  1  0.54086247  0.06000341  0.17132765  1.0
  C  C28  1  0.05996322  0.63044683  0.17133276  1.0
  C  C29  1  0.45911375  0.88863303  0.82866697  1.0
  C  C30  1  0.94000773  0.45915944  0.82869215  1.0
  C  C31  1  0.36951428  0.93998417  0.82869936  1.0
  C  C32  1  0.20868907  0.69841020  0.55248629  1.0
  C  C33  1  0.42681364  0.92678686  0.85369556  1.0
  C  C34  1  0.92685702  0.42683911  0.85369410  1.0
  C  C35  1  0.57314577  0.07316648  0.14630634  1.0
  C  C36  1  0.07308895  0.57311846  0.14630513  1.0
  C  C37  1  0.85407741  0.20867126  0.55247780  1.0
  C  C38  1  0.37688574  0.87691648  0.75382563  1.0
  C  C39  1  0.87691059  0.37693882  0.75382362  1.0
  C  C40  1  0.62311623  0.12308862  0.24617618  1.0
  C  C41  1  0.12309006  0.62306230  0.24617466  1.0
  C  C42  1  0.17007671  0.99997700  0.00003613  1.0
  C  C43  1  0.79131526  0.14592116  0.44750191  1.0
  C  C44  1  0.99994084  0.17004028  0.99996363  1.0
  C  C45  1  0.82992251  0.00002735  0.99998613  1.0
  C  C46  1  0.00004419  0.82994017  0.00001343  1.0
  C  C47  1  0.22189898  0.99998716  0.00000900  1.0
  C  C48  1  0.99997774  0.22188992  0.99999119  1.0
  C  C49  1  0.77809633  0.00001235  0.99999780  1.0
  C  C50  1  0.14592276  0.65620471  0.44751438  1.0
  C  C51  1  0.00001599  0.77809492  0.00000179  1.0
  C  C52  1  0.27884375  0.99999351  0.99999890  1.0
  C  C53  1  0.99999462  0.27884357  0.00000188  1.0
  C  C54  1  0.72114735  0.00000904  0.99999804  1.0
  C  C55  1  0.00001173  0.72114493  0.00000169  1.0
  C  C56  1  0.65619803  0.30160269  0.44752163  1.0
  C  C57  1  0.33066651  0.99999542  0.99999619  1.0
  C  C58  1  0.00000200  0.33067146  0.00000485  1.0
  C  C59  1  0.66931936  0.00001750  0.99999642  1.0
  C  C60  1  0.00002229  0.66932623  0.00000381  1.0
  C  C61  1  0.30156759  0.79131313  0.44750640  1.0
  C  C62  1  0.45386286  0.95382094  0.90775640  1.0
  C  C63  1  0.95393657  0.45385327  0.90775567  1.0
  C  C64  1  0.54609874  0.04618405  0.09224438  1.0
  C  C65  1  0.04606105  0.54610505  0.09224386  1.0
  C  C66  1  0.39140117  0.99999385  0.00000728  1.0
  C  C67  1  0.34380571  0.85406143  0.55249376  1.0
  C  C68  1  0.99999038  0.39139471  0.99999537  1.0
  C  C69  1  0.60859372  0.00000503  0.00000074  1.0
  C  C70  1  0.00000789  0.60859356  0.99999968  1.0
  C  C71  1  0.29900148  0.80166816  0.52605485  1.0
  C  C72  1  0.72437233  0.29899485  0.52605791  1.0
  C  C73  1  0.22707174  0.72436844  0.52605427  1.0
  C  C74  1  0.80168121  0.22705074  0.52604867  1.0
  C  C75  1  0.77293640  0.19831285  0.47394126  1.0
  C  C76  1  0.19831351  0.70101909  0.47394614  1.0
  C  C77  1  0.70100433  0.27563340  0.47395113  1.0
  C  C78  1  0.27561270  0.77294749  0.47394505  1.0
  C  C79  1  0.27550986  0.77548549  0.55099710  1.0
  C  C80  1  0.77550007  0.27550019  0.55099249  1.0
  C  C81  1  0.72450806  0.22450796  0.44900684  1.0
  C  C82  1  0.22448796  0.72451384  0.44900309  1.0
  C  C83  1  0.89064233  0.99999868  0.99997368  1.0
  C  C84  1  0.36692392  0.88017610  0.60228860  1.0
  C  C85  1  0.72212813  0.36696968  0.60229387  1.0
  C  C86  1  0.23533598  0.72211153  0.60228147  1.0
  C  C87  1  0.88018595  0.23534674  0.60227649  1.0
  C  C88  1  0.76467464  0.11983255  0.39770550  1.0
  C  C89  1  0.00002736  0.89066917  0.00002632  1.0
  C  C90  1  0.11982895  0.63305704  0.39771950  1.0
  C  C91  1  0.63307626  0.27791378  0.39772289  1.0
  C  C92  1  0.27788742  0.76463747  0.39771173  1.0
  C  C93  1  0.10935434  0.00000211  0.00004317  1.0
  C  C94  1  0.34659535  0.85386895  0.62725292  1.0
  C  C95  1  0.77341459  0.34665413  0.62725395  1.0
  C  C96  1  0.28061769  0.77340027  0.62725102  1.0
  C  C97  1  0.85387442  0.28065936  0.62724278  1.0
  C  C98  1  0.71940054  0.14616058  0.37274567  1.0
  C  C99  1  0.14614866  0.65336926  0.37274936  1.0
  C  C100  1  0.65342132  0.22663469  0.37275693  1.0
  C  C101  1  0.22661498  0.71934472  0.37274722  1.0
  C  C102  1  0.30103112  0.80103149  0.60206904  1.0
  C  C103  1  0.80104703  0.30105737  0.60206229  1.0
  C  C104  1  0.69899665  0.19898602  0.39793694  1.0
  C  C105  1  0.19896070  0.69896455  0.39793107  1.0
  C  C106  1  0.37254548  0.88210095  0.67987098  1.0
  C  C107  1  0.79780751  0.37261433  0.67987060  1.0
  C  C108  1  0.30725653  0.79781537  0.67986896  1.0
  C  C109  1  0.88208862  0.30731869  0.67986535  1.0
  C  C110  1  0.69274456  0.11793572  0.32012877  1.0
  C  C111  1  0.11794312  0.62738886  0.32012985  1.0
  C  C112  1  0.62745688  0.20222541  0.32013379  1.0
  C  C113  1  0.20222863  0.69267835  0.32012829  1.0
  C  C114  1  0.43325294  0.86216988  0.77856821  1.0
  C  C115  1  0.91640147  0.43330835  0.77859709  1.0
  C  C116  1  0.34528306  0.91640270  0.77860348  1.0
  C  C117  1  0.86217223  0.34531890  0.77857232  1.0
  C  C118  1  0.65471287  0.13780529  0.22140218  1.0
  C  C119  1  0.13779927  0.56668220  0.22139753  1.0
  C  C120  1  0.56674810  0.08360284  0.22142779  1.0
  C  C121  1  0.08360013  0.65468660  0.22143169  1.0
  I  I122  1  0.47560596  0.79978902  0.73897859  1.0
  I  I123  1  0.93927748  0.47566571  0.73904883  1.0
  I  I124  1  0.26337301  0.93926880  0.73904693  1.0
  I  I125  1  0.79974638  0.26341691  0.73899188  1.0
  I  I126  1  0.73661863  0.20022907  0.26095016  1.0
  I  I127  1  0.20022648  0.52433329  0.26095513  1.0
  I  I128  1  0.52442681  0.06075695  0.26100873  1.0
  I  I129  1  0.06080908  0.73662840  0.26102176  1.0
  I  I130  1  0.54711425  0.87474502  0.86721201  1.0
  I  I131  1  0.99250804  0.54712735  0.86727607  1.0
  I  I132  1  0.32013919  0.99252215  0.86727564  1.0
  I  I133  1  0.87477961  0.32009302  0.86722030  1.0
  I  I134  1  0.67985378  0.12523092  0.13272273  1.0
  I  I135  1  0.12524606  0.45286558  0.13272492  1.0
  I  I136  1  0.45287319  0.00756369  0.13278054  1.0
  I  I137  1  0.00752963  0.67990174  0.13278784  1.0
  N  N138  1  0.35132939  0.85138539  0.70272627  1.0
  N  N139  1  0.85137647  0.35140564  0.70272355  1.0
  N  N140  1  0.64868408  0.14865423  0.29727610  1.0
  N  N141  1  0.14865856  0.64860697  0.29727474  1.0
  O  O142  1  0.01898328  0.10570622  0.04081153  1.0
  O  O143  1  0.93510571  0.01897005  0.04082530  1.0
  O  O144  1  0.02188930  0.93512957  0.04088208  1.0
  O  O145  1  0.10574167  0.02185299  0.04089787  1.0
  O  O146  1  0.97814728  0.89428036  0.95917438  1.0
  O  O147  1  0.89424914  0.98100664  0.95911869  1.0
  O  O148  1  0.98095780  0.06484366  0.95910117  1.0
  O  O149  1  0.06489567  0.97816849  0.95918749  1.0
  O  O150  1  0.45416904  0.91685117  0.92812976  1.0
  O  O151  1  0.01127496  0.45413440  0.92809701  1.0
  O  O152  1  0.47395286  0.01115717  0.92811903  1.0
  O  O153  1  0.91698152  0.47394380  0.92814681  1.0
  O  O154  1  0.52603870  0.08318169  0.07190310  1.0
  O  O155  1  0.08303454  0.54583197  0.07188077  1.0
  O  O156  1  0.54579844  0.98883879  0.07185385  1.0
  O  O157  1  0.98871761  0.52603743  0.07187146  1.0
  O  O158  1  0.41839735  0.95512909  0.00619788  1.0
  O  O159  1  0.05103297  0.41839544  0.00617785  1.0
  O  O160  1  0.58775766  0.05104516  0.00616846  1.0
  O  O161  1  0.95512246  0.58779005  0.00616614  1.0
  O  O162  1  0.41221974  0.04485503  0.99382449  1.0
  O  O163  1  0.04487944  0.58158949  0.99383059  1.0
  O  O164  1  0.58162542  0.94895279  0.99383524  1.0
  O  O165  1  0.94893441  0.41219942  0.99380462  1.0
  O  O166  1  0.41039934  0.92917485  0.70351545  1.0
  O  O167  1  0.77436572  0.41046333  0.70351981  1.0
  O  O168  1  0.29303582  0.77440390  0.70351418  1.0
  O  O169  1  0.92914329  0.29309508  0.70350179  1.0
  O  O170  1  0.70694249  0.07084558  0.29648043  1.0
  O  O171  1  0.07089161  0.58952578  0.29648721  1.0
  O  O172  1  0.58959743  0.22564446  0.29649850  1.0
  O  O173  1  0.22565626  0.70688841  0.29648517  1.0
