# generated using pymatgen
data_ZnH18C26(NO3)2
_symmetry_space_group_name_H-M   'P 1'
_cell_length_a   9.81924771
_cell_length_b   11.19960202
_cell_length_c   27.80490694
_cell_angle_alpha   88.17095245
_cell_angle_beta   81.57565362
_cell_angle_gamma   85.23257455
_symmetry_Int_Tables_number   1
_chemical_formula_structural   ZnH18C26(NO3)2
_chemical_formula_sum   'Zn2 H36 C52 N4 O12'
_cell_volume   3013.68999316
_cell_formula_units_Z   2
loop_
 _symmetry_equiv_pos_site_id
 _symmetry_equiv_pos_as_xyz
  1  'x, y, z'
loop_
 _atom_site_type_symbol
 _atom_site_label
 _atom_site_symmetry_multiplicity
 _atom_site_fract_x
 _atom_site_fract_y
 _atom_site_fract_z
 _atom_site_occupancy
  Zn  Zn0  1  0.87024413  0.48555946  0.48877020  1.0
  Zn  Zn1  1  0.12744749  0.51519471  0.51244969  1.0
  H  H2  1  0.80392171  0.89861810  0.49388751  1.0
  H  H3  1  0.40825370  0.76004124  0.86427519  1.0
  H  H4  1  0.72872094  0.35540187  0.64531717  1.0
  H  H5  1  0.27713071  0.64426132  0.36255783  1.0
  H  H6  1  0.64589301  0.35516899  0.73490805  1.0
  H  H7  1  0.37332807  0.65787790  0.27428256  1.0
  H  H8  1  0.84039192  0.27426124  0.89185046  1.0
  H  H9  1  0.21752440  0.77746696  0.11280869  1.0
  H  H10  1  0.76206763  0.26947193  0.98059198  1.0
  H  H11  1  0.29490283  0.78138791  0.02401080  1.0
  H  H12  1  0.67992890  0.25660316  0.04883847  1.0
  H  H13  1  0.18390741  0.10231751  0.52020160  1.0
  H  H14  1  0.33147732  0.76581377  0.95306069  1.0
  H  H15  1  0.10112540  0.89526299  0.51792734  1.0
  H  H16  1  0.87942487  0.10655470  0.50398781  1.0
  H  H17  1  0.92287056  0.14215608  0.40815751  1.0
  H  H18  1  0.98075811  0.06914069  0.35212127  1.0
  H  H19  1  0.06894677  0.03673916  0.40295750  1.0
  H  H20  1  0.20275305  0.17514263  0.34446906  1.0
  H  H21  1  0.14073964  0.24836035  0.39951766  1.0
  H  H22  1  0.94007477  0.34547577  0.36246369  1.0
  H  H23  1  0.00201572  0.27106324  0.30722675  1.0
  H  H24  1  0.59102488  0.56883789  0.53174215  1.0
  H  H25  1  0.15640157  0.87357163  0.64554010  1.0
  H  H26  1  0.30401814  0.77020978  0.63558157  1.0
  H  H27  1  0.18638519  0.78788698  0.59202919  1.0
  H  H28  1  0.12236166  0.68124587  0.69594337  1.0
  H  H29  1  0.14880229  0.59830625  0.64196763  1.0
  H  H30  1  0.94653413  0.72013759  0.61349013  1.0
  H  H31  1  0.91430095  0.79187895  0.67013614  1.0
  H  H32  1  0.40664257  0.43342729  0.46987493  1.0
  H  H33  1  0.65031199  0.40396323  0.45034518  1.0
  H  H34  1  0.34568958  0.59955537  0.55094222  1.0
  H  H35  1  0.15703593  0.35347015  0.24813344  1.0
  H  H36  1  0.84361105  0.67932905  0.74644431  1.0
  H  H37  1  0.59330109  0.25620950  0.13696075  1.0
  C  C38  1  0.05787376  0.26954403  0.50863868  1.0
  C  C39  1  0.70750177  0.42859117  0.87852864  1.0
  C  C40  1  0.15949662  0.49451514  0.35447258  1.0
  C  C41  1  0.83765668  0.51409540  0.64641164  1.0
  C  C42  1  0.61691495  0.42548633  0.98031691  1.0
  C  C43  1  0.42046894  0.61333449  0.02311712  1.0
  C  C44  1  0.46293590  0.61082843  0.97043487  1.0
  C  C45  1  0.56630454  0.42293062  0.03250670  1.0
  C  C46  1  0.56193879  0.51808294  0.95034146  1.0
  C  C47  1  0.47048179  0.51766583  0.05278542  1.0
  C  C48  1  0.71696463  0.33971909  0.95846628  1.0
  C  C49  1  0.93690726  0.73205614  0.49937718  1.0
  C  C50  1  0.33158710  0.70600342  0.04563651  1.0
  C  C51  1  0.76217263  0.34127416  0.90845022  1.0
  C  C52  1  0.28736986  0.70517416  0.09573410  1.0
  C  C53  1  0.10195885  0.49663779  0.40761859  1.0
  C  C54  1  0.89128842  0.50525311  0.59320763  1.0
  C  C55  1  0.60835897  0.33046085  0.06348902  1.0
  C  C56  1  0.40920106  0.69588974  0.93874585  1.0
  C  C57  1  0.08082110  0.13789355  0.51408857  1.0
  C  C58  1  0.90580907  0.86348758  0.50146106  1.0
  C  C59  1  0.98032104  0.06497567  0.51015268  1.0
  C  C60  1  0.42320759  0.51656186  0.10399841  1.0
  C  C61  1  0.00080190  0.93665959  0.51102773  1.0
  C  C62  1  0.42683541  0.49285027  0.49825386  1.0
  C  C63  1  0.57043422  0.51003613  0.50323443  1.0
  C  C64  1  0.41887461  0.41642540  0.18672754  1.0
  C  C65  1  0.59356718  0.60685773  0.81513866  1.0
  C  C66  1  0.27771969  0.61046286  0.17766069  1.0
  C  C67  1  0.75696715  0.42714645  0.82564650  1.0
  C  C68  1  0.30505931  0.58868997  0.28796945  1.0
  C  C69  1  0.70785183  0.42534891  0.71769032  1.0
  C  C70  1  0.25058365  0.58123259  0.33698448  1.0
  C  C71  1  0.60674270  0.51770784  0.89896874  1.0
  C  C72  1  0.75469781  0.42544440  0.66800156  1.0
  C  C73  1  0.12378779  0.41063192  0.32246287  1.0
  C  C74  1  0.87119543  0.60766466  0.67421052  1.0
  C  C75  1  0.18133632  0.41819848  0.27346265  1.0
  C  C76  1  0.82134443  0.60722103  0.72402666  1.0
  C  C77  1  0.26954204  0.50624877  0.25640774  1.0
  C  C78  1  0.74255325  0.51667482  0.74540288  1.0
  C  C79  1  0.03403692  0.31005806  0.33924881  1.0
  C  C80  1  0.10766667  0.21011812  0.36748506  1.0
  C  C81  1  0.01526185  0.10876406  0.38351219  1.0
  C  C82  1  0.46853298  0.42097758  0.13384460  1.0
  C  C83  1  0.95614998  0.70747048  0.65225891  1.0
  C  C84  1  0.11036437  0.68628889  0.65713700  1.0
  C  C85  1  0.19429221  0.78456300  0.63117873  1.0
  C  C86  1  0.55024824  0.60629198  0.86842535  1.0
  C  C87  1  0.56022590  0.32905839  0.11330808  1.0
  C  C88  1  0.45145909  0.69362879  0.88855458  1.0
  C  C89  1  0.33073885  0.61088992  0.12497887  1.0
  N  N90  1  0.32412964  0.51140792  0.20530879  1.0
  N  N91  1  0.69613334  0.51720249  0.79711591  1.0
  N  N92  1  0.32265514  0.54396621  0.52507353  1.0
  N  N93  1  0.67431900  0.45881296  0.47627078  1.0
  O  O94  1  0.93878468  0.31189840  0.50006384  1.0
  O  O95  1  0.54395259  0.68081785  0.78755514  1.0
  O  O96  1  0.84640946  0.35234484  0.80701768  1.0
  O  O97  1  0.19637555  0.69067414  0.19673607  1.0
  O  O98  1  0.05606699  0.69048420  0.50816574  1.0
  O  O99  1  0.15980016  0.33078099  0.51241384  1.0
  O  O100  1  0.84218621  0.67016984  0.48880946  1.0
  O  O101  1  0.97335827  0.48444538  0.41929129  1.0
  O  O102  1  0.02148582  0.50666741  0.58134954  1.0
  O  O103  1  0.18598344  0.51322174  0.43719206  1.0
  O  O104  1  0.80395509  0.49541031  0.56425577  1.0
  O  O105  1  0.45657963  0.33461948  0.21353994  1.0
