# generated using pymatgen
data_Zn8H35C70IO26
_symmetry_space_group_name_H-M   'P 1'
_cell_length_a   18.17682406
_cell_length_b   18.26602823
_cell_length_c   18.28235170
_cell_angle_alpha   60.33329440
_cell_angle_beta   60.29090778
_cell_angle_gamma   60.77402306
_symmetry_Int_Tables_number   1
_chemical_formula_structural   Zn8H35C70IO26
_chemical_formula_sum   'Zn8 H35 C70 I1 O26'
_cell_volume   4337.22614956
_cell_formula_units_Z   1
loop_
 _symmetry_equiv_pos_site_id
 _symmetry_equiv_pos_as_xyz
  1  'x, y, z'
loop_
 _atom_site_type_symbol
 _atom_site_label
 _atom_site_symmetry_multiplicity
 _atom_site_fract_x
 _atom_site_fract_y
 _atom_site_fract_z
 _atom_site_occupancy
  Zn  Zn0  1  0.53309515  0.54549646  0.05426987  1.0
  Zn  Zn1  1  0.54186358  0.55125948  0.86703147  1.0
  Zn  Zn2  1  0.36586394  0.54859879  0.03940825  1.0
  Zn  Zn3  1  0.54460039  0.37593954  0.03865760  1.0
  Zn  Zn4  1  0.94505063  0.96122907  0.45794806  1.0
  Zn  Zn5  1  0.12346243  0.95921734  0.45539428  1.0
  Zn  Zn6  1  0.95074150  0.96417136  0.62905440  1.0
  Zn  Zn7  1  0.95174593  0.13622898  0.45127906  1.0
  H  H8  1  0.66957022  0.28269572  0.38745182  1.0
  H  H9  1  0.11253943  0.29306462  0.24308877  1.0
  H  H10  1  0.65277267  0.40326573  0.69270244  1.0
  H  H11  1  0.60254806  0.22802273  0.31720174  1.0
  H  H12  1  0.75158813  0.25231743  0.94683651  1.0
  H  H13  1  0.87803044  0.12289475  0.98553632  1.0
  H  H14  1  0.98159483  0.03037226  0.88602377  1.0
  H  H15  1  0.95583215  0.06669394  0.75022343  1.0
  H  H16  1  0.75136206  0.30608315  0.59735288  1.0
  H  H17  1  0.19926420  0.74697204  0.89326830  1.0
  H  H18  1  0.45055821  0.55554468  0.73195427  1.0
  H  H19  1  0.23318098  0.56242327  0.55416109  1.0
  H  H20  1  0.48655364  0.52598263  0.59833183  1.0
  H  H21  1  0.38459527  0.61731091  0.50747183  1.0
  H  H22  1  0.24971181  0.73846234  0.54914307  1.0
  H  H23  1  0.77163200  0.09471654  0.27977150  1.0
  H  H24  1  0.10023127  0.84240444  0.79930991  1.0
  H  H25  1  0.62727623  0.77901982  0.87939809  1.0
  H  H26  1  0.94446951  0.45481857  0.70053283  1.0
  H  H27  1  0.02260457  0.56351142  0.57761847  1.0
  H  H28  1  0.96809179  0.71591489  0.57951452  1.0
  H  H29  1  0.72627377  0.87408949  0.77768323  1.0
  H  H30  1  0.16257465  0.72171430  0.48327146  1.0
  H  H31  1  0.82698848  0.21839887  0.10662637  1.0
  H  H32  1  0.89345229  0.27422308  0.17648891  1.0
  H  H33  1  0.72374901  0.40706442  0.21465971  1.0
  H  H34  1  0.24326626  0.80522722  0.09801323  1.0
  H  H35  1  0.36274046  0.52214376  0.29979040  1.0
  H  H36  1  0.33401769  0.46239942  0.46200723  1.0
  H  H37  1  0.14663725  0.90605603  0.18939832  1.0
  H  H38  1  0.20821006  0.39145556  0.15053254  1.0
  H  H39  1  0.44689355  0.24786584  0.26984235  1.0
  H  H40  1  0.48100378  0.11684760  0.39849681  1.0
  H  H41  1  0.38458089  0.01919392  0.49200369  1.0
  H  H42  1  0.25553046  0.05250178  0.45607558  1.0
  C  C43  1  0.64152484  0.37211824  0.85351151  1.0
  C  C44  1  0.20623378  0.67846660  0.44274422  1.0
  C  C45  1  0.22056511  0.71499457  0.34956282  1.0
  C  C46  1  0.34819499  0.63927546  0.14364950  1.0
  C  C47  1  0.27755477  0.65740792  0.29663301  1.0
  C  C48  1  0.28637214  0.69335463  0.20429152  1.0
  C  C49  1  0.23765579  0.78033793  0.16785126  1.0
  C  C50  1  0.18307189  0.83701805  0.21932131  1.0
  C  C51  1  0.17667682  0.80603394  0.30756274  1.0
  C  C52  1  0.40441115  0.20584741  0.31053002  1.0
  C  C53  1  0.42360246  0.13234309  0.38232407  1.0
  C  C54  1  0.76088240  0.16434508  0.26457507  1.0
  C  C55  1  0.36921225  0.07709481  0.43510604  1.0
  C  C56  1  0.29660741  0.09589912  0.41524184  1.0
  C  C57  1  0.27429139  0.17130362  0.34194948  1.0
  C  C58  1  0.64205446  0.63248447  0.87613912  1.0
  C  C59  1  0.32970004  0.22796329  0.28823899  1.0
  C  C60  1  0.30504747  0.30638593  0.21711553  1.0
  C  C61  1  0.22667124  0.33013689  0.20354054  1.0
  C  C62  1  0.17303286  0.27492259  0.25546401  1.0
  C  C63  1  0.19697552  0.19565671  0.32161084  1.0
  C  C64  1  0.79603574  0.21265649  0.90302767  1.0
  C  C65  1  0.79246514  0.23220891  0.16953557  1.0
  C  C66  1  0.86686610  0.13978160  0.92484947  1.0
  C  C67  1  0.92504106  0.08737711  0.86891547  1.0
  C  C68  1  0.91088270  0.10782252  0.79258084  1.0
  C  C69  1  0.83836052  0.18227956  0.76782656  1.0
  C  C70  1  0.36201702  0.36505630  0.15255965  1.0
  C  C71  1  0.77984327  0.23695679  0.82412455  1.0
  C  C72  1  0.71047025  0.31563250  0.79616793  1.0
  C  C73  1  0.70376933  0.34135053  0.71398437  1.0
  C  C74  1  0.75937247  0.28717607  0.66025478  1.0
  C  C75  1  0.82322156  0.20732449  0.68742324  1.0
  C  C76  1  0.82831480  0.26456680  0.20704195  1.0
  C  C77  1  0.40604912  0.59557179  0.69266301  1.0
  C  C78  1  0.42622646  0.57935871  0.61766505  1.0
  C  C79  1  0.36896174  0.63097942  0.56621127  1.0
  C  C80  1  0.29273874  0.69870798  0.58990833  1.0
  C  C81  1  0.26934304  0.71758465  0.66683527  1.0
  C  C82  1  0.35890890  0.63069731  0.85765533  1.0
  C  C83  1  0.32731669  0.66398643  0.72002967  1.0
  C  C84  1  0.30105393  0.67875152  0.80074900  1.0
  C  C85  1  0.21904818  0.73955209  0.82984644  1.0
  C  C86  1  0.16335224  0.79272985  0.77740940  1.0
  C  C87  1  0.73524033  0.33736001  0.22945099  1.0
  C  C88  1  0.18867154  0.78481366  0.69594173  1.0
  C  C89  1  0.83843514  0.55000737  0.76421812  1.0
  C  C90  1  0.91637428  0.52372594  0.69814768  1.0
  C  C91  1  0.96136199  0.58506153  0.62954884  1.0
  C  C92  1  0.93081872  0.67016453  0.63034818  1.0
  C  C93  1  0.85063683  0.69967841  0.69678393  1.0
  C  C94  1  0.64264419  0.36405532  0.13394453  1.0
  C  C95  1  0.79910631  0.63987276  0.76328599  1.0
  C  C96  1  0.71478061  0.67404140  0.82443155  1.0
  C  C97  1  0.69082078  0.75587643  0.83040785  1.0
  C  C98  1  0.69967244  0.30629204  0.19107221  1.0
  C  C99  1  0.74517692  0.81015464  0.77201136  1.0
  C  C100  1  0.82097913  0.78551373  0.70336135  1.0
  C  C101  1  0.13871816  0.13860700  0.36844843  1.0
  C  C102  1  0.86828452  0.85313019  0.63952906  1.0
  C  C103  1  0.12346146  0.86975778  0.35835016  1.0
  C  C104  1  0.87070938  0.14865798  0.63167188  1.0
  C  C105  1  0.13059388  0.85155216  0.63973690  1.0
  C  C106  1  0.66793227  0.23722125  0.28690988  1.0
  C  C107  1  0.84997264  0.13988390  0.36345117  1.0
  C  C108  1  0.70364098  0.26956378  0.32423245  1.0
  C  C109  1  0.31872551  0.56614192  0.33946618  1.0
  C  C110  1  0.79740613  0.19557629  0.30198659  1.0
  C  C111  1  0.30284274  0.53287469  0.43017683  1.0
  C  C112  1  0.24583812  0.58932345  0.48238169  1.0
  I  I113  1  0.79414962  0.44391777  0.87411148  1.0
  O  O114  1  0.49691176  0.50616175  0.99818079  1.0
  O  O115  1  0.89355079  0.06462476  0.67216312  1.0
  O  O116  1  0.16973049  0.87921130  0.55555794  1.0
  O  O117  1  0.61355937  0.33188751  0.93746121  1.0
  O  O118  1  0.88325340  0.18036090  0.37378725  1.0
  O  O119  1  0.04645070  0.87815420  0.68069633  1.0
  O  O120  1  0.85680321  0.05740630  0.40134823  1.0
  O  O121  1  0.04180493  0.91113550  0.36316328  1.0
  O  O122  1  0.88175614  0.18716880  0.54831504  1.0
  O  O123  1  0.17667445  0.05425815  0.38992072  1.0
  O  O124  1  0.86835051  0.89924923  0.67388278  1.0
  O  O125  1  0.60473024  0.62294917  0.95912678  1.0
  O  O126  1  0.42924237  0.60053488  0.14188616  1.0
  O  O127  1  0.61942750  0.61832992  0.82965080  1.0
  O  O128  1  0.32061218  0.44843536  0.12699396  1.0
  O  O129  1  0.44246330  0.62006364  0.81864309  1.0
  O  O130  1  0.63388114  0.32646128  0.09662830  1.0
  O  O131  1  0.31826313  0.60632766  0.94188453  1.0
  O  O132  1  0.60533716  0.44575752  0.12843554  1.0
  O  O133  1  0.44657740  0.32716982  0.12623067  1.0
  O  O134  1  0.61388068  0.45580312  0.81369501  1.0
  O  O135  1  0.31534446  0.63791451  0.09693527  1.0
  O  O136  1  0.99257685  0.00560329  0.49823361  1.0
  O  O137  1  0.05535136  0.17947272  0.38092264  1.0
  O  O138  1  0.90219469  0.86209839  0.55646822  1.0
  O  O139  1  0.16516520  0.87780920  0.39183404  1.0
