# generated using pymatgen
data_Zn2H12C41N2O14F9
_symmetry_space_group_name_H-M   'P 1'
_cell_length_a   13.27569980
_cell_length_b   13.79584118
_cell_length_c   28.42968162
_cell_angle_alpha   90.32502279
_cell_angle_beta   89.79923223
_cell_angle_gamma   89.89459062
_symmetry_Int_Tables_number   1
_chemical_formula_structural   Zn2H12C41N2O14F9
_chemical_formula_sum   'Zn4 H24 C82 N4 O28 F18'
_cell_volume   5206.75569176
_cell_formula_units_Z   2
loop_
 _symmetry_equiv_pos_site_id
 _symmetry_equiv_pos_as_xyz
  1  'x, y, z'
loop_
 _atom_site_type_symbol
 _atom_site_label
 _atom_site_symmetry_multiplicity
 _atom_site_fract_x
 _atom_site_fract_y
 _atom_site_fract_z
 _atom_site_occupancy
  Zn  Zn0  1  0.50887093  0.40310854  0.49796467  1.0
  Zn  Zn1  1  0.48819505  0.60479642  0.50217167  1.0
  Zn  Zn2  1  0.50954135  0.59721306  0.03584752  1.0
  Zn  Zn3  1  0.48924276  0.39556356  0.03156989  1.0
  H  H4  1  0.39560935  0.26142752  0.54633132  1.0
  H  H5  1  0.62146428  0.24742869  0.44753667  1.0
  H  H6  1  0.60191141  0.74688860  0.45352421  1.0
  H  H7  1  0.37210582  0.76097835  0.55020952  1.0
  H  H8  1  0.50800875  0.65124291  0.64583732  1.0
  H  H9  1  0.49700935  0.34408638  0.64632328  1.0
  H  H10  1  0.50724329  0.34892587  0.88794615  1.0
  H  H11  1  0.49847099  0.65614062  0.88751695  1.0
  H  H12  1  0.39607159  0.73925105  0.98787720  1.0
  H  H13  1  0.62244444  0.75236446  0.08565376  1.0
  H  H14  1  0.60314541  0.25301239  0.07976837  1.0
  H  H15  1  0.37318996  0.23974963  0.98391177  1.0
  H  H16  1  0.28551255  0.85270394  0.58322014  1.0
  H  H17  1  0.28729134  0.18069167  0.57308496  1.0
  H  H18  1  0.68610499  0.82618668  0.41471002  1.0
  H  H19  1  0.69699845  0.15618906  0.40921110  1.0
  H  H20  1  0.50954370  0.75874302  0.84657027  1.0
  H  H21  1  0.51340033  0.75486987  0.68627822  1.0
  H  H22  1  0.51198543  0.24525698  0.84751143  1.0
  H  H23  1  0.50699390  0.24120450  0.68726627  1.0
  H  H24  1  0.28700288  0.14855953  0.95101292  1.0
  H  H25  1  0.28801213  0.82048390  0.96127591  1.0
  H  H26  1  0.68931673  0.17331584  0.11740854  1.0
  H  H27  1  0.69853188  0.84321324  0.12343221  1.0
  C  C28  1  0.50220516  0.49802496  0.59051992  1.0
  C  C29  1  0.30464425  0.49071383  0.50334150  1.0
  C  C30  1  0.50012762  0.50919847  0.40978485  1.0
  C  C31  1  0.69247685  0.51812173  0.49617750  1.0
  C  C32  1  0.50280414  0.50209807  0.94326831  1.0
  C  C33  1  0.30558612  0.51090989  0.03129470  1.0
  C  C34  1  0.50098781  0.49029259  0.12395438  1.0
  C  C35  1  0.69346473  0.48263842  0.03752238  1.0
  C  C36  1  0.44106835  0.21214855  0.52490043  1.0
  C  C37  1  0.43157315  0.11117176  0.52666079  1.0
  C  C38  1  0.35875281  0.06357320  0.55583052  1.0
  C  C39  1  0.57030915  0.20411470  0.46895647  1.0
  C  C40  1  0.56902179  0.10241709  0.46793510  1.0
  C  C41  1  0.63474334  0.04561653  0.43860383  1.0
  C  C42  1  0.55340252  0.79635165  0.47332031  1.0
  C  C43  1  0.56053508  0.89742787  0.47036988  1.0
  C  C44  1  0.63084976  0.94506658  0.43990366  1.0
  C  C45  1  0.42336554  0.80434704  0.52885295  1.0
  C  C46  1  0.42341967  0.90606178  0.52928793  1.0
  C  C47  1  0.35559739  0.96307570  0.55758927  1.0
  C  C48  1  0.49815956  0.05505488  0.49790602  1.0
  C  C49  1  0.49400224  0.95350515  0.49917796  1.0
  C  C50  1  0.50693639  0.55685555  0.20732370  1.0
  C  C51  1  0.51523342  0.38520312  0.19708346  1.0
  C  C52  1  0.51354828  0.37172312  0.24508627  1.0
  C  C53  1  0.50915759  0.45151364  0.27669722  1.0
  C  C54  1  0.50567081  0.44227262  0.32639289  1.0
  C  C55  1  0.51565111  0.61382815  0.33659007  1.0
  C  C56  1  0.51471647  0.62727861  0.28859653  1.0
  C  C57  1  0.50981713  0.54752022  0.25701138  1.0
  C  C58  1  0.50871348  0.47842396  0.17652584  1.0
  C  C59  1  0.50800120  0.52072529  0.35716351  1.0
  C  C60  1  0.50508565  0.58601675  0.66736664  1.0
  C  C61  1  0.50404392  0.58893894  0.71666602  1.0
  C  C62  1  0.50557440  0.67879005  0.74233222  1.0
  C  C63  1  0.49978644  0.41027371  0.66753499  1.0
  C  C64  1  0.50144477  0.40920354  0.71689701  1.0
  C  C65  1  0.50291165  0.32033819  0.74292595  1.0
  C  C66  1  0.50491238  0.41416245  0.86641404  1.0
  C  C67  1  0.50373272  0.41125072  0.81713141  1.0
  C  C68  1  0.50448917  0.32138565  0.79147261  1.0
  C  C69  1  0.50081608  0.58994488  0.86627977  1.0
  C  C70  1  0.50230037  0.59101064  0.81691177  1.0
  C  C71  1  0.50428120  0.67986086  0.79089146  1.0
  C  C72  1  0.50231808  0.49777697  0.64307266  1.0
  C  C73  1  0.50256732  0.49955518  0.74206767  1.0
  C  C74  1  0.50282061  0.50242369  0.89072427  1.0
  C  C75  1  0.50272203  0.50064701  0.79173781  1.0
  C  C76  1  0.87011685  0.44904009  0.49842240  1.0
  C  C77  1  0.85259676  0.62092136  0.49346578  1.0
  C  C78  1  0.95579746  0.63192412  0.49294469  1.0
  C  C79  1  0.02135460  0.55121255  0.49649508  1.0
  C  C80  1  0.12797413  0.55857603  0.49704444  1.0
  C  C81  1  0.14487119  0.38879414  0.51028906  1.0
  C  C82  1  0.04202366  0.37655753  0.50782901  1.0
  C  C83  1  0.97664803  0.45663407  0.50058996  1.0
  C  C84  1  0.80565110  0.52861285  0.49581723  1.0
  C  C85  1  0.19157212  0.48004339  0.50393558  1.0
  C  C86  1  0.44170007  0.78837639  0.00907762  1.0
  C  C87  1  0.43234858  0.88940180  0.00729718  1.0
  C  C88  1  0.35955708  0.93730571  0.97836362  1.0
  C  C89  1  0.57122570  0.79590398  0.06446058  1.0
  C  C90  1  0.57007326  0.89759435  0.06544838  1.0
  C  C91  1  0.63611567  0.95410788  0.09442493  1.0
  C  C92  1  0.55474919  0.20372107  0.06006618  1.0
  C  C93  1  0.56194071  0.10260784  0.06295071  1.0
  C  C94  1  0.63244118  0.05468129  0.09307943  1.0
  C  C95  1  0.42455466  0.19622339  0.00504703  1.0
  C  C96  1  0.42455400  0.09451882  0.00461303  1.0
  C  C97  1  0.35660425  0.03782713  0.97658523  1.0
  C  C98  1  0.49914336  0.94524173  0.03575926  1.0
  C  C99  1  0.49520613  0.04679380  0.03444565  1.0
  C  C100  1  0.87073734  0.55231655  0.03527800  1.0
  C  C101  1  0.85434451  0.38080606  0.04271903  1.0
  C  C102  1  0.95757109  0.37023938  0.04386569  1.0
  C  C103  1  0.02265333  0.45087601  0.03931951  1.0
  C  C104  1  0.12927255  0.44368921  0.03896285  1.0
  C  C105  1  0.14552099  0.61271793  0.02363021  1.0
  C  C106  1  0.04253027  0.62490226  0.02579953  1.0
  C  C107  1  0.97743718  0.54502622  0.03376661  1.0
  C  C108  1  0.80671737  0.47269674  0.03869194  1.0
  C  C109  1  0.19250542  0.52187213  0.03098755  1.0
  N  N110  1  0.50845517  0.25577334  0.49684218  1.0
  N  N111  1  0.48674682  0.75253913  0.50164366  1.0
  N  N112  1  0.50917227  0.74450987  0.03686398  1.0
  N  N113  1  0.48799436  0.24779303  0.03201619  1.0
  O  O114  1  0.48286098  0.41854941  0.56930813  1.0
  O  O115  1  0.52156014  0.57857285  0.57052037  1.0
  O  O116  1  0.34013213  0.57045735  0.51820019  1.0
  O  O117  1  0.35416979  0.41872207  0.48760923  1.0
  O  O118  1  0.45872901  0.57892066  0.43190203  1.0
  O  O119  1  0.53506845  0.43193328  0.42744508  1.0
  O  O120  1  0.65735216  0.43748303  0.50965098  1.0
  O  O121  1  0.64111085  0.59104824  0.48329346  1.0
  O  O122  1  0.48341643  0.58156993  0.96459665  1.0
  O  O123  1  0.52222805  0.42141531  0.96312640  1.0
  O  O124  1  0.34105777  0.43110440  0.01624924  1.0
  O  O125  1  0.35499266  0.58274987  0.04691844  1.0
  O  O126  1  0.45954291  0.42086755  0.10189053  1.0
  O  O127  1  0.53592782  0.56751736  0.10626397  1.0
  O  O128  1  0.65821469  0.56318833  0.02391578  1.0
  O  O129  1  0.64212939  0.40944341  0.04998136  1.0
  O  O130  1  0.28584253  0.92291440  0.58665596  1.0
  O  O131  1  0.29179865  0.11337273  0.58309641  1.0
  O  O132  1  0.69545838  0.89580159  0.41133686  1.0
  O  O133  1  0.70296648  0.08587238  0.40878924  1.0
  O  O134  1  0.50568969  0.76833758  0.81273220  1.0
  O  O135  1  0.50839868  0.76629315  0.72002525  1.0
  O  O136  1  0.50664241  0.23389313  0.81378779  1.0
  O  O137  1  0.50341811  0.23178675  0.72113395  1.0
  O  O138  1  0.28684400  0.07831160  0.94776002  1.0
  O  O139  1  0.29248887  0.88784650  0.95133425  1.0
  O  O140  1  0.69739477  0.10363925  0.12130326  1.0
  O  O141  1  0.70452945  0.91350739  0.12389028  1.0
  F  F142  1  0.52676235  0.69369930  0.36386772  1.0
  F  F143  1  0.52196492  0.71898767  0.27247008  1.0
  F  F144  1  0.49929531  0.64732873  0.18981359  1.0
  F  F145  1  0.52591805  0.30520556  0.16979621  1.0
  F  F146  1  0.51957782  0.27988852  0.26117375  1.0
  F  F147  1  0.49694481  0.35191201  0.34395029  1.0
  F  F148  1  0.20113629  0.30941461  0.52024921  1.0
  F  F149  1  0.00524248  0.28633292  0.51426003  1.0
  F  F150  1  0.83163859  0.35862943  0.49836941  1.0
  F  F151  1  0.79745213  0.70325129  0.49201789  1.0
  F  F152  1  0.99252992  0.72303656  0.49031016  1.0
  F  F153  1  0.16816989  0.64694512  0.48945772  1.0
  F  F154  1  0.20170267  0.69168560  0.01297957  1.0
  F  F155  1  0.00545253  0.71479057  0.01844660  1.0
  F  F156  1  0.83168784  0.64254309  0.03368417  1.0
  F  F157  1  0.79992415  0.29830352  0.04526848  1.0
  F  F158  1  0.99488285  0.27951075  0.04808249  1.0
  F  F159  1  0.17001577  0.35595068  0.04773448  1.0
