# generated using pymatgen
data_Zn4H24C24O25
_symmetry_space_group_name_H-M   'P 1'
_cell_length_a   16.93198781
_cell_length_b   17.57643305
_cell_length_c   18.41482547
_cell_angle_alpha   66.86220378
_cell_angle_beta   66.83464985
_cell_angle_gamma   65.92433627
_symmetry_Int_Tables_number   1
_chemical_formula_structural   Zn4H24C24O25
_chemical_formula_sum   'Zn8 H48 C48 O50'
_cell_volume   4420.22695024
_cell_formula_units_Z   2
loop_
 _symmetry_equiv_pos_site_id
 _symmetry_equiv_pos_as_xyz
  1  'x, y, z'
loop_
 _atom_site_type_symbol
 _atom_site_label
 _atom_site_symmetry_multiplicity
 _atom_site_fract_x
 _atom_site_fract_y
 _atom_site_fract_z
 _atom_site_occupancy
  Zn  Zn0  1  0.91149876  0.03822961  0.11339152  1.0
  Zn  Zn1  1  0.07124213  0.02510811  0.94630369  1.0
  Zn  Zn2  1  0.08476787  0.86936904  0.10221911  1.0
  Zn  Zn3  1  0.10326929  0.04303015  0.10310085  1.0
  Zn  Zn4  1  0.67712393  0.44672477  0.53731138  1.0
  Zn  Zn5  1  0.49206322  0.46527752  0.68451204  1.0
  Zn  Zn6  1  0.50037237  0.44659807  0.51168629  1.0
  Zn  Zn7  1  0.50631565  0.61828031  0.52593359  1.0
  H  H8  1  0.74702777  0.11117778  0.94849450  1.0
  H  H9  1  0.80908928  0.10292016  0.73997172  1.0
  H  H10  1  0.71492405  0.11745817  0.83124380  1.0
  H  H11  1  0.65549681  0.25874812  0.85521662  1.0
  H  H12  1  0.67043979  0.39812447  0.82398769  1.0
  H  H13  1  0.90802900  0.35883245  0.77929692  1.0
  H  H14  1  0.80028070  0.37779670  0.85717573  1.0
  H  H15  1  0.74216949  0.25277413  0.93464112  1.0
  H  H16  1  0.82053546  0.86658706  0.35237853  1.0
  H  H17  1  0.92475248  0.64955557  0.46174845  1.0
  H  H18  1  0.82876386  0.74633753  0.47145303  1.0
  H  H19  1  0.70760115  0.76797539  0.41828172  1.0
  H  H20  1  0.65590382  0.72971208  0.33759546  1.0
  H  H21  1  0.85051012  0.67601690  0.17283019  1.0
  H  H22  1  0.74564637  0.75893504  0.20243466  1.0
  H  H23  1  0.74847341  0.84684032  0.27633287  1.0
  H  H24  1  0.82979646  0.28153148  0.17483320  1.0
  H  H25  1  0.92840938  0.38238433  0.23708123  1.0
  H  H26  1  0.83465159  0.39768078  0.20225430  1.0
  H  H27  1  0.71862261  0.32773399  0.30507125  1.0
  H  H28  1  0.68017904  0.22139089  0.43293704  1.0
  H  H29  1  0.88932669  0.06729569  0.46056513  1.0
  H  H30  1  0.78551764  0.08735074  0.43834133  1.0
  H  H31  1  0.77403498  0.17975790  0.29824210  1.0
  H  H32  1  0.11402265  0.80976870  0.85604011  1.0
  H  H33  1  0.19734910  0.57739339  0.92673835  1.0
  H  H34  1  0.14514480  0.66775596  0.85124703  1.0
  H  H35  1  0.24457720  0.74717954  0.73678033  1.0
  H  H36  1  0.38399990  0.78043591  0.68106723  1.0
  H  H37  1  0.44936020  0.75086861  0.85458678  1.0
  H  H38  1  0.40407377  0.83005155  0.76984332  1.0
  H  H39  1  0.24627552  0.85489578  0.78541507  1.0
  H  H40  1  0.32262496  0.08629820  0.82776268  1.0
  H  H41  1  0.45654589  0.15824788  0.88164664  1.0
  H  H42  1  0.45327470  0.11766350  0.80611310  1.0
  H  H43  1  0.36924511  0.22326900  0.70712099  1.0
  H  H44  1  0.26449844  0.36022524  0.66716496  1.0
  H  H45  1  0.10665315  0.39957701  0.85738541  1.0
  H  H46  1  0.12599227  0.36314525  0.77007809  1.0
  H  H47  1  0.21834813  0.21559499  0.77214273  1.0
  H  H48  1  0.16490155  0.75418819  0.28681642  1.0
  H  H49  1  0.16760087  0.79323553  0.46188412  1.0
  H  H50  1  0.16348651  0.71448007  0.42319496  1.0
  H  H51  1  0.30699548  0.63464511  0.34554459  1.0
  H  H52  1  0.46021051  0.61984234  0.27290918  1.0
  H  H53  1  0.46719294  0.84116694  0.17212377  1.0
  H  H54  1  0.46334803  0.74673764  0.15646355  1.0
  H  H55  1  0.31825957  0.72209122  0.20628975  1.0
  C  C56  1  0.87854757  0.09206439  0.95325178  1.0
  C  C57  1  0.80828034  0.12942353  0.90593038  1.0
  C  C58  1  0.77935342  0.13178868  0.79131744  1.0
  C  C59  1  0.72358957  0.26555388  0.81997624  1.0
  C  C60  1  0.71513002  0.36196799  0.77762704  1.0
  C  C61  1  0.84325556  0.34507238  0.80763606  1.0
  C  C62  1  0.78205776  0.22910072  0.87931949  1.0
  C  C63  1  0.66834193  0.39420270  0.71040358  1.0
  C  C64  1  0.91678680  0.86882510  0.23428479  1.0
  C  C65  1  0.86430775  0.82009026  0.31532844  1.0
  C  C66  1  0.87531702  0.70267045  0.43168609  1.0
  C  C67  1  0.76020106  0.72889124  0.37675365  1.0
  C  C68  1  0.71679885  0.68154846  0.35598404  1.0
  C  C69  1  0.80544331  0.70786765  0.22123571  1.0
  C  C70  1  0.80262591  0.78940054  0.29751788  1.0
  C  C71  1  0.68420870  0.61468849  0.43361210  1.0
  C  C72  1  0.93204819  0.16156480  0.17136129  1.0
  C  C73  1  0.87898236  0.23650221  0.21044960  1.0
  C  C74  1  0.88198378  0.35192660  0.23976583  1.0
  C  C75  1  0.77308087  0.28358917  0.33472857  1.0
  C  C76  1  0.73098945  0.24947912  0.42718293  1.0
  C  C77  1  0.83817631  0.11515538  0.42963881  1.0
  C  C78  1  0.82347950  0.20551154  0.29885820  1.0
  C  C79  1  0.67973357  0.32370649  0.46714522  1.0
  C  C80  1  0.13472940  0.84191336  0.94552717  1.0
  C  C81  1  0.16462408  0.78314047  0.89093983  1.0
  C  C82  1  0.19479579  0.64331087  0.88687081  1.0
  C  C83  1  0.28701974  0.72287400  0.77901222  1.0
  C  C84  1  0.38501761  0.71712755  0.72796093  1.0
  C  C85  1  0.40504468  0.76648982  0.81729725  1.0
  C  C86  1  0.25515525  0.78863229  0.82792622  1.0
  C  C87  1  0.42507897  0.64819616  0.68219095  1.0
  C  C88  1  0.20580470  0.09861879  0.92985853  1.0
  C  C89  1  0.28480410  0.13125815  0.86718773  1.0
  C  C90  1  0.41456035  0.16038649  0.84791957  1.0
  C  C91  1  0.32993324  0.25766779  0.75550521  1.0
  C  C92  1  0.29344329  0.35496213  0.71402250  1.0
  C  C93  1  0.15615073  0.36183235  0.81468584  1.0
  C  C94  1  0.25025579  0.22145585  0.81114149  1.0
  C  C95  1  0.37063830  0.39532157  0.66968093  1.0
  C  C96  1  0.17505166  0.87353106  0.19769345  1.0
  C  C97  1  0.19894647  0.80243888  0.27310584  1.0
  C  C98  1  0.19326727  0.76618953  0.40974997  1.0
  C  C99  1  0.32778681  0.69287059  0.32908136  1.0
  C  C100  1  0.43065837  0.66480868  0.31178897  1.0
  C  C101  1  0.43842227  0.78719656  0.19931158  1.0
  C  C102  1  0.30075406  0.75753917  0.25133946  1.0
  C  C103  1  0.45535286  0.61521291  0.39281776  1.0
  O  O104  1  0.04131777  0.99672437  0.06575113  1.0
  O  O105  1  0.96014682  0.06747014  0.91372183  1.0
  O  O106  1  0.84608609  0.09163168  0.02876627  1.0
  O  O107  1  0.84242656  0.09514019  0.83752361  1.0
  O  O108  1  0.76269247  0.22215503  0.75708616  1.0
  O  O109  1  0.80046722  0.37688861  0.74487420  1.0
  O  O110  1  0.86261641  0.25414439  0.84167180  1.0
  O  O111  1  0.58823912  0.38872288  0.73780703  1.0
  O  O112  1  0.71112084  0.42200576  0.63683315  1.0
  O  O113  1  0.00007140  0.83271786  0.20884143  1.0
  O  O114  1  0.86868740  0.94181514  0.19972070  1.0
  O  O115  1  0.92431687  0.74984398  0.35812139  1.0
  O  O116  1  0.82614857  0.66450133  0.41715263  1.0
  O  O117  1  0.77695987  0.64323549  0.29147793  1.0
  O  O118  1  0.85562541  0.74639620  0.23446736  1.0
  O  O119  1  0.62002172  0.64791212  0.48888374  1.0
  O  O120  1  0.72075330  0.53481030  0.43819495  1.0
  O  O121  1  0.01667926  0.14316806  0.14478123  1.0
  O  O122  1  0.88124133  0.12564907  0.16909177  1.0
  O  O123  1  0.93519993  0.27995355  0.20729057  1.0
  O  O124  1  0.83275676  0.32824056  0.32330677  1.0
  O  O125  1  0.79765741  0.18486134  0.46571513  1.0
  O  O126  1  0.88334701  0.13944698  0.34500065  1.0
  O  O127  1  0.60229666  0.36537346  0.45422629  1.0
  O  O128  1  0.71625545  0.33839838  0.50622618  1.0
  O  O129  1  0.11233332  0.80921251  0.02274443  1.0
  O  O130  1  0.13429444  0.91980780  0.90640956  1.0
  O  O131  1  0.16803198  0.69649912  0.93870179  1.0
  O  O132  1  0.28204356  0.63932380  0.83222323  1.0
  O  O133  1  0.43977723  0.70000073  0.77810042  1.0
  O  O134  1  0.31765983  0.77031001  0.87127723  1.0
  O  O135  1  0.41888380  0.67726952  0.60835147  1.0
  O  O136  1  0.45899369  0.57075389  0.71934840  1.0
  O  O137  1  0.19797108  0.08030646  0.00531674  1.0
  O  O138  1  0.15602323  0.09292482  0.89617626  1.0
  O  O139  1  0.34171179  0.13092553  0.90702481  1.0
  O  O140  1  0.38673313  0.24739672  0.80112499  1.0
  O  O141  1  0.22674571  0.40005185  0.77188057  1.0
  O  O142  1  0.18524698  0.27565563  0.86230484  1.0
  O  O143  1  0.41290389  0.38660342  0.59736543  1.0
  O  O144  1  0.38593548  0.43083605  0.70858749  1.0
  O  O145  1  0.14188056  0.95195698  0.19903164  1.0
  O  O146  1  0.19096503  0.84519797  0.13749159  1.0
  O  O147  1  0.16925660  0.83488009  0.34197733  1.0
  O  O148  1  0.28769082  0.73021213  0.39640347  1.0
  O  O149  1  0.46561946  0.73665991  0.27187629  1.0
  O  O150  1  0.34424895  0.82372444  0.21545273  1.0
  O  O151  1  0.44712305  0.53901571  0.42432679  1.0
  O  O152  1  0.47967918  0.65436755  0.42108590  1.0
  O  O153  1  0.54385389  0.49174002  0.56498404  1.0
