# generated using pymatgen
data_AlH9C24(NO3)6
_symmetry_space_group_name_H-M   'P 1'
_cell_length_a   4.14740204
_cell_length_b   28.90799066
_cell_length_c   28.90805728
_cell_angle_alpha   60.00003273
_cell_angle_beta   89.99999211
_cell_angle_gamma   89.99977497
_symmetry_Int_Tables_number   1
_chemical_formula_structural   AlH9C24(NO3)6
_chemical_formula_sum   'Al2 H18 C48 N12 O36'
_cell_volume   3001.53715807
_cell_formula_units_Z   2
loop_
 _symmetry_equiv_pos_site_id
 _symmetry_equiv_pos_as_xyz
  1  'x, y, z'
loop_
 _atom_site_type_symbol
 _atom_site_label
 _atom_site_symmetry_multiplicity
 _atom_site_fract_x
 _atom_site_fract_y
 _atom_site_fract_z
 _atom_site_occupancy
  Al  Al0  1  0.99983067  0.50000033  0.99999902  1.0
  Al  Al1  1  0.99983004  0.16666772  0.66666449  1.0
  H  H2  1  0.48824470  0.35596803  0.41397415  1.0
  H  H3  1  0.51042932  0.20187286  0.42324159  1.0
  H  H4  1  0.51039935  0.46481491  0.24341694  1.0
  H  H5  1  0.48824296  0.31071641  0.25269037  1.0
  H  H6  1  0.50081991  0.27816189  0.33727355  1.0
  H  H7  1  0.50079432  0.38852587  0.32938778  1.0
  H  H8  1  0.48825385  0.23005775  0.85596502  1.0
  H  H9  1  0.51042248  0.37488588  0.70187067  1.0
  H  H10  1  0.51041866  0.29176791  0.96481326  1.0
  H  H11  1  0.48824869  0.43659252  0.81071491  1.0
  H  H12  1  0.50081871  0.38456486  0.77816027  1.0
  H  H13  1  0.50082004  0.28208548  0.88852366  1.0
  H  H14  1  0.48824957  0.91397554  0.73005603  1.0
  H  H15  1  0.51043195  0.92324429  0.87488294  1.0
  H  H16  1  0.51040304  0.74341872  0.79176660  1.0
  H  H17  1  0.48824682  0.75269249  0.93659110  1.0
  H  H18  1  0.50082226  0.83727564  0.88456337  1.0
  H  H19  1  0.50080312  0.82939045  0.78208416  1.0
  C  C20  1  0.49996487  0.58173365  0.95536281  1.0
  C  C21  1  0.49996641  0.46290310  0.08173211  1.0
  C  C22  1  0.49996415  0.45536445  0.96290188  1.0
  C  C23  1  0.49997931  0.20377541  0.58493042  1.0
  C  C24  1  0.49997193  0.21129498  0.70377184  1.0
  C  C25  1  0.49998085  0.08493280  0.71129133  1.0
  C  C26  1  0.50023214  0.23105280  0.52435312  1.0
  C  C27  1  0.50445815  0.28717349  0.49106986  1.0
  C  C28  1  0.49652033  0.31251863  0.43573040  1.0
  C  C29  1  0.50012782  0.28294851  0.40927079  1.0
  C  C30  1  0.50327751  0.22715511  0.44126227  1.0
  C  C31  1  0.49546811  0.20244919  0.49667242  1.0
  C  C32  1  0.50032523  0.30692571  0.35135655  1.0
  C  C33  1  0.50031490  0.35976007  0.31530598  1.0
  C  C34  1  0.50325306  0.43953004  0.22539667  1.0
  C  C35  1  0.50012412  0.38373734  0.25738814  1.0
  C  C36  1  0.49651504  0.35416468  0.23093293  1.0
  C  C37  1  0.50444740  0.37950915  0.17559547  1.0
  C  C38  1  0.50021027  0.43562848  0.14230941  1.0
  C  C39  1  0.49544545  0.46423176  0.16998731  1.0
  C  C40  1  0.50021982  0.24459546  0.73104870  1.0
  C  C41  1  0.50444726  0.22175790  0.78716968  1.0
  C  C42  1  0.49652622  0.25175180  0.81251606  1.0
  C  C43  1  0.50013738  0.30778140  0.78294479  1.0
  C  C44  1  0.50327640  0.33158306  0.72715277  1.0
  C  C45  1  0.49545988  0.30087816  0.70244868  1.0
  C  C46  1  0.50033946  0.34171741  0.80692348  1.0
  C  C47  1  0.50033484  0.32493392  0.85975846  1.0
  C  C48  1  0.50326663  0.33507277  0.93952917  1.0
  C  C49  1  0.50013666  0.35887399  0.88373595  1.0
  C  C50  1  0.49651920  0.41490109  0.85416347  1.0
  C  C51  1  0.50444182  0.44489440  0.87950825  1.0
  C  C52  1  0.50020813  0.42206124  0.93562701  1.0
  C  C53  1  0.49545167  0.36578017  0.96422965  1.0
  C  C54  1  0.50023482  0.02435591  0.74459256  1.0
  C  C55  1  0.50445628  0.99107204  0.72175486  1.0
  C  C56  1  0.49652192  0.93573153  0.75174953  1.0
  C  C57  1  0.50013174  0.90927387  0.80777883  1.0
  C  C58  1  0.50328508  0.94126541  0.83157977  1.0
  C  C59  1  0.49547947  0.99667357  0.80087489  1.0
  C  C60  1  0.50033021  0.85135937  0.84171557  1.0
  C  C61  1  0.50032106  0.81530736  0.82493276  1.0
  C  C62  1  0.50325421  0.72539819  0.83507136  1.0
  C  C63  1  0.50012652  0.75738987  0.85887271  1.0
  C  C64  1  0.49651495  0.73093530  0.91489999  1.0
  C  C65  1  0.50443630  0.67559750  0.94489268  1.0
  C  C66  1  0.50020519  0.64231134  0.92205998  1.0
  C  C67  1  0.49544282  0.66998987  0.86577865  1.0
  N  N68  1  0.48539753  0.14297650  0.52362178  1.0
  N  N69  1  0.51458928  0.32512128  0.51189977  1.0
  N  N70  1  0.51458920  0.34155750  0.15476635  1.0
  N  N71  1  0.48539259  0.52370690  0.14303515  1.0
  N  N72  1  0.48539252  0.33340267  0.64297361  1.0
  N  N73  1  0.51458408  0.16298009  0.82511857  1.0
  N  N74  1  0.51457993  0.50367582  0.84155595  1.0
  N  N75  1  0.48539519  0.33325634  0.02370649  1.0
  N  N76  1  0.48541346  0.02362428  0.83339978  1.0
  N  N77  1  0.51458617  0.01190155  0.66297645  1.0
  N  N78  1  0.51458025  0.65476881  0.00367331  1.0
  N  N79  1  0.48539112  0.64303723  0.83325595  1.0
  O  O80  1  0.26026475  0.45005048  0.99217391  1.0
  O  O81  1  0.26027056  0.55777458  0.95004945  1.0
  O  O82  1  0.26027139  0.49217537  0.05777332  1.0
  O  O83  1  0.73928223  0.48571202  0.95426764  1.0
  O  O84  1  0.73928743  0.45426876  0.06001906  1.0
  O  O85  1  0.73928605  0.56002084  0.98571023  1.0
  O  O86  1  0.26027625  0.10888783  0.71660820  1.0
  O  O87  1  0.26027542  0.17450394  0.60888513  1.0
  O  O88  1  0.26027001  0.21661046  0.67450052  1.0
  O  O89  1  0.73929183  0.10664963  0.68094320  1.0
  O  O90  1  0.73928841  0.18094649  0.71240417  1.0
  O  O91  1  0.73928803  0.21240798  0.60664674  1.0
  O  O92  1  0.27781245  0.11945254  0.55793075  1.0
  O  O93  1  0.67997504  0.12249102  0.50668961  1.0
  O  O94  1  0.72155024  0.31795280  0.54531367  1.0
  O  O95  1  0.32127258  0.36272232  0.49120800  1.0
  O  O96  1  0.72155483  0.34872830  0.12135173  1.0
  O  O97  1  0.32129037  0.30395471  0.17546046  1.0
  O  O98  1  0.27783103  0.54723217  0.10872172  1.0
  O  O99  1  0.67997195  0.54419099  0.15996779  1.0
  O  O100  1  0.27781453  0.32261659  0.61944903  1.0
  O  O101  1  0.67996444  0.37082070  0.62248921  1.0
  O  O102  1  0.72154773  0.13673436  0.81795029  1.0
  O  O103  1  0.32127333  0.14607128  0.86272034  1.0
  O  O104  1  0.72153805  0.52991965  0.84872710  1.0
  O  O105  1  0.32127798  0.52058349  0.80395354  1.0
  O  O106  1  0.27783136  0.34404485  0.04723060  1.0
  O  O107  1  0.67997291  0.29583960  0.04419017  1.0
  O  O108  1  0.27783487  0.05793445  0.82261409  1.0
  O  O109  1  0.67999091  0.00669076  0.87081726  1.0
  O  O110  1  0.72154180  0.04531636  0.63673135  1.0
  O  O111  1  0.32127416  0.99120869  0.64606797  1.0
  O  O112  1  0.72154398  0.62135415  0.02991648  1.0
  O  O113  1  0.32128547  0.67546394  0.02058191  1.0
  O  O114  1  0.27782790  0.60872543  0.84404237  1.0
  O  O115  1  0.67997537  0.65996951  0.79583934  1.0
