# generated using pymatgen
data_ZnH10C20NO5
_symmetry_space_group_name_H-M   'P 1'
_cell_length_a   11.80519257
_cell_length_b   13.17241482
_cell_length_c   15.26817046
_cell_angle_alpha   90.53687460
_cell_angle_beta   95.21367522
_cell_angle_gamma   96.55028889
_symmetry_Int_Tables_number   1
_chemical_formula_structural   ZnH10C20NO5
_chemical_formula_sum   'Zn2 H20 C40 N2 O10'
_cell_volume   2348.51971693
_cell_formula_units_Z   2
loop_
 _symmetry_equiv_pos_site_id
 _symmetry_equiv_pos_as_xyz
  1  'x, y, z'
loop_
 _atom_site_type_symbol
 _atom_site_label
 _atom_site_symmetry_multiplicity
 _atom_site_fract_x
 _atom_site_fract_y
 _atom_site_fract_z
 _atom_site_occupancy
  Zn  Zn0  1  0.61935393  0.50231921  0.50930578  1.0
  Zn  Zn1  1  0.38065249  0.49767943  0.49069155  1.0
  H  H2  1  0.68185311  0.48925034  0.23449160  1.0
  H  H3  1  0.78711861  0.48153231  0.09997199  1.0
  H  H4  1  0.36497691  0.81383464  0.46726798  1.0
  H  H5  1  0.63505369  0.18617533  0.53273741  1.0
  H  H6  1  0.72505455  0.83827854  0.54540432  1.0
  H  H7  1  0.27497646  0.16172064  0.45458534  1.0
  H  H8  1  0.81984236  0.60825140  0.43798177  1.0
  H  H9  1  0.18017503  0.39175078  0.56204310  1.0
  H  H10  1  0.76909850  0.35510398  0.59475065  1.0
  H  H11  1  0.23091036  0.64489177  0.40525795  1.0
  H  H12  1  0.16547209  0.01922808  0.42432011  1.0
  H  H13  1  0.31812038  0.51075054  0.76550568  1.0
  H  H14  1  0.83456428  0.98077136  0.57568495  1.0
  H  H15  1  0.02362610  0.67254705  0.39498104  1.0
  H  H16  1  0.97637761  0.32744709  0.60503445  1.0
  H  H17  1  0.32031350  0.50976341  0.21036473  1.0
  H  H18  1  0.67965246  0.49023953  0.78962686  1.0
  H  H19  1  0.21381191  0.51820928  0.06212290  1.0
  H  H20  1  0.78615433  0.48180438  0.93787463  1.0
  H  H21  1  0.21285577  0.51847773  0.90002471  1.0
  C  C22  1  0.46213571  0.29920125  0.49731372  1.0
  C  C23  1  0.64836543  0.87616990  0.52942729  1.0
  C  C24  1  0.55474286  0.13865104  0.51489276  1.0
  C  C25  1  0.44529717  0.86134529  0.48509352  1.0
  C  C26  1  0.55310336  0.03117015  0.51273669  1.0
  C  C27  1  0.44693087  0.96882611  0.48725972  1.0
  C  C28  1  0.05403861  0.60879853  0.43165163  1.0
  C  C29  1  0.94596297  0.39119940  0.56836701  1.0
  C  C30  1  0.16798073  0.59435369  0.43682856  1.0
  C  C31  1  0.83201825  0.40564488  0.56318272  1.0
  C  C32  1  0.14084861  0.45166832  0.52558860  1.0
  C  C33  1  0.53790680  0.70080059  0.50268780  1.0
  C  C34  1  0.85916072  0.54832217  0.47442853  1.0
  C  C35  1  0.02209229  0.45947629  0.52442766  1.0
  C  C36  1  0.97791934  0.54051890  0.47559879  1.0
  C  C37  1  0.49916177  0.50039890  0.67091994  1.0
  C  C38  1  0.50080708  0.49959878  0.32907246  1.0
  C  C39  1  0.60314795  0.49391230  0.19217732  1.0
  C  C40  1  0.39682058  0.50608232  0.80781374  1.0
  C  C41  1  0.50107801  0.49976620  0.23095139  1.0
  C  C42  1  0.49888636  0.50022982  0.76903680  1.0
  C  C43  1  0.39864839  0.50565156  0.17843120  1.0
  C  C44  1  0.29224953  0.51318629  0.94148592  1.0
  C  C45  1  0.60131692  0.49434525  0.82155771  1.0
  C  C46  1  0.39620159  0.50631800  0.08650186  1.0
  C  C47  1  0.60376117  0.49367874  0.91348755  1.0
  C  C48  1  0.50022579  0.49996348  0.04654203  1.0
  C  C49  1  0.49973494  0.50003016  0.95344593  1.0
  C  C50  1  0.60473707  0.49348866  0.10043859  1.0
  C  C51  1  0.39523544  0.50650374  0.89954943  1.0
  C  C52  1  0.29269228  0.51308354  0.03094623  1.0
  C  C53  1  0.70727208  0.48692087  0.96904329  1.0
  C  C54  1  0.23101755  0.96474864  0.43670120  1.0
  C  C55  1  0.70773136  0.48682231  0.05850136  1.0
  C  C56  1  0.76901226  0.03525510  0.56329168  1.0
  C  C57  1  0.54402348  0.81539217  0.50537934  1.0
  C  C58  1  0.45600779  0.18460859  0.49461690  1.0
  C  C59  1  0.34550457  0.01792640  0.46557580  1.0
  C  C60  1  0.65452840  0.98207513  0.53441596  1.0
  C  C61  1  0.35166943  0.12383394  0.47056197  1.0
  N  N62  1  0.79030123  0.48384572  0.51694748  1.0
  N  N63  1  0.20970234  0.51615531  0.48307064  1.0
  O  O64  1  0.56208970  0.34754885  0.50640482  1.0
  O  O65  1  0.79714827  0.12755615  0.57469035  1.0
  O  O66  1  0.43793325  0.65245326  0.49359484  1.0
  O  O67  1  0.36806249  0.33834147  0.48994936  1.0
  O  O68  1  0.63196503  0.66165758  0.51003485  1.0
  O  O69  1  0.59636908  0.50509255  0.64005093  1.0
  O  O70  1  0.40359006  0.49491790  0.35994746  1.0
  O  O71  1  0.40247093  0.49600590  0.62559042  1.0
  O  O72  1  0.59748565  0.50397928  0.37440184  1.0
  O  O73  1  0.20288916  0.87244558  0.42531348  1.0
