# generated using pymatgen
data_Zn4H8C27S4O19
_symmetry_space_group_name_H-M   'P 1'
_cell_length_a   19.56407973
_cell_length_b   19.66352931
_cell_length_c   33.21396696
_cell_angle_alpha   79.14114665
_cell_angle_beta   79.49938127
_cell_angle_gamma   63.95171049
_symmetry_Int_Tables_number   1
_chemical_formula_structural   Zn4H8C27S4O19
_chemical_formula_sum   'Zn16 H32 C108 S16 O76'
_cell_volume   11202.01420040
_cell_formula_units_Z   4
loop_
 _symmetry_equiv_pos_site_id
 _symmetry_equiv_pos_as_xyz
  1  'x, y, z'
loop_
 _atom_site_type_symbol
 _atom_site_label
 _atom_site_symmetry_multiplicity
 _atom_site_fract_x
 _atom_site_fract_y
 _atom_site_fract_z
 _atom_site_occupancy
  Zn  Zn0  1  0.59867202  0.94297470  0.52193884  1.0
  Zn  Zn1  1  0.51568606  0.01825172  0.43948744  1.0
  Zn  Zn2  1  0.43258830  0.94663258  0.51468193  1.0
  Zn  Zn3  1  0.44342364  0.09957709  0.52170921  1.0
  Zn  Zn4  1  0.64591212  0.30852475  0.72931216  1.0
  Zn  Zn5  1  0.80540510  0.31677769  0.73049405  1.0
  Zn  Zn6  1  0.74109134  0.23103066  0.80862857  1.0
  Zn  Zn7  1  0.80317264  0.15511645  0.72629449  1.0
  Zn  Zn8  1  0.23372762  0.73094678  0.31057580  1.0
  Zn  Zn9  1  0.30604655  0.64930463  0.22817653  1.0
  Zn  Zn10  1  0.14985466  0.80350205  0.22829600  1.0
  Zn  Zn11  1  0.30982502  0.80893899  0.23334181  1.0
  Zn  Zn12  1  0.93867784  0.43957778  0.01580358  1.0
  Zn  Zn13  1  0.94349848  0.59891374  0.02072543  1.0
  Zn  Zn14  1  0.09797001  0.44384428  0.02182648  1.0
  Zn  Zn15  1  0.01803454  0.51650907  0.93887326  1.0
  H  H16  1  0.72865064  0.03627244  0.66789942  1.0
  H  H17  1  0.54989476  0.25938990  0.64078444  1.0
  H  H18  1  0.68350095  0.98609637  0.61894996  1.0
  H  H19  1  0.38548167  0.91450893  0.29901815  1.0
  H  H20  1  0.33041823  0.77241511  0.40237141  1.0
  H  H21  1  0.43178357  0.96723823  0.34621200  1.0
  H  H22  1  0.76406369  0.52189531  0.63951172  1.0
  H  H23  1  0.28985156  0.51983213  0.39573548  1.0
  H  H24  1  0.02182709  0.81391796  0.39857302  1.0
  H  H25  1  0.02246533  0.06240795  0.64883867  1.0
  H  H26  1  0.96467608  0.43879113  0.84633025  1.0
  H  H27  1  0.82367140  0.37565279  0.94696429  1.0
  H  H28  1  0.91341292  0.39477629  0.79708641  1.0
  H  H29  1  0.23454131  0.46781386  0.85283762  1.0
  H  H30  1  0.85631651  0.83638142  0.95773980  1.0
  H  H31  1  0.20938510  0.50341085  0.09478465  1.0
  H  H32  1  0.99255048  0.69752303  0.10541077  1.0
  H  H33  1  0.25665747  0.54990834  0.14466447  1.0
  H  H34  1  0.72013672  0.69836088  0.09629828  1.0
  H  H35  1  0.98857104  0.21230070  0.08860143  1.0
  H  H36  1  0.41069513  0.21337124  0.61873576  1.0
  H  H37  1  0.27241274  0.85155465  0.46700968  1.0
  H  H38  1  0.81943191  0.24911693  0.93702193  1.0
  H  H39  1  0.03582659  0.82158188  0.11185593  1.0
  H  H40  1  0.44154884  0.75787848  0.53919215  1.0
  H  H41  1  0.42846885  0.22976063  0.31777336  1.0
  H  H42  1  0.65594568  0.04415639  0.35391175  1.0
  H  H43  1  0.18584601  0.26916240  0.57547445  1.0
  H  H44  1  0.61862490  0.24666259  0.88280157  1.0
  H  H45  1  0.97012037  0.93362894  0.77003313  1.0
  H  H46  1  0.49290477  0.55798338  0.10303368  1.0
  H  H47  1  0.32254325  0.99502832  0.12432565  1.0
  C  C48  1  0.68346563  0.94536571  0.43841852  1.0
  C  C49  1  0.42777359  0.93740327  0.42822684  1.0
  C  C50  1  0.55533236  0.81246784  0.55294931  1.0
  C  C51  1  0.31715489  0.06163275  0.56547191  1.0
  C  C52  1  0.56795788  0.06367580  0.57235075  1.0
  C  C53  1  0.44029327  0.18553140  0.44004388  1.0
  C  C54  1  0.68456894  0.43295311  0.68293337  1.0
  C  C55  1  0.81649134  0.32797991  0.81523697  1.0
  C  C56  1  0.57124111  0.31033878  0.81696143  1.0
  C  C57  1  0.81454278  0.06484226  0.80876301  1.0
  C  C58  1  0.67057850  0.18157941  0.68485772  1.0
  C  C59  1  0.93485980  0.19194091  0.69181181  1.0
  C  C60  1  0.32190305  0.56420710  0.31059062  1.0
  C  C61  1  0.18216401  0.67745730  0.18095983  1.0
  C  C62  1  0.06629214  0.80788972  0.31184283  1.0
  C  C63  1  0.18473570  0.93535368  0.19114196  1.0
  C  C64  1  0.32372922  0.81275516  0.32016290  1.0
  C  C65  1  0.43065985  0.69120774  0.18564891  1.0
  C  C66  1  0.81639871  0.55937175  0.06209961  1.0
  C  C67  1  0.06978072  0.57098831  0.06743761  1.0
  C  C68  1  0.05807980  0.31699550  0.06268548  1.0
  C  C69  1  0.18418057  0.43961394  0.93856087  1.0
  C  C70  1  0.92974145  0.43241097  0.92908382  1.0
  C  C71  1  0.93164201  0.68361626  0.93706319  1.0
  C  C72  1  0.59228564  0.09437893  0.60227660  1.0
  C  C73  1  0.64122119  0.15067750  0.65742375  1.0
  C  C74  1  0.55352739  0.17211504  0.60829804  1.0
  C  C75  1  0.67950514  0.07348998  0.65135500  1.0
  C  C76  1  0.57810955  0.19928937  0.63628343  1.0
  C  C77  1  0.65460377  0.04580692  0.62415151  1.0
  C  C78  1  0.40584966  0.90044312  0.40056818  1.0
  C  C79  1  0.35380334  0.84183693  0.34826578  1.0
  C  C80  1  0.37839743  0.84437414  0.41691039  1.0
  C  C81  1  0.38365038  0.89552886  0.33201816  1.0
  C  C82  1  0.35176770  0.81595853  0.39061115  1.0
  C  C83  1  0.40933029  0.92465114  0.35817448  1.0
  C  C84  1  0.53475619  0.69565724  0.59448548  1.0
  C  C85  1  0.70330790  0.54395106  0.63676857  1.0
  C  C86  1  0.57875507  0.73559237  0.57592813  1.0
  C  C87  1  0.65871725  0.50595013  0.65618785  1.0
  C  C88  1  0.65843666  0.61328875  0.61433705  1.0
  C  C89  1  0.58095210  0.62634166  0.61705204  1.0
  C  C90  1  0.45030886  0.27348498  0.37413695  1.0
  C  C91  1  0.33043825  0.47519324  0.37749212  1.0
  C  C92  1  0.42478937  0.25989917  0.41547432  1.0
  C  C93  1  0.35174446  0.48969851  0.33590606  1.0
  C  C94  1  0.36663602  0.39679202  0.39135677  1.0
  C  C95  1  0.41579451  0.35259287  0.35999981  1.0
  C  C96  1  0.77231992  0.92159661  0.36997224  1.0
  C  C97  1  0.97644723  0.83508198  0.37873377  1.0
  C  C98  1  0.75761906  0.92143034  0.41272445  1.0
  C  C99  1  0.99082613  0.83456165  0.33634564  1.0
  C  C100  1  0.89696229  0.86621271  0.39120206  1.0
  C  C101  1  0.85250970  0.88883151  0.35802115  1.0
  C  C102  1  0.21126940  0.14800561  0.61461378  1.0
  C  C103  1  0.04858475  0.10095847  0.64919113  1.0
  C  C104  1  0.24541800  0.08459432  0.59326976  1.0
  C  C105  1  0.01218006  0.16525896  0.66936944  1.0
  C  C106  1  0.12094006  0.09460837  0.62951493  1.0
  C  C107  1  0.13892818  0.15422087  0.63524734  1.0
  C  C108  1  0.84094425  0.35979397  0.84452278  1.0
  C  C109  1  0.89827704  0.40793593  0.89948126  1.0
  C  C110  1  0.81426198  0.35477552  0.88687664  1.0
  C  C111  1  0.92285634  0.41495852  0.85724185  1.0
  C  C112  1  0.84369862  0.37838879  0.91409948  1.0
  C  C113  1  0.89422800  0.39082718  0.83000808  1.0
  C  C114  1  0.47921986  0.31782235  0.88584595  1.0
  C  C115  1  0.27782722  0.43219298  0.87334602  1.0
  C  C116  1  0.49785803  0.33420254  0.84333680  1.0
  C  C117  1  0.26063181  0.41469544  0.91524230  1.0
  C  C118  1  0.35769575  0.39713991  0.86233119  1.0
  C  C119  1  0.39887551  0.35421850  0.89603771  1.0
  C  C120  1  0.87023829  0.91815465  0.81911893  1.0
  C  C121  1  0.87007192  0.82907160  0.92518845  1.0
  C  C122  1  0.83656172  0.98943505  0.83314126  1.0
  C  C123  1  0.90544275  0.75809086  0.91141669  1.0
  C  C124  1  0.85629153  0.88752229  0.89164909  1.0
  C  C125  1  0.88128348  0.85971002  0.85285436  1.0
  C  C126  1  0.15151077  0.64976293  0.15260340  1.0
  C  C127  1  0.09861725  0.59851682  0.09688058  1.0
  C  C128  1  0.07636668  0.69202875  0.14186119  1.0
  C  C129  1  0.17292655  0.55612763  0.10804083  1.0
  C  C130  1  0.05067893  0.66617996  0.11383631  1.0
  C  C131  1  0.19896249  0.58185636  0.13571675  1.0
  C  C132  1  0.54925443  0.59369062  0.14808296  1.0
  C  C133  1  0.69991187  0.65364396  0.10201568  1.0
  C  C134  1  0.50703303  0.66442346  0.16220174  1.0
  C  C135  1  0.74167629  0.58381311  0.08732846  1.0
  C  C136  1  0.62998872  0.65728935  0.12427257  1.0
  C  C137  1  0.61984561  0.58978399  0.12611470  1.0
  C  C138  1  0.19705469  0.05848271  0.15759746  1.0
  C  C139  1  0.04341041  0.19694249  0.09925899  1.0
  C  C140  1  0.15866763  0.01146007  0.16721999  1.0
  C  C141  1  0.08214011  0.24325849  0.08901259  1.0
  C  C142  1  0.08483007  0.12987233  0.12447548  1.0
  C  C143  1  0.15462485  0.12648621  0.13295355  1.0
  C  C144  1  0.49323073  0.23136893  0.58213134  1.0
  C  C145  1  0.38204113  0.81088982  0.46151438  1.0
  C  C146  1  0.74957376  0.33150259  0.90299600  1.0
  C  C147  1  0.01952303  0.76099737  0.16209947  1.0
  C  C148  1  0.45030808  0.71648789  0.59783738  1.0
  C  C149  1  0.50904759  0.21208404  0.34954191  1.0
  C  C150  1  0.71832355  0.94181540  0.33816963  1.0
  C  C151  1  0.24856359  0.19963339  0.61676932  1.0
  C  C152  1  0.52611948  0.26945453  0.92020699  1.0
  C  C153  1  0.88871235  0.90208695  0.77500076  1.0
  C  C154  1  0.52650092  0.52809223  0.15716980  1.0
  C  C155  1  0.27066109  0.04277356  0.17326694  1.0
  S  S156  1  0.67418507  0.68857212  0.58549350  1.0
  S  S157  1  0.56272868  0.55419623  0.64789996  1.0
  S  S158  1  0.36291208  0.34143938  0.43765790  1.0
  S  S159  1  0.41708336  0.40884242  0.31341566  1.0
  S  S160  1  0.84001269  0.88235565  0.43761190  1.0
  S  S161  1  0.90866231  0.87055577  0.31155386  1.0
  S  S162  1  0.19240870  0.03160888  0.59898192  1.0
  S  S163  1  0.06573334  0.21794768  0.66512098  1.0
  S  S164  1  0.41829096  0.39255979  0.81737059  1.0
  S  S165  1  0.34020497  0.35625579  0.94138603  1.0
  S  S166  1  0.81746116  0.98556741  0.88653548  1.0
  S  S167  1  0.92130738  0.76150681  0.85794422  1.0
  S  S168  1  0.55291648  0.72501759  0.14978029  1.0
  S  S169  1  0.69711031  0.52187277  0.10062080  1.0
  S  S170  1  0.07131499  0.04980115  0.14729758  1.0
  S  S171  1  0.16841438  0.20644715  0.11005725  1.0
  O  O172  1  0.49870724  0.00099028  0.49994597  1.0
  O  O173  1  0.68439763  0.92976862  0.47759466  1.0
  O  O174  1  0.47492859  0.96611431  0.41224478  1.0
  O  O175  1  0.48743696  0.84463466  0.54252936  1.0
  O  O176  1  0.62422072  0.97999817  0.41912181  1.0
  O  O177  1  0.60503348  0.84042334  0.54569097  1.0
  O  O178  1  0.39554902  0.93882732  0.46531484  1.0
  O  O179  1  0.34065662  0.99744354  0.55204472  1.0
  O  O180  1  0.50572048  0.10956386  0.55761006  1.0
  O  O181  1  0.34803861  0.10855644  0.55675989  1.0
  O  O182  1  0.60978381  0.99567463  0.56396217  1.0
  O  O183  1  0.47206093  0.12751496  0.42035651  1.0
  O  O184  1  0.41838931  0.18631984  0.47870588  1.0
  O  O185  1  0.74801632  0.25326462  0.74869554  1.0
  O  O186  1  0.63434549  0.40673824  0.69748334  1.0
  O  O187  1  0.81707479  0.35717406  0.77764342  1.0
  O  O188  1  0.63332695  0.27022027  0.83415677  1.0
  O  O189  1  0.75503785  0.40174321  0.68948023  1.0
  O  O190  1  0.56838967  0.33109586  0.77837891  1.0
  O  O191  1  0.79944251  0.27202406  0.83062383  1.0
  O  O192  1  0.77959872  0.12206616  0.82917876  1.0
  O  O193  1  0.73814597  0.13924356  0.69448943  1.0
  O  O194  1  0.83259090  0.06681209  0.76975382  1.0
  O  O195  1  0.62683076  0.24736675  0.69590521  1.0
  O  O196  1  0.91023465  0.25471845  0.70706215  1.0
  O  O197  1  0.89936688  0.14998174  0.69381621  1.0
  O  O198  1  0.25001273  0.74815012  0.24997662  1.0
  O  O199  1  0.27497545  0.62088244  0.32944059  1.0
  O  O200  1  0.24152740  0.62885340  0.19749197  1.0
  O  O201  1  0.06634673  0.81645237  0.27265717  1.0
  O  O202  1  0.34506266  0.56519573  0.27198396  1.0
  O  O203  1  0.12505237  0.77898822  0.33166488  1.0
  O  O204  1  0.14685959  0.74808338  0.18555150  1.0
  O  O205  1  0.13711240  0.90506242  0.19950305  1.0
  O  O206  1  0.33565610  0.83262523  0.28169020  1.0
  O  O207  1  0.25304034  0.90652056  0.20081199  1.0
  O  O208  1  0.28839419  0.77150108  0.33694205  1.0
  O  O209  1  0.39535062  0.64868995  0.18941667  1.0
  O  O210  1  0.40656232  0.75503864  0.19970435  1.0
  O  O211  1  0.99888759  0.50004924  0.99929259  1.0
  O  O212  1  0.84447049  0.49224264  0.05142179  1.0
  O  O213  1  0.00297352  0.61429172  0.05700951  1.0
  O  O214  1  0.10242589  0.35082440  0.05788652  1.0
  O  O215  1  0.84608118  0.60737653  0.05303655  1.0
  O  O216  1  0.99553419  0.34034111  0.04689956  1.0
  O  O217  1  0.11442484  0.50646792  0.05533467  1.0
  O  O218  1  0.18184901  0.41548761  0.97718630  1.0
  O  O219  1  0.97626055  0.46224596  0.91351430  1.0
  O  O220  1  0.12687178  0.48276599  0.91865418  1.0
  O  O221  1  0.90747291  0.42108209  0.96732553  1.0
  O  O222  1  0.91916419  0.68448482  0.97610341  1.0
  O  O223  1  0.96515559  0.62490125  0.91773671  1.0
  O  O224  1  0.41841694  0.24994221  0.59598651  1.0
  O  O225  1  0.51135679  0.26689708  0.55127465  1.0
  O  O226  1  0.31402654  0.81867712  0.48370617  1.0
  O  O227  1  0.44161811  0.77552083  0.47725726  1.0
  O  O228  1  0.76509492  0.27122403  0.93337146  1.0
  O  O229  1  0.68602495  0.36571435  0.89186957  1.0
  O  O230  1  0.00162770  0.82938262  0.13762880  1.0
  O  O231  1  0.98682628  0.75707600  0.19654761  1.0
  O  O232  1  0.41156397  0.74736748  0.56494960  1.0
  O  O233  1  0.41862564  0.70033959  0.63115704  1.0
  O  O234  1  0.48367856  0.19916774  0.31748002  1.0
  O  O235  1  0.57548443  0.17702690  0.35626349  1.0
  O  O236  1  0.66231703  0.01252493  0.33273623  1.0
  O  O237  1  0.72943899  0.89472719  0.31567091  1.0
  O  O238  1  0.22138971  0.26823041  0.59302397  1.0
  O  O239  1  0.29735456  0.18390061  0.63921124  1.0
  O  O240  1  0.60186998  0.23311290  0.91243847  1.0
  O  O241  1  0.49277253  0.26377243  0.95492359  1.0
  O  O242  1  0.95127829  0.91048608  0.75359294  1.0
  O  O243  1  0.85295445  0.87827490  0.75974508  1.0
  O  O244  1  0.49765752  0.51706430  0.12572633  1.0
  O  O245  1  0.53626339  0.48490710  0.18893535  1.0
  O  O246  1  0.33566102  0.00840436  0.14785248  1.0
  O  O247  1  0.27300827  0.06263605  0.20517659  1.0
