# generated using pymatgen
data_Al2H8(CO)11
_symmetry_space_group_name_H-M   'P 1'
_cell_length_a   6.66879103
_cell_length_b   11.11824899
_cell_length_c   16.17238872
_cell_angle_alpha   79.59448844
_cell_angle_beta   89.99495414
_cell_angle_gamma   89.98625329
_symmetry_Int_Tables_number   1
_chemical_formula_structural   Al2H8(CO)11
_chemical_formula_sum   'Al4 H16 C22 O22'
_cell_volume   1179.38586033
_cell_formula_units_Z   2
loop_
 _symmetry_equiv_pos_site_id
 _symmetry_equiv_pos_as_xyz
  1  'x, y, z'
loop_
 _atom_site_type_symbol
 _atom_site_label
 _atom_site_symmetry_multiplicity
 _atom_site_fract_x
 _atom_site_fract_y
 _atom_site_fract_z
 _atom_site_occupancy
  Al  Al0  1  0.00062553  0.49884475  0.49667225  1.0
  Al  Al1  1  0.99950517  0.99883605  0.99668074  1.0
  Al  Al2  1  0.50176846  0.50290616  0.49845064  1.0
  Al  Al3  1  0.49838831  0.00283451  0.99845219  1.0
  H  H4  1  0.62398728  0.75353289  0.67841604  1.0
  H  H5  1  0.37612685  0.25340854  0.17839734  1.0
  H  H6  1  0.05159210  0.81056174  0.81069513  1.0
  H  H7  1  0.94879531  0.31029433  0.31094051  1.0
  H  H8  1  0.59749607  0.76014352  0.81299603  1.0
  H  H9  1  0.40302912  0.26034855  0.31291319  1.0
  H  H10  1  0.16036347  0.52951465  0.79463049  1.0
  H  H11  1  0.26315622  0.67352929  0.80914252  1.0
  H  H12  1  0.37110134  0.59337257  0.73280044  1.0
  H  H13  1  0.73822745  0.17276328  0.30963625  1.0
  H  H14  1  0.83987362  0.02890419  0.29420737  1.0
  H  H15  1  0.62886626  0.09374537  0.23299406  1.0
  H  H16  1  0.24391820  0.64538087  0.51956032  1.0
  H  H17  1  0.75606061  0.14530858  0.01954331  1.0
  H  H18  1  0.74773858  0.35109997  0.55263794  1.0
  H  H19  1  0.25237766  0.85107084  0.05260662  1.0
  C  C20  1  0.25716039  0.36311480  0.39936623  1.0
  C  C21  1  0.74318993  0.86309123  0.89936623  1.0
  C  C22  1  0.24710460  0.35586064  0.63032749  1.0
  C  C23  1  0.75307812  0.85579683  0.13029315  1.0
  C  C24  1  0.75261629  0.64334492  0.59400355  1.0
  C  C25  1  0.24739886  0.14328340  0.09399637  1.0
  C  C26  1  0.75530554  0.63840414  0.36473806  1.0
  C  C27  1  0.24494742  0.13838561  0.86472182  1.0
  C  C28  1  0.75111321  0.71569739  0.28231633  1.0
  C  C29  1  0.24910443  0.21569288  0.78232482  1.0
  C  C30  1  0.75029612  0.77921487  0.21286927  1.0
  C  C31  1  0.24995930  0.27926308  0.71288628  1.0
  C  C32  1  0.92456886  0.71708777  0.71441538  1.0
  C  C33  1  0.07565644  0.21707250  0.21449473  1.0
  C  C34  1  0.76285285  0.71073650  0.66347746  1.0
  C  C35  1  0.23724492  0.21070868  0.16347933  1.0
  C  C36  1  0.91236376  0.77575636  0.78823097  1.0
  C  C37  1  0.08798652  0.27559743  0.28837065  1.0
  C  C38  1  0.74325376  0.79284033  0.82997398  1.0
  C  C39  1  0.25718073  0.29284744  0.32998302  1.0
  C  C40  1  0.23153111  0.61462497  0.76282240  1.0
  C  C41  1  0.76889249  0.11438127  0.26292754  1.0
  O  O42  1  0.41620409  0.37997432  0.59466647  1.0
  O  O43  1  0.58388989  0.87996990  0.09471338  1.0
  O  O44  1  0.08970943  0.38168910  0.43282971  1.0
  O  O45  1  0.91069175  0.88182219  0.93271427  1.0
  O  O46  1  0.92588115  0.59717068  0.39065821  1.0
  O  O47  1  0.07438922  0.09727419  0.89070657  1.0
  O  O48  1  0.07509002  0.39124722  0.60179288  1.0
  O  O49  1  0.92508993  0.89110082  0.10172833  1.0
  O  O50  1  0.91421059  0.62146779  0.55704944  1.0
  O  O51  1  0.08575166  0.12134951  0.05712777  1.0
  O  O52  1  0.42777212  0.39955892  0.42029574  1.0
  O  O53  1  0.57250142  0.89935348  0.92041852  1.0
  O  O54  1  0.25016575  0.57500160  0.49169961  1.0
  O  O55  1  0.74992478  0.07492113  0.99169261  1.0
  O  O56  1  0.57642451  0.60997983  0.57481085  1.0
  O  O57  1  0.42359780  0.10996413  0.07473872  1.0
  O  O58  1  0.58879218  0.61983042  0.40297034  1.0
  O  O59  1  0.41147946  0.11969551  0.90292017  1.0
  O  O60  1  0.74972137  0.42440101  0.50972076  1.0
  O  O61  1  0.25042571  0.92438142  0.00969307  1.0
  O  O62  1  0.10607236  0.67388597  0.69510289  1.0
  O  O63  1  0.89402937  0.17398451  0.19517555  1.0
