# generated using pymatgen
data_Zn4H20C40O21
_symmetry_space_group_name_H-M   'P 1'
_cell_length_a   23.76615583
_cell_length_b   23.76635236
_cell_length_c   23.76487017
_cell_angle_alpha   66.37531187
_cell_angle_beta   72.56212133
_cell_angle_gamma   107.43459311
_symmetry_Int_Tables_number   1
_chemical_formula_structural   Zn4H20C40O21
_chemical_formula_sum   'Zn8 H40 C80 O42'
_cell_volume   10291.93130843
_cell_formula_units_Z   2
loop_
 _symmetry_equiv_pos_site_id
 _symmetry_equiv_pos_as_xyz
  1  'x, y, z'
loop_
 _atom_site_type_symbol
 _atom_site_label
 _atom_site_symmetry_multiplicity
 _atom_site_fract_x
 _atom_site_fract_y
 _atom_site_fract_z
 _atom_site_occupancy
  Zn  Zn0  1  0.05713464  0.10053743  0.45658721  1.0
  Zn  Zn1  1  0.05713307  0.95659488  0.48626802  1.0
  Zn  Zn2  1  0.94286001  0.95658514  0.60054853  1.0
  Zn  Zn3  1  0.94287661  0.98628286  0.45658193  1.0
  Zn  Zn4  1  0.94286569  0.39946297  0.04341283  1.0
  Zn  Zn5  1  0.05714145  0.54341579  0.89945054  1.0
  Zn  Zn6  1  0.94286604  0.54340565  0.01372745  1.0
  Zn  Zn7  1  0.05712115  0.51372068  0.04341888  1.0
  H  H8  1  0.92363380  0.12529738  0.29833901  1.0
  H  H9  1  0.07636832  0.37470511  0.20165965  1.0
  H  H10  1  0.92362951  0.22196897  0.20166689  1.0
  H  H11  1  0.07637238  0.27803300  0.29833203  1.0
  H  H12  1  0.92362906  0.79832894  0.77804754  1.0
  H  H13  1  0.07637202  0.70167105  0.72195007  1.0
  H  H14  1  0.92363511  0.70165736  0.87471450  1.0
  H  H15  1  0.07636688  0.79834367  0.62528286  1.0
  H  H16  1  0.92289010  0.27079272  0.96492435  1.0
  H  H17  1  0.07710857  0.46493139  0.77075630  1.0
  H  H18  1  0.92288837  0.03507216  0.72924266  1.0
  H  H19  1  0.07705990  0.22922097  0.53506156  1.0
  H  H20  1  0.07711819  0.61221716  0.15208247  1.0
  H  H21  1  0.92289739  0.65213572  0.11216396  1.0
  H  H22  1  0.07706391  0.84783656  0.38786254  1.0
  H  H23  1  0.92289056  0.88781483  0.34788577  1.0
  H  H24  1  0.73570443  0.27078408  0.15213872  1.0
  H  H25  1  0.73569779  0.46493127  0.11216310  1.0
  H  H26  1  0.26430300  0.03506713  0.38783903  1.0
  H  H27  1  0.26429803  0.22920156  0.34792605  1.0
  H  H28  1  0.26430769  0.65216614  0.77077596  1.0
  H  H29  1  0.26429152  0.61216276  0.96495163  1.0
  H  H30  1  0.73571162  0.88784286  0.53504925  1.0
  H  H31  1  0.73569320  0.84790129  0.72921277  1.0
  H  H32  1  0.08022845  0.37973772  0.67766267  1.0
  H  H33  1  0.91975562  0.17768899  0.87974113  1.0
  H  H34  1  0.08017230  0.32233423  0.62023375  1.0
  H  H35  1  0.91978653  0.12026000  0.82234118  1.0
  H  H36  1  0.91976525  0.74209888  0.20048938  1.0
  H  H37  1  0.08024085  0.70052888  0.24205938  1.0
  H  H38  1  0.91978959  0.79953192  0.25788034  1.0
  H  H39  1  0.08017621  0.75784668  0.29956467  1.0
  H  H40  1  0.55741081  0.37974471  0.20045879  1.0
  H  H41  1  0.55741686  0.17767724  0.24213889  1.0
  H  H42  1  0.44258642  0.32230151  0.25795363  1.0
  H  H43  1  0.44258971  0.12025795  0.29952236  1.0
  H  H44  1  0.44257700  0.70045185  0.87976719  1.0
  H  H45  1  0.44259419  0.74216681  0.67766634  1.0
  H  H46  1  0.55740544  0.75792841  0.82231256  1.0
  H  H47  1  0.55742513  0.79952969  0.62023727  1.0
  C  C48  1  0.18216300  0.09106905  0.40892846  1.0
  C  C49  1  0.99999546  0.86112242  0.63887845  1.0
  C  C50  1  0.99998426  0.09106957  0.59108799  1.0
  C  C51  1  0.81784038  0.90893272  0.59106430  1.0
  C  C52  1  0.00000753  0.13888040  0.36111737  1.0
  C  C53  1  0.99999247  0.90891264  0.40892366  1.0
  C  C54  1  0.00000358  0.40893245  0.90890885  1.0
  C  C55  1  0.00000336  0.63887652  0.86111942  1.0
  C  C56  1  0.81783834  0.40892670  0.09108592  1.0
  C  C57  1  0.99999391  0.59109188  0.09107207  1.0
  C  C58  1  0.99999416  0.36112210  0.13888182  1.0
  C  C59  1  0.18215980  0.59108653  0.90893331  1.0
  C  C60  1  0.00000372  0.19631665  0.30368379  1.0
  C  C61  1  0.99999797  0.30368584  0.19631499  1.0
  C  C62  1  0.95680092  0.18007712  0.27672475  1.0
  C  C63  1  0.04320121  0.31992538  0.22327389  1.0
  C  C64  1  0.95679839  0.23352422  0.22327822  1.0
  C  C65  1  0.04320374  0.26647828  0.27672085  1.0
  C  C66  1  0.99999775  0.80368669  0.69631397  1.0
  C  C67  1  0.00000333  0.69631331  0.80368280  1.0
  C  C68  1  0.95679695  0.77672055  0.76648547  1.0
  C  C69  1  0.04320388  0.72327891  0.73351286  1.0
  C  C70  1  0.95680076  0.72327241  0.81992993  1.0
  C  C71  1  0.04319943  0.77672758  0.68006880  1.0
  C  C72  1  0.99999988  0.37131065  0.87128968  1.0
  C  C73  1  0.95642346  0.29924123  0.90894387  1.0
  C  C74  1  0.95641465  0.26429658  0.87404758  1.0
  C  C75  1  0.99999439  0.30092099  0.80090336  1.0
  C  C76  1  0.04357687  0.37405497  0.76427106  1.0
  C  C77  1  0.04357369  0.40895554  0.79921334  1.0
  C  C78  1  0.99998594  0.26548287  0.76546703  1.0
  C  C79  1  0.99997973  0.23453317  0.73451716  1.0
  C  C80  1  0.99997668  0.19909241  0.69908362  1.0
  C  C81  1  0.95641035  0.12595335  0.73572178  1.0
  C  C82  1  0.95641320  0.09105015  0.70078191  1.0
  C  C83  1  0.99997756  0.12869560  0.62870483  1.0
  C  C84  1  0.04353815  0.20077086  0.59104255  1.0
  C  C85  1  0.04354116  0.23571919  0.62593828  1.0
  C  C86  1  0.00000406  0.62872387  0.12868048  1.0
  C  C87  1  0.04358249  0.63465487  0.15717048  1.0
  C  C88  1  0.04358669  0.66955804  0.19210908  1.0
  C  C89  1  0.00000172  0.69910704  0.19906977  1.0
  C  C90  1  0.95642321  0.69215588  0.16951203  1.0
  C  C91  1  0.95643087  0.65722012  0.13460513  1.0
  C  C92  1  0.99999492  0.73453501  0.23451487  1.0
  C  C93  1  0.99999014  0.76546953  0.26547914  1.0
  C  C94  1  0.99998445  0.80089614  0.30092642  1.0
  C  C95  1  0.04354622  0.80782635  0.33050343  1.0
  C  C96  1  0.04354130  0.84276421  0.36540909  1.0
  C  C97  1  0.99998035  0.87127931  0.37131666  1.0
  C  C98  1  0.95641507  0.86536246  0.34281160  1.0
  C  C99  1  0.95641252  0.83046190  0.30787062  1.0
  C  C100  1  0.74259762  0.37130629  0.12870214  1.0
  C  C101  1  0.70817717  0.29923375  0.15721106  1.0
  C  C102  1  0.63833473  0.26428883  0.19215182  1.0
  C  C103  1  0.60182432  0.30091527  0.19909275  1.0
  C  C104  1  0.63833156  0.37405497  0.16951985  1.0
  C  C105  1  0.70817343  0.40895476  0.13461574  1.0
  C  C106  1  0.53095003  0.26547318  0.23454164  1.0
  C  C107  1  0.46905175  0.23451200  0.26550501  1.0
  C  C108  1  0.39817783  0.19907360  0.30094433  1.0
  C  C109  1  0.36167057  0.12593867  0.33049849  1.0
  C  C110  1  0.29182610  0.09103994  0.36540213  1.0
  C  C111  1  0.25740295  0.12868680  0.37132658  1.0
  C  C112  1  0.29182498  0.20075507  0.34283866  1.0
  C  C113  1  0.36166641  0.23569685  0.30790324  1.0
  C  C114  1  0.25740162  0.62871217  0.87131342  1.0
  C  C115  1  0.29182877  0.65723285  0.79923150  1.0
  C  C116  1  0.36167201  0.69217571  0.76428542  1.0
  C  C117  1  0.39817726  0.69910634  0.80092043  1.0
  C  C118  1  0.36166138  0.66952478  0.87406819  1.0
  C  C119  1  0.29182001  0.63462134  0.90896729  1.0
  C  C120  1  0.46905154  0.73454841  0.76547744  1.0
  C  C121  1  0.53095124  0.76550123  0.73451024  1.0
  C  C122  1  0.60182361  0.80093439  0.69907053  1.0
  C  C123  1  0.63834105  0.83049551  0.62592707  1.0
  C  C124  1  0.70818214  0.86539739  0.59102993  1.0
  C  C125  1  0.74259901  0.87131755  0.62868368  1.0
  C  C126  1  0.70817263  0.84282045  0.70075808  1.0
  C  C127  1  0.63832917  0.80788284  0.73570297  1.0
  O  O128  1  0.99999988  0.99999926  0.49999941  1.0
  O  O129  1  0.15317994  0.12773416  0.41295429  1.0
  O  O130  1  0.04050137  0.88331672  0.57618068  1.0
  O  O131  1  0.95929195  0.02542472  0.62775890  1.0
  O  O132  1  0.15318263  0.02542719  0.43386748  1.0
  O  O133  1  0.04068375  0.12773410  0.52543732  1.0
  O  O134  1  0.95948650  0.88330543  0.65719933  1.0
  O  O135  1  0.84681735  0.91295701  0.62773480  1.0
  O  O136  1  0.95950836  0.07618980  0.38330263  1.0
  O  O137  1  0.84682553  0.93388525  0.52541247  1.0
  O  O138  1  0.04051127  0.15719316  0.38330665  1.0
  O  O139  1  0.04068790  0.91294165  0.43387464  1.0
  O  O140  1  0.95930830  0.93387536  0.41294123  1.0
  O  O141  1  0.00000036  0.50000178  0.99999931  1.0
  O  O142  1  0.95930546  0.37226896  0.97455953  1.0
  O  O143  1  0.04051321  0.61669352  0.84279911  1.0
  O  O144  1  0.84681747  0.47457069  0.06613548  1.0
  O  O145  1  0.04070543  0.47457883  0.87223909  1.0
  O  O146  1  0.84681983  0.37226106  0.08706119  1.0
  O  O147  1  0.95949585  0.61668067  0.92381577  1.0
  O  O148  1  0.95929935  0.58706101  0.06612227  1.0
  O  O149  1  0.04049181  0.42381322  0.11669639  1.0
  O  O150  1  0.04068172  0.56613042  0.08705276  1.0
  O  O151  1  0.95949194  0.34280881  0.11669145  1.0
  O  O152  1  0.15318427  0.58705962  0.87226300  1.0
  O  O153  1  0.15317404  0.56612981  0.97458531  1.0
  O  O154  1  0.08636635  0.41167241  0.69404918  1.0
  O  O155  1  0.91361893  0.19408110  0.91167366  1.0
  O  O156  1  0.08631924  0.30593947  0.58830423  1.0
  O  O157  1  0.91363299  0.08833062  0.80594801  1.0
  O  O158  1  0.91363041  0.71957762  0.17468849  1.0
  O  O159  1  0.08638371  0.67473854  0.21952735  1.0
  O  O160  1  0.91363228  0.82530339  0.28043181  1.0
  O  O161  1  0.08632388  0.78038522  0.32534893  1.0
  O  O162  1  0.60573296  0.41167489  0.17467855  1.0
  O  O163  1  0.60573975  0.19407048  0.21959397  1.0
  O  O164  1  0.39426318  0.30591039  0.28048771  1.0
  O  O165  1  0.39426759  0.08832301  0.32532216  1.0
  O  O166  1  0.39425464  0.67467301  0.91169581  1.0
  O  O167  1  0.39427076  0.71962537  0.69405975  1.0
  O  O168  1  0.60572814  0.78045779  0.80592249  1.0
  O  O169  1  0.60574808  0.82532791  0.58830371  1.0
