# generated using pymatgen
data_Zn3H35C34IO12
_symmetry_space_group_name_H-M   'P 1'
_cell_length_a   21.65782267
_cell_length_b   21.66496848
_cell_length_c   22.14571098
_cell_angle_alpha   118.86687231
_cell_angle_beta   119.19741460
_cell_angle_gamma   90.42359290
_symmetry_Int_Tables_number   1
_chemical_formula_structural   Zn3H35C34IO12
_chemical_formula_sum   'Zn6 H70 C68 I2 O24'
_cell_volume   7532.10717804
_cell_formula_units_Z   2
loop_
 _symmetry_equiv_pos_site_id
 _symmetry_equiv_pos_as_xyz
  1  'x, y, z'
loop_
 _atom_site_type_symbol
 _atom_site_label
 _atom_site_symmetry_multiplicity
 _atom_site_fract_x
 _atom_site_fract_y
 _atom_site_fract_z
 _atom_site_occupancy
  Zn  Zn0  1  0.94075392  0.00045395  0.49993818  1.0
  Zn  Zn1  1  0.05924070  0.99955474  0.50006079  1.0
  Zn  Zn2  1  0.50055027  0.44086206  0.50011738  1.0
  Zn  Zn3  1  0.49944435  0.55914031  0.49987950  1.0
  Zn  Zn4  1  0.03944599  0.54013461  0.57949768  1.0
  Zn  Zn5  1  0.96055309  0.45987444  0.42050404  1.0
  H  H6  1  0.21119631  0.42443657  0.53662350  1.0
  H  H7  1  0.78893837  0.57577306  0.46365361  1.0
  H  H8  1  0.80221860  0.76301302  0.92888999  1.0
  H  H9  1  0.19970097  0.23365590  0.07113605  1.0
  H  H10  1  0.70115875  0.83768778  0.07109201  1.0
  H  H11  1  0.30084258  0.16558555  0.92891408  1.0
  H  H12  1  0.76942255  0.88378381  0.07192747  1.0
  H  H13  1  0.23438895  0.11694073  0.92811575  1.0
  H  H14  1  0.62998891  0.76373445  0.92538718  1.0
  H  H15  1  0.37196668  0.23950495  0.07464384  1.0
  H  H16  1  0.71031372  0.72117486  0.07325867  1.0
  H  H17  1  0.28713841  0.28162539  0.92669681  1.0
  H  H18  1  0.63746079  0.64918544  0.92733839  1.0
  H  H19  1  0.35998298  0.35363112  0.07260048  1.0
  H  H20  1  0.69778366  0.81019167  0.92607851  1.0
  H  H21  1  0.30596759  0.19051541  0.07395752  1.0
  H  H22  1  0.88628070  0.78355852  0.46604731  1.0
  H  H23  1  0.11389419  0.21672562  0.53449637  1.0
  H  H24  1  0.95261902  0.83848063  0.57443206  1.0
  H  H25  1  0.04782638  0.16179149  0.42605258  1.0
  H  H26  1  0.95940095  0.73190635  0.57681648  1.0
  H  H27  1  0.04109577  0.26838042  0.42368918  1.0
  H  H28  1  0.37310894  0.56485621  0.63354382  1.0
  H  H29  1  0.62688347  0.43534782  0.36647943  1.0
  H  H30  1  0.88925152  0.67725842  0.46879869  1.0
  H  H31  1  0.11091725  0.32305490  0.53181094  1.0
  H  H32  1  0.92783026  0.74007084  0.36686830  1.0
  H  H33  1  0.07183083  0.26001111  0.63321338  1.0
  H  H34  1  0.92584507  0.63177627  0.36571746  1.0
  H  H35  1  0.07371340  0.36830696  0.63435513  1.0
  H  H36  1  0.11974282  0.83835925  0.56242630  1.0
  H  H37  1  0.88022884  0.16145068  0.43718119  1.0
  H  H38  1  0.09167450  0.86832638  0.63195295  1.0
  H  H39  1  0.90865197  0.13160853  0.36797265  1.0
  H  H40  1  0.09524134  0.75888290  0.62833787  1.0
  H  H41  1  0.90509905  0.24100736  0.37150603  1.0
  H  H42  1  0.12126900  0.72801580  0.55710315  1.0
  H  H43  1  0.87862455  0.27172403  0.44234458  1.0
  H  H44  1  0.02413282  0.76079481  0.40767305  1.0
  H  H45  1  0.97544842  0.23903826  0.59201782  1.0
  H  H46  1  0.02041285  0.64943667  0.40068798  1.0
  H  H47  1  0.97902224  0.35034804  0.59890131  1.0
  H  H48  1  0.15731232  0.38264845  0.42773933  1.0
  H  H49  1  0.84279444  0.61736369  0.57249855  1.0
  H  H50  1  0.26582473  0.56459480  0.63448106  1.0
  H  H51  1  0.73416490  0.43563205  0.36553222  1.0
  H  H52  1  0.27397452  0.55353667  0.43346273  1.0
  H  H53  1  0.72592579  0.44628086  0.56634685  1.0
  H  H54  1  0.23632512  0.45571840  0.36701275  1.0
  H  H55  1  0.76366890  0.54408617  0.63295509  1.0
  H  H56  1  0.35157201  0.61729122  0.58896234  1.0
  H  H57  1  0.64834729  0.38275680  0.41087565  1.0
  H  H58  1  0.32003812  0.42367465  0.53889294  1.0
  H  H59  1  0.68008428  0.57650631  0.46136117  1.0
  H  H60  1  0.13010796  0.46205888  0.36989089  1.0
  H  H61  1  0.86986877  0.53771228  0.63004119  1.0
  H  H62  1  0.16822377  0.55967007  0.43743924  1.0
  H  H63  1  0.83164305  0.44011787  0.56230789  1.0
  H  H64  1  0.24667907  0.62081317  0.59507718  1.0
  H  H65  1  0.75322015  0.37924270  0.40471881  1.0
  H  H66  1  0.26621226  0.37861007  0.42999775  1.0
  H  H67  1  0.73389283  0.62141734  0.57023254  1.0
  H  H68  1  0.71048976  0.61283157  0.92838105  1.0
  H  H69  1  0.28557595  0.38717038  0.07153557  1.0
  H  H70  1  0.78400991  0.68647736  0.07366819  1.0
  H  H71  1  0.21212328  0.31345476  0.92624361  1.0
  H  H72  1  0.87626978  0.83321065  0.07369615  1.0
  H  H73  1  0.12552708  0.16339417  0.92629753  1.0
  H  H74  1  0.88048738  0.75199346  0.07383499  1.0
  H  H75  1  0.11825290  0.24438877  0.92616944  1.0
  C  C76  1  0.00010935  0.88135744  0.50142010  1.0
  C  C77  1  0.99990647  0.11867378  0.49862129  1.0
  C  C78  1  0.79103826  0.79037206  0.08173182  1.0
  C  C79  1  0.20895579  0.20956848  0.91825684  1.0
  C  C80  1  0.69719132  0.66467727  0.95246888  1.0
  C  C81  1  0.30041619  0.33634051  0.04748052  1.0
  C  C82  1  0.71050484  0.70740716  0.91839492  1.0
  C  C83  1  0.28942172  0.29252732  0.08158804  1.0
  C  C84  1  0.68984182  0.78009896  0.95122401  1.0
  C  C85  1  0.31227194  0.22132723  0.04879860  1.0
  C  C86  1  0.73680533  0.82867100  0.04745318  1.0
  C  C87  1  0.26532349  0.17278894  0.95257222  1.0
  C  C88  1  0.66502085  0.66287819  0.82801112  1.0
  C  C89  1  0.33493694  0.33706247  0.17197386  1.0
  C  C90  1  0.83594952  0.83567951  0.17208236  1.0
  C  C91  1  0.16404397  0.16429404  0.82790852  1.0
  C  C92  1  0.87360343  0.87370513  0.24777747  1.0
  C  C93  1  0.12638338  0.12630372  0.75221559  1.0
  C  C94  1  0.94175353  0.79145130  0.51555610  1.0
  C  C95  1  0.05847766  0.20876518  0.48483035  1.0
  C  C96  1  0.94426137  0.72044488  0.51643163  1.0
  C  C97  1  0.05598209  0.27977602  0.48397585  1.0
  C  C98  1  0.91856366  0.91877216  0.33753850  1.0
  C  C99  1  0.08141813  0.08124091  0.66245776  1.0
  C  C100  1  0.98215844  0.74644087  0.41699090  1.0
  C  C101  1  0.01755226  0.25354127  0.58293640  1.0
  C  C102  1  0.07819180  0.82202734  0.57117404  1.0
  C  C103  1  0.92191935  0.17787897  0.42864618  1.0
  C  C104  1  0.00011629  0.81146153  0.50201656  1.0
  C  C105  1  0.99991961  0.18858133  0.49804622  1.0
  C  C106  1  0.00227551  0.68982809  0.49925379  1.0
  C  C107  1  0.99770126  0.31018656  0.50075392  1.0
  C  C108  1  0.98111101  0.67388794  0.41481772  1.0
  C  C109  1  0.01853498  0.32606634  0.58506601  1.0
  C  C110  1  0.07962135  0.74943301  0.56868519  1.0
  C  C111  1  0.92046915  0.25044144  0.43107583  1.0
  C  C112  1  0.20580240  0.42932332  0.48718110  1.0
  C  C113  1  0.79428651  0.57076113  0.51300879  1.0
  C  C114  1  0.25010134  0.50406664  0.42685627  1.0
  C  C115  1  0.74985364  0.49578773  0.57305413  1.0
  C  C116  1  0.17967262  0.50761244  0.42877484  1.0
  C  C117  1  0.82027343  0.49223224  0.57111319  1.0
  C  C118  1  0.19046002  0.50308880  0.50048081  1.0
  C  C119  1  0.80953348  0.49692111  0.49951459  1.0
  C  C120  1  0.32882256  0.56699790  0.58190118  1.0
  C  C121  1  0.67114641  0.43310067  0.41804984  1.0
  C  C122  1  0.25827361  0.56829944  0.58374062  1.0
  C  C123  1  0.74168253  0.43180612  0.41619449  1.0
  C  C124  1  0.38014653  0.49883943  0.49889928  1.0
  C  C125  1  0.61985980  0.50118615  0.50111956  1.0
  C  C126  1  0.58119939  0.58153113  0.66257504  1.0
  C  C127  1  0.41881084  0.41848986  0.33741325  1.0
  C  C128  1  0.87990345  0.49800544  0.49976091  1.0
  C  C129  1  0.12009674  0.50201187  0.50025065  1.0
  C  C130  1  0.00156902  0.61978506  0.49961790  1.0
  C  C131  1  0.99841612  0.38023224  0.50039686  1.0
  C  C132  1  0.30965554  0.49825569  0.49830808  1.0
  C  C133  1  0.69035135  0.50175901  0.50171809  1.0
  C  C134  1  0.27768642  0.42766072  0.48798295  1.0
  C  C135  1  0.72239525  0.57241564  0.51219875  1.0
  C  C136  1  0.74520789  0.71313220  0.04876094  1.0
  C  C137  1  0.25242026  0.28787525  0.95119072  1.0
  C  C138  1  0.84199667  0.77890971  0.04926420  1.0
  C  C139  1  0.15821569  0.21848158  0.95074603  1.0
  C  C140  1  0.79431450  0.73231740  0.95328042  1.0
  C  C141  1  0.20594582  0.26507059  0.04671411  1.0
  C  C142  1  0.62580985  0.62613776  0.75238228  1.0
  C  C143  1  0.37421042  0.37385796  0.24760655  1.0
  I  I144  1  0.83236605  0.63822261  0.90307742  1.0
  I  I145  1  0.16535836  0.35672573  0.09699846  1.0
  O  O146  1  0.94781597  0.90856220  0.50076203  1.0
  O  O147  1  0.05219984  0.09145478  0.49926180  1.0
  O  O148  1  0.87197126  0.46355291  0.42931376  1.0
  O  O149  1  0.12802782  0.53645245  0.57068215  1.0
  O  O150  1  0.03578534  0.62869467  0.57077278  1.0
  O  O151  1  0.96420704  0.37132175  0.42923103  1.0
  O  O152  1  0.96563853  0.55725765  0.42925755  1.0
  O  O153  1  0.03435274  0.44274999  0.57074610  1.0
  O  O154  1  0.05250296  0.90758778  0.50042057  1.0
  O  O155  1  0.94750783  0.09243447  0.49959296  1.0
  O  O156  1  0.88359656  0.93678815  0.37310376  1.0
  O  O157  1  0.11639973  0.06322265  0.62689384  1.0
  O  O158  1  0.98928286  0.93656149  0.37323878  1.0
  O  O159  1  0.01071120  0.06344966  0.62675927  1.0
  O  O160  1  0.40797607  0.44716756  0.49946829  1.0
  O  O161  1  0.59203528  0.55283642  0.50055043  1.0
  O  O162  1  0.40730072  0.55214683  0.49976137  1.0
  O  O163  1  0.59269278  0.44784886  0.50023906  1.0
  O  O164  1  0.56358796  0.51103208  0.62699160  1.0
  O  O165  1  0.43641725  0.48896362  0.37299275  1.0
  O  O166  1  0.56353009  0.61659308  0.62695112  1.0
  O  O167  1  0.43647401  0.38341229  0.37305216  1.0
  O  O168  1  0.94220416  0.53501458  0.57080942  1.0
  O  O169  1  0.05778655  0.46499393  0.42918669  1.0
