# generated using pymatgen
data_ZnH8C17(O2F3)2
_symmetry_space_group_name_H-M   'P 1'
_cell_length_a   7.60341610
_cell_length_b   21.32804217
_cell_length_c   21.32768270
_cell_angle_alpha   60.00043569
_cell_angle_beta   90.00005158
_cell_angle_gamma   89.99933418
_symmetry_Int_Tables_number   1
_chemical_formula_structural   ZnH8C17(O2F3)2
_chemical_formula_sum   'Zn6 H48 C102 O24 F36'
_cell_volume   2995.26987130
_cell_formula_units_Z   6
loop_
 _symmetry_equiv_pos_site_id
 _symmetry_equiv_pos_as_xyz
  1  'x, y, z'
loop_
 _atom_site_type_symbol
 _atom_site_label
 _atom_site_symmetry_multiplicity
 _atom_site_fract_x
 _atom_site_fract_y
 _atom_site_fract_z
 _atom_site_occupancy
  Zn  Zn0  1  0.85093086  0.63458989  0.63451049  1.0
  Zn  Zn1  1  0.51796264  0.03207096  0.93580229  1.0
  Zn  Zn2  1  0.51759791  0.63451440  0.73089620  1.0
  Zn  Zn3  1  0.18463233  0.93580506  0.03212437  1.0
  Zn  Zn4  1  0.18426581  0.73090156  0.63458379  1.0
  Zn  Zn5  1  0.85129593  0.03212307  0.03206817  1.0
  H  H6  1  0.05520160  0.39844650  0.67750613  1.0
  H  H7  1  0.51123498  0.69867031  0.49174505  1.0
  H  H8  1  0.17900505  0.17418826  0.85686172  1.0
  H  H9  1  0.98916482  0.74035102  0.17879138  1.0
  H  H10  1  0.52372905  0.85697690  0.17441243  1.0
  H  H11  1  0.04701257  0.58533444  0.48826771  1.0
  H  H12  1  0.71264358  0.17928689  0.74035679  1.0
  H  H13  1  0.19048799  0.49212515  0.69809554  1.0
  H  H14  1  0.31454117  0.26762508  0.74259864  1.0
  H  H15  1  0.64681767  0.67800381  0.39819505  1.0
  H  H16  1  0.18044855  0.56339789  0.39604052  1.0
  H  H17  1  0.38818536  0.74273420  0.26794335  1.0
  H  H18  1  0.65574327  0.48800174  0.58560433  1.0
  H  H19  1  0.52257399  0.39572482  0.56372369  1.0
  H  H20  1  0.85583197  0.62619764  0.27101309  1.0
  H  H21  1  0.84604909  0.27140758  0.62619475  1.0
  H  H22  1  0.72186090  0.67750649  0.92404841  1.0
  H  H23  1  0.17788327  0.49174229  0.80958739  1.0
  H  H24  1  0.84567873  0.85685589  0.96895171  1.0
  H  H25  1  0.65582359  0.17878870  0.08086285  1.0
  H  H26  1  0.19040137  0.17441494  0.96860723  1.0
  H  H27  1  0.71366501  0.48826807  0.92639710  1.0
  H  H28  1  0.37930725  0.74036429  0.08034920  1.0
  H  H29  1  0.85714568  0.69809341  0.80978444  1.0
  H  H30  1  0.98122362  0.74259245  0.98978144  1.0
  H  H31  1  0.31347923  0.39819694  0.92380022  1.0
  H  H32  1  0.84709854  0.39604448  0.04056195  1.0
  H  H33  1  0.05485555  0.26794821  0.98931992  1.0
  H  H34  1  0.32240641  0.58560326  0.92639193  1.0
  H  H35  1  0.18923232  0.56372260  0.04055124  1.0
  H  H36  1  0.52248996  0.27101231  0.10279396  1.0
  H  H37  1  0.51272020  0.62619993  0.10239207  1.0
  H  H38  1  0.38852060  0.92405671  0.39844379  1.0
  H  H39  1  0.84456782  0.80958085  0.69867689  1.0
  H  H40  1  0.51235342  0.96895742  0.17418481  1.0
  H  H41  1  0.32247317  0.08086576  0.74034544  1.0
  H  H42  1  0.85705589  0.96860854  0.85698199  1.0
  H  H43  1  0.38032447  0.92638614  0.58534217  1.0
  H  H44  1  0.04597573  0.08035454  0.17928592  1.0
  H  H45  1  0.52381306  0.80979156  0.49211445  1.0
  H  H46  1  0.64789490  0.98978663  0.26762068  1.0
  H  H47  1  0.98013397  0.92379694  0.67800826  1.0
  H  H48  1  0.51375473  0.04055080  0.56340469  1.0
  H  H49  1  0.72150713  0.98931536  0.74274055  1.0
  H  H50  1  0.98907836  0.92638720  0.48800205  1.0
  H  H51  1  0.85590600  0.04054784  0.39572744  1.0
  H  H52  1  0.18912341  0.10279071  0.62619309  1.0
  H  H53  1  0.17938131  0.10239758  0.27140782  1.0
  C  C54  1  0.18432084  0.65604155  0.55129423  1.0
  C  C55  1  0.85123511  0.87397273  0.11528360  1.0
  C  C56  1  0.51778460  0.55140241  0.65581278  1.0
  C  C57  1  0.85105624  0.11543390  0.87394514  1.0
  C  C58  1  0.43300781  0.49527491  0.64387175  1.0
  C  C59  1  0.76635338  0.80590408  0.17137569  1.0
  C  C60  1  0.26920781  0.64403860  0.49520788  1.0
  C  C61  1  0.93587370  0.17152469  0.80586395  1.0
  C  C62  1  0.18724323  0.41776373  0.65732364  1.0
  C  C63  1  0.43884427  0.66988499  0.46978966  1.0
  C  C64  1  0.10611108  0.19645892  0.80620636  1.0
  C  C65  1  0.85767658  0.74039794  0.19896747  1.0
  C  C66  1  0.59639592  0.80627967  0.19654838  1.0
  C  C67  1  0.17815721  0.60584763  0.46785530  1.0
  C  C68  1  0.84432354  0.19931496  0.74038980  1.0
  C  C69  1  0.26315565  0.47001702  0.66949929  1.0
  C  C70  1  0.61196447  0.67600475  0.27693230  1.0
  C  C71  1  0.18221246  0.24857647  0.74175984  1.0
  C  C72  1  0.51490232  0.65766929  0.41758881  1.0
  C  C73  1  0.09045317  0.27693034  0.67591949  1.0
  C  C74  1  0.25443884  0.59375158  0.41555852  1.0
  C  C75  1  0.51784218  0.60657735  0.33333333  1.0
  C  C76  1  0.52032693  0.74185414  0.24872112  1.0
  C  C77  1  0.18479398  0.33325444  0.60652836  1.0
  C  C78  1  0.52438950  0.46772514  0.60593595  1.0
  C  C79  1  0.44823903  0.41540527  0.59384845  1.0
  C  C80  1  0.78142117  0.67600050  0.25126359  1.0
  C  C81  1  0.64751262  0.54199620  0.37653049  1.0
  C  C82  1  0.92065804  0.25151528  0.67596476  1.0
  C  C83  1  0.38833752  0.58505819  0.29018225  1.0
  C  C84  1  0.27888008  0.38962601  0.61960820  1.0
  C  C85  1  0.42358999  0.61971599  0.38963680  1.0
  C  C86  1  0.31447847  0.29006249  0.58511972  1.0
  C  C87  1  0.05537243  0.37640968  0.54181753  1.0
  C  C88  1  0.85097317  0.55129137  0.79266615  1.0
  C  C89  1  0.51790889  0.11528326  0.01074050  1.0
  C  C90  1  0.18442240  0.65581983  0.79277543  1.0
  C  C91  1  0.51773095  0.87394621  0.01061830  1.0
  C  C92  1  0.09967261  0.64387298  0.86085124  1.0
  C  C93  1  0.43302247  0.17137660  0.02272061  1.0
  C  C94  1  0.93586231  0.49520876  0.86075501  1.0
  C  C95  1  0.60254788  0.80586792  0.02260871  1.0
  C  C96  1  0.85390188  0.65732064  0.92491580  1.0
  C  C97  1  0.10549912  0.46978932  0.86032910  1.0
  C  C98  1  0.77278997  0.80620292  0.99733623  1.0
  C  C99  1  0.52434023  0.19896481  0.06063910  1.0
  C  C100  1  0.26306576  0.19654919  0.99717075  1.0
  C  C101  1  0.84481560  0.46785484  0.92629884  1.0
  C  C102  1  0.51099014  0.74039317  0.06029416  1.0
  C  C103  1  0.92981222  0.66950032  0.86048348  1.0
  C  C104  1  0.27862441  0.27693057  0.04706534  1.0
  C  C105  1  0.84888949  0.74175494  0.00966744  1.0
  C  C106  1  0.18155269  0.41758585  0.92474495  1.0
  C  C107  1  0.75712526  0.67591744  0.04715307  1.0
  C  C108  1  0.92109539  0.41555879  0.99069159  1.0
  C  C109  1  0.18448293  0.33331899  0.06009401  1.0
  C  C110  1  0.18699758  0.24872083  0.00942526  1.0
  C  C111  1  0.85145900  0.60652570  0.06021986  1.0
  C  C112  1  0.19105591  0.60593691  0.92633727  1.0
  C  C113  1  0.11490357  0.59384818  0.99074522  1.0
  C  C114  1  0.44808421  0.25126239  0.07274241  1.0
  C  C115  1  0.31414766  0.37652102  0.08148546  1.0
  C  C116  1  0.58732925  0.67596663  0.07251986  1.0
  C  C117  1  0.05496824  0.29017479  0.12475848  1.0
  C  C118  1  0.94553769  0.61960492  0.99076663  1.0
  C  C119  1  0.09024295  0.38963314  0.99064913  1.0
  C  C120  1  0.98115112  0.58511460  0.12481972  1.0
  C  C121  1  0.72203534  0.54181768  0.08177292  1.0
  C  C122  1  0.51764394  0.79266048  0.65604288  1.0
  C  C123  1  0.18455093  0.01074148  0.87397623  1.0
  C  C124  1  0.85110708  0.79278200  0.55139885  1.0
  C  C125  1  0.18440666  0.01061789  0.11543334  1.0
  C  C126  1  0.76633612  0.86085383  0.49527185  1.0
  C  C127  1  0.09967170  0.02272186  0.80590426  1.0
  C  C128  1  0.60253625  0.86074801  0.64404225  1.0
  C  C129  1  0.26921841  0.02261387  0.17152039  1.0
  C  C130  1  0.52056915  0.92492145  0.41775761  1.0
  C  C131  1  0.77216530  0.86032249  0.66988839  1.0
  C  C132  1  0.43946075  0.99734199  0.19645542  1.0
  C  C133  1  0.19098655  0.06063899  0.74039725  1.0
  C  C134  1  0.92971744  0.99717199  0.80628232  1.0
  C  C135  1  0.51147739  0.92628990  0.60585292  1.0
  C  C136  1  0.17765636  0.06029915  0.19931005  1.0
  C  C137  1  0.59647824  0.86048891  0.47001176  1.0
  C  C138  1  0.94527002  0.04706187  0.67600616  1.0
  C  C139  1  0.51555667  0.00967528  0.24856984  1.0
  C  C140  1  0.84821690  0.92473668  0.65767967  1.0
  C  C141  1  0.42379472  0.04716025  0.27692244  1.0
  C  C142  1  0.58775258  0.99068189  0.59375376  1.0
  C  C143  1  0.85113966  0.06007861  0.60658806  1.0
  C  C144  1  0.85364347  0.00942411  0.74185736  1.0
  C  C145  1  0.51813112  0.06022599  0.33324919  1.0
  C  C146  1  0.85772290  0.92633725  0.46772241  1.0
  C  C147  1  0.78157313  0.99074434  0.41540315  1.0
  C  C148  1  0.11472713  0.07273844  0.67599845  1.0
  C  C149  1  0.98081516  0.08146666  0.54199639  1.0
  C  C150  1  0.25399691  0.07252579  0.25151015  1.0
  C  C151  1  0.72163496  0.12475696  0.58505814  1.0
  C  C152  1  0.61221239  0.99077139  0.38962121  1.0
  C  C153  1  0.75689895  0.99064238  0.61972104  1.0
  C  C154  1  0.64782173  0.12482412  0.29005720  1.0
  C  C155  1  0.38871136  0.08178314  0.37640142  1.0
  O  O156  1  0.70301526  0.09155817  0.86763958  1.0
  O  O157  1  0.03638785  0.62575943  0.57525576  1.0
  O  O158  1  0.76840985  0.93333878  0.09523404  1.0
  O  O159  1  0.66570059  0.57535885  0.62553065  1.0
  O  O160  1  0.43508203  0.57134389  0.69524728  1.0
  O  O161  1  0.93391577  0.09543701  0.93328517  1.0
  O  O162  1  0.26690810  0.69553298  0.57118993  1.0
  O  O163  1  0.99932732  0.86766091  0.09143644  1.0
  O  O164  1  0.36969368  0.86764474  0.04079867  1.0
  O  O165  1  0.70301298  0.57524592  0.79899087  1.0
  O  O166  1  0.43509398  0.09524026  0.97142182  1.0
  O  O167  1  0.33235903  0.62552983  0.79910190  1.0
  O  O168  1  0.10173781  0.69525012  0.73340661  1.0
  O  O169  1  0.60059292  0.93329055  0.97127266  1.0
  O  O170  1  0.93355144  0.57119622  0.73327750  1.0
  O  O171  1  0.66599406  0.09143315  0.04090621  1.0
  O  O172  1  0.03635295  0.04079422  0.09155748  1.0
  O  O173  1  0.36971555  0.79898068  0.62576963  1.0
  O  O174  1  0.10173886  0.97142212  0.93334020  1.0
  O  O175  1  0.99902210  0.79910776  0.57535989  1.0
  O  O176  1  0.76841628  0.73340932  0.57133358  1.0
  O  O177  1  0.26727002  0.97127595  0.09543385  1.0
  O  O178  1  0.60025386  0.73327323  0.69552901  1.0
  O  O179  1  0.33264177  0.04090773  0.86766339  1.0
  F  F180  1  0.98196315  0.33548442  0.51614173  1.0
  F  F181  1  0.44958931  0.26157641  0.63371441  1.0
  F  F182  1  0.38770008  0.33082903  0.51845995  1.0
  F  F183  1  0.25321323  0.63362630  0.26163981  1.0
  F  F184  1  0.92043448  0.40519271  0.56167458  1.0
  F  F185  1  0.72091026  0.51615784  0.33573595  1.0
  F  F186  1  0.31520178  0.51838309  0.33103637  1.0
  F  F187  1  0.78249113  0.56208650  0.40508354  1.0
  F  F188  1  0.13760029  0.43269374  0.48506101  1.0
  F  F189  1  0.56553597  0.48528661  0.43296620  1.0
  F  F190  1  0.23251885  0.23358630  0.58494314  1.0
  F  F191  1  0.47035191  0.58479328  0.23375536  1.0
  F  F192  1  0.64860437  0.51614259  0.14837112  1.0
  F  F193  1  0.11625487  0.63370919  0.10471538  1.0
  F  F194  1  0.05438196  0.51845607  0.15071255  1.0
  F  F195  1  0.91983782  0.26163849  0.10473006  1.0
  F  F196  1  0.58710877  0.56167389  0.03312983  1.0
  F  F197  1  0.38752989  0.33572047  0.14812006  1.0
  F  F198  1  0.98183915  0.33102916  0.15058210  1.0
  F  F199  1  0.44912463  0.40507345  0.03284545  1.0
  F  F200  1  0.80427956  0.48506221  0.08224614  1.0
  F  F201  1  0.23217045  0.43295437  0.08176033  1.0
  F  F202  1  0.89917488  0.58493502  0.18147073  1.0
  F  F203  1  0.13697446  0.23374463  0.18145070  1.0
  F  F204  1  0.31528272  0.14838070  0.33547164  1.0
  F  F205  1  0.78291524  0.10471627  0.26156455  1.0
  F  F206  1  0.72105423  0.15071078  0.33082715  1.0
  F  F207  1  0.58651319  0.10473695  0.63362554  1.0
  F  F208  1  0.25378862  0.03314001  0.40519044  1.0
  F  F209  1  0.05421476  0.14809592  0.51615962  1.0
  F  F210  1  0.64849497  0.15057596  0.51838327  1.0
  F  F211  1  0.11578637  0.03282026  0.56209306  1.0
  F  F212  1  0.47093762  0.08226467  0.43268439  1.0
  F  F213  1  0.89883615  0.08173767  0.48529167  1.0
  F  F214  1  0.56585364  0.18147952  0.23358620  1.0
  F  F215  1  0.80365113  0.18144862  0.58479221  1.0
