# generated using pymatgen
data_Al3H28C48(N3O7)2
_symmetry_space_group_name_H-M   'P 1'
_cell_length_a   12.22512562
_cell_length_b   12.70796747
_cell_length_c   27.76136952
_cell_angle_alpha   90.25154817
_cell_angle_beta   90.94311648
_cell_angle_gamma   118.61645726
_symmetry_Int_Tables_number   1
_chemical_formula_structural   Al3H28C48(N3O7)2
_chemical_formula_sum   'Al6 H56 C96 N12 O28'
_cell_volume   3785.18463236
_cell_formula_units_Z   2
loop_
 _symmetry_equiv_pos_site_id
 _symmetry_equiv_pos_as_xyz
  1  'x, y, z'
loop_
 _atom_site_type_symbol
 _atom_site_label
 _atom_site_symmetry_multiplicity
 _atom_site_fract_x
 _atom_site_fract_y
 _atom_site_fract_z
 _atom_site_occupancy
  Al  Al0  1  0.38630827  0.56899748  0.49636297  1.0
  Al  Al1  1  0.42820202  0.34023463  0.50062397  1.0
  Al  Al2  1  0.65383355  0.58338243  0.49919553  1.0
  Al  Al3  1  0.93948843  0.08708379  0.98527435  1.0
  Al  Al4  1  0.67597138  0.08302926  0.98510051  1.0
  Al  Al5  1  0.90561074  0.32221268  0.98384840  1.0
  H  H6  1  0.16507382  0.51741100  0.22888171  1.0
  H  H7  1  0.81908884  0.82022401  0.61799575  1.0
  H  H8  1  0.97891463  0.95396768  0.77828862  1.0
  H  H9  1  0.95617345  0.90345592  0.69117759  1.0
  H  H10  1  0.43162658  0.72000831  0.62275997  1.0
  H  H11  1  0.06040139  0.46078535  0.85577251  1.0
  H  H12  1  0.12355536  0.57377336  0.68939933  1.0
  H  H13  1  0.13869051  0.16807429  0.86627217  1.0
  H  H14  1  0.21800367  0.10474596  0.79638624  1.0
  H  H15  1  0.26603616  0.11864226  0.70969531  1.0
  H  H16  1  0.28095602  0.21490118  0.63016614  1.0
  H  H17  1  0.98781032  0.33371671  0.28652693  1.0
  H  H18  1  0.62872347  0.63303901  0.25594133  1.0
  H  H19  1  0.45374239  0.19105327  0.21192523  1.0
  H  H20  1  0.37601435  0.65264751  0.20822630  1.0
  H  H21  1  0.46282256  0.65868780  0.16101058  1.0
  H  H22  1  0.49532217  0.86370046  0.27314486  1.0
  H  H23  1  0.71519358  0.04908004  0.23094935  1.0
  H  H24  1  0.43790926  0.55390757  0.25672445  1.0
  H  H25  1  0.37887982  0.52313065  0.31191417  1.0
  H  H26  1  0.31933853  0.30794281  0.19887131  1.0
  H  H27  1  0.54411804  0.10249356  0.85156081  1.0
  H  H28  1  0.13926820  0.12316475  0.25600054  1.0
  H  H29  1  0.54668188  0.04942584  0.27199880  1.0
  H  H30  1  0.62219880  0.12823382  0.32138557  1.0
  H  H31  1  0.44922968  0.02740814  0.76970794  1.0
  H  H32  1  0.80579411  0.47534879  0.87518337  1.0
  H  H33  1  0.84715404  0.66782012  0.65493562  1.0
  H  H34  1  0.79830295  0.61059913  0.59718526  1.0
  H  H35  1  0.52106846  0.41584875  0.25765631  1.0
  H  H36  1  0.39667799  0.74563581  0.86473811  1.0
  H  H37  1  0.49232558  0.84666439  0.90748348  1.0
  H  H38  1  0.25724864  0.74434677  0.78226035  1.0
  H  H39  1  0.95139377  0.16489379  0.21113414  1.0
  H  H40  1  0.35872941  0.84629058  0.82188237  1.0
  H  H41  1  0.34974996  0.81440047  0.65617559  1.0
  H  H42  1  0.28826917  0.82378016  0.70904640  1.0
  H  H43  1  0.21592946  0.53458509  0.57557120  1.0
  H  H44  1  0.17364810  0.58442081  0.62718402  1.0
  H  H45  1  0.03421568  0.56097931  0.81022901  1.0
  H  H46  1  0.03488458  0.61380099  0.75604748  1.0
  H  H47  1  0.78534393  0.62468631  0.20271460  1.0
  H  H48  1  0.77670730  0.53641499  0.15650549  1.0
  H  H49  1  0.87509025  0.48020704  0.27087867  1.0
  H  H50  1  0.51190188  0.20470812  0.61404264  1.0
  H  H51  1  0.80801880  0.25697342  0.22461045  1.0
  H  H52  1  0.94440030  0.85332769  0.23283157  1.0
  H  H53  1  0.89525452  0.85052117  0.17628109  1.0
  H  H54  1  0.94463850  0.06403965  0.28509101  1.0
  H  H55  1  0.86822418  0.98635597  0.33304030  1.0
  H  H56  1  0.44390648  0.06364398  0.68273264  1.0
  H  H57  1  0.85222381  0.62078948  0.80747406  1.0
  H  H58  1  0.84887962  0.65666455  0.72194585  1.0
  H  H59  1  0.88808896  0.97035166  0.85451496  1.0
  H  H60  1  0.29360465  0.69003452  0.47629378  1.0
  H  H61  1  0.09550144  0.03950647  0.96438054  1.0
  C  C62  1  0.27151199  0.35532374  0.43043576  1.0
  C  C63  1  0.65581437  0.37263215  0.33961568  1.0
  C  C64  1  0.77695727  0.91584577  0.26881890  1.0
  C  C65  1  0.61776063  0.39986774  0.43118064  1.0
  C  C66  1  0.76757525  0.82647901  0.22722319  1.0
  C  C67  1  0.71058764  0.91480911  0.10282926  1.0
  C  C68  1  0.62664868  0.76261476  0.38337276  1.0
  C  C69  1  0.69552073  0.95683374  0.23716126  1.0
  C  C70  1  0.68745222  0.86767768  0.19535280  1.0
  C  C71  1  0.57427094  0.85546910  0.25933998  1.0
  C  C72  1  0.65407975  0.81397821  0.29120396  1.0
  C  C73  1  0.64496856  0.38056441  0.38296940  1.0
  C  C74  1  0.56345894  0.76662486  0.21819872  1.0
  C  C75  1  0.64617004  0.72458638  0.24967242  1.0
  C  C76  1  0.70198521  0.89418904  0.14585816  1.0
  C  C77  1  0.60000499  0.71152365  0.43061210  1.0
  C  C78  1  0.63870541  0.78659150  0.34065633  1.0
  C  C79  1  0.06073833  0.32799019  0.26627017  1.0
  C  C80  1  0.16033287  0.43034951  0.23533191  1.0
  C  C81  1  0.10752436  0.33581658  0.10080269  1.0
  C  C82  1  0.21392020  0.31354933  0.38364152  1.0
  C  C83  1  0.04089609  0.23320870  0.22619158  1.0
  C  C84  1  0.74465066  0.29261247  0.23276951  1.0
  C  C85  1  0.14174948  0.33629842  0.19442957  1.0
  C  C86  1  0.14526893  0.21063806  0.24966845  1.0
  C  C87  1  0.16450812  0.30436733  0.29092349  1.0
  C  C88  1  0.24562055  0.31292273  0.21885543  1.0
  C  C89  1  0.28192929  0.36906161  0.56786966  1.0
  C  C90  1  0.26613134  0.40760476  0.25917892  1.0
  C  C91  1  0.12626481  0.34278652  0.14422062  1.0
  C  C92  1  0.18518102  0.30072891  0.34091378  1.0
  C  C93  1  0.57443498  0.27629975  0.63859250  1.0
  C  C94  1  0.57692279  0.25353107  0.68755837  1.0
  C  C95  1  0.66534347  0.31578841  0.19249244  1.0
  C  C96  1  0.58502934  0.21226836  0.78805665  1.0
  C  C97  1  0.50654433  0.11675540  0.75541807  1.0
  C  C98  1  0.50324052  0.13705493  0.70735009  1.0
  C  C99  1  0.59562331  0.19259220  0.83718108  1.0
  C  C100  1  0.67675640  0.28674218  0.86791628  1.0
  C  C101  1  0.62944657  0.40660879  0.56779396  1.0
  C  C102  1  0.73174054  0.48726256  0.64993014  1.0
  C  C103  1  0.72872822  0.46823764  0.70088748  1.0
  C  C104  1  0.65442510  0.35137763  0.71932121  1.0
  C  C105  1  0.79811015  0.56442754  0.73430677  1.0
  C  C106  1  0.78205166  0.41615091  0.25717067  1.0
  C  C107  1  0.80010645  0.54533087  0.78271072  1.0
  C  C108  1  0.73402746  0.42730784  0.80186515  1.0
  C  C109  1  0.65730481  0.33059298  0.76965691  1.0
  C  C110  1  0.74390492  0.40345201  0.85059202  1.0
  C  C111  1  0.64939802  0.38976915  0.61896384  1.0
  C  C112  1  0.74022764  0.81030264  0.63898410  1.0
  C  C113  1  0.59878071  0.71053323  0.56728577  1.0
  C  C114  1  0.75642613  0.84307476  0.68793126  1.0
  C  C115  1  0.78358644  0.90108478  0.78785184  1.0
  C  C116  1  0.88797158  0.91683768  0.76012251  1.0
  C  C117  1  0.66327885  0.35667370  0.28962132  1.0
  C  C118  1  0.87534464  0.88878390  0.71215513  1.0
  C  C119  1  0.79690938  0.93147586  0.83661467  1.0
  C  C120  1  0.69459609  0.91250430  0.86436392  1.0
  C  C121  1  0.52159365  0.75781195  0.64158657  1.0
  C  C122  1  0.53471415  0.79264912  0.69028863  1.0
  C  C123  1  0.65152623  0.83013622  0.71475730  1.0
  C  C124  1  0.43606140  0.79612366  0.71599024  1.0
  C  C125  1  0.62270939  0.23043363  0.26462542  1.0
  C  C126  1  0.44353184  0.81350212  0.76573477  1.0
  C  C127  1  0.55765101  0.84084441  0.79190179  1.0
  C  C128  1  0.70366336  0.44193311  0.21700390  1.0
  C  C129  1  0.66363684  0.85700781  0.76491807  1.0
  C  C130  1  0.57278931  0.85974214  0.84309425  1.0
  C  C131  1  0.62262797  0.76375076  0.61652776  1.0
  C  C132  1  0.20114585  0.43920748  0.63756225  1.0
  C  C133  1  0.17215955  0.42940218  0.68797092  1.0
  C  C134  1  0.12095146  0.41598679  0.78867626  1.0
  C  C135  1  0.11076802  0.50315375  0.75873478  1.0
  C  C136  1  0.13314659  0.50624863  0.71027680  1.0
  C  C137  1  0.54691630  0.25642200  0.22498733  1.0
  C  C138  1  0.09166822  0.40392358  0.83775059  1.0
  C  C139  1  0.58447627  0.38052028  0.24919831  1.0
  C  C140  1  0.09667147  0.31410976  0.86499752  1.0
  C  C141  1  0.24926958  0.27293804  0.64691680  1.0
  C  C142  1  0.22258243  0.26282450  0.69578974  1.0
  C  C143  1  0.18430109  0.34309588  0.71665314  1.0
  C  C144  1  0.23406660  0.17726239  0.72581881  1.0
  C  C145  1  0.20785302  0.16955951  0.77366061  1.0
  C  C146  1  0.16747931  0.24727304  0.79558620  1.0
  C  C147  1  0.15786035  0.33599036  0.76672474  1.0
  C  C148  1  0.13557455  0.23734345  0.84419434  1.0
  C  C149  1  0.68703289  0.29154932  0.09947211  1.0
  C  C150  1  0.67369264  0.29988651  0.14259137  1.0
  C  C151  1  0.24036094  0.35856054  0.61770455  1.0
  C  C152  1  0.73002519  0.95898817  0.05438911  1.0
  C  C153  1  0.71632744  0.27147460  0.05170946  1.0
  C  C154  1  0.05880391  0.30091870  0.05248387  1.0
  C  C155  1  0.72373280  0.95466148  0.91516314  1.0
  C  C156  1  0.70177492  0.26033523  0.91765724  1.0
  C  C157  1  0.05011355  0.29274109  0.91499966  1.0
  N  N158  1  0.45437992  0.70466207  0.18960005  1.0
  N  N159  1  0.73439978  0.54108730  0.18720768  1.0
  N  N160  1  0.86945425  0.81388381  0.20958210  1.0
  N  N161  1  0.88565499  0.98119225  0.29757677  1.0
  N  N162  1  0.38389654  0.48729320  0.27956729  1.0
  N  N163  1  0.56990210  0.12499777  0.29185148  1.0
  N  N164  1  0.81226768  0.59620089  0.63224652  1.0
  N  N165  1  0.46957251  0.82823936  0.87181050  1.0
  N  N166  1  0.34264483  0.81980942  0.78666317  1.0
  N  N167  1  0.33084705  0.78432968  0.69054428  1.0
  N  N168  1  0.19156929  0.52330973  0.61090923  1.0
  N  N169  1  0.08314495  0.58876614  0.77935343  1.0
  O  O170  1  0.49320711  0.68157843  0.44695417  1.0
  O  O171  1  0.82124820  0.34983970  0.03539494  1.0
  O  O172  1  0.03880899  0.37591965  0.02761303  1.0
  O  O173  1  0.29842423  0.46196645  0.44105587  1.0
  O  O174  1  0.04501965  0.20370162  0.93712273  1.0
  O  O175  1  0.83358292  0.99133520  0.93078455  1.0
  O  O176  1  0.63691974  0.95773452  0.94110972  1.0
  O  O177  1  0.63266523  0.15501345  0.93395861  1.0
  O  O178  1  0.79603636  0.34226430  0.94075893  1.0
  O  O179  1  0.01210657  0.36428187  0.93211078  1.0
  O  O180  1  0.83953504  0.16502940  0.98519432  1.0
  O  O181  1  0.53766282  0.32191228  0.54457903  1.0
  O  O182  1  0.29529318  0.28435106  0.45626651  1.0
  O  O183  1  0.51725613  0.31824464  0.44926686  1.0
  O  O184  1  0.69299885  0.49983441  0.45186276  1.0
  O  O185  1  0.68637823  0.69630965  0.45129942  1.0
  O  O186  1  0.49099407  0.67313136  0.54904187  1.0
  O  O187  1  0.28164086  0.45091664  0.54155446  1.0
  O  O188  1  0.32162637  0.29709293  0.55252020  1.0
  O  O189  1  0.70077664  0.50863139  0.54807643  1.0
  O  O190  1  0.68801663  0.70033154  0.54678281  1.0
  O  O191  1  0.49100874  0.49729058  0.49823823  1.0
  O  O192  1  0.03445311  0.19664730  0.03943887  1.0
  O  O193  1  0.83036392  0.97936860  0.03469065  1.0
  O  O194  1  0.64337594  0.97818062  0.03616275  1.0
  O  O195  1  0.63902614  0.17467031  0.02969200  1.0
  O  O196  1  0.28423022  0.63055606  0.49976187  1.0
  O  O197  1  0.02765449  0.01148752  0.98666145  1.0
