# generated using pymatgen
data_GdH19C27(N2O5)4
_symmetry_space_group_name_H-M   'P 1'
_cell_length_a   15.33427499
_cell_length_b   18.66743815
_cell_length_c   18.66737794
_cell_angle_alpha   107.49041889
_cell_angle_beta   95.94156905
_cell_angle_gamma   95.94162063
_symmetry_Int_Tables_number   1
_chemical_formula_structural   GdH19C27(N2O5)4
_chemical_formula_sum   'Gd4 H76 C108 N32 O80'
_cell_volume   5017.83589946
_cell_formula_units_Z   4
loop_
 _symmetry_equiv_pos_site_id
 _symmetry_equiv_pos_as_xyz
  1  'x, y, z'
loop_
 _atom_site_type_symbol
 _atom_site_label
 _atom_site_symmetry_multiplicity
 _atom_site_fract_x
 _atom_site_fract_y
 _atom_site_fract_z
 _atom_site_occupancy
  Gd  Gd0  1  0.62610766  0.56098497  0.01928053  1.0
  Gd  Gd1  1  0.87388776  0.98071929  0.43901300  1.0
  Gd  Gd2  1  0.37388816  0.43901486  0.98071482  1.0
  Gd  Gd3  1  0.12611546  0.01928565  0.56098506  1.0
  H  H4  1  0.47041179  0.30153405  0.11513132  1.0
  H  H5  1  0.72370998  0.44102492  0.17267802  1.0
  H  H6  1  0.70682881  0.19100105  0.42047846  1.0
  H  H7  1  0.78843628  0.05718212  0.21363512  1.0
  H  H8  1  0.48143743  0.77183356  0.15860353  1.0
  H  H9  1  0.33574646  0.55767987  0.14852848  1.0
  H  H10  1  0.82534837  0.51334774  0.94384383  1.0
  H  H11  1  0.90323629  0.34951989  0.02695736  1.0
  H  H12  1  0.93443459  0.43449151  0.10611448  1.0
  H  H13  1  0.82024782  0.40072863  0.07037171  1.0
  H  H14  1  0.95321942  0.47367420  0.91710512  1.0
  H  H15  1  0.00295555  0.41450293  0.96279373  1.0
  H  H16  1  0.77643275  0.53915993  0.16674036  1.0
  H  H17  1  0.93219587  0.73579718  0.21694202  1.0
  H  H18  1  0.81699983  0.73934293  0.19526063  1.0
  H  H19  1  0.86643906  0.75926992  0.29190694  1.0
  H  H20  1  0.97040494  0.62291742  0.26784168  1.0
  H  H21  1  0.89370050  0.64422843  0.33449239  1.0
  H  H22  1  0.87836532  0.55367579  0.26271425  1.0
  H  H23  1  0.02959017  0.88486675  0.69846413  1.0
  H  H24  1  0.77629502  0.82731780  0.55897204  1.0
  H  H25  1  0.79317344  0.57951891  0.80900131  1.0
  H  H26  1  0.71155853  0.78636380  0.94281397  1.0
  H  H27  1  0.01857193  0.84140851  0.22816328  1.0
  H  H28  1  0.16423546  0.85146505  0.44232110  1.0
  H  H29  1  0.67464973  0.05615354  0.48665741  1.0
  H  H30  1  0.59675370  0.97305277  0.65049044  1.0
  H  H31  1  0.56555754  0.89389298  0.56552236  1.0
  H  H32  1  0.67974440  0.92963365  0.59928829  1.0
  H  H33  1  0.54678100  0.08289499  0.52632510  1.0
  H  H34  1  0.49703986  0.03721137  0.58550012  1.0
  H  H35  1  0.72356502  0.83325707  0.46084351  1.0
  H  H36  1  0.56780489  0.78306313  0.26420729  1.0
  H  H37  1  0.68300032  0.80473400  0.26065927  1.0
  H  H38  1  0.63355364  0.70809364  0.24073227  1.0
  H  H39  1  0.52959248  0.73216162  0.37708798  1.0
  H  H40  1  0.60629280  0.66550691  0.35577729  1.0
  H  H41  1  0.62163307  0.73728935  0.44632903  1.0
  H  H42  1  0.52958357  0.69846691  0.88486488  1.0
  H  H43  1  0.27628294  0.55898113  0.82732541  1.0
  H  H44  1  0.29315868  0.80899594  0.57951426  1.0
  H  H45  1  0.21156123  0.94281997  0.78636214  1.0
  H  H46  1  0.51857152  0.22816622  0.84140630  1.0
  H  H47  1  0.66424168  0.44232110  0.85146443  1.0
  H  H48  1  0.17464118  0.48664981  0.05615298  1.0
  H  H49  1  0.09674971  0.65048385  0.97305121  1.0
  H  H50  1  0.06554944  0.56551623  0.89389139  1.0
  H  H51  1  0.17973658  0.59927742  0.92963047  1.0
  H  H52  1  0.04677266  0.52632277  0.08289601  1.0
  H  H53  1  0.99703232  0.58549629  0.03720988  1.0
  H  H54  1  0.22356316  0.46084049  0.83325143  1.0
  H  H55  1  0.06780980  0.26420261  0.78306432  1.0
  H  H56  1  0.18300593  0.26065748  0.80473466  1.0
  H  H57  1  0.13355237  0.24072705  0.70809199  1.0
  H  H58  1  0.02959032  0.37707503  0.73215191  1.0
  H  H59  1  0.10629458  0.35576687  0.66550152  1.0
  H  H60  1  0.12162451  0.44631950  0.73728082  1.0
  H  H61  1  0.97041595  0.11512402  0.30152611  1.0
  H  H62  1  0.22370895  0.17267978  0.44102224  1.0
  H  H63  1  0.20683522  0.42047919  0.19100316  1.0
  H  H64  1  0.28843991  0.21363605  0.05717840  1.0
  H  H65  1  0.98143617  0.15859414  0.77183825  1.0
  H  H66  1  0.83575672  0.14853246  0.55768396  1.0
  H  H67  1  0.32535247  0.94384513  0.51334456  1.0
  H  H68  1  0.40325994  0.02695950  0.34952412  1.0
  H  H69  1  0.43445479  0.10611528  0.43449570  1.0
  H  H70  1  0.32026680  0.07037577  0.40072574  1.0
  H  H71  1  0.45322373  0.91710707  0.47368239  1.0
  H  H72  1  0.50296637  0.96278785  0.41450824  1.0
  H  H73  1  0.27642650  0.16676033  0.53916166  1.0
  H  H74  1  0.43220405  0.21692478  0.73578981  1.0
  H  H75  1  0.31700507  0.19525616  0.73934143  1.0
  H  H76  1  0.36645868  0.29189875  0.75927988  1.0
  H  H77  1  0.47040738  0.26784669  0.62291886  1.0
  H  H78  1  0.39370913  0.33450192  0.64424007  1.0
  H  H79  1  0.37836623  0.26272745  0.55368411  1.0
  C  C80  1  0.55716502  0.42945771  0.09938000  1.0
  C  C81  1  0.59315887  0.37730145  0.13933534  1.0
  C  C82  1  0.53939789  0.31323269  0.14114874  1.0
  C  C83  1  0.57474255  0.26372777  0.17518740  1.0
  C  C84  1  0.66349188  0.27504456  0.20908490  1.0
  C  C85  1  0.71505803  0.34141169  0.20731140  1.0
  C  C86  1  0.68120716  0.39102395  0.17316609  1.0
  C  C87  1  0.69692428  0.22215656  0.24805876  1.0
  C  C88  1  0.68566939  0.23003120  0.32376500  1.0
  C  C89  1  0.71437009  0.18062434  0.36103533  1.0
  C  C90  1  0.75337154  0.11896340  0.32212693  1.0
  C  C91  1  0.76092466  0.10650865  0.24560414  1.0
  C  C92  1  0.73396926  0.15772841  0.21032300  1.0
  C  C93  1  0.78730213  0.06628087  0.36162088  1.0
  C  C94  1  0.47973299  0.62027225  0.10113603  1.0
  C  C95  1  0.41410945  0.66047532  0.14606404  1.0
  C  C96  1  0.42440013  0.73960242  0.17032808  1.0
  C  C97  1  0.36117452  0.77676886  0.20885794  1.0
  C  C98  1  0.28432269  0.73776818  0.22236157  1.0
  C  C99  1  0.27984356  0.65854467  0.20118317  1.0
  C  C100  1  0.34314383  0.61945785  0.16412195  1.0
  C  C101  1  0.81630634  0.48143961  0.98439628  1.0
  C  C102  1  0.88674628  0.40621713  0.05461522  1.0
  C  C103  1  0.96937913  0.46519633  0.97245862  1.0
  C  C104  1  0.78532053  0.59914049  0.16902124  1.0
  C  C105  1  0.86648556  0.72456565  0.23295688  1.0
  C  C106  1  0.90018316  0.61451166  0.27516521  1.0
  C  C107  1  0.94282849  0.90061483  0.57053844  1.0
  C  C108  1  0.90684684  0.86065882  0.62269604  1.0
  C  C109  1  0.96060598  0.85884871  0.68676558  1.0
  C  C110  1  0.92526075  0.82481273  0.73627168  1.0
  C  C111  1  0.83651256  0.79091227  0.72494999  1.0
  C  C112  1  0.78494742  0.79268595  0.65858486  1.0
  C  C113  1  0.81879894  0.82682859  0.60897044  1.0
  C  C114  1  0.80307929  0.75193794  0.77783842  1.0
  C  C115  1  0.81433295  0.67623117  0.76996681  1.0
  C  C116  1  0.78563284  0.63896325  0.81937611  1.0
  C  C117  1  0.74662771  0.67787385  0.88103841  1.0
  C  C118  1  0.73906974  0.75439460  0.89348623  1.0
  C  C119  1  0.76602937  0.78967388  0.84226442  1.0
  C  C120  1  0.71269197  0.63838191  0.93371844  1.0
  C  C121  1  0.02026019  0.89886723  0.37972348  1.0
  C  C122  1  0.08588895  0.85394050  0.33952486  1.0
  C  C123  1  0.07560749  0.82968370  0.26039589  1.0
  C  C124  1  0.13883688  0.79115515  0.22323471  1.0
  C  C125  1  0.21567890  0.77764165  0.26223832  1.0
  C  C126  1  0.22014909  0.79881532  0.34146094  1.0
  C  C127  1  0.15684391  0.83587472  0.38054348  1.0
  C  C128  1  0.68369067  0.01560347  0.51856810  1.0
  C  C129  1  0.61324741  0.94538789  0.59379687  1.0
  C  C130  1  0.53061777  0.02754537  0.53480729  1.0
  C  C131  1  0.71468121  0.83097770  0.40086338  1.0
  C  C132  1  0.63351147  0.76704212  0.27543902  1.0
  C  C133  1  0.59981720  0.72483636  0.38549318  1.0
  C  C134  1  0.44282331  0.57054439  0.90061649  1.0
  C  C135  1  0.40683612  0.62269723  0.86066334  1.0
  C  C136  1  0.46059476  0.68676769  0.85885133  1.0
  C  C137  1  0.42525337  0.73627659  0.82481309  1.0
  C  C138  1  0.33650198  0.72495526  0.79091189  1.0
  C  C139  1  0.28493602  0.65858927  0.79268522  1.0
  C  C140  1  0.31878923  0.60897530  0.82683181  1.0
  C  C141  1  0.30307014  0.77784270  0.75193844  1.0
  C  C142  1  0.31432119  0.76996465  0.67622977  1.0
  C  C143  1  0.28562152  0.81937379  0.63895969  1.0
  C  C144  1  0.24662625  0.88104041  0.67787033  1.0
  C  C145  1  0.23907023  0.89349345  0.75439182  1.0
  C  C146  1  0.26602497  0.84226971  0.78967224  1.0
  C  C147  1  0.21269294  0.93372236  0.63837866  1.0
  C  C148  1  0.52025985  0.37972529  0.89886319  1.0
  C  C149  1  0.58589050  0.33952562  0.85393842  1.0
  C  C150  1  0.57561023  0.26039792  0.82968311  1.0
  C  C151  1  0.63883921  0.22323603  0.79115384  1.0
  C  C152  1  0.71568560  0.26223957  0.77764474  1.0
  C  C153  1  0.72015724  0.34146138  0.79882039  1.0
  C  C154  1  0.65684974  0.38054424  0.83587551  1.0
  C  C155  1  0.18368124  0.51855794  0.01559823  1.0
  C  C156  1  0.11324112  0.59378721  0.94538722  1.0
  C  C157  1  0.03060884  0.53480347  0.02754357  1.0
  C  C158  1  0.21467801  0.40085992  0.83097237  1.0
  C  C159  1  0.13351532  0.27543304  0.76704177  1.0
  C  C160  1  0.09981323  0.38548364  0.72482934  1.0
  C  C161  1  0.05717304  0.09938387  0.42945598  1.0
  C  C162  1  0.09316032  0.13933420  0.37730033  1.0
  C  C163  1  0.03940418  0.14113865  0.31322504  1.0
  C  C164  1  0.07474631  0.17518371  0.26372358  1.0
  C  C165  1  0.16349609  0.20908191  0.27504043  1.0
  C  C166  1  0.21506001  0.20731277  0.34140845  1.0
  C  C167  1  0.18120690  0.17316842  0.39102329  1.0
  C  C168  1  0.19692815  0.24805681  0.22215368  1.0
  C  C169  1  0.18567178  0.32376296  0.23003291  1.0
  C  C170  1  0.21437451  0.36103486  0.18062664  1.0
  C  C171  1  0.25337252  0.32212483  0.11896178  1.0
  C  C172  1  0.26092898  0.24560298  0.10650439  1.0
  C  C173  1  0.23397151  0.21032087  0.15772445  1.0
  C  C174  1  0.28730452  0.36161792  0.06627857  1.0
  C  C175  1  0.97973723  0.10113428  0.62027787  1.0
  C  C176  1  0.91411100  0.14606043  0.66047921  1.0
  C  C177  1  0.92440051  0.17032235  0.73960774  1.0
  C  C178  1  0.86117310  0.20885089  0.77677283  1.0
  C  C179  1  0.78432818  0.22236268  0.73777113  1.0
  C  C180  1  0.77985143  0.20118502  0.65854835  1.0
  C  C181  1  0.84315230  0.16412336  0.61946209  1.0
  C  C182  1  0.31631435  0.98440030  0.48143887  1.0
  C  C183  1  0.38676313  0.05461755  0.40621857  1.0
  C  C184  1  0.46939052  0.97245839  0.46520102  1.0
  C  C185  1  0.28531893  0.16903232  0.59914187  1.0
  C  C186  1  0.36649569  0.23295086  0.72456591  1.0
  C  C187  1  0.40018482  0.27517306  0.61451901  1.0
  N  N188  1  0.51321378  0.19707941  0.17449902  1.0
  N  N189  1  0.80860459  0.36074219  0.24211984  1.0
  N  N190  1  0.64351245  0.29328182  0.36853451  1.0
  N  N191  1  0.74453568  0.14158105  0.12941108  1.0
  N  N192  1  0.37900748  0.86010527  0.23937607  1.0
  N  N193  1  0.20466191  0.61189988  0.21630740  1.0
  N  N194  1  0.88730585  0.45034486  0.00193154  1.0
  N  N195  1  0.84670575  0.64424700  0.22457353  1.0
  N  N196  1  0.98678675  0.82550006  0.80292021  1.0
  N  N197  1  0.69140384  0.75787436  0.63925505  1.0
  N  N198  1  0.85649343  0.63146142  0.70672090  1.0
  N  N199  1  0.75545794  0.87058680  0.85841183  1.0
  N  N200  1  0.12101453  0.76063995  0.13989527  1.0
  N  N201  1  0.29532206  0.78367501  0.38810445  1.0
  N  N202  1  0.61268844  0.99806987  0.54966441  1.0
  N  N203  1  0.65329324  0.77542473  0.35575647  1.0
  N  N204  1  0.48678166  0.80292212  0.82549682  1.0
  N  N205  1  0.19138862  0.63926159  0.75788292  1.0
  N  N206  1  0.35647550  0.70671404  0.63145843  1.0
  N  N207  1  0.25545799  0.85841764  0.87058588  1.0
  N  N208  1  0.62101168  0.13989676  0.76064012  1.0
  N  N209  1  0.79532894  0.38810565  0.78368231  1.0
  N  N210  1  0.11268286  0.54965552  0.99806820  1.0
  N  N211  1  0.15329035  0.35575056  0.77542169  1.0
  N  N212  1  0.01321862  0.17448617  0.19706966  1.0
  N  N213  1  0.30860416  0.24211980  0.36073960  1.0
  N  N214  1  0.14352020  0.36853099  0.29328547  1.0
  N  N215  1  0.24454238  0.12940852  0.14157664  1.0
  N  N216  1  0.87900725  0.23937008  0.86010965  1.0
  N  N217  1  0.70467500  0.21632024  0.61190193  1.0
  N  N218  1  0.38731639  0.00193275  0.45034540  1.0
  N  N219  1  0.34671065  0.22458017  0.64425181  1.0
  O  O220  1  0.60802229  0.48948319  0.10413907  1.0
  O  O221  1  0.47958283  0.40736170  0.06359045  1.0
  O  O222  1  0.79505091  0.08663407  0.43449154  1.0
  O  O223  1  0.80864996  0.00408020  0.32285513  1.0
  O  O224  1  0.43510563  0.20658840  0.17979256  1.0
  O  O225  1  0.54287324  0.13654685  0.16809158  1.0
  O  O226  1  0.85254884  0.41635724  0.23286369  1.0
  O  O227  1  0.83859935  0.32097528  0.27842907  1.0
  O  O228  1  0.60565290  0.28264873  0.42057648  1.0
  O  O229  1  0.64942851  0.35293447  0.35170179  1.0
  O  O230  1  0.73753856  0.19363965  0.10131668  1.0
  O  O231  1  0.75981937  0.07772870  0.09487216  1.0
  O  O232  1  0.45467824  0.55210588  0.05905521  1.0
  O  O233  1  0.55647709  0.65497610  0.10611965  1.0
  O  O234  1  0.45778990  0.88940628  0.25313684  1.0
  O  O235  1  0.31528235  0.89568232  0.25116058  1.0
  O  O236  1  0.12916374  0.62858470  0.20400780  1.0
  O  O237  1  0.22144714  0.55814025  0.23832697  1.0
  O  O238  1  0.74475674  0.47613623  0.01029266  1.0
  O  O239  1  0.74052066  0.62192079  0.12237344  1.0
  O  O240  1  0.89197822  0.89585683  0.51051293  1.0
  O  O241  1  0.02041401  0.93640597  0.59263470  1.0
  O  O242  1  0.70493930  0.56551051  0.91336501  1.0
  O  O243  1  0.69134023  0.67714637  0.99591731  1.0
  O  O244  1  0.06489223  0.82019446  0.79341046  1.0
  O  O245  1  0.95712909  0.83191832  0.86345529  1.0
  O  O246  1  0.64745265  0.76713779  0.58364594  1.0
  O  O247  1  0.66141474  0.72154834  0.67900831  1.0
  O  O248  1  0.89434933  0.57941801  0.71735674  1.0
  O  O249  1  0.85059187  0.64829955  0.64707083  1.0
  O  O250  1  0.76245589  0.89867618  0.80634947  1.0
  O  O251  1  0.74017175  0.90512435  0.92226371  1.0
  O  O252  1  0.04531669  0.94095025  0.44788937  1.0
  O  O253  1  0.94351804  0.89388210  0.34502094  1.0
  O  O254  1  0.04223204  0.74687430  0.11058908  1.0
  O  O255  1  0.18474535  0.74885629  0.10432538  1.0
  O  O256  1  0.37082532  0.79597060  0.37142655  1.0
  O  O257  1  0.27851905  0.76164068  0.44185077  1.0
  O  O258  1  0.75524107  0.98970433  0.52386936  1.0
  O  O259  1  0.75947991  0.87762556  0.37808139  1.0
  O  O260  1  0.39197241  0.51051776  0.89585974  1.0
  O  O261  1  0.52040719  0.59263870  0.93640406  1.0
  O  O262  1  0.20494333  0.91336802  0.56550704  1.0
  O  O263  1  0.19135177  0.99592359  0.67714514  1.0
  O  O264  1  0.56488728  0.79340977  0.82019293  1.0
  O  O265  1  0.45712437  0.86345579  0.83191174  1.0
  O  O266  1  0.14743922  0.58365500  0.76715140  1.0
  O  O267  1  0.16140190  0.67901778  0.72155717  1.0
  O  O268  1  0.39432802  0.71734431  0.57941073  1.0
  O  O269  1  0.35056525  0.64706479  0.64829589  1.0
  O  O270  1  0.26246177  0.80635961  0.89868048  1.0
  O  O271  1  0.24016896  0.92226942  0.90512258  1.0
  O  O272  1  0.54531253  0.44789507  0.94094327  1.0
  O  O273  1  0.44352024  0.34502087  0.89388032  1.0
  O  O274  1  0.54222937  0.11059233  0.74688314  1.0
  O  O275  1  0.68474103  0.10432541  0.74885235  1.0
  O  O276  1  0.87083123  0.37142200  0.79597778  1.0
  O  O277  1  0.77853182  0.44185678  0.76165593  1.0
  O  O278  1  0.25522981  0.52385907  0.98969839  1.0
  O  O279  1  0.25947825  0.37807792  0.87761915  1.0
  O  O280  1  0.10802463  0.10414187  0.48948320  1.0
  O  O281  1  0.97958734  0.06359953  0.40736391  1.0
  O  O282  1  0.29505644  0.43448875  0.08663230  1.0
  O  O283  1  0.30864819  0.32285232  0.00407654  1.0
  O  O284  1  0.93511230  0.17979064  0.20657899  1.0
  O  O285  1  0.04287591  0.16806564  0.13653332  1.0
  O  O286  1  0.35254711  0.23286996  0.41635859  1.0
  O  O287  1  0.33860225  0.27842884  0.32097388  1.0
  O  O288  1  0.10566038  0.42057438  0.28265572  1.0
  O  O289  1  0.14943488  0.35169685  0.35293571  1.0
  O  O290  1  0.23753571  0.10131405  0.19363402  1.0
  O  O291  1  0.25983380  0.09487496  0.07772479  1.0
  O  O292  1  0.95468260  0.05905468  0.55210890  1.0
  O  O293  1  0.05647994  0.10611885  0.65497976  1.0
  O  O294  1  0.95779038  0.25313179  0.88940934  1.0
  O  O295  1  0.81527839  0.25115771  0.89568306  1.0
  O  O296  1  0.62917315  0.20402122  0.62858212  1.0
  O  O297  1  0.72147201  0.23835002  0.55815211  1.0
  O  O298  1  0.24476676  0.01030058  0.47613604  1.0
  O  O299  1  0.24052051  0.12238222  0.62191837  1.0
