# generated using pymatgen
data_AlH24C27NO6
_symmetry_space_group_name_H-M   'P 1'
_cell_length_a   4.12657553
_cell_length_b   13.47366215
_cell_length_c   13.47408469
_cell_angle_alpha   119.99994424
_cell_angle_beta   90.00331623
_cell_angle_gamma   89.99881996
_symmetry_Int_Tables_number   1
_chemical_formula_structural   AlH24C27NO6
_chemical_formula_sum   'Al1 H24 C27 N1 O6'
_cell_volume   648.79216928
_cell_formula_units_Z   1
loop_
 _symmetry_equiv_pos_site_id
 _symmetry_equiv_pos_as_xyz
  1  'x, y, z'
loop_
 _atom_site_type_symbol
 _atom_site_label
 _atom_site_symmetry_multiplicity
 _atom_site_fract_x
 _atom_site_fract_y
 _atom_site_fract_z
 _atom_site_occupancy
  Al  Al0  1  0.00001668  0.00000551  0.50000676  1.0
  H  H1  1  0.77085079  0.12850325  0.09932579  1.0
  H  H2  1  0.22911073  0.40068655  0.37149834  1.0
  H  H3  1  0.22907769  0.12850481  0.02917975  1.0
  H  H4  1  0.77088328  0.40068610  0.02919094  1.0
  H  H5  1  0.22904119  0.47080752  0.09932253  1.0
  H  H6  1  0.77094017  0.47080717  0.37148883  1.0
  H  H7  1  0.29523719  0.40428599  0.56773935  1.0
  H  H8  1  0.23553773  0.26968915  0.55936426  1.0
  H  H9  1  0.93522964  0.32494322  0.50675851  1.0
  H  H10  1  0.70472947  0.93224910  0.09572573  1.0
  H  H11  1  0.76448646  0.94061557  0.23031457  1.0
  H  H12  1  0.06472970  0.99323710  0.17505477  1.0
  H  H13  1  0.29527165  0.93224110  0.83652541  1.0
  H  H14  1  0.23553184  0.94062309  0.71031289  1.0
  H  H15  1  0.93528034  0.99323237  0.81817758  1.0
  H  H16  1  0.70477186  0.40428031  0.83655169  1.0
  H  H17  1  0.76449675  0.26969096  0.71033368  1.0
  H  H18  1  0.06479664  0.32495028  0.81819373  1.0
  H  H19  1  0.29521263  0.66347037  0.09573299  1.0
  H  H20  1  0.23546701  0.78968921  0.23031582  1.0
  H  H21  1  0.93521755  0.68181489  0.17505500  1.0
  H  H22  1  0.70474728  0.66346330  0.56773617  1.0
  H  H23  1  0.76450117  0.78968993  0.55937769  1.0
  H  H24  1  0.06475498  0.68181575  0.50676382  1.0
  C  C25  1  0.50005520  0.08781196  0.67561833  1.0
  C  C26  1  0.50000758  0.82438457  0.41218655  1.0
  C  C27  1  0.49998647  0.08781057  0.41220160  1.0
  C  C28  1  0.64687094  0.10300837  0.23935082  1.0
  C  C29  1  0.65078671  0.16529563  0.18213175  1.0
  C  C30  1  0.49998458  0.27249790  0.22751260  1.0
  C  C31  1  0.34921911  0.31785920  0.33467900  1.0
  C  C32  1  0.35308977  0.26064968  0.39698853  1.0
  C  C33  1  0.49998786  0.15198589  0.34800983  1.0
  C  C34  1  0.34918920  0.16529658  0.98317174  1.0
  C  C35  1  0.35312025  0.10300270  0.86365868  1.0
  C  C36  1  0.50004829  0.15198602  0.80398373  1.0
  C  C37  1  0.64694204  0.26064676  0.86366699  1.0
  C  C38  1  0.65078759  0.31786286  0.98319283  1.0
  C  C39  1  0.50000353  0.27250078  0.04499181  1.0
  C  C40  1  0.34918587  0.51682225  0.18214020  1.0
  C  C41  1  0.35306455  0.63634196  0.23935867  1.0
  C  C42  1  0.50000100  0.69601547  0.34800603  1.0
  C  C43  1  0.64691159  0.63634158  0.39698290  1.0
  C  C44  1  0.65079673  0.51682623  0.33468507  1.0
  C  C45  1  0.49998320  0.45501103  0.22750728  1.0
  C  C46  1  0.19801883  0.31726477  0.51399266  1.0
  C  C47  1  0.80197394  0.98599740  0.18272237  1.0
  C  C48  1  0.19803833  0.98599639  0.80327226  1.0
  C  C49  1  0.80199997  0.31725662  0.80326697  1.0
  C  C50  1  0.19797935  0.69672980  0.18272331  1.0
  C  C51  1  0.80196934  0.69672377  0.51399634  1.0
  N  N52  1  0.49998155  0.33333857  0.16666835  1.0
  O  O53  1  0.26483811  0.01931299  0.39408895  1.0
  O  O54  1  0.26490323  0.10593100  0.62524377  1.0
  O  O55  1  0.26486099  0.87476445  0.48068307  1.0
  O  O56  1  0.73516317  0.10592827  0.48069720  1.0
  O  O57  1  0.73515553  0.87476964  0.39407761  1.0
  O  O58  1  0.73521383  0.01931811  0.62523565  1.0
