# generated using pymatgen
data_AlH6C17N2(ClO3)3
_symmetry_space_group_name_H-M   'P 1'
_cell_length_a   6.70839881
_cell_length_b   22.05552008
_cell_length_c   26.46099237
_cell_angle_alpha   75.42291776
_cell_angle_beta   88.82263966
_cell_angle_gamma   88.70376551
_symmetry_Int_Tables_number   1
_chemical_formula_structural   AlH6C17N2(ClO3)3
_chemical_formula_sum   'Al4 H24 C68 N8 Cl12 O36'
_cell_volume   3787.65171956
_cell_formula_units_Z   4
loop_
 _symmetry_equiv_pos_site_id
 _symmetry_equiv_pos_as_xyz
  1  'x, y, z'
loop_
 _atom_site_type_symbol
 _atom_site_label
 _atom_site_symmetry_multiplicity
 _atom_site_fract_x
 _atom_site_fract_y
 _atom_site_fract_z
 _atom_site_occupancy
  Al  Al0  1  0.04180161  0.49934809  0.49991096  1.0
  Al  Al1  1  0.48621382  0.00146209  0.99816624  1.0
  Al  Al2  1  0.54245740  0.50083801  0.49870950  1.0
  Al  Al3  1  0.98571660  0.00013972  0.00100913  1.0
  H  H4  1  0.99665898  0.32687266  0.74369545  1.0
  H  H5  1  0.48339788  0.18215448  0.75720443  1.0
  H  H6  1  0.58787793  0.71440189  0.27414157  1.0
  H  H7  1  0.98908742  0.82628908  0.24372097  1.0
  H  H8  1  0.01142290  0.40503476  0.65908554  1.0
  H  H9  1  0.47384510  0.10332108  0.84164054  1.0
  H  H10  1  0.59405625  0.62953781  0.35615818  1.0
  H  H11  1  0.97962871  0.90231809  0.15733607  1.0
  H  H12  1  0.54146793  0.22914393  0.68320965  1.0
  H  H13  1  0.04288178  0.24797621  0.80025245  1.0
  H  H14  1  0.94974629  0.73245133  0.29384775  1.0
  H  H15  1  0.53888500  0.74814284  0.19688399  1.0
  H  H16  1  0.60748873  0.39490451  0.28139661  1.0
  H  H17  1  0.72498303  0.09155689  0.22953719  1.0
  H  H18  1  0.32839309  0.59683926  0.72775884  1.0
  H  H19  1  0.25135274  0.91211359  0.76878487  1.0
  H  H20  1  0.51378363  0.25102838  0.31717383  1.0
  H  H21  1  0.02071378  0.25424278  0.17780278  1.0
  H  H22  1  0.96541234  0.75340754  0.68936830  1.0
  H  H23  1  0.54315537  0.75443489  0.80316372  1.0
  H  H24  1  0.30160734  0.42259356  0.49248644  1.0
  H  H25  1  0.23114011  0.08252682  0.97350501  1.0
  H  H26  1  0.78835275  0.58317970  0.47859004  1.0
  H  H27  1  0.73801311  0.91795147  0.00846227  1.0
  C  C28  1  0.27423328  0.56226757  0.56122353  1.0
  C  C29  1  0.23745149  0.93351534  0.94045590  1.0
  C  C30  1  0.80832555  0.43700566  0.43730448  1.0
  C  C31  1  0.72856144  0.06689791  0.05888016  1.0
  C  C32  1  0.29737434  0.58533243  0.42219903  1.0
  C  C33  1  0.24600870  0.92000692  0.07922105  1.0
  C  C34  1  0.78298971  0.41522748  0.57552456  1.0
  C  C35  1  0.73460042  0.08239439  0.91961631  1.0
  C  C36  1  0.90088998  0.32128923  0.71249712  1.0
  C  C37  1  0.60541070  0.17982921  0.78418036  1.0
  C  C38  1  0.44974003  0.70107381  0.29608301  1.0
  C  C39  1  0.10719161  0.82476573  0.21513367  1.0
  C  C40  1  0.90904761  0.36608082  0.66495978  1.0
  C  C41  1  0.59763121  0.13535408  0.83175999  1.0
  C  C42  1  0.45650704  0.65417577  0.34211462  1.0
  C  C43  1  0.10144585  0.86808513  0.16675077  1.0
  C  C44  1  0.78297773  0.36306447  0.62426749  1.0
  C  C45  1  0.74593766  0.13103222  0.86898258  1.0
  C  C46  1  0.28521937  0.63492086  0.37202313  1.0
  C  C47  1  0.25241553  0.86973178  0.12918447  1.0
  C  C48  1  0.65107656  0.31310064  0.63311474  1.0
  C  C49  1  0.90278408  0.17316408  0.85558308  1.0
  C  C50  1  0.10651730  0.66452409  0.35254635  1.0
  C  C51  1  0.41027570  0.82614742  0.14249495  1.0
  C  C52  1  0.64439320  0.26737756  0.67994915  1.0
  C  C53  1  0.91517085  0.21722472  0.80796817  1.0
  C  C54  1  0.09492596  0.71218041  0.30703180  1.0
  C  C55  1  0.41580045  0.78199773  0.19016813  1.0
  C  C56  1  0.77035922  0.27046972  0.72094162  1.0
  C  C57  1  0.76383569  0.22200166  0.77109192  1.0
  C  C58  1  0.26936018  0.73152117  0.27751795  1.0
  C  C59  1  0.26309970  0.78010842  0.22757196  1.0
  C  C60  1  0.69573555  0.41606074  0.35272387  1.0
  C  C61  1  0.71732702  0.07802300  0.15184001  1.0
  C  C62  1  0.30561405  0.57861905  0.65200400  1.0
  C  C63  1  0.24518810  0.92393399  0.84718929  1.0
  C  C64  1  0.69734381  0.38007173  0.31630879  1.0
  C  C65  1  0.71988814  0.11424691  0.18794957  1.0
  C  C66  1  0.30386649  0.61713811  0.68631978  1.0
  C  C67  1  0.24493535  0.88873299  0.81025483  1.0
  C  C68  1  0.81222158  0.32503456  0.32467604  1.0
  C  C69  1  0.71813135  0.17962314  0.17084959  1.0
  C  C70  1  0.27032048  0.68176029  0.66791411  1.0
  C  C71  1  0.23654348  0.82344729  0.82645925  1.0
  C  C72  1  0.92337690  0.30520654  0.37047964  1.0
  C  C73  1  0.70942428  0.20848881  0.11713566  1.0
  C  C74  1  0.23444740  0.70738814  0.61454955  1.0
  C  C75  1  0.22924468  0.79358188  0.87998891  1.0
  C  C76  1  0.92364992  0.34201418  0.40679498  1.0
  C  C77  1  0.70897412  0.17140151  0.08101795  1.0
  C  C78  1  0.23397095  0.66784468  0.58035633  1.0
  C  C79  1  0.22972884  0.82960265  0.91688620  1.0
  C  C80  1  0.80963579  0.39803480  0.39813192  1.0
  C  C81  1  0.71629451  0.10587599  0.09817563  1.0
  C  C82  1  0.27124752  0.60339252  0.59882873  1.0
  C  C83  1  0.23973911  0.89507956  0.90064594  1.0
  C  C84  1  0.62780068  0.25163501  0.28715813  1.0
  C  C85  1  0.90736330  0.25306317  0.20798766  1.0
  C  C86  1  0.09441851  0.75394778  0.71346838  1.0
  C  C87  1  0.41463179  0.75403521  0.77882126  1.0
  C  C88  1  0.59800516  0.21829619  0.24976070  1.0
  C  C89  1  0.93716617  0.28686997  0.24498241  1.0
  C  C90  1  0.08239170  0.78552398  0.75285229  1.0
  C  C91  1  0.42717438  0.72287468  0.73915405  1.0
  C  C92  1  0.73648425  0.21752289  0.20949538  1.0
  C  C93  1  0.79931031  0.28690680  0.28580851  1.0
  C  C94  1  0.24055415  0.78667644  0.78650245  1.0
  C  C95  1  0.26783186  0.72088109  0.70598871  1.0
  N  N96  1  0.40713114  0.18522827  0.25295025  1.0
  N  N97  1  0.12175393  0.32376766  0.23848140  1.0
  N  N98  1  0.88842834  0.81554597  0.75974475  1.0
  N  N99  1  0.62280270  0.69450959  0.73115477  1.0
  N  N100  1  0.51820249  0.30542744  0.59138612  1.0
  N  N101  1  0.05901272  0.17530002  0.89362952  1.0
  N  N102  1  0.91908058  0.64004422  0.37830498  1.0
  N  N103  1  0.57660414  0.82221217  0.10585815  1.0
  Cl  Cl104  1  0.55245187  0.48403471  0.33942660  1.0
  Cl  Cl105  1  0.71329610  0.99718177  0.17409331  1.0
  Cl  Cl106  1  0.35127285  0.49901073  0.67544676  1.0
  Cl  Cl107  1  0.24802321  0.00486047  0.82626683  1.0
  Cl  Cl108  1  0.05751618  0.23600036  0.38129793  1.0
  Cl  Cl109  1  0.69457750  0.28874790  0.09556038  1.0
  Cl  Cl110  1  0.19880405  0.78678106  0.59053401  1.0
  Cl  Cl111  1  0.21185687  0.71345876  0.90004528  1.0
  Cl  Cl112  1  0.05866129  0.31678293  0.46301703  1.0
  Cl  Cl113  1  0.70345770  0.20572139  0.01526769  1.0
  Cl  Cl114  1  0.18854214  0.69783968  0.51498413  1.0
  Cl  Cl115  1  0.21277547  0.79437268  0.98244283  1.0
  O  O116  1  0.46880060  0.56246248  0.43585819  1.0
  O  O117  1  0.07627311  0.93418903  0.05874063  1.0
  O  O118  1  0.95126438  0.42987331  0.55373509  1.0
  O  O119  1  0.56475712  0.05934735  0.93389150  1.0
  O  O120  1  0.10894947  0.53973661  0.55369104  1.0
  O  O121  1  0.40455793  0.94398667  0.95776956  1.0
  O  O122  1  0.64024112  0.44530209  0.45763069  1.0
  O  O123  1  0.90127986  0.04670864  0.05047015  1.0
  O  O124  1  0.13486664  0.57101342  0.44763015  1.0
  O  O125  1  0.41095953  0.94485939  0.06261447  1.0
  O  O126  1  0.61525476  0.44105234  0.56184099  1.0
  O  O127  1  0.89712916  0.06795386  0.94411035  1.0
  O  O128  1  0.97500811  0.45755287  0.44677330  1.0
  O  O129  1  0.56719102  0.05875080  0.03779137  1.0
  O  O130  1  0.44165072  0.55517001  0.54032812  1.0
  O  O131  1  0.06620135  0.95134763  0.95257748  1.0
  O  O132  1  0.29548694  0.46236902  0.50198951  1.0
  O  O133  1  0.23324466  0.03882105  0.99294345  1.0
  O  O134  1  0.79026943  0.53847832  0.49503106  1.0
  O  O135  1  0.73752720  0.96284979  0.00503285  1.0
  O  O136  1  0.33526972  0.16291936  0.29708206  1.0
  O  O137  1  0.32969902  0.18309883  0.21131073  1.0
  O  O138  1  0.18514702  0.33914249  0.27708632  1.0
  O  O139  1  0.20322228  0.33656836  0.19467400  1.0
  O  O140  1  0.78687732  0.83582974  0.72015964  1.0
  O  O141  1  0.83639671  0.81702137  0.80465093  1.0
  O  O142  1  0.67587923  0.69631808  0.68564168  1.0
  O  O143  1  0.72463030  0.67251795  0.77038297  1.0
  O  O144  1  0.58544067  0.31876295  0.54609982  1.0
  O  O145  1  0.34934644  0.28503289  0.60486945  1.0
  O  O146  1  0.01444239  0.20213503  0.92808217  1.0
  O  O147  1  0.22433182  0.15193572  0.88741105  1.0
  O  O148  1  0.85915239  0.59264357  0.36686750  1.0
  O  O149  1  0.83260177  0.66849940  0.40745306  1.0
  O  O150  1  0.53709852  0.82676935  0.05960233  1.0
  O  O151  1  0.74561919  0.81283733  0.12479801  1.0
