# generated using pymatgen
data_AlH7C11O7F
_symmetry_space_group_name_H-M   'P 1'
_cell_length_a   6.65307792
_cell_length_b   16.91397155
_cell_length_c   17.41006054
_cell_angle_alpha   89.90016842
_cell_angle_beta   89.63477821
_cell_angle_gamma   92.60587136
_symmetry_Int_Tables_number   1
_chemical_formula_structural   AlH7C11O7F
_chemical_formula_sum   'Al4 H28 C44 O28 F4'
_cell_volume   1957.08386171
_cell_formula_units_Z   4
loop_
 _symmetry_equiv_pos_site_id
 _symmetry_equiv_pos_as_xyz
  1  'x, y, z'
loop_
 _atom_site_type_symbol
 _atom_site_label
 _atom_site_symmetry_multiplicity
 _atom_site_fract_x
 _atom_site_fract_y
 _atom_site_fract_z
 _atom_site_occupancy
  Al  Al0  1  0.77936980  0.72473843  0.24652319  1.0
  Al  Al1  1  0.22838210  0.27756870  0.74800502  1.0
  Al  Al2  1  0.28101515  0.72350593  0.24735767  1.0
  Al  Al3  1  0.72519471  0.27885310  0.74772162  1.0
  H  H4  1  0.90401987  0.04647262  0.14061727  1.0
  H  H5  1  0.02869915  0.96418963  0.10087033  1.0
  H  H6  1  0.91237136  0.03297606  0.03841042  1.0
  H  H7  1  0.83024108  0.87645221  0.77976698  1.0
  H  H8  1  0.58259172  0.90598241  0.80297887  1.0
  H  H9  1  0.66565342  0.81188227  0.83632203  1.0
  H  H10  1  0.03627506  0.99441721  0.57563139  1.0
  H  H11  1  0.07284747  0.89555286  0.54126857  1.0
  H  H12  1  0.08214729  0.91661952  0.64246351  1.0
  H  H13  1  0.39726198  0.10092826  0.31199497  1.0
  H  H14  1  0.31668608  0.19036911  0.35705384  1.0
  H  H15  1  0.14861145  0.13318541  0.29589530  1.0
  H  H16  1  0.50795277  0.72176375  0.96276969  1.0
  H  H17  1  0.60469304  0.70215476  0.05694350  1.0
  H  H18  1  0.74487762  0.67610615  0.97393311  1.0
  H  H19  1  0.97931545  0.16529958  0.91708285  1.0
  H  H20  1  0.97457951  0.25668593  0.96826754  1.0
  H  H21  1  0.93252318  0.16546759  0.01935599  1.0
  H  H22  1  0.99168948  0.17956895  0.58931428  1.0
  H  H23  1  0.94236431  0.14675947  0.49198177  1.0
  H  H24  1  0.95764920  0.25037444  0.51433298  1.0
  H  H25  1  0.54985460  0.71863699  0.49059769  1.0
  H  H26  1  0.65543619  0.75282895  0.58045076  1.0
  H  H27  1  0.79523265  0.69008858  0.51823174  1.0
  H  H28  1  0.52012207  0.62276891  0.27183415  1.0
  H  H29  1  0.48641870  0.38060661  0.76768653  1.0
  H  H30  1  0.04174662  0.82266460  0.27505801  1.0
  H  H31  1  0.96197353  0.17626154  0.76502475  1.0
  C  C32  1  0.54589417  0.81675387  0.14255390  1.0
  C  C33  1  0.46685821  0.18243210  0.85186067  1.0
  C  C34  1  0.46690440  0.18233108  0.64550126  1.0
  C  C35  1  0.53371707  0.81929551  0.35003466  1.0
  C  C36  1  0.01181088  0.62781998  0.35056825  1.0
  C  C37  1  0.98889956  0.37206488  0.64336411  1.0
  C  C38  1  0.98860425  0.37630788  0.84984632  1.0
  C  C39  1  0.02654129  0.63118708  0.14247801  1.0
  C  C40  1  0.01694991  0.57662280  0.07890459  1.0
  C  C41  1  0.99396833  0.43139764  0.91299590  1.0
  C  C42  1  0.99782833  0.42761240  0.58032388  1.0
  C  C43  1  0.00934741  0.57444304  0.41521999  1.0
  C  C44  1  0.00883656  0.52958930  0.02565313  1.0
  C  C45  1  0.00064449  0.47800523  0.96661353  1.0
  C  C46  1  0.00301927  0.47538164  0.52753308  1.0
  C  C47  1  0.00718196  0.52756563  0.46880605  1.0
  C  C48  1  0.54216293  0.87277941  0.07608102  1.0
  C  C49  1  0.45795865  0.12067711  0.91362538  1.0
  C  C50  1  0.46053086  0.12247101  0.58231726  1.0
  C  C51  1  0.54352222  0.87896911  0.41343619  1.0
  C  C52  1  0.30514449  0.06732594  0.03170298  1.0
  C  C53  1  0.66750666  0.92011652  0.95141606  1.0
  C  C54  1  0.68307399  0.92597335  0.53522960  1.0
  C  C55  1  0.31899883  0.07449802  0.46101639  1.0
  C  C56  1  0.32416763  0.12753056  0.97707235  1.0
  C  C57  1  0.65348008  0.86078186  0.00711606  1.0
  C  C58  1  0.67215421  0.86959296  0.47725736  1.0
  C  C59  1  0.33079241  0.13151188  0.51850369  1.0
  C  C60  1  0.56812345  0.05374870  0.90620358  1.0
  C  C61  1  0.43550735  0.94084736  0.08323447  1.0
  C  C62  1  0.42973198  0.94512185  0.40938057  1.0
  C  C63  1  0.57501152  0.05623883  0.58625456  1.0
  C  C64  1  0.55714861  0.99030733  0.95967124  1.0
  C  C65  1  0.42683821  0.99976886  0.02551238  1.0
  C  C66  1  0.43571257  0.00573714  0.46566180  1.0
  C  C67  1  0.56806558  0.99529928  0.53023410  1.0
  C  C68  1  0.99543798  0.02661407  0.09235243  1.0
  C  C69  1  0.71197779  0.87398518  0.82392927  1.0
  C  C70  1  0.01035406  0.93087258  0.58797247  1.0
  C  C71  1  0.26943423  0.13034573  0.33814128  1.0
  C  C72  1  0.64479013  0.71963419  0.99783654  1.0
  C  C73  1  0.01552547  0.19479817  0.97174039  1.0
  C  C74  1  0.01638995  0.19257248  0.52806824  1.0
  C  C75  1  0.68937549  0.73778361  0.52036923  1.0
  O  O76  1  0.36066607  0.78964631  0.33316859  1.0
  O  O77  1  0.63848829  0.20520148  0.67066119  1.0
  O  O78  1  0.64017424  0.20846792  0.82995714  1.0
  O  O79  1  0.37844344  0.79960419  0.17510856  1.0
  O  O80  1  0.71528877  0.79137209  0.16198305  1.0
  O  O81  1  0.29918538  0.20217625  0.82483059  1.0
  O  O82  1  0.29858941  0.20458052  0.67014040  1.0
  O  O83  1  0.69960850  0.80414882  0.31792525  1.0
  O  O84  1  0.85961361  0.64647404  0.17382399  1.0
  O  O85  1  0.15771235  0.35262667  0.82719299  1.0
  O  O86  1  0.15630859  0.35179660  0.66986446  1.0
  O  O87  1  0.84347275  0.65453010  0.33157213  1.0
  O  O88  1  0.52522955  0.67472447  0.24811808  1.0
  O  O89  1  0.48176609  0.32692516  0.74826373  1.0
  O  O90  1  0.18244759  0.64192388  0.31853799  1.0
  O  O91  1  0.81388864  0.34973367  0.66640190  1.0
  O  O92  1  0.81556997  0.35731193  0.82306381  1.0
  O  O93  1  0.20045522  0.65780677  0.16151279  1.0
  O  O94  1  0.03596075  0.77149670  0.24977672  1.0
  O  O95  1  0.97066348  0.23148932  0.74978534  1.0
  O  O96  1  0.17509826  0.07782855  0.09194374  1.0
  O  O97  1  0.79784738  0.91141509  0.89093239  1.0
  O  O98  1  0.79852332  0.91157932  0.59847700  1.0
  O  O99  1  0.18691256  0.08456387  0.40185442  1.0
  O  O100  1  0.75775275  0.79439667  0.99398796  1.0
  O  O101  1  0.22940092  0.19711287  0.98491952  1.0
  O  O102  1  0.22982892  0.19977867  0.51124383  1.0
  O  O103  1  0.78760749  0.80453076  0.48168280  1.0
  F  F104  1  0.34579097  0.95437563  0.15202371  1.0
  F  F105  1  0.68632003  0.04810728  0.84248638  1.0
  F  F106  1  0.69485246  0.04851463  0.64834968  1.0
  F  F107  1  0.31258364  0.95277099  0.34633815  1.0
