# generated using pymatgen
data_Mg3H16C26(NO5)2
_symmetry_space_group_name_H-M   'P 1'
_cell_length_a   11.01132207
_cell_length_b   15.06066717
_cell_length_c   15.06068200
_cell_angle_alpha   72.24749867
_cell_angle_beta   87.99082519
_cell_angle_gamma   87.99092669
_symmetry_Int_Tables_number   1
_chemical_formula_structural   Mg3H16C26(NO5)2
_chemical_formula_sum   'Mg6 H32 C52 N4 O20'
_cell_volume   2376.45865740
_cell_formula_units_Z   2
loop_
 _symmetry_equiv_pos_site_id
 _symmetry_equiv_pos_as_xyz
  1  'x, y, z'
loop_
 _atom_site_type_symbol
 _atom_site_label
 _atom_site_symmetry_multiplicity
 _atom_site_fract_x
 _atom_site_fract_y
 _atom_site_fract_z
 _atom_site_occupancy
  Mg  Mg0  1  0.98187751  0.58600697  0.53946252  1.0
  Mg  Mg1  1  0.51812163  0.46053680  0.41399384  1.0
  Mg  Mg2  1  0.01812225  0.41399368  0.46053680  1.0
  Mg  Mg3  1  0.48187815  0.53946315  0.58600635  1.0
  Mg  Mg4  1  0.74999960  0.57127354  0.42872619  1.0
  Mg  Mg5  1  0.24999924  0.42872711  0.57127315  1.0
  H  H6  1  0.96435345  0.58510623  0.35963444  1.0
  H  H7  1  0.53564501  0.64036459  0.41489307  1.0
  H  H8  1  0.03564630  0.41489442  0.64036488  1.0
  H  H9  1  0.46435300  0.35963396  0.58510692  1.0
  H  H10  1  0.68541241  0.54250946  0.82040876  1.0
  H  H11  1  0.81458705  0.17959143  0.45749049  1.0
  H  H12  1  0.31458831  0.45748980  0.17959095  1.0
  H  H13  1  0.18541182  0.82040852  0.54251039  1.0
  H  H14  1  0.04907177  0.59587229  0.89041669  1.0
  H  H15  1  0.45092706  0.10958291  0.40412823  1.0
  H  H16  1  0.95092708  0.40412835  0.10958331  1.0
  H  H17  1  0.54907275  0.89041634  0.59587216  1.0
  H  H18  1  0.11330394  0.60553190  0.72834657  1.0
  H  H19  1  0.38669665  0.27165351  0.39446825  1.0
  H  H20  1  0.88669675  0.39446805  0.27165359  1.0
  H  H21  1  0.61330314  0.72834644  0.60553194  1.0
  H  H22  1  0.68193867  0.45996236  0.97351292  1.0
  H  H23  1  0.81806053  0.02648742  0.54003782  1.0
  H  H24  1  0.31806109  0.54003829  0.02648773  1.0
  H  H25  1  0.18194016  0.97351253  0.45996234  1.0
  H  H26  1  0.60671564  0.45334987  0.13354088  1.0
  H  H27  1  0.89328425  0.86645925  0.54665149  1.0
  H  H28  1  0.39328410  0.54665148  0.86645956  1.0
  H  H29  1  0.10671644  0.13354070  0.45334867  1.0
  H  H30  1  0.86168167  0.65875844  0.14172338  1.0
  H  H31  1  0.63831971  0.85827600  0.34124212  1.0
  H  H32  1  0.13831809  0.34124221  0.85827660  1.0
  H  H33  1  0.36167919  0.14172325  0.65875830  1.0
  H  H34  1  0.93681411  0.66883349  0.98089435  1.0
  H  H35  1  0.56318679  0.01910477  0.33116719  1.0
  H  H36  1  0.06318656  0.33116716  0.01910560  1.0
  H  H37  1  0.43681209  0.98089518  0.66883369  1.0
  C  C38  1  0.82727773  0.55828959  0.71704544  1.0
  C  C39  1  0.67272196  0.28295409  0.44171125  1.0
  C  C40  1  0.17272296  0.44171036  0.28295406  1.0
  C  C41  1  0.32727784  0.71704516  0.55828915  1.0
  C  C42  1  0.78190240  0.55478351  0.80530793  1.0
  C  C43  1  0.71809757  0.19469137  0.44521698  1.0
  C  C44  1  0.21809829  0.44521644  0.19469157  1.0
  C  C45  1  0.28190226  0.80530719  0.55478363  1.0
  C  C46  1  0.86022936  0.56885481  0.87118056  1.0
  C  C47  1  0.63977010  0.12881904  0.43114589  1.0
  C  C48  1  0.13977133  0.43114515  0.12881961  1.0
  C  C49  1  0.36022971  0.87118021  0.56885517  1.0
  C  C50  1  0.98206861  0.58704151  0.84241720  1.0
  C  C51  1  0.51793193  0.15758165  0.41296012  1.0
  C  C52  1  0.01793205  0.41295913  0.15758276  1.0
  C  C53  1  0.48206785  0.84241830  0.58703940  1.0
  C  C54  1  0.01930406  0.59089818  0.75200266  1.0
  C  C55  1  0.48069640  0.24799705  0.40910223  1.0
  C  C56  1  0.98069663  0.40910177  0.24799684  1.0
  C  C57  1  0.51930426  0.75200360  0.59089772  1.0
  C  C58  1  0.74638723  0.54351640  0.64412126  1.0
  C  C59  1  0.75361263  0.35587867  0.45648438  1.0
  C  C60  1  0.25361253  0.45648425  0.35587806  1.0
  C  C61  1  0.24638899  0.64412059  0.54351464  1.0
  C  C62  1  0.81547608  0.56454242  0.96578984  1.0
  C  C63  1  0.68452265  0.03420982  0.43545783  1.0
  C  C64  1  0.18452367  0.43545823  0.03421014  1.0
  C  C65  1  0.31547713  0.96579013  0.56454236  1.0
  C  C66  1  0.72109739  0.50462132  0.00944684  1.0
  C  C67  1  0.77890123  0.99055348  0.49537903  1.0
  C  C68  1  0.27890235  0.49538002  0.99055360  1.0
  C  C69  1  0.22109856  0.00944647  0.50462116  1.0
  C  C70  1  0.67903389  0.50016091  0.09891461  1.0
  C  C71  1  0.82096546  0.90108588  0.49984022  1.0
  C  C72  1  0.32096587  0.49983973  0.90108604  1.0
  C  C73  1  0.17903523  0.09891407  0.50015995  1.0
  C  C74  1  0.73032388  0.55529887  0.14706286  1.0
  C  C75  1  0.76967616  0.85293648  0.44470280  1.0
  C  C76  1  0.26967585  0.44470248  0.85293691  1.0
  C  C77  1  0.23032277  0.14706208  0.55529850  1.0
  C  C78  1  0.82341404  0.61577948  0.10364869  1.0
  C  C79  1  0.67658622  0.89635081  0.38422228  1.0
  C  C80  1  0.17658570  0.38422186  0.89635108  1.0
  C  C81  1  0.32341268  0.10364844  0.61577947  1.0
  C  C82  1  0.86553674  0.62037277  0.01426203  1.0
  C  C83  1  0.63446451  0.98573725  0.37962779  1.0
  C  C84  1  0.13446393  0.37962788  0.98573793  1.0
  C  C85  1  0.36553621  0.01426200  0.62037258  1.0
  C  C86  1  0.68929702  0.54745046  0.24568517  1.0
  C  C87  1  0.81070496  0.75431484  0.45255032  1.0
  C  C88  1  0.31070272  0.45255089  0.75431460  1.0
  C  C89  1  0.18929482  0.24568511  0.54744987  1.0
  N  N90  1  0.94429892  0.57639430  0.68994012  1.0
  N  N91  1  0.55570142  0.31005891  0.42360671  1.0
  N  N92  1  0.05570175  0.42360635  0.31005917  1.0
  N  N93  1  0.44429836  0.68994104  0.57639348  1.0
  O  O94  1  0.80004998  0.54106163  0.56855182  1.0
  O  O95  1  0.69994966  0.43144751  0.45893890  1.0
  O  O96  1  0.19994882  0.45894042  0.43144577  1.0
  O  O97  1  0.30005284  0.56855245  0.54105989  1.0
  O  O98  1  0.63416548  0.53583183  0.66183177  1.0
  O  O99  1  0.86583463  0.33816740  0.46417094  1.0
  O  O100  1  0.36583521  0.46416812  0.33816773  1.0
  O  O101  1  0.13416610  0.66183116  0.53582898  1.0
  O  O102  1  0.59879172  0.49702301  0.27936356  1.0
  O  O103  1  0.90121000  0.72063656  0.50297718  1.0
  O  O104  1  0.40120897  0.50297695  0.72063594  1.0
  O  O105  1  0.09879069  0.27936340  0.49702232  1.0
  O  O106  1  0.75083585  0.59078361  0.28850733  1.0
  O  O107  1  0.74916641  0.71149196  0.40921680  1.0
  O  O108  1  0.24916206  0.40921773  0.71149248  1.0
  O  O109  1  0.25083247  0.28850799  0.59078408  1.0
  O  O110  1  0.94039227  0.54939368  0.42260431  1.0
  O  O111  1  0.55960754  0.57739528  0.45060662  1.0
  O  O112  1  0.05960749  0.45060697  0.57739501  1.0
  O  O113  1  0.44039226  0.42260397  0.54939444  1.0
