# generated using pymatgen
data_ZnH5C24Br4N5O12
_symmetry_space_group_name_H-M   'P 1'
_cell_length_a   15.20774294
_cell_length_b   15.20778820
_cell_length_c   17.15727781
_cell_angle_alpha   92.24166159
_cell_angle_beta   92.17323576
_cell_angle_gamma   90.50989610
_symmetry_Int_Tables_number   1
_chemical_formula_structural   ZnH5C24Br4N5O12
_chemical_formula_sum   'Zn2 H10 C48 Br8 N10 O24'
_cell_volume   3961.96618063
_cell_formula_units_Z   2
loop_
 _symmetry_equiv_pos_site_id
 _symmetry_equiv_pos_as_xyz
  1  'x, y, z'
loop_
 _atom_site_type_symbol
 _atom_site_label
 _atom_site_symmetry_multiplicity
 _atom_site_fract_x
 _atom_site_fract_y
 _atom_site_fract_z
 _atom_site_occupancy
  Zn  Zn0  1  0.49592229  0.49576388  0.90922821  1.0
  Zn  Zn1  1  0.50415747  0.50416857  0.09075082  1.0
  H  H2  1  0.57069134  0.57035000  0.49072259  1.0
  H  H3  1  0.42939755  0.42966867  0.50922880  1.0
  H  H4  1  0.50287309  0.78041468  0.12435319  1.0
  H  H5  1  0.49165938  0.76917141  0.87554632  1.0
  H  H6  1  0.49705754  0.21922405  0.87495338  1.0
  H  H7  1  0.50947939  0.23103872  0.12374417  1.0
  H  H8  1  0.23059432  0.50771931  0.12458267  1.0
  H  H9  1  0.21983048  0.49692047  0.87576632  1.0
  H  H10  1  0.76916604  0.48993488  0.87612432  1.0
  H  H11  1  0.78051654  0.50183142  0.12492954  1.0
  C  C12  1  0.50363559  0.33102665  0.99866656  1.0
  C  C13  1  0.33115689  0.50335266  0.00004800  1.0
  C  C14  1  0.49666756  0.66885324  0.00008304  1.0
  C  C15  1  0.66894975  0.49593710  0.00117084  1.0
  C  C16  1  0.45532743  0.45422729  0.25935404  1.0
  C  C17  1  0.45517624  0.45422707  0.34146462  1.0
  C  C18  1  0.51214620  0.51192819  0.38718544  1.0
  C  C19  1  0.56671614  0.56729385  0.34373769  1.0
  C  C20  1  0.56248017  0.56326359  0.26188256  1.0
  C  C21  1  0.52144378  0.52116384  0.47214256  1.0
  C  C22  1  0.47878752  0.47870528  0.52780086  1.0
  C  C23  1  0.43262748  0.43343099  0.65621138  1.0
  C  C24  1  0.48806141  0.48794019  0.61275893  1.0
  C  C25  1  0.54586585  0.54479859  0.65849842  1.0
  C  C26  1  0.54587126  0.54460609  0.74060878  1.0
  C  C27  1  0.43667576  0.43762842  0.73807708  1.0
  C  C28  1  0.50119778  0.81629160  0.07070770  1.0
  C  C29  1  0.50158657  0.90849571  0.07191781  1.0
  C  C30  1  0.50537094  0.96164883  0.14292958  1.0
  C  C31  1  0.49432676  0.80986832  0.92917461  1.0
  C  C32  1  0.49666757  0.90192377  0.92787645  1.0
  C  C33  1  0.49423488  0.94852468  0.85675951  1.0
  C  C34  1  0.49958252  0.18345998  0.92865135  1.0
  C  C35  1  0.49713350  0.09134104  0.92768348  1.0
  C  C36  1  0.49290751  0.03826932  0.85668722  1.0
  C  C37  1  0.50607449  0.19026034  0.07018477  1.0
  C  C38  1  0.50564632  0.09815174  0.07172822  1.0
  C  C39  1  0.50806715  0.05145274  0.14286122  1.0
  C  C40  1  0.49700539  0.76783636  0.99997121  1.0
  C  C41  1  0.49969257  0.95319603  0.99985589  1.0
  C  C42  1  0.50359855  0.23207961  0.99926615  1.0
  C  C43  1  0.50084478  0.04676600  0.99979583  1.0
  C  C44  1  0.19001236  0.50502391  0.07092575  1.0
  C  C45  1  0.09794981  0.50234087  0.07215891  1.0
  C  C46  1  0.05120558  0.50436659  0.14325270  1.0
  C  C47  1  0.18385510  0.49838198  0.92939489  1.0
  C  C48  1  0.09165160  0.49776866  0.92813147  1.0
  C  C49  1  0.03864128  0.49405010  0.85709227  1.0
  C  C50  1  0.80986058  0.49321433  0.92970006  1.0
  C  C51  1  0.90198034  0.49353234  0.92820889  1.0
  C  C52  1  0.94883746  0.49127471  0.85710742  1.0
  C  C53  1  0.81638489  0.49936201  0.07124542  1.0
  C  C54  1  0.90850679  0.50160890  0.07227239  1.0
  C  C55  1  0.96145957  0.50557139  0.14329530  1.0
  C  C56  1  0.23217439  0.50263513  0.00015578  1.0
  C  C57  1  0.04680991  0.49940540  0.00015428  1.0
  C  C58  1  0.76790482  0.49567179  0.00059952  1.0
  C  C59  1  0.95322427  0.49812987  0.00017795  1.0
  Br  Br60  1  0.63573023  0.63737244  0.20715117  1.0
  Br  Br61  1  0.64685567  0.64826083  0.39489749  1.0
  Br  Br62  1  0.37897657  0.37702997  0.20056209  1.0
  Br  Br63  1  0.37698472  0.37521790  0.38593831  1.0
  Br  Br64  1  0.62492721  0.62294145  0.61402512  1.0
  Br  Br65  1  0.62321196  0.62078092  0.79942250  1.0
  Br  Br66  1  0.35158802  0.35335653  0.60504118  1.0
  Br  Br67  1  0.36248692  0.36441062  0.79277632  1.0
  N  N68  1  0.50765723  0.50754291  0.22001298  1.0
  N  N69  1  0.49248537  0.49234434  0.77995086  1.0
  N  N70  1  0.51040817  0.10282510  0.21802468  1.0
  N  N71  1  0.50940774  0.91691406  0.21808622  1.0
  N  N72  1  0.48965137  0.08294295  0.78154393  1.0
  N  N73  1  0.49065905  0.89719479  0.78161362  1.0
  N  N74  1  0.91667197  0.50858004  0.21843181  1.0
  N  N75  1  0.10239081  0.50772317  0.21841944  1.0
  N  N76  1  0.89759692  0.48905704  0.78192596  1.0
  N  N77  1  0.08350651  0.49018360  0.78195169  1.0
  O  O78  1  0.49951560  0.36424770  0.93191508  1.0
  O  O79  1  0.50666214  0.37127591  0.06493879  1.0
  O  O80  1  0.37097350  0.50755950  0.06649493  1.0
  O  O81  1  0.36485168  0.49865146  0.93349625  1.0
  O  O82  1  0.50145988  0.63524219  0.06663368  1.0
  O  O83  1  0.49262082  0.62896165  0.93363647  1.0
  O  O84  1  0.62880017  0.49301364  0.93490577  1.0
  O  O85  1  0.63563535  0.50021516  0.06792916  1.0
  O  O86  1  0.57239263  0.15516172  0.23038565  1.0
  O  O87  1  0.44894107  0.09031390  0.26157458  1.0
  O  O88  1  0.44781116  0.86665774  0.23077660  1.0
  O  O89  1  0.57520305  0.93225887  0.26118881  1.0
  O  O90  1  0.42676764  0.13215727  0.76953550  1.0
  O  O91  1  0.55086445  0.06845333  0.73761489  1.0
  O  O92  1  0.55236580  0.84676726  0.76945602  1.0
  O  O93  1  0.42564034  0.90799978  0.73774767  1.0
  O  O94  1  0.86753236  0.57148969  0.23069506  1.0
  O  O95  1  0.93099178  0.44716283  0.26209917  1.0
  O  O96  1  0.15289440  0.44604382  0.23031504  1.0
  O  O97  1  0.09141270  0.57253321  0.26257181  1.0
  O  O98  1  0.84530019  0.42706702  0.76939943  1.0
  O  O99  1  0.91017562  0.55060660  0.73852754  1.0
  O  O100  1  0.13377314  0.55183486  0.76945585  1.0
  O  O101  1  0.06826302  0.42445976  0.73867665  1.0
