# generated using pymatgen
data_Al2H22C31O10
_symmetry_space_group_name_H-M   'P 1'
_cell_length_a   6.93863339
_cell_length_b   17.01892934
_cell_length_c   19.37943504
_cell_angle_alpha   108.83805481
_cell_angle_beta   90.63796776
_cell_angle_gamma   90.50155064
_symmetry_Int_Tables_number   1
_chemical_formula_structural   Al2H22C31O10
_chemical_formula_sum   'Al4 H44 C62 O20'
_cell_volume   2165.57977693
_cell_formula_units_Z   2
loop_
 _symmetry_equiv_pos_site_id
 _symmetry_equiv_pos_as_xyz
  1  'x, y, z'
loop_
 _atom_site_type_symbol
 _atom_site_label
 _atom_site_symmetry_multiplicity
 _atom_site_fract_x
 _atom_site_fract_y
 _atom_site_fract_z
 _atom_site_occupancy
  Al  Al0  1  0.90458524  0.49929052  0.49880246  1.0
  Al  Al1  1  0.40426665  0.49913964  0.49988298  1.0
  Al  Al2  1  0.37571217  0.99834724  0.99825521  1.0
  Al  Al3  1  0.87562099  0.99957219  0.00093681  1.0
  H  H4  1  0.44156063  0.18637752  0.19375070  1.0
  H  H5  1  0.93142039  0.81483381  0.81856683  1.0
  H  H6  1  0.68460471  0.15900696  0.19867517  1.0
  H  H7  1  0.16980332  0.82804000  0.78610429  1.0
  H  H8  1  0.42941530  0.40855096  0.67771060  1.0
  H  H9  1  0.92483331  0.58992943  0.32366729  1.0
  H  H10  1  0.86736240  0.31639357  0.59210140  1.0
  H  H11  1  0.36753562  0.67992502  0.40565803  1.0
  H  H12  1  0.70045874  0.20997111  0.63380427  1.0
  H  H13  1  0.20702964  0.78846863  0.36473147  1.0
  H  H14  1  0.69331926  0.12085977  0.71021910  1.0
  H  H15  1  0.20234594  0.87769526  0.28835534  1.0
  H  H16  1  0.39428963  0.17620953  0.90245830  1.0
  H  H17  1  0.89283994  0.82083404  0.09791590  1.0
  H  H18  1  0.56385623  0.28101338  0.86004297  1.0
  H  H19  1  0.05962813  0.71712829  0.14163185  1.0
  H  H20  1  0.44850901  0.31099425  0.30611005  1.0
  H  H21  1  0.95667416  0.69312638  0.70480495  1.0
  H  H22  1  0.85644401  0.99495724  0.81624449  1.0
  H  H23  1  0.68409250  0.07374054  0.83465686  1.0
  H  H24  1  0.75720008  0.02412854  0.74360034  1.0
  H  H25  1  0.36356622  0.00086290  0.17958591  1.0
  H  H26  1  0.18687788  0.92230382  0.16480036  1.0
  H  H27  1  0.27225985  0.97481209  0.25452183  1.0
  H  H28  1  0.57604993  0.36679227  0.77857298  1.0
  H  H29  1  0.07037441  0.63168172  0.22346183  1.0
  H  H30  1  0.75288536  0.22321480  0.09813266  1.0
  H  H31  1  0.54606706  0.27003687  0.14844410  1.0
  H  H32  1  0.77363463  0.32190221  0.16559970  1.0
  H  H33  1  0.22842062  0.77068783  0.88969264  1.0
  H  H34  1  0.05011810  0.70663981  0.83047295  1.0
  H  H35  1  0.29318627  0.67362018  0.82662261  1.0
  H  H36  1  0.55235603  0.22825258  0.35206615  1.0
  H  H37  1  0.77992154  0.17858182  0.33754474  1.0
  H  H38  1  0.75859617  0.27883832  0.40326001  1.0
  H  H39  1  0.24852649  0.81577280  0.65445460  1.0
  H  H40  1  0.28148642  0.71892716  0.58645041  1.0
  H  H41  1  0.05003045  0.74512630  0.62659819  1.0
  H  H42  1  0.69298103  0.33988942  0.30238126  1.0
  H  H43  1  0.20605551  0.64861459  0.68424632  1.0
  H  H44  1  0.65320869  0.40004651  0.50755328  1.0
  H  H45  1  0.15601326  0.60873635  0.53121186  1.0
  H  H46  1  0.62573329  0.10888264  0.02871084  1.0
  H  H47  1  0.12318820  0.89227370  0.99255333  1.0
  C  C48  1  0.65106613  0.57962097  0.41887534  1.0
  C  C49  1  0.15440818  0.41725049  0.57985992  1.0
  C  C50  1  0.66218371  0.61437269  0.61101659  1.0
  C  C51  1  0.14948863  0.38639656  0.38791969  1.0
  C  C52  1  0.97562873  0.28032853  0.28379835  1.0
  C  C53  1  0.48093275  0.71845857  0.70920922  1.0
  C  C54  1  0.14499457  0.31684818  0.31807545  1.0
  C  C55  1  0.65490929  0.68453982  0.68048063  1.0
  C  C56  1  0.31373801  0.28259216  0.28191908  1.0
  C  C57  1  0.81824655  0.72002999  0.72295585  1.0
  C  C58  1  0.30981303  0.21495308  0.21807256  1.0
  C  C59  1  0.80432701  0.78654416  0.78729047  1.0
  C  C60  1  0.13700906  0.18136424  0.18175170  1.0
  C  C61  1  0.62691414  0.81837819  0.81708535  1.0
  C  C62  1  0.97174575  0.21782654  0.21653941  1.0
  C  C63  1  0.46649530  0.78051534  0.77637233  1.0
  C  C64  1  0.75632179  0.21955554  0.20878305  1.0
  C  C65  1  0.25110032  0.77097666  0.77858218  1.0
  C  C66  1  0.76074159  0.27917938  0.29210153  1.0
  C  C67  1  0.26655091  0.71159190  0.69573869  1.0
  C  C68  1  0.30465727  0.36898612  0.67750738  1.0
  C  C69  1  0.80153420  0.62905725  0.32296469  1.0
  C  C70  1  0.14935088  0.36680123  0.63013671  1.0
  C  C71  1  0.64706044  0.63076815  0.36923310  1.0
  C  C72  1  0.98759475  0.31668097  0.62889616  1.0
  C  C73  1  0.48737091  0.68062342  0.36988893  1.0
  C  C74  1  0.98068053  0.26573799  0.67300228  1.0
  C  C75  1  0.48233761  0.73210852  0.32619053  1.0
  C  C76  1  0.13720617  0.26842917  0.72233448  1.0
  C  C77  1  0.63743164  0.72948527  0.27753664  1.0
  C  C78  1  0.29969707  0.32208758  0.72524585  1.0
  C  C79  1  0.79733986  0.67598332  0.27526679  1.0
  C  C80  1  0.82160179  0.21076362  0.67047000  1.0
  C  C81  1  0.32661429  0.78738981  0.32830469  1.0
  C  C82  1  0.81855501  0.16082126  0.71319834  1.0
  C  C83  1  0.32490921  0.83735788  0.28556723  1.0
  C  C84  1  0.97247713  0.16194524  0.76379400  1.0
  C  C85  1  0.47672906  0.83583905  0.23530312  1.0
  C  C86  1  0.13146004  0.21786095  0.76817272  1.0
  C  C87  1  0.63278505  0.78000169  0.23164239  1.0
  C  C88  1  0.28722552  0.22285149  0.81833542  1.0
  C  C89  1  0.78656993  0.77484448  0.18197678  1.0
  C  C90  1  0.44629397  0.27827660  0.82138906  1.0
  C  C91  1  0.94320090  0.71970267  0.17970877  1.0
  C  C92  1  0.45298317  0.32566706  0.77652499  1.0
  C  C93  1  0.94907119  0.67249977  0.22472284  1.0
  C  C94  1  0.96836565  0.11107807  0.80929211  1.0
  C  C95  1  0.47326589  0.88621650  0.18938247  1.0
  C  C96  1  0.12122702  0.11983959  0.86029096  1.0
  C  C97  1  0.62391257  0.87734704  0.13890437  1.0
  C  C98  1  0.27803284  0.17326180  0.86333363  1.0
  C  C99  1  0.77807402  0.82410428  0.13669450  1.0
  C  C100  1  0.62106716  0.88600527  0.88807310  1.0
  C  C101  1  0.13428576  0.11288929  0.11127167  1.0
  C  C102  1  0.62608210  0.92162435  0.08356898  1.0
  C  C103  1  0.12291884  0.07526282  0.91542571  1.0
  C  C104  1  0.80861274  0.04782623  0.80036154  1.0
  C  C105  1  0.31650089  0.94920128  0.19753040  1.0
  C  C106  1  0.70155845  0.26090709  0.15204370  1.0
  C  C107  1  0.20060355  0.72780197  0.83433989  1.0
  C  C108  1  0.70782763  0.23868232  0.34945118  1.0
  C  C109  1  0.20593488  0.74982964  0.63749272  1.0
  O  O110  1  0.49733652  0.58709422  0.58297072  1.0
  O  O111  1  0.98600749  0.41391153  0.41371200  1.0
  O  O112  1  0.81607966  0.56029835  0.43770659  1.0
  O  O113  1  0.32014827  0.43826294  0.56307150  1.0
  O  O114  1  0.82696248  0.58817617  0.58529930  1.0
  O  O115  1  0.31456062  0.41182774  0.41640724  1.0
  O  O116  1  0.99101245  0.43400401  0.55732277  1.0
  O  O117  1  0.48796404  0.56048903  0.43902436  1.0
  O  O118  1  0.65362139  0.44929439  0.49274191  1.0
  O  O119  1  0.15530241  0.54900782  0.50805736  1.0
  O  O120  1  0.79172622  0.93979994  0.06430783  1.0
  O  O121  1  0.28809865  0.05919565  0.93696343  1.0
  O  O122  1  0.45560909  0.91176519  0.91288799  1.0
  O  O123  1  0.96772026  0.08750044  0.08397044  1.0
  O  O124  1  0.46355454  0.93486979  0.05814688  1.0
  O  O125  1  0.96057991  0.05965336  0.93857745  1.0
  O  O126  1  0.29691849  0.08589737  0.08378466  1.0
  O  O127  1  0.78398593  0.91229635  0.91829387  1.0
  O  O128  1  0.62631216  0.04892776  0.00753440  1.0
  O  O129  1  0.12433155  0.94905133  0.99220499  1.0
