# generated using pymatgen
data_ZnH13C20NO6
_symmetry_space_group_name_H-M   'P 1'
_cell_length_a   11.05892207
_cell_length_b   16.40387612
_cell_length_c   17.81905811
_cell_angle_alpha   95.24917166
_cell_angle_beta   90.38846729
_cell_angle_gamma   92.04494013
_symmetry_Int_Tables_number   1
_chemical_formula_structural   ZnH13C20NO6
_chemical_formula_sum   'Zn2 H26 C40 N2 O12'
_cell_volume   3216.77050083
_cell_formula_units_Z   2
loop_
 _symmetry_equiv_pos_site_id
 _symmetry_equiv_pos_as_xyz
  1  'x, y, z'
loop_
 _atom_site_type_symbol
 _atom_site_label
 _atom_site_symmetry_multiplicity
 _atom_site_fract_x
 _atom_site_fract_y
 _atom_site_fract_z
 _atom_site_occupancy
  Zn  Zn0  1  0.49556748  0.41466737  0.50145040  1.0
  Zn  Zn1  1  0.50329672  0.58526719  0.50678883  1.0
  H  H2  1  0.37414422  0.71281619  0.42881479  1.0
  H  H3  1  0.37904752  0.86362332  0.42928291  1.0
  H  H4  1  0.66867645  0.86805479  0.59690496  1.0
  H  H5  1  0.64889722  0.71976001  0.58785729  1.0
  H  H6  1  0.33508766  0.13217216  0.40252946  1.0
  H  H7  1  0.62192102  0.13425881  0.57155786  1.0
  H  H8  1  0.62517095  0.28531349  0.57524591  1.0
  H  H9  1  0.35134364  0.28090746  0.41592022  1.0
  H  H10  1  0.50589574  0.61848193  0.26631889  1.0
  H  H11  1  0.50664129  0.61116743  0.12789627  1.0
  H  H12  1  0.49150410  0.34555470  0.12232722  1.0
  H  H13  1  0.49106204  0.35672362  0.25830200  1.0
  H  H14  1  0.50890091  0.65645647  0.88701898  1.0
  H  H15  1  0.49368821  0.39058700  0.87813449  1.0
  H  H16  1  0.49387268  0.38568341  0.73957203  1.0
  H  H17  1  0.50947968  0.64770734  0.75145259  1.0
  H  H18  1  0.77962287  0.60146285  0.39727110  1.0
  H  H19  1  0.89634503  0.68484688  0.31277199  1.0
  H  H20  1  0.22957118  0.59483337  0.39373607  1.0
  H  H21  1  0.12212193  0.68135140  0.31057834  1.0
  H  H22  1  0.10806777  0.40596791  0.57075001  1.0
  H  H23  1  0.88172245  0.40720753  0.57113583  1.0
  H  H24  1  0.65735054  0.96725496  0.59537622  1.0
  H  H25  1  0.34202431  0.03175193  0.40571380  1.0
  H  H26  1  0.49056361  0.35316997  0.03314299  1.0
  H  H27  1  0.50971384  0.64775031  0.97477786  1.0
  C  C28  1  0.49688867  0.49358325  0.35576712  1.0
  C  C29  1  0.26238530  0.49599183  0.49862466  1.0
  C  C30  1  0.50282541  0.51235384  0.65188640  1.0
  C  C31  1  0.73648501  0.49833974  0.49994052  1.0
  C  C32  1  0.43767189  0.75082539  0.46508998  1.0
  C  C33  1  0.44089354  0.83551264  0.46564942  1.0
  C  C34  1  0.52351677  0.88371393  0.51346397  1.0
  C  C35  1  0.59962355  0.83941138  0.55791582  1.0
  C  C36  1  0.59071085  0.75461548  0.55400309  1.0
  C  C37  1  0.53399466  0.97347833  0.51966093  1.0
  C  C38  1  0.46787624  0.02560946  0.47998334  1.0
  C  C39  1  0.40246289  0.16044490  0.44288905  1.0
  C  C40  1  0.47820780  0.11538099  0.48688815  1.0
  C  C41  1  0.56008805  0.16298473  0.53568639  1.0
  C  C42  1  0.56221668  0.24778442  0.53815235  1.0
  C  C43  1  0.40985700  0.24540759  0.44897935  1.0
  C  C44  1  0.49750534  0.48822108  0.27164291  1.0
  C  C45  1  0.50229345  0.55908673  0.23332827  1.0
  C  C46  1  0.50283271  0.55484439  0.15516126  1.0
  C  C47  1  0.49849928  0.47856757  0.11060027  1.0
  C  C48  1  0.49433092  0.40768874  0.15076528  1.0
  C  C49  1  0.49386719  0.41219935  0.22897524  1.0
  C  C50  1  0.49824145  0.46956289  0.02778905  1.0
  C  C51  1  0.50204092  0.53134809  0.97987512  1.0
  C  C52  1  0.50596555  0.59467875  0.85786750  1.0
  C  C53  1  0.50174818  0.52312019  0.89706560  1.0
  C  C54  1  0.49737817  0.44743541  0.85158390  1.0
  C  C55  1  0.49762425  0.44455017  0.77341606  1.0
  C  C56  1  0.50242667  0.51613845  0.73607183  1.0
  C  C57  1  0.50640048  0.59154162  0.77975425  1.0
  C  C58  1  0.87168831  0.49871316  0.49370192  1.0
  C  C59  1  0.93686855  0.55020893  0.44607743  1.0
  C  C60  1  0.93341685  0.44689538  0.53629198  1.0
  C  C61  1  0.87797431  0.60043911  0.39709416  1.0
  C  C62  1  0.94351386  0.64710089  0.35004134  1.0
  C  C63  1  0.12714298  0.49683134  0.49269944  1.0
  C  C64  1  0.06038411  0.44602598  0.53596580  1.0
  C  C65  1  0.06709285  0.54887079  0.44535924  1.0
  C  C66  1  0.13133499  0.59712258  0.39526992  1.0
  C  C67  1  0.07111712  0.64530263  0.34893975  1.0
  N  N68  1  0.51065136  0.71056659  0.50848679  1.0
  N  N69  1  0.48860746  0.28891342  0.49591441  1.0
  O  O70  1  0.49479695  0.42648067  0.38668613  1.0
  O  O71  1  0.49867058  0.56528553  0.39035542  1.0
  O  O72  1  0.31947995  0.56516064  0.50554010  1.0
  O  O73  1  0.30954271  0.42625205  0.49792535  1.0
  O  O74  1  0.50842758  0.58018514  0.62217728  1.0
  O  O75  1  0.49722340  0.44118505  0.61623876  1.0
  O  O76  1  0.68216852  0.42875268  0.50149558  1.0
  O  O77  1  0.68635767  0.56737507  0.50440519  1.0
  O  O78  1  0.61844408  0.00963054  0.57020736  1.0
  O  O79  1  0.38404644  0.98937209  0.42903140  1.0
  O  O80  1  0.49360298  0.39043595  0.99374636  1.0
  O  O81  1  0.50665953  0.61039976  0.01408035  1.0
