# generated using pymatgen
data_Zn3H34C54(NO3)4
_symmetry_space_group_name_H-M   'P 1'
_cell_length_a   13.82114334
_cell_length_b   24.77777510
_cell_length_c   26.47501207
_cell_angle_alpha   66.80626027
_cell_angle_beta   89.99653604
_cell_angle_gamma   73.81161210
_symmetry_Int_Tables_number   1
_chemical_formula_structural   Zn3H34C54(NO3)4
_chemical_formula_sum   'Zn12 H136 C216 N16 O48'
_cell_volume   7941.26294860
_cell_formula_units_Z   4
loop_
 _symmetry_equiv_pos_site_id
 _symmetry_equiv_pos_as_xyz
  1  'x, y, z'
loop_
 _atom_site_type_symbol
 _atom_site_label
 _atom_site_symmetry_multiplicity
 _atom_site_fract_x
 _atom_site_fract_y
 _atom_site_fract_z
 _atom_site_occupancy
  Zn  Zn0  1  0.59909946  0.29030121  0.45252818  1.0
  Zn  Zn1  1  0.88946915  0.70960231  0.04749939  1.0
  Zn  Zn2  1  0.40090487  0.70969632  0.54747328  1.0
  Zn  Zn3  1  0.11052762  0.29040167  0.95249965  1.0
  Zn  Zn4  1  0.51884400  0.44157493  0.39238093  1.0
  Zn  Zn5  1  0.96034891  0.55847952  0.10761755  1.0
  Zn  Zn6  1  0.48115512  0.55842724  0.60762332  1.0
  Zn  Zn7  1  0.03964771  0.44151896  0.89238545  1.0
  Zn  Zn8  1  0.69411742  0.13221228  0.51642978  1.0
  Zn  Zn9  1  0.82619518  0.86776754  0.98355493  1.0
  Zn  Zn10  1  0.30588317  0.86778984  0.48356732  1.0
  Zn  Zn11  1  0.17380474  0.13223594  0.01643977  1.0
  H  H12  1  0.78872991  0.28295721  0.57187388  1.0
  H  H13  1  0.07201275  0.71700389  0.92806810  1.0
  H  H14  1  0.21127130  0.71704078  0.42812703  1.0
  H  H15  1  0.92798514  0.28299783  0.07193633  1.0
  H  H16  1  0.87424106  0.27925945  0.65572803  1.0
  H  H17  1  0.15383017  0.72059713  0.84423832  1.0
  H  H18  1  0.12576679  0.72073393  0.34427346  1.0
  H  H19  1  0.84617303  0.27940413  0.15576703  1.0
  H  H20  1  0.74625238  0.47704913  0.59538823  1.0
  H  H21  1  0.22335990  0.52281026  0.90468375  1.0
  H  H22  1  0.25376800  0.52294381  0.40461721  1.0
  H  H23  1  0.77663050  0.47719052  0.09531914  1.0
  H  H24  1  0.66398359  0.47920059  0.51204389  1.0
  H  H25  1  0.14314534  0.52076816  0.98800259  1.0
  H  H26  1  0.33602653  0.52079838  0.48796270  1.0
  H  H27  1  0.85684531  0.47923356  0.01200108  1.0
  H  H28  1  0.91058810  0.27663603  0.72886296  1.0
  H  H29  1  0.18715626  0.72321296  0.77114518  1.0
  H  H30  1  0.08943613  0.72335643  0.27113926  1.0
  H  H31  1  0.81284374  0.27678600  0.22886103  1.0
  H  H32  1  0.98579721  0.27568027  0.81393484  1.0
  H  H33  1  0.26119499  0.72422579  0.68600618  1.0
  H  H34  1  0.01421451  0.72431405  0.18607008  1.0
  H  H35  1  0.73880721  0.27577456  0.31400026  1.0
  H  H36  1  0.89614883  0.47317510  0.74130255  1.0
  H  H37  1  0.36939267  0.52674215  0.75866044  1.0
  H  H38  1  0.10385062  0.52682060  0.25870035  1.0
  H  H39  1  0.63060516  0.47325680  0.24134502  1.0
  H  H40  1  0.82314231  0.47595571  0.65555769  1.0
  H  H41  1  0.29938857  0.52391092  0.84449257  1.0
  H  H42  1  0.17687152  0.52403583  0.34444450  1.0
  H  H43  1  0.70061048  0.47608849  0.15551271  1.0
  H  H44  1  0.37759632  0.29003592  0.48971680  1.0
  H  H45  1  0.66755356  0.71028063  0.01038347  1.0
  H  H46  1  0.62240528  0.70995983  0.51029288  1.0
  H  H47  1  0.33244861  0.28971688  0.98961497  1.0
  H  H48  1  0.24280129  0.23855599  0.51036149  1.0
  H  H49  1  0.48138779  0.76185472  0.98976918  1.0
  H  H50  1  0.75719701  0.76144203  0.48964281  1.0
  H  H51  1  0.51861468  0.23814509  0.01022765  1.0
  H  H52  1  0.08135658  0.36067432  0.34786278  1.0
  H  H53  1  0.44180582  0.63940977  0.15207952  1.0
  H  H54  1  0.91865003  0.63932879  0.65214151  1.0
  H  H55  1  0.55818997  0.36059327  0.84791723  1.0
  H  H56  1  0.21395113  0.41426468  0.32933854  1.0
  H  H57  1  0.62792919  0.58583734  0.17063248  1.0
  H  H58  1  0.78605473  0.58573847  0.67067177  1.0
  H  H59  1  0.37206511  0.41416434  0.82936705  1.0
  H  H60  1  0.16961109  0.17657389  0.49626535  1.0
  H  H61  1  0.34569206  0.82364824  0.00370364  1.0
  H  H62  1  0.83039376  0.82342549  0.50373466  1.0
  H  H63  1  0.65431285  0.17635247  0.99629058  1.0
  H  H64  1  0.02960347  0.12869373  0.52000715  1.0
  H  H65  1  0.15779379  0.87131993  0.98010097  1.0
  H  H66  1  0.97040211  0.87130565  0.47999399  1.0
  H  H67  1  0.84221088  0.12867838  0.01988169  1.0
  H  H68  1  0.81200852  0.30215694  0.41869875  1.0
  H  H69  1  0.11419267  0.69762655  0.08124389  1.0
  H  H70  1  0.18799537  0.69784293  0.58130561  1.0
  H  H71  1  0.88580508  0.30237545  0.91873890  1.0
  H  H72  1  0.95007986  0.35065680  0.39490390  1.0
  H  H73  1  0.30073071  0.64935497  0.10498379  1.0
  H  H74  1  0.04992522  0.64934213  0.60509854  1.0
  H  H75  1  0.69926651  0.35064665  0.89500896  1.0
  H  H76  1  0.55951675  0.09770665  0.39233016  1.0
  H  H77  1  0.65667921  0.90224486  0.10744199  1.0
  H  H78  1  0.44047889  0.90228946  0.60766692  1.0
  H  H79  1  0.34331262  0.09776465  0.89255423  1.0
  H  H80  1  0.47620154  0.10075314  0.30752779  1.0
  H  H81  1  0.57633386  0.89921952  0.19223599  1.0
  H  H82  1  0.52379274  0.89924712  0.69246736  1.0
  H  H83  1  0.42366485  0.10078492  0.80776326  1.0
  H  H84  1  0.31287461  0.29271499  0.26038033  1.0
  H  H85  1  0.60556379  0.70711055  0.23960487  1.0
  H  H86  1  0.68712399  0.70728531  0.73962009  1.0
  H  H87  1  0.39443327  0.29289429  0.76038668  1.0
  H  H88  1  0.39935697  0.28894434  0.34476524  1.0
  H  H89  1  0.68830134  0.71090687  0.15521489  1.0
  H  H90  1  0.60064588  0.71105181  0.65523636  1.0
  H  H91  1  0.31169104  0.28910443  0.84477424  1.0
  H  H92  1  0.32799153  0.10788076  0.26432190  1.0
  H  H93  1  0.43556255  0.89204880  0.23544930  1.0
  H  H94  1  0.67200332  0.89212272  0.73567167  1.0
  H  H95  1  0.56443614  0.10795423  0.76454557  1.0
  H  H96  1  0.25497317  0.11108326  0.17683699  1.0
  H  H97  1  0.36580585  0.88907563  0.32288997  1.0
  H  H98  1  0.74502704  0.88892251  0.82315458  1.0
  H  H99  1  0.63418127  0.11092738  0.67710227  1.0
  H  H100  1  0.27047432  0.29468585  0.08849179  1.0
  H  H101  1  0.56485386  0.70552009  0.41144954  1.0
  H  H102  1  0.72953498  0.70531765  0.91150403  1.0
  H  H103  1  0.43512914  0.29448247  0.58854475  1.0
  H  H104  1  0.34780097  0.29146384  0.17519033  1.0
  H  H105  1  0.63897980  0.70855570  0.32479944  1.0
  H  H106  1  0.65220347  0.70853782  0.82480694  1.0
  H  H107  1  0.36100870  0.29144456  0.67519722  1.0
  H  H108  1  0.40361500  0.53008754  0.28593730  1.0
  H  H109  1  0.93382164  0.46996743  0.21417916  1.0
  H  H110  1  0.59638500  0.46991141  0.71406741  1.0
  H  H111  1  0.06616434  0.53002917  0.78582113  1.0
  H  H112  1  0.34060146  0.64554987  0.23194826  1.0
  H  H113  1  0.98591457  0.35452903  0.26816055  1.0
  H  H114  1  0.65939810  0.35444997  0.76805346  1.0
  H  H115  1  0.01406948  0.64546709  0.73183728  1.0
  H  H116  1  0.44869396  0.66217791  0.37660066  1.0
  H  H117  1  0.11063477  0.33777587  0.12354278  1.0
  H  H118  1  0.55129773  0.33782609  0.62339989  1.0
  H  H119  1  0.88936117  0.66222396  0.87645631  1.0
  H  H120  1  0.51201103  0.54648701  0.42316112  1.0
  H  H121  1  0.05862209  0.45345671  0.07698967  1.0
  H  H122  1  0.48798259  0.45351747  0.57684189  1.0
  H  H123  1  0.94137435  0.54654359  0.92301112  1.0
  H  H124  1  0.36677806  0.75709012  0.29390295  1.0
  H  H125  1  0.12355970  0.24285558  0.20631635  1.0
  H  H126  1  0.63322200  0.24291018  0.70609822  1.0
  H  H127  1  0.87644653  0.75714104  0.79368658  1.0
  H  H128  1  0.35079387  0.81327239  0.12441735  1.0
  H  H129  1  0.16457842  0.18683746  0.37584405  1.0
  H  H130  1  0.64919638  0.18673160  0.87558282  1.0
  H  H131  1  0.83540779  0.81316884  0.62415602  1.0
  H  H132  1  0.26695189  0.02345597  0.98801371  1.0
  H  H133  1  0.29068146  0.97643230  0.51222729  1.0
  H  H134  1  0.73305248  0.97654293  0.01198459  1.0
  H  H135  1  0.70932035  0.02357171  0.48777476  1.0
  H  H136  1  0.31704651  0.90776484  0.03646158  1.0
  H  H137  1  0.22536591  0.09212997  0.46391683  1.0
  H  H138  1  0.68294919  0.09223547  0.96353997  1.0
  H  H139  1  0.77462619  0.90787176  0.53608910  1.0
  H  H140  1  0.20050223  0.04338010  0.13305112  1.0
  H  H141  1  0.24436214  0.95680505  0.36702836  1.0
  H  H142  1  0.79951247  0.95662709  0.86694408  1.0
  H  H143  1  0.75562619  0.04319990  0.63297561  1.0
  H  H144  1  0.24862864  0.92815397  0.18823572  1.0
  H  H145  1  0.17724638  0.07204772  0.31199652  1.0
  H  H146  1  0.75137305  0.07185463  0.81176236  1.0
  H  H147  1  0.82273059  0.92795679  0.68800988  1.0
  C  C148  1  0.66272030  0.38276808  0.48853561  1.0
  C  C149  1  0.04553414  0.61725902  0.01143681  1.0
  C  C150  1  0.33728648  0.61723178  0.51146799  1.0
  C  C151  1  0.95446034  0.38274084  0.98856718  1.0
  C  C152  1  0.72031699  0.38116724  0.53697570  1.0
  C  C153  1  0.10160491  0.61879345  0.96301992  1.0
  C  C154  1  0.27969023  0.61883031  0.46302689  1.0
  C  C155  1  0.89838865  0.38120825  0.03698262  1.0
  C  C156  1  0.78073372  0.32511578  0.57767169  1.0
  C  C157  1  0.10610165  0.67481910  0.92231141  1.0
  C  C158  1  0.21927252  0.67488083  0.42232973  1.0
  C  C159  1  0.89389696  0.32518262  0.07769301  1.0
  C  C160  1  0.82806563  0.32361508  0.62476493  1.0
  C  C161  1  0.15195281  0.67626963  0.87523397  1.0
  C  C162  1  0.17194659  0.67637969  0.37523643  1.0
  C  C163  1  0.84804433  0.32373071  0.12477060  1.0
  C  C164  1  0.81684307  0.37784599  0.63299585  1.0
  C  C165  1  0.19487060  0.62201638  0.86703507  1.0
  C  C166  1  0.18317369  0.62214694  0.36700733  1.0
  C  C167  1  0.80512341  0.37798442  0.13297045  1.0
  C  C168  1  0.75825271  0.43397832  0.59078778  1.0
  C  C169  1  0.19235178  0.56590124  0.90925580  1.0
  C  C170  1  0.24176503  0.56601554  0.40921656  1.0
  C  C171  1  0.80763984  0.43410000  0.09074729  1.0
  C  C172  1  0.71092128  0.43562277  0.54375411  1.0
  C  C173  1  0.14661382  0.56431113  0.95627325  1.0
  C  C174  1  0.28909050  0.56437432  0.45624940  1.0
  C  C175  1  0.85337856  0.43569150  0.04373045  1.0
  C  C176  1  0.86233033  0.37632097  0.68433928  1.0
  C  C177  1  0.23878111  0.62353570  0.81568483  1.0
  C  C178  1  0.13768617  0.62367104  0.31566462  1.0
  C  C179  1  0.76121362  0.37646510  0.18431957  1.0
  C  C180  1  0.90813338  0.32030766  0.73034977  1.0
  C  C181  1  0.22840153  0.67955730  0.76964424  1.0
  C  C182  1  0.09188507  0.67968480  0.26965321  1.0
  C  C183  1  0.77159679  0.32044211  0.23036067  1.0
  C  C184  1  0.95003496  0.31916770  0.77866195  1.0
  C  C185  1  0.26906468  0.68072202  0.72130111  1.0
  C  C186  1  0.04997315  0.68082661  0.22134109  1.0
  C  C187  1  0.73093582  0.31927739  0.27870380  1.0
  C  C188  1  0.94638089  0.37431017  0.78282980  1.0
  C  C189  1  0.32060256  0.62559562  0.71713783  1.0
  C  C190  1  0.05362121  0.62568460  0.21717382  1.0
  C  C191  1  0.67939767  0.37440287  0.28286742  1.0
  C  C192  1  0.89968537  0.43035592  0.73776019  1.0
  C  C193  1  0.33008047  0.56953681  0.76222953  1.0
  C  C194  1  0.10031866  0.56963931  0.26224250  1.0
  C  C195  1  0.66991546  0.43046306  0.23777521  1.0
  C  C196  1  0.85898641  0.43135815  0.68938202  1.0
  C  C197  1  0.29050467  0.56851272  0.81064130  1.0
  C  C198  1  0.14102434  0.56863523  0.31062023  1.0
  C  C199  1  0.70949270  0.43148716  0.18936456  1.0
  C  C200  1  0.99184481  0.37395496  0.83418377  1.0
  C  C201  1  0.36572790  0.62598453  0.66578382  1.0
  C  C202  1  0.00815011  0.62604259  0.16581957  1.0
  C  C203  1  0.63427257  0.37401349  0.33422047  1.0
  C  C204  1  0.37740554  0.39079446  0.39679895  1.0
  C  C205  1  0.76804013  0.60929741  0.10318508  1.0
  C  C206  1  0.62259998  0.60920359  0.60320911  1.0
  C  C207  1  0.23196162  0.39070241  0.89681363  1.0
  C  C208  1  0.30274892  0.35582375  0.40856466  1.0
  C  C209  1  0.65842485  0.64434312  0.09144143  1.0
  C  C210  1  0.69725587  0.64417431  0.59144491  1.0
  C  C211  1  0.34157448  0.35565717  0.90855824  1.0
  C  C212  1  0.31195653  0.30540836  0.45915111  1.0
  C  C213  1  0.61725227  0.69485873  0.04091282  1.0
  C  C214  1  0.68804655  0.69458877  0.54085730  1.0
  C  C215  1  0.38274871  0.30513971  0.95908641  1.0
  C  C216  1  0.23696979  0.27624055  0.47006057  1.0
  C  C217  1  0.51311948  0.72405501  0.03001326  1.0
  C  C218  1  0.76303287  0.72375887  0.52994509  1.0
  C  C219  1  0.48688131  0.27594527  0.96998490  1.0
  C  C220  1  0.15177134  0.29615332  0.43078191  1.0
  C  C221  1  0.44775014  0.70405672  0.06922125  1.0
  C  C222  1  0.84823397  0.70384516  0.56922297  1.0
  C  C223  1  0.55224683  0.29594540  0.93077622  1.0
  C  C224  1  0.14508472  0.34570427  0.37951847  1.0
  C  C225  1  0.49058660  0.65443596  0.12044829  1.0
  C  C226  1  0.85491849  0.65429839  0.62048787  1.0
  C  C227  1  0.50941036  0.34556617  0.87954956  1.0
  C  C228  1  0.21914723  0.37542409  0.36869609  1.0
  C  C229  1  0.59436640  0.62470255  0.13127826  1.0
  C  C230  1  0.78086098  0.62457582  0.63131317  1.0
  C  C231  1  0.40563248  0.37529866  0.86872069  1.0
  C  C232  1  0.07006926  0.26698727  0.44356772  1.0
  C  C233  1  0.33686739  0.73312327  0.05641333  1.0
  C  C234  1  0.92993439  0.73301165  0.55643472  1.0
  C  C235  1  0.66313082  0.26687928  0.94358020  1.0
  C  C236  1  0.09117372  0.20422511  0.47914679  1.0
  C  C237  1  0.29507517  0.79588520  0.02086490  1.0
  C  C238  1  0.90883282  0.79577380  0.52085415  1.0
  C  C239  1  0.70492568  0.20411641  0.97912597  1.0
  C  C240  1  0.01373903  0.17725748  0.49253598  1.0
  C  C241  1  0.19065738  0.82275574  0.00752053  1.0
  C  C242  1  0.98626654  0.82274191  0.50746554  1.0
  C  C243  1  0.80934684  0.17724491  0.99246617  1.0
  C  C244  1  0.91267628  0.21256549  0.47084045  1.0
  C  C245  1  0.12502932  0.78733979  0.02919239  1.0
  C  C246  1  0.08733097  0.78743344  0.52916275  1.0
  C  C247  1  0.87497132  0.21266223  0.97079153  1.0
  C  C248  1  0.89065399  0.27495794  0.43497887  1.0
  C  C249  1  0.16550267  0.72493943  0.06500035  1.0
  C  C250  1  0.10934967  0.72504238  0.56502419  1.0
  C  C251  1  0.83449747  0.27506214  0.93498637  1.0
  C  C252  1  0.96849830  0.30164025  0.42150826  1.0
  C  C253  1  0.27004346  0.69836994  0.07842592  1.0
  C  C254  1  0.03150583  0.69835913  0.57849364  1.0
  C  C255  1  0.72995426  0.30163213  0.92156478  1.0
  C  C256  1  0.83044952  0.18364250  0.48657077  1.0
  C  C257  1  0.01390039  0.81620876  0.01346754  1.0
  C  C258  1  0.16955723  0.81635598  0.51343373  1.0
  C  C259  1  0.98610245  0.18379466  0.98651811  1.0
  C  C260  1  0.54047751  0.19241374  0.42245765  1.0
  C  C261  1  0.73278574  0.80749646  0.07748845  1.0
  C  C262  1  0.45952702  0.80758192  0.57753960  1.0
  C  C263  1  0.26721311  0.19251349  0.92250571  1.0
  C  C264  1  0.48492518  0.19320626  0.37348541  1.0
  C  C265  1  0.67790767  0.80669300  0.12641326  1.0
  C  C266  1  0.51507406  0.80678987  0.62651431  1.0
  C  C267  1  0.32208614  0.19331833  0.87357927  1.0
  C  C268  1  0.50476088  0.14002442  0.36323860  1.0
  C  C269  1  0.64435450  0.85990686  0.13658107  1.0
  C  C270  1  0.49523669  0.85997216  0.63675906  1.0
  C  C271  1  0.35563923  0.14010173  0.86341512  1.0
  C  C272  1  0.45744558  0.14191162  0.31598799  1.0
  C  C273  1  0.59887725  0.85802967  0.18381843  1.0
  C  C274  1  0.54255106  0.85808681  0.68400935  1.0
  C  C275  1  0.40111956  0.14197568  0.81617821  1.0
  C  C276  1  0.38914066  0.19711233  0.27754269  1.0
  C  C277  1  0.58593206  0.80280136  0.22233690  1.0
  C  C278  1  0.61085700  0.80288840  0.72245417  1.0
  C  C279  1  0.41406662  0.19720168  0.77765948  1.0
  C  C280  1  0.36772403  0.24989463  0.28886661  1.0
  C  C281  1  0.61744910  0.74998299  0.21106823  1.0
  C  C282  1  0.63227505  0.75010473  0.71113265  1.0
  C  C283  1  0.38254822  0.25002278  0.78892297  1.0
  C  C284  1  0.41508080  0.24802578  0.33615606  1.0
  C  C285  1  0.66300153  0.75184875  0.16378906  1.0
  C  C286  1  0.58491847  0.75197175  0.66384426  1.0
  C  C287  1  0.33699226  0.24816118  0.83620134  1.0
  C  C288  1  0.34331988  0.19944638  0.22611732  1.0
  C  C289  1  0.54249172  0.80053400  0.27376592  1.0
  C  C290  1  0.65667999  0.80055573  0.77387827  1.0
  C  C291  1  0.45750766  0.19946765  0.72623060  1.0
  C  C292  1  0.31694524  0.14868332  0.22570465  1.0
  C  C293  1  0.46536496  0.85132422  0.27411717  1.0
  C  C294  1  0.68305489  0.85131971  0.77428947  1.0
  C  C295  1  0.53462988  0.14867927  0.72587828  1.0
  C  C296  1  0.27517487  0.15044951  0.17710503  1.0
  C  C297  1  0.42538927  0.84966284  0.32270720  1.0
  C  C298  1  0.72482580  0.84955534  0.82288727  1.0
  C  C299  1  0.57460049  0.15033925  0.67728688  1.0
  C  C300  1  0.25751431  0.20322678  0.12740778  1.0
  C  C301  1  0.46050645  0.79694916  0.37245443  1.0
  C  C302  1  0.74249069  0.79677809  0.87258602  1.0
  C  C303  1  0.53948066  0.20305387  0.62754081  1.0
  C  C304  1  0.28338763  0.25404473  0.12740559  1.0
  C  C305  1  0.53720041  0.74610849  0.37250053  1.0
  C  C306  1  0.71662001  0.74595922  0.87258893  1.0
  C  C307  1  0.46278594  0.25389316  0.62749485  1.0
  C  C308  1  0.32590858  0.25211732  0.17601072  1.0
  C  C309  1  0.57777882  0.74793629  0.32391322  1.0
  C  C310  1  0.67409490  0.74788480  0.82398600  1.0
  C  C311  1  0.42221139  0.25206490  0.67608384  1.0
  C  C312  1  0.21289284  0.20497105  0.07486958  1.0
  C  C313  1  0.41762508  0.79522650  0.42501237  1.0
  C  C314  1  0.78710663  0.79503475  0.92512425  1.0
  C  C315  1  0.58236538  0.20477561  0.57498360  1.0
  C  C316  1  0.41361655  0.56161120  0.30338740  1.0
  C  C317  1  0.97523112  0.43842941  0.19672153  1.0
  C  C318  1  0.58638302  0.43839005  0.69661644  1.0
  C  C319  1  0.02475635  0.56156856  0.80327674  1.0
  C  C320  1  0.37858000  0.62489522  0.27415082  1.0
  C  C321  1  0.00332202  0.37514830  0.22597052  1.0
  C  C322  1  0.62142054  0.37510555  0.72585093  1.0
  C  C323  1  0.99666712  0.62484921  0.77402830  1.0
  C  C324  1  0.39128703  0.66276412  0.30000039  1.0
  C  C325  1  0.05385081  0.33722711  0.20015840  1.0
  C  C326  1  0.60871163  0.33723896  0.70000050  1.0
  C  C327  1  0.94614074  0.66276995  0.79984134  1.0
  C  C328  1  0.43900746  0.63458801  0.35468722  1.0
  C  C329  1  0.07342987  0.36537342  0.14546618  1.0
  C  C330  1  0.56099094  0.36541415  0.64531478  1.0
  C  C331  1  0.92656531  0.63462504  0.85453493  1.0
  C  C332  1  0.47359543  0.57071575  0.38088872  1.0
  C  C333  1  0.04432844  0.42924999  0.11925240  1.0
  C  C334  1  0.52639984  0.42928688  0.61911423  1.0
  C  C335  1  0.95566457  0.57074847  0.88074909  1.0
  C  C336  1  0.35756591  0.72970206  0.27122015  1.0
  C  C337  1  0.08708363  0.27028177  0.22899883  1.0
  C  C338  1  0.64243560  0.27029824  0.72878103  1.0
  C  C339  1  0.91291083  0.72971668  0.77100152  1.0
  C  C340  1  0.31352214  0.84209065  0.14578305  1.0
  C  C341  1  0.15603631  0.15799020  0.35452165  1.0
  C  C342  1  0.68647367  0.15791380  0.85421695  1.0
  C  C343  1  0.84394570  0.84201290  0.64548226  1.0
  C  C344  1  0.28613593  0.90890766  0.11646473  1.0
  C  C345  1  0.19552836  0.09116211  0.38382995  1.0
  C  C346  1  0.71386445  0.09109633  0.88353469  1.0
  C  C347  1  0.80445871  0.90884101  0.61617697  1.0
  C  C348  1  0.26413889  0.00006661  0.03230932  1.0
  C  C349  1  0.26457145  0.99990037  0.46792597  1.0
  C  C350  1  0.73586600  0.99993413  0.96768867  1.0
  C  C351  1  0.73542816  0.00010227  0.53207848  1.0
  C  C352  1  0.29213847  0.93619640  0.05944783  1.0
  C  C353  1  0.22883155  0.06378504  0.44084791  1.0
  C  C354  1  0.70786138  0.06380574  0.94055115  1.0
  C  C355  1  0.77116008  0.93621762  0.55915881  1.0
  C  C356  1  0.22663498  0.01113768  0.11376455  1.0
  C  C357  1  0.23821054  0.98898196  0.38638860  1.0
  C  C358  1  0.77337389  0.98886814  0.88623230  1.0
  C  C359  1  0.76177847  0.01102161  0.61361589  1.0
  C  C360  1  0.25302883  0.94796086  0.14387823  1.0
  C  C361  1  0.20148661  0.05217233  0.35635273  1.0
  C  C362  1  0.74697593  0.05204450  0.85611992  1.0
  C  C363  1  0.79849808  0.94783264  0.64365350  1.0
  N  N364  1  0.46133070  0.53495028  0.35567794  1.0
  N  N365  1  0.99638300  0.46505888  0.14444130  1.0
  N  N366  1  0.53866888  0.46505097  0.64432552  1.0
  N  N367  1  0.00360928  0.53493958  0.85555943  1.0
  N  N368  1  0.32168695  0.75534750  0.21936695  1.0
  N  N369  1  0.07718200  0.24468698  0.28091464  1.0
  N  N370  1  0.67831605  0.24465558  0.78063432  1.0
  N  N371  1  0.92280141  0.75531331  0.71908427  1.0
  N  N372  1  0.29385429  0.81799843  0.19614901  1.0
  N  N373  1  0.11212336  0.18203455  0.30419309  1.0
  N  N374  1  0.70615016  0.18200466  0.80385339  1.0
  N  N375  1  0.88786004  0.81796577  0.69580997  1.0
  N  N376  1  0.23196260  0.03694383  0.05888889  1.0
  N  N377  1  0.26922987  0.96309528  0.44127492  1.0
  N  N378  1  0.76804812  0.96305829  0.94110783  1.0
  N  N379  1  0.73076714  0.03690966  0.55872867  1.0
  O  O380  1  0.68034895  0.33371722  0.48098742  1.0
  O  O381  1  0.01420182  0.66633165  0.01895215  1.0
  O  O382  1  0.31965474  0.66628448  0.51901399  1.0
  O  O383  1  0.98579052  0.33366959  0.98105019  1.0
  O  O384  1  0.59794806  0.43486975  0.45806437  1.0
  O  O385  1  0.03269923  0.56519493  0.04190390  1.0
  O  O386  1  0.40205632  0.56513058  0.54193982  1.0
  O  O387  1  0.96730126  0.43480449  0.95810101  1.0
  O  O388  1  0.04421294  0.32282066  0.87126357  1.0
  O  O389  1  0.36691500  0.67713311  0.62869536  1.0
  O  O390  1  0.95578752  0.67717736  0.12873997  1.0
  O  O391  1  0.63309388  0.32286400  0.37131079  1.0
  O  O392  1  0.97331062  0.42690065  0.83599026  1.0
  O  O393  1  0.40025474  0.57303061  0.66401264  1.0
  O  O394  1  0.02668139  0.57309692  0.16401496  1.0
  O  O395  1  0.59973921  0.42696741  0.33599128  1.0
  O  O396  1  0.45985904  0.36989777  0.43170517  1.0
  O  O397  1  0.82964539  0.63016561  0.06829066  1.0
  O  O398  1  0.54015176  0.63009840  0.56829906  1.0
  O  O399  1  0.17035039  0.36983745  0.93170835  1.0
  O  O400  1  0.35983948  0.44122377  0.35516362  1.0
  O  O401  1  0.80083318  0.55882692  0.14478534  1.0
  O  O402  1  0.64016194  0.55877522  0.64484598  1.0
  O  O403  1  0.19916664  0.44117384  0.85521453  1.0
  O  O404  1  0.85178336  0.12621530  0.51737729  1.0
  O  O405  1  0.97779798  0.87364037  0.98266299  1.0
  O  O406  1  0.14822197  0.87378457  0.48262632  1.0
  O  O407  1  0.02220773  0.12636163  0.01731792  1.0
  O  O408  1  0.73701968  0.21575156  0.46898947  1.0
  O  O409  1  0.95257747  0.78410935  0.03104182  1.0
  O  O410  1  0.26298467  0.78424739  0.53101636  1.0
  O  O411  1  0.04741960  0.21589691  0.96895260  1.0
  O  O412  1  0.60502415  0.14047235  0.45396019  1.0
  O  O413  1  0.74542959  0.85945365  0.04602110  1.0
  O  O414  1  0.39498816  0.85952513  0.54603448  1.0
  O  O415  1  0.25456298  0.14055583  0.95397174  1.0
  O  O416  1  0.52037241  0.24172917  0.42941175  1.0
  O  O417  1  0.76203846  0.75819254  0.07053557  1.0
  O  O418  1  0.47963110  0.75826421  0.57058975  1.0
  O  O419  1  0.23796709  0.24181558  0.92946117  1.0
  O  O420  1  0.20751500  0.15299770  0.07746974  1.0
  O  O421  1  0.36014653  0.84717196  0.42240322  1.0
  O  O422  1  0.79248014  0.84700809  0.92252409  1.0
  O  O423  1  0.63983862  0.15282922  0.57759272  1.0
  O  O424  1  0.18550153  0.25611915  0.03330783  1.0
  O  O425  1  0.44149086  0.74409098  0.46660799  1.0
  O  O426  1  0.81449581  0.74388803  0.96668662  1.0
  O  O427  1  0.55850638  0.25591206  0.53338913  1.0
