# generated using pymatgen
data_CuH20C28(NO2)2
_symmetry_space_group_name_H-M   'P 1'
_cell_length_a   5.36066725
_cell_length_b   27.72014607
_cell_length_c   27.72050648
_cell_angle_alpha   89.45380373
_cell_angle_beta   84.46611382
_cell_angle_gamma   84.45789903
_symmetry_Int_Tables_number   1
_chemical_formula_structural   CuH20C28(NO2)2
_chemical_formula_sum   'Cu4 H80 C112 N8 O16'
_cell_volume   4080.86112635
_cell_formula_units_Z   4
loop_
 _symmetry_equiv_pos_site_id
 _symmetry_equiv_pos_as_xyz
  1  'x, y, z'
loop_
 _atom_site_type_symbol
 _atom_site_label
 _atom_site_symmetry_multiplicity
 _atom_site_fract_x
 _atom_site_fract_y
 _atom_site_fract_z
 _atom_site_occupancy
  Cu  Cu0  1  0.99999749  0.00000024  0.99999968  1.0
  Cu  Cu1  1  0.50000628  0.99999996  0.49999938  1.0
  Cu  Cu2  1  0.99999945  0.50000042  0.50000059  1.0
  Cu  Cu3  1  0.00000249  0.49999954  0.99999964  1.0
  H  H4  1  0.18261428  0.82306988  0.05803097  1.0
  H  H5  1  0.50515633  0.05800669  0.67697768  1.0
  H  H6  1  0.06326813  0.67700062  0.44184183  1.0
  H  H7  1  0.24159146  0.44195362  0.82297706  1.0
  H  H8  1  0.81739710  0.17692841  0.94196746  1.0
  H  H9  1  0.49484185  0.94199559  0.32302421  1.0
  H  H10  1  0.93673729  0.32299840  0.55815888  1.0
  H  H11  1  0.75840832  0.55804540  0.17702304  1.0
  H  H12  1  0.44606617  0.53792725  0.03911304  1.0
  H  H13  1  0.48420622  0.03910579  0.96206996  1.0
  H  H14  1  0.02268608  0.96205805  0.46098770  1.0
  H  H15  1  0.48533445  0.46094404  0.53790255  1.0
  H  H16  1  0.55392353  0.46207322  0.96088759  1.0
  H  H17  1  0.51579901  0.96089359  0.03792966  1.0
  H  H18  1  0.97731352  0.03794133  0.53901240  1.0
  H  H19  1  0.51466649  0.53905643  0.46209787  1.0
  H  H20  1  0.64419488  0.61325596  0.03642013  1.0
  H  H21  1  0.75658606  0.03657210  0.88662207  1.0
  H  H22  1  0.29283262  0.88665459  0.46353572  1.0
  H  H23  1  0.68021319  0.46345587  0.61331323  1.0
  H  H24  1  0.35579721  0.38674342  0.96357939  1.0
  H  H25  1  0.24341184  0.96342692  0.11337734  1.0
  H  H26  1  0.70716680  0.11334516  0.53646474  1.0
  H  H27  1  0.31978775  0.53654460  0.38668683  1.0
  H  H28  1  0.48010193  0.79331355  0.96076903  1.0
  H  H29  1  0.77302552  0.96071261  0.70673443  1.0
  H  H30  1  0.23478511  0.70675556  0.53934201  1.0
  H  H31  1  0.44124053  0.53903550  0.79327080  1.0
  H  H32  1  0.51990107  0.20668655  0.03923172  1.0
  H  H33  1  0.22697295  0.03928895  0.29326242  1.0
  H  H34  1  0.76521053  0.29324418  0.46065527  1.0
  H  H35  1  0.55875684  0.46096461  0.20673006  1.0
  H  H36  1  0.94540456  0.58748172  0.94039543  1.0
  H  H37  1  0.03285272  0.94036620  0.91265673  1.0
  H  H38  1  0.47279814  0.91250501  0.55965484  1.0
  H  H39  1  0.88608564  0.55963094  0.58741358  1.0
  H  H40  1  0.05458494  0.41251911  0.05960521  1.0
  H  H41  1  0.96714690  0.05963318  0.08734445  1.0
  H  H42  1  0.52719959  0.08749437  0.44034529  1.0
  H  H43  1  0.11391174  0.44036917  0.41258763  1.0
  H  H44  1  0.62122165  0.87533053  0.96497671  1.0
  H  H45  1  0.99634393  0.96487739  0.62472162  1.0
  H  H46  1  0.46209074  0.62475582  0.53515753  1.0
  H  H47  1  0.58690045  0.53486114  0.87528242  1.0
  H  H48  1  0.37877780  0.12466922  0.03502519  1.0
  H  H49  1  0.00365703  0.03512670  0.37527588  1.0
  H  H50  1  0.53790134  0.37524356  0.46484127  1.0
  H  H51  1  0.41310479  0.46513824  0.12471865  1.0
  H  H52  1  0.04266353  0.73962118  0.05466324  1.0
  H  H53  1  0.28152977  0.05468771  0.76040378  1.0
  H  H54  1  0.83653591  0.76042414  0.44523317  1.0
  H  H55  1  0.09789773  0.44529249  0.73956496  1.0
  H  H56  1  0.95734578  0.26037748  0.94533560  1.0
  H  H57  1  0.71846629  0.94531131  0.23959783  1.0
  H  H58  1  0.16346895  0.23957597  0.55476682  1.0
  H  H59  1  0.90210150  0.55470762  0.26043478  1.0
  H  H60  1  0.12204505  0.66764585  0.93367220  1.0
  H  H61  1  0.28929267  0.93363377  0.83244906  1.0
  H  H62  1  0.72266081  0.83228544  0.56631735  1.0
  H  H63  1  0.05579289  0.56626442  0.66763413  1.0
  H  H64  1  0.87794670  0.33235426  0.06632840  1.0
  H  H65  1  0.71070487  0.06636598  0.16755107  1.0
  H  H66  1  0.27733182  0.16771285  0.43368145  1.0
  H  H67  1  0.94420824  0.43373569  0.33236701  1.0
  H  H68  1  0.39731897  0.72187000  0.95767562  1.0
  H  H69  1  0.61830713  0.95773347  0.77814423  1.0
  H  H70  1  0.07663864  0.77802387  0.54220614  1.0
  H  H71  1  0.35529164  0.54220653  0.72186846  1.0
  H  H72  1  0.60267822  0.27813047  0.04232487  1.0
  H  H73  1  0.38168460  0.04226664  0.22185457  1.0
  H  H74  1  0.92336300  0.22197515  0.45779248  1.0
  H  H75  1  0.64470519  0.45779466  0.27813203  1.0
  H  H76  1  0.76597905  0.68581166  0.03177938  1.0
  H  H77  1  0.95089325  0.03184695  0.81417113  1.0
  H  H78  1  0.48320134  0.81425756  0.46820698  1.0
  H  H79  1  0.79758068  0.46806206  0.68578381  1.0
  H  H80  1  0.23402090  0.31418700  0.96822000  1.0
  H  H81  1  0.04910706  0.96815099  0.18582825  1.0
  H  H82  1  0.51679959  0.18574291  0.53179236  1.0
  H  H83  1  0.20241669  0.53193805  0.31421668  1.0
  C  C84  1  0.02986155  0.81563591  0.03682317  1.0
  C  C85  1  0.34501726  0.03679129  0.68441107  1.0
  C  C86  1  0.88212843  0.68443116  0.46312678  1.0
  C  C87  1  0.06749295  0.46312368  0.81556461  1.0
  C  C88  1  0.97015135  0.18436311  0.96317595  1.0
  C  C89  1  0.65498074  0.96321136  0.31559046  1.0
  C  C90  1  0.11786911  0.31556859  0.53687336  1.0
  C  C91  1  0.93250870  0.53687534  0.18443473  1.0
  C  C92  1  0.37988979  0.56725472  0.01576059  1.0
  C  C93  1  0.44709797  0.01578078  0.93274562  1.0
  C  C94  1  0.96236698  0.93269907  0.48428757  1.0
  C  C95  1  0.39576500  0.48425542  0.56723850  1.0
  C  C96  1  0.62010008  0.43274538  0.98423968  1.0
  C  C97  1  0.55290557  0.98421824  0.06725404  1.0
  C  C98  1  0.03763092  0.06729995  0.51571220  1.0
  C  C99  1  0.60423406  0.51574505  0.43276196  1.0
  C  C100  1  0.39961616  0.64877948  0.98462270  1.0
  C  C101  1  0.54762555  0.98468616  0.85121088  1.0
  C  C102  1  0.03210966  0.85113492  0.51534509  1.0
  C  C103  1  0.38407412  0.51528888  0.64879438  1.0
  C  C104  1  0.60037726  0.35122099  0.01537715  1.0
  C  C105  1  0.45236840  0.01531322  0.14878789  1.0
  C  C106  1  0.96788806  0.14886446  0.48465505  1.0
  C  C107  1  0.61592290  0.48471195  0.35120647  1.0
  C  C108  1  0.49018338  0.61050053  0.01401657  1.0
  C  C109  1  0.60003686  0.01411947  0.88944503  1.0
  C  C110  1  0.11378908  0.88941383  0.48596353  1.0
  C  C111  1  0.50398617  0.48589493  0.61052920  1.0
  C  C112  1  0.50981024  0.38949957  0.98598400  1.0
  C  C113  1  0.39996424  0.98588064  0.11055431  1.0
  C  C114  1  0.88621239  0.11058555  0.51403690  1.0
  C  C115  1  0.49601458  0.51410590  0.38947123  1.0
  C  C116  1  0.63738322  0.79896186  0.98152106  1.0
  C  C117  1  0.93586567  0.98148423  0.70106673  1.0
  C  C118  1  0.41829770  0.70109120  0.51855154  1.0
  C  C119  1  0.61926137  0.51829820  0.79893076  1.0
  C  C120  1  0.36262014  0.20103752  0.01847932  1.0
  C  C121  1  0.06413058  0.01851805  0.29893087  1.0
  C  C122  1  0.58169797  0.29890855  0.48144790  1.0
  C  C123  1  0.38073771  0.48170227  0.20107042  1.0
  C  C124  1  0.10037611  0.59540063  0.96075205  1.0
  C  C125  1  0.19565721  0.96072691  0.90467960  1.0
  C  C126  1  0.65590892  0.90456445  0.53928478  1.0
  C  C127  1  0.06130728  0.53926669  0.59535725  1.0
  C  C128  1  0.89961509  0.40460057  0.03924855  1.0
  C  C129  1  0.80434239  0.03927247  0.09532013  1.0
  C  C130  1  0.34408354  0.09543421  0.46071474  1.0
  C  C131  1  0.93869009  0.46073342  0.40464361  1.0
  C  C132  1  0.91201885  0.85393944  0.01146124  1.0
  C  C133  1  0.26553353  0.01142051  0.64610571  1.0
  C  C134  1  0.77757485  0.64612486  0.48855116  1.0
  C  C135  1  0.92425049  0.48844892  0.85387818  1.0
  C  C136  1  0.08799200  0.14605994  0.98853864  1.0
  C  C137  1  0.73446633  0.98858213  0.35389507  1.0
  C  C138  1  0.22242287  0.35387452  0.51144861  1.0
  C  C139  1  0.07574912  0.51155046  0.14612191  1.0
  C  C140  1  0.99400012  0.90389309  0.01508572  1.0
  C  C141  1  0.39716036  0.01512130  0.59613823  1.0
  C  C142  1  0.91275285  0.59614275  0.48487459  1.0
  C  C143  1  0.00956960  0.48483759  0.90386786  1.0
  C  C144  1  0.00600866  0.09610666  0.98491384  1.0
  C  C145  1  0.60285432  0.98488171  0.40386335  1.0
  C  C146  1  0.08724678  0.40385663  0.51512658  1.0
  C  C147  1  0.99043394  0.51516143  0.09613216  1.0
  C  C148  1  0.71517930  0.84510970  0.98374221  1.0
  C  C149  1  0.05995047  0.98367458  0.65493135  1.0
  C  C150  1  0.54450821  0.65495460  0.51634969  1.0
  C  C151  1  0.69953514  0.51611234  0.84506533  1.0
  C  C152  1  0.28482575  0.15489004  0.01625886  1.0
  C  C153  1  0.94004710  0.01632878  0.34506659  1.0
  C  C154  1  0.45548557  0.34504514  0.48364907  1.0
  C  C155  1  0.30046634  0.48388704  0.15493473  1.0
  C  C156  1  0.75311828  0.76007577  0.00719737  1.0
  C  C157  1  0.01246280  0.00722552  0.73993530  1.0
  C  C158  1  0.52038471  0.73998417  0.49280660  1.0
  C  C159  1  0.76059340  0.49264280  0.76004368  1.0
  C  C160  1  0.24688900  0.23992325  0.99280222  1.0
  C  C161  1  0.98753491  0.99277386  0.26006339  1.0
  C  C162  1  0.47961980  0.26001666  0.50719302  1.0
  C  C163  1  0.23940772  0.50735730  0.23995710  1.0
  C  C164  1  0.95109182  0.76939285  0.03476182  1.0
  C  C165  1  0.21988174  0.03475943  0.73063854  1.0
  C  C166  1  0.75505476  0.73066295  0.46519389  1.0
  C  C167  1  0.98643215  0.46516383  0.76933684  1.0
  C  C168  1  0.04891563  0.23060581  0.96523705  1.0
  C  C169  1  0.78011189  0.96524067  0.26936202  1.0
  C  C170  1  0.24494484  0.26933643  0.53480621  1.0
  C  C171  1  0.01356539  0.53483591  0.23066293  1.0
  C  C172  1  0.20141473  0.63959070  0.95714578  1.0
  C  C173  1  0.34058701  0.95714392  0.86046472  1.0
  C  C174  1  0.79740638  0.86034343  0.54285094  1.0
  C  C175  1  0.15854144  0.54279952  0.63958515  1.0
  C  C176  1  0.79857702  0.36040941  0.04285446  1.0
  C  C177  1  0.65941054  0.04285582  0.13953541  1.0
  C  C178  1  0.20258965  0.13965559  0.45714886  1.0
  C  C179  1  0.84145950  0.45720095  0.36041563  1.0
  C  C180  1  0.49136915  0.69639191  0.98198501  1.0
  C  C181  1  0.68687978  0.98205017  0.80360166  1.0
  C  C182  1  0.16920909  0.80355229  0.51792337  1.0
  C  C183  1  0.47339161  0.51788362  0.69638993  1.0
  C  C184  1  0.50862840  0.30360783  0.01801512  1.0
  C  C185  1  0.31311568  0.01794994  0.19639707  1.0
  C  C186  1  0.83079031  0.19644746  0.48207565  1.0
  C  C187  1  0.52661103  0.48211721  0.30361045  1.0
  C  C188  1  0.67197122  0.71151300  0.00762358  1.0
  C  C189  1  0.88258734  0.00768794  0.78847763  1.0
  C  C190  1  0.39079423  0.78852184  0.49233243  1.0
  C  C191  1  0.67958360  0.49221532  0.71149649  1.0
  C  C192  1  0.32802820  0.28848674  0.99237615  1.0
  C  C193  1  0.11741225  0.99231144  0.21152247  1.0
  C  C194  1  0.60920635  0.21147935  0.50766799  1.0
  C  C195  1  0.32041548  0.50778515  0.28850432  1.0
  N  N196  1  0.18563733  0.55964551  0.99005812  1.0
  N  N197  1  0.24543221  0.99003499  0.94040586  1.0
  N  N198  1  0.73491729  0.94032795  0.51000682  1.0
  N  N199  1  0.17594961  0.50998875  0.55960375  1.0
  N  N200  1  0.81435424  0.44035495  0.00994248  1.0
  N  N201  1  0.75457265  0.00996511  0.05959449  1.0
  N  N202  1  0.26508472  0.05967035  0.48999288  1.0
  N  N203  1  0.82404795  0.49001099  0.44039710  1.0
  O  O204  1  0.87806021  0.93662868  0.98889339  1.0
  O  O205  1  0.31445664  0.98887731  0.56339277  1.0
  O  O206  1  0.80367202  0.56340745  0.51112141  1.0
  O  O207  1  0.86747716  0.51107281  0.93655763  1.0
  O  O208  1  0.12194127  0.06337070  0.01110703  1.0
  O  O209  1  0.68558575  0.01112279  0.43660902  1.0
  O  O210  1  0.19632554  0.43659229  0.48887980  1.0
  O  O211  1  0.13252431  0.48892657  0.06344171  1.0
  O  O212  1  0.15988430  0.91235489  0.04173486  1.0
  O  O213  1  0.57110755  0.04187064  0.58768974  1.0
  O  O214  1  0.11332347  0.58766555  0.45812796  1.0
  O  O215  1  0.20182806  0.45814759  0.91239191  1.0
  O  O216  1  0.84012841  0.08764449  0.95826354  1.0
  O  O217  1  0.42889800  0.95813563  0.41231198  1.0
  O  O218  1  0.88667766  0.41233456  0.54187354  1.0
  O  O219  1  0.79817360  0.54185143  0.08760815  1.0
