# generated using pymatgen
data_Zn4H16C21O13
_symmetry_space_group_name_H-M   'P 1'
_cell_length_a   10.82549552
_cell_length_b   10.88614990
_cell_length_c   10.90885751
_cell_angle_alpha   80.40482827
_cell_angle_beta   76.45561405
_cell_angle_gamma   88.48811834
_symmetry_Int_Tables_number   1
_chemical_formula_structural   Zn4H16C21O13
_chemical_formula_sum   'Zn4 H16 C21 O13'
_cell_volume   1232.24052955
_cell_formula_units_Z   1
loop_
 _symmetry_equiv_pos_site_id
 _symmetry_equiv_pos_as_xyz
  1  'x, y, z'
loop_
 _atom_site_type_symbol
 _atom_site_label
 _atom_site_symmetry_multiplicity
 _atom_site_fract_x
 _atom_site_fract_y
 _atom_site_fract_z
 _atom_site_occupancy
  Zn  Zn0  1  0.40431759  0.60968798  0.39236230  1.0
  Zn  Zn1  1  0.63463465  0.41678876  0.37227748  1.0
  Zn  Zn2  1  0.39874389  0.37939110  0.62232127  1.0
  Zn  Zn3  1  0.59201570  0.60203748  0.57824366  1.0
  H  H4  1  0.47084670  0.02292741  0.35541393  1.0
  H  H5  1  0.86766262  0.45610953  0.70967255  1.0
  H  H6  1  0.90126140  0.31173583  0.65899591  1.0
  H  H7  1  0.19533954  0.52151472  0.96703248  1.0
  H  H8  1  0.00113960  0.43153744  0.12371824  1.0
  H  H9  1  0.01892461  0.27072150  0.30833853  1.0
  H  H10  1  0.23309514  0.19856756  0.33650178  1.0
  H  H11  1  0.42739541  0.28952806  0.18083246  1.0
  H  H12  1  0.55786004  0.98262661  0.60972410  1.0
  H  H13  1  0.04685591  0.55444047  0.36826355  1.0
  H  H14  1  0.62311896  0.55203962  0.94689735  1.0
  H  H15  1  0.83577415  0.37294902  0.94546917  1.0
  H  H16  1  0.84594163  0.22406867  0.89823337  1.0
  H  H17  1  0.94497078  0.26220868  0.99544386  1.0
  H  H18  1  0.07382160  0.27541716  0.77363201  1.0
  H  H19  1  0.05822300  0.42532846  0.81422140  1.0
  C  C20  1  0.84539123  0.51111851  0.45834081  1.0
  C  C21  1  0.49996174  0.97402168  0.43960296  1.0
  C  C22  1  0.53495830  0.03472974  0.52350596  1.0
  C  C23  1  0.03025369  0.45997885  0.55755281  1.0
  C  C24  1  0.94629919  0.39269533  0.68086230  1.0
  C  C25  1  0.00446678  0.34859153  0.79565055  1.0
  C  C26  1  0.90226978  0.29956967  0.91520642  1.0
  C  C27  1  0.32468127  0.41313386  0.06440739  1.0
  C  C28  1  0.20367567  0.45070022  0.04796731  1.0
  C  C29  1  0.09466896  0.40007768  0.13579271  1.0
  C  C30  1  0.10470712  0.30949986  0.23999903  1.0
  C  C31  1  0.98312504  0.51143269  0.45728923  1.0
  C  C32  1  0.22455874  0.26987357  0.25596368  1.0
  C  C33  1  0.33377822  0.32139386  0.16888436  1.0
  C  C34  1  0.44116608  0.47175483  0.97664262  1.0
  C  C35  1  0.53645245  0.51784968  0.01692796  1.0
  C  C36  1  0.17150806  0.46945531  0.53736228  1.0
  C  C37  1  0.53483572  0.52349088  0.15233527  1.0
  C  C38  1  0.45971628  0.47791698  0.83485394  1.0
  C  C39  1  0.53416039  0.17263588  0.51222758  1.0
  C  C40  1  0.49450200  0.83587272  0.45972679  1.0
  O  O41  1  0.50802096  0.50026216  0.48957279  1.0
  O  O42  1  0.59064693  0.23659919  0.40594691  1.0
  O  O43  1  0.54665722  0.77729857  0.54563106  1.0
  O  O44  1  0.47582682  0.21368138  0.61299794  1.0
  O  O45  1  0.43806249  0.78749455  0.38835545  1.0
  O  O46  1  0.44430880  0.58182295  0.21384885  1.0
  O  O47  1  0.55105465  0.54672532  0.76335800  1.0
  O  O48  1  0.80896364  0.44103076  0.39022033  1.0
  O  O49  1  0.22793020  0.37829034  0.59034320  1.0
  O  O50  1  0.77685867  0.58327674  0.52602197  1.0
  O  O51  1  0.22477844  0.56887970  0.46770661  1.0
  O  O52  1  0.62836907  0.47151996  0.19284412  1.0
  O  O53  1  0.38332523  0.41382125  0.79679794  1.0
