# generated using pymatgen
data_ZnSiC8S4(N2F5)2
_symmetry_space_group_name_H-M   'P 1'
_cell_length_a   7.77882866
_cell_length_b   8.93619962
_cell_length_c   8.93629762
_cell_angle_alpha   96.84435148
_cell_angle_beta   94.99288616
_cell_angle_gamma   94.99228601
_symmetry_Int_Tables_number   1
_chemical_formula_structural   ZnSiC8S4(N2F5)2
_chemical_formula_sum   'Zn1 Si1 C8 S4 N4 F10'
_cell_volume   611.43730857
_cell_formula_units_Z   1
loop_
 _symmetry_equiv_pos_site_id
 _symmetry_equiv_pos_as_xyz
  1  'x, y, z'
loop_
 _atom_site_type_symbol
 _atom_site_label
 _atom_site_symmetry_multiplicity
 _atom_site_fract_x
 _atom_site_fract_y
 _atom_site_fract_z
 _atom_site_occupancy
  Zn  Zn0  1  0.50000167  0.50000274  0.49999826  1.0
  Si  Si1  1  0.00000004  0.50000439  0.49999926  1.0
  C  C2  1  0.36816429  0.45399272  0.14347429  1.0
  C  C3  1  0.63184349  0.54600207  0.85652377  1.0
  C  C4  1  0.58781196  0.52644572  0.00393694  1.0
  C  C5  1  0.41219402  0.47354412  0.99605636  1.0
  C  C6  1  0.36816879  0.14347600  0.45398318  1.0
  C  C7  1  0.63182202  0.85651874  0.54602316  1.0
  C  C8  1  0.58778470  0.00393698  0.52645664  1.0
  C  C9  1  0.41221095  0.99605809  0.47354736  1.0
  S  S10  1  0.68321616  0.54540746  0.18688253  1.0
  S  S11  1  0.31678696  0.45459448  0.81311153  1.0
  S  S12  1  0.68321013  0.18688360  0.54542556  1.0
  S  S13  1  0.31678092  0.81310956  0.45457278  1.0
  N  N14  1  0.49590458  0.48799906  0.25288421  1.0
  N  N15  1  0.50409967  0.51200293  0.74710869  1.0
  N  N16  1  0.49590593  0.25288812  0.48799859  1.0
  N  N17  1  0.50408421  0.74710853  0.51200336  1.0
  F  F18  1  0.23262288  0.49008039  0.49006698  1.0
  F  F19  1  0.76737982  0.50993951  0.50992812  1.0
  F  F20  1  0.00000582  0.37337800  0.62662138  1.0
  F  F21  1  0.99999230  0.62663716  0.37337693  1.0
  F  F22  1  0.04786040  0.64188587  0.64187397  1.0
  F  F23  1  0.95213605  0.35812555  0.35812078  1.0
  F  F24  1  0.21095045  0.40315961  0.17256406  1.0
  F  F25  1  0.78906274  0.59683127  0.82743478  1.0
  F  F26  1  0.21094806  0.17256545  0.40313081  1.0
  F  F27  1  0.78903886  0.82742833  0.59688460  1.0
