# generated using pymatgen
data_Zn3H4C18(ClO3)4
_symmetry_space_group_name_H-M   'P 1'
_cell_length_a   19.16185683
_cell_length_b   19.16229879
_cell_length_c   19.60842207
_cell_angle_alpha   109.35153892
_cell_angle_beta   109.35114752
_cell_angle_gamma   103.66875202
_symmetry_Int_Tables_number   1
_chemical_formula_structural   Zn3H4C18(ClO3)4
_chemical_formula_sum   'Zn6 H8 C36 Cl8 O24'
_cell_volume   5905.10650586
_cell_formula_units_Z   2
loop_
 _symmetry_equiv_pos_site_id
 _symmetry_equiv_pos_as_xyz
  1  'x, y, z'
loop_
 _atom_site_type_symbol
 _atom_site_label
 _atom_site_symmetry_multiplicity
 _atom_site_fract_x
 _atom_site_fract_y
 _atom_site_fract_z
 _atom_site_occupancy
  Zn  Zn0  1  0.94495685  0.50249976  0.94129716  1.0
  Zn  Zn1  1  0.94943815  0.94944020  0.50791826  1.0
  Zn  Zn2  1  0.05056021  0.05056133  0.49208018  1.0
  Zn  Zn3  1  0.05504715  0.49750214  0.05870538  1.0
  Zn  Zn4  1  0.49749891  0.05504253  0.05870041  1.0
  Zn  Zn5  1  0.50249751  0.94495552  0.94129363  1.0
  H  H6  1  0.97454983  0.16281905  0.71647272  1.0
  H  H7  1  0.04190607  0.65026687  0.26719305  1.0
  H  H8  1  0.65026136  0.04189777  0.26718684  1.0
  H  H9  1  0.34973711  0.95809627  0.73281468  1.0
  H  H10  1  0.95810180  0.34973438  0.73282488  1.0
  H  H11  1  0.02543343  0.83717048  0.28352512  1.0
  H  H12  1  0.83717549  0.02544454  0.28352304  1.0
  H  H13  1  0.16282722  0.97456571  0.71647069  1.0
  C  C14  1  0.01188100  0.39326806  0.88720119  1.0
  C  C15  1  0.89162481  0.38830972  0.99817193  1.0
  C  C16  1  0.38830441  0.89162813  0.99816889  1.0
  C  C17  1  0.61169203  0.10836704  0.00181958  1.0
  C  C18  1  0.10836171  0.61169615  0.00181476  1.0
  C  C19  1  0.16868470  0.67246074  0.00158416  1.0
  C  C20  1  0.83130400  0.32754253  0.99840544  1.0
  C  C21  1  0.32752848  0.83129647  0.99840284  1.0
  C  C22  1  0.98813834  0.60672997  0.11281548  1.0
  C  C23  1  0.67245806  0.16868718  0.00158594  1.0
  C  C24  1  0.21986285  0.72379154  0.00054713  1.0
  C  C25  1  0.78014449  0.27621665  0.99945004  1.0
  C  C26  1  0.27620880  0.78013668  0.99944078  1.0
  C  C27  1  0.72379072  0.21986074  0.00055206  1.0
  C  C28  1  0.60672520  0.98812610  0.11280996  1.0
  C  C29  1  0.99744010  0.25512871  0.68316663  1.0
  C  C30  1  0.00255891  0.74486692  0.31684125  1.0
  C  C31  1  0.74486903  0.00255890  0.31683846  1.0
  C  C32  1  0.25513579  0.99744198  0.68315789  1.0
  C  C33  1  0.39326907  0.01187654  0.88719359  1.0
  C  C34  1  0.98946029  0.18021334  0.67390802  1.0
  C  C35  1  0.01052720  0.81977845  0.32609306  1.0
  C  C36  1  0.81978398  0.01053479  0.32608998  1.0
  C  C37  1  0.18022211  0.98947292  0.67390404  1.0
  C  C38  1  0.99071586  0.31323718  0.74827959  1.0
  C  C39  1  0.00929141  0.68675989  0.25173518  1.0
  C  C40  1  0.68675794  0.00928498  0.25172674  1.0
  C  C41  1  0.31324218  0.99071409  0.74827095  1.0
  C  C42  1  0.02366453  0.33008691  0.82735933  1.0
  C  C43  1  0.97634752  0.66990698  0.17265598  1.0
  C  C44  1  0.66990772  0.97634239  0.17264707  1.0
  C  C45  1  0.33009065  0.02366042  0.82735028  1.0
  C  C46  1  0.11545758  0.99313707  0.61008729  1.0
  C  C47  1  0.88455631  0.00688012  0.38991265  1.0
  C  C48  1  0.00686529  0.88454425  0.38991306  1.0
  C  C49  1  0.99311797  0.11544528  0.61008478  1.0
  Cl  Cl50  1  0.01175473  0.29033466  0.61617227  1.0
  Cl  Cl51  1  0.91693140  0.71446162  0.13280047  1.0
  Cl  Cl52  1  0.71446586  0.91692994  0.13279630  1.0
  Cl  Cl53  1  0.28553258  0.08307673  0.86719627  1.0
  Cl  Cl54  1  0.08307905  0.28553075  0.86720714  1.0
  Cl  Cl55  1  0.98825689  0.70966895  0.38384674  1.0
  Cl  Cl56  1  0.70966869  0.98824860  0.38383722  1.0
  Cl  Cl57  1  0.29033981  0.01174245  0.61615702  1.0
  O  O58  1  0.95940846  0.41945093  0.85817732  1.0
  O  O59  1  0.94512504  0.58438594  0.03817398  1.0
  O  O60  1  0.58438779  0.94512034  0.03816499  1.0
  O  O61  1  0.41560541  0.05488490  0.96183551  1.0
  O  O62  1  0.05489152  0.41560705  0.96184715  1.0
  O  O63  1  0.03613546  0.58981650  0.95011181  1.0
  O  O64  1  0.96384777  0.41018693  0.04987598  1.0
  O  O65  1  0.41017933  0.96385259  0.04987100  1.0
  O  O66  1  0.04061031  0.58055251  0.14184305  1.0
  O  O67  1  0.58982025  0.03614488  0.95012035  1.0
  O  O68  1  0.13294123  0.58554610  0.05355693  1.0
  O  O69  1  0.86704669  0.41445660  0.94643170  1.0
  O  O70  1  0.41445055  0.86704494  0.94642272  1.0
  O  O71  1  0.58555042  0.13294520  0.05356660  1.0
  O  O72  1  0.58054295  0.04059696  0.14183271  1.0
  O  O73  1  0.04431321  0.95046146  0.59394944  1.0
  O  O74  1  0.95569829  0.04954821  0.40603894  1.0
  O  O75  1  0.04954047  0.95568641  0.40604767  1.0
  O  O76  1  0.95045048  0.04430328  0.59395848  1.0
  O  O77  1  0.41945268  0.95940754  0.85816990  1.0
  O  O78  1  0.13383170  0.03812768  0.57787612  1.0
  O  O79  1  0.86618245  0.96189843  0.42213206  1.0
  O  O80  1  0.96187539  0.86616876  0.42212592  1.0
  O  O81  1  0.03809803  0.13381817  0.57786358  1.0
