# generated using pymatgen
data_Zn3H21C30N14(O2F)3
_symmetry_space_group_name_H-M   'P 1'
_cell_length_a   12.89473616
_cell_length_b   12.89474192
_cell_length_c   12.89470050
_cell_angle_alpha   108.35983832
_cell_angle_beta   108.35990335
_cell_angle_gamma   108.35986675
_symmetry_Int_Tables_number   1
_chemical_formula_structural   Zn3H21C30N14(O2F)3
_chemical_formula_sum   'Zn3 H21 C30 N14 O6 F3'
_cell_volume   1715.04761893
_cell_formula_units_Z   1
loop_
 _symmetry_equiv_pos_site_id
 _symmetry_equiv_pos_as_xyz
  1  'x, y, z'
loop_
 _atom_site_type_symbol
 _atom_site_label
 _atom_site_symmetry_multiplicity
 _atom_site_fract_x
 _atom_site_fract_y
 _atom_site_fract_z
 _atom_site_occupancy
  Zn  Zn0  1  0.03014428  0.03014581  0.03014509  1.0
  Zn  Zn1  1  0.28741097  0.28741180  0.28741037  1.0
  Zn  Zn2  1  0.78101887  0.78101906  0.78101801  1.0
  H  H3  1  0.43331194  0.34902191  0.54954266  1.0
  H  H4  1  0.60859365  0.52372708  0.72305342  1.0
  H  H5  1  0.54954250  0.43331088  0.34902097  1.0
  H  H6  1  0.72305207  0.60859442  0.52372584  1.0
  H  H7  1  0.34902264  0.54954287  0.43331118  1.0
  H  H8  1  0.52372710  0.72305332  0.60859409  1.0
  H  H9  1  0.54954250  0.34902182  0.43331245  1.0
  H  H10  1  0.72305279  0.52372791  0.60859427  1.0
  H  H11  1  0.34902252  0.43331196  0.54954204  1.0
  H  H12  1  0.52372657  0.60859368  0.72305323  1.0
  H  H13  1  0.43331249  0.54954281  0.34902151  1.0
  H  H14  1  0.60859348  0.72305324  0.52372663  1.0
  H  H15  1  0.20457375  0.20457281  0.64117602  1.0
  H  H16  1  0.82677550  0.82677628  0.49603168  1.0
  H  H17  1  0.87900641  0.87900544  0.34225759  1.0
  H  H18  1  0.64117317  0.20457153  0.20457250  1.0
  H  H19  1  0.49603268  0.82677654  0.82677573  1.0
  H  H20  1  0.34225839  0.87900492  0.87900393  1.0
  H  H21  1  0.20457199  0.64117500  0.20457378  1.0
  H  H22  1  0.82677723  0.49603258  0.82677607  1.0
  H  H23  1  0.87900505  0.34225863  0.87900507  1.0
  C  C24  1  0.07776405  0.07776371  0.39298470  1.0
  C  C25  1  0.04508043  0.04507873  0.48086115  1.0
  C  C26  1  0.12114793  0.12114672  0.60751376  1.0
  C  C27  1  0.09022555  0.09022355  0.69129033  1.0
  C  C28  1  0.98401233  0.98401110  0.65408023  1.0
  C  C29  1  0.90945056  0.90944959  0.52625798  1.0
  C  C30  1  0.93813699  0.93813520  0.44059426  1.0
  C  C31  1  0.94668018  0.94667842  0.74046642  1.0
  C  C32  1  0.43552676  0.43552602  0.55198682  1.0
  C  C33  1  0.54957646  0.54957749  0.66528069  1.0
  C  C34  1  0.39298228  0.07776251  0.07776049  1.0
  C  C35  1  0.48085808  0.04507744  0.04507795  1.0
  C  C36  1  0.60751269  0.12114726  0.12114873  1.0
  C  C37  1  0.69128981  0.09022492  0.09022674  1.0
  C  C38  1  0.65407949  0.98401226  0.98401297  1.0
  C  C39  1  0.52625788  0.90944804  0.90944958  1.0
  C  C40  1  0.44059316  0.93813465  0.93813567  1.0
  C  C41  1  0.74046961  0.94668135  0.94668136  1.0
  C  C42  1  0.55198753  0.43552685  0.43552674  1.0
  C  C43  1  0.66528002  0.54957740  0.54957696  1.0
  C  C44  1  0.07776224  0.39298407  0.07776314  1.0
  C  C45  1  0.04507822  0.48085999  0.04507935  1.0
  C  C46  1  0.12114682  0.60751304  0.12114925  1.0
  C  C47  1  0.09022370  0.69128934  0.09022515  1.0
  C  C48  1  0.98401169  0.65408016  0.98401161  1.0
  C  C49  1  0.90944937  0.52625995  0.90944927  1.0
  C  C50  1  0.93813573  0.44059363  0.93813561  1.0
  C  C51  1  0.94667977  0.74046808  0.94667816  1.0
  C  C52  1  0.43552652  0.55198773  0.43552587  1.0
  C  C53  1  0.54957738  0.66528073  0.54957712  1.0
  N  N54  1  0.07409501  0.07409819  0.22610168  1.0
  N  N55  1  0.17415685  0.17415853  0.32126426  1.0
  N  N56  1  0.17945919  0.17945768  0.42725247  1.0
  N  N57  1  0.01180684  0.01180817  0.26870935  1.0
  N  N58  1  0.22610060  0.07409806  0.07409372  1.0
  N  N59  1  0.32126354  0.17415841  0.17415558  1.0
  N  N60  1  0.42725156  0.17945837  0.17945562  1.0
  N  N61  1  0.26870802  0.01180795  0.01180464  1.0
  N  N62  1  0.07409488  0.22609946  0.07409696  1.0
  N  N63  1  0.17415504  0.32126230  0.17415718  1.0
  N  N64  1  0.17945675  0.42725093  0.17945791  1.0
  N  N65  1  0.01180472  0.26870759  0.01180571  1.0
  N  N66  1  0.43661620  0.43661608  0.43661514  1.0
  N  N67  1  0.62472824  0.62472872  0.62472801  1.0
  O  O68  1  0.01088811  0.01088376  0.85484918  1.0
  O  O69  1  0.84537368  0.84537145  0.68624223  1.0
  O  O70  1  0.85484874  0.01089044  0.01089035  1.0
  O  O71  1  0.68624509  0.84537525  0.84537401  1.0
  O  O72  1  0.01088788  0.85485079  0.01088436  1.0
  O  O73  1  0.84537407  0.68624525  0.84537221  1.0
  F  F74  1  0.16791553  0.16791125  0.81232726  1.0
  F  F75  1  0.81232649  0.16791166  0.16791528  1.0
  F  F76  1  0.16791417  0.81232492  0.16791527  1.0
