# generated using pymatgen
data_Al6H80C105O34
_symmetry_space_group_name_H-M   'P 1'
_cell_length_a   13.13345876
_cell_length_b   13.25652507
_cell_length_c   27.50008750
_cell_angle_alpha   90.58122845
_cell_angle_beta   90.38631433
_cell_angle_gamma   119.02654615
_symmetry_Int_Tables_number   1
_chemical_formula_structural   Al6H80C105O34
_chemical_formula_sum   'Al6 H80 C105 O34'
_cell_volume   4185.90678264
_cell_formula_units_Z   1
loop_
 _symmetry_equiv_pos_site_id
 _symmetry_equiv_pos_as_xyz
  1  'x, y, z'
loop_
 _atom_site_type_symbol
 _atom_site_label
 _atom_site_symmetry_multiplicity
 _atom_site_fract_x
 _atom_site_fract_y
 _atom_site_fract_z
 _atom_site_occupancy
  Al  Al0  1  0.41286873  0.56345850  0.49786256  1.0
  Al  Al1  1  0.17910139  0.58331435  0.49737009  1.0
  Al  Al2  1  0.40646072  0.80269038  0.49903430  1.0
  Al  Al3  1  0.91475879  0.08390773  0.98490222  1.0
  Al  Al4  1  0.15358577  0.07183621  0.98174950  1.0
  Al  Al5  1  0.93006213  0.84898710  0.98487814  1.0
  H  H6  1  0.35907141  0.94630987  0.19202271  1.0
  H  H7  1  0.60309808  0.66363458  0.19257112  1.0
  H  H8  1  0.01206347  0.32492655  0.18803687  1.0
  H  H9  1  0.33822340  0.79669889  0.27131721  1.0
  H  H10  1  0.48235239  0.70199538  0.27145108  1.0
  H  H11  1  0.13544816  0.47721018  0.26967005  1.0
  H  H12  1  0.31382903  0.79750227  0.18720370  1.0
  H  H13  1  0.52445718  0.73980499  0.18901164  1.0
  H  H14  1  0.15048458  0.44968990  0.18706731  1.0
  H  H15  1  0.99501592  0.69536532  0.19687309  1.0
  H  H16  1  0.77724130  0.03070420  0.21239893  1.0
  H  H17  1  0.31747619  0.29195736  0.21084683  1.0
  H  H18  1  0.30322834  0.00654126  0.86357274  1.0
  H  H19  1  0.72834230  0.68576929  0.86222819  1.0
  H  H20  1  0.96959584  0.25133739  0.85968148  1.0
  H  H21  1  0.37434430  0.93408533  0.62413502  1.0
  H  H22  1  0.56936610  0.61801958  0.62373466  1.0
  H  H23  1  0.03293255  0.41456166  0.62389284  1.0
  H  H24  1  0.42968715  0.06323729  0.79049860  1.0
  H  H25  1  0.66497681  0.56364949  0.78670011  1.0
  H  H26  1  0.89908826  0.31283892  0.78719430  1.0
  H  H27  1  0.45378186  0.03957308  0.70272233  1.0
  H  H28  1  0.61052083  0.54041703  0.69917691  1.0
  H  H29  1  0.92058400  0.36980795  0.70071986  1.0
  H  H30  1  0.95585370  0.71897756  0.85559261  1.0
  H  H31  1  0.75360662  0.02111657  0.86375310  1.0
  H  H32  1  0.27028780  0.20467661  0.84950982  1.0
  H  H33  1  0.87705089  0.61209239  0.77705126  1.0
  H  H34  1  0.71550471  0.09996051  0.78794406  1.0
  H  H35  1  0.37149732  0.23143165  0.77026778  1.0
  H  H36  1  0.90180781  0.58711426  0.68952124  1.0
  H  H37  1  0.66305834  0.07763662  0.70027540  1.0
  H  H38  1  0.39322682  0.28865929  0.68388982  1.0
  H  H39  1  0.36657907  0.94075026  0.27709942  1.0
  H  H40  1  0.57667730  0.64300909  0.27674082  1.0
  H  H41  1  0.00167367  0.34803152  0.27230037  1.0
  H  H42  1  0.02794853  0.64492466  0.61617112  1.0
  H  H43  1  0.59797520  0.95473810  0.62484935  1.0
  H  H44  1  0.33294620  0.36677948  0.61344384  1.0
  H  H45  1  0.20755170  0.98627467  0.29347205  1.0
  H  H46  1  0.78208806  0.76217099  0.30084278  1.0
  H  H47  1  0.99511928  0.16310172  0.29134178  1.0
  H  H48  1  0.20829334  0.00962856  0.21013939  1.0
  H  H49  1  0.82184572  0.77507905  0.21861295  1.0
  H  H50  1  0.99518097  0.13053860  0.20838839  1.0
  H  H51  1  0.05776512  0.90741330  0.20916615  1.0
  H  H52  1  0.89063214  0.92691710  0.22473130  1.0
  H  H53  1  0.12245687  0.11846022  0.21686149  1.0
  H  H54  1  0.12519375  0.63437016  0.26613773  1.0
  H  H55  1  0.57166046  0.92393912  0.27467844  1.0
  H  H56  1  0.32585692  0.47115332  0.27620174  1.0
  H  H57  1  0.01138064  0.66592334  0.27913832  1.0
  H  H58  1  0.71873695  0.01077301  0.29345087  1.0
  H  H59  1  0.32468664  0.34157620  0.29250338  1.0
  H  H60  1  0.01540550  0.92588465  0.29987589  1.0
  H  H61  1  0.85293141  0.93408594  0.34397200  1.0
  H  H62  1  0.14367138  0.15626180  0.33664995  1.0
  H  H63  1  0.08841357  0.54705753  0.11639217  1.0
  H  H64  1  0.02855184  0.64165271  0.11643549  1.0
  H  H65  1  0.92877995  0.41320326  0.17099489  1.0
  H  H66  1  0.86899468  0.50677451  0.17087287  1.0
  H  H67  1  0.83394850  0.47754717  0.08008624  1.0
  H  H68  1  0.76497331  0.34282611  0.10973486  1.0
  H  H69  1  0.89818470  0.38651692  0.07920168  1.0
  H  H70  1  0.56156987  0.05530653  0.14928291  1.0
  H  H71  1  0.71360591  0.11883120  0.16178328  1.0
  H  H72  1  0.52648942  0.07311631  0.23809328  1.0
  H  H73  1  0.67766004  0.14101909  0.25005946  1.0
  H  H74  1  0.71084736  0.30350099  0.19506909  1.0
  H  H75  1  0.60886958  0.28716334  0.24044728  1.0
  H  H76  1  0.56038877  0.23499532  0.18025014  1.0
  H  H77  1  0.46542845  0.53492923  0.13813443  1.0
  H  H78  1  0.39035281  0.38225056  0.13221158  1.0
  H  H79  1  0.56066260  0.50965745  0.21633608  1.0
  H  H80  1  0.50343596  0.36381483  0.19989435  1.0
  H  H81  1  0.61220980  0.41939057  0.12060453  1.0
  H  H82  1  0.70826874  0.47941757  0.17107656  1.0
  H  H83  1  0.66894603  0.56739135  0.13613113  1.0
  H  H84  1  0.52585454  0.48250791  0.46935873  1.0
  H  H85  1  0.81579813  0.17739699  0.01582899  1.0
  C  C86  1  0.54393044  0.76804018  0.43195461  1.0
  C  C87  1  0.20516592  0.44203803  0.42937644  1.0
  C  C88  1  0.22915521  0.76181998  0.42856318  1.0
  C  C89  1  0.08343094  0.71067478  0.20599492  1.0
  C  C90  1  0.69394119  0.95049472  0.21736429  1.0
  C  C91  1  0.28128730  0.35077309  0.21632801  1.0
  C  C92  1  0.09548352  0.69801951  0.26115367  1.0
  C  C93  1  0.65960660  0.93476355  0.27157821  1.0
  C  C94  1  0.27945302  0.37710828  0.27081654  1.0
  C  C95  1  0.16185029  0.85395007  0.13950569  1.0
  C  C96  1  0.73941601  0.85802225  0.14894636  1.0
  C  C97  1  0.15403797  0.26678010  0.14411592  1.0
  C  C98  1  0.19473127  0.79995824  0.33728355  1.0
  C  C99  1  0.62973931  0.81400335  0.34333141  1.0
  C  C100  1  0.15641491  0.35396444  0.34035236  1.0
  C  C101  1  0.20643797  0.78704771  0.38033192  1.0
  C  C102  1  0.60102653  0.80032246  0.38570778  1.0
  C  C103  1  0.16893462  0.38304003  0.38298747  1.0
  C  C104  1  0.10245305  0.18877797  0.91058030  1.0
  C  C105  1  0.10706264  0.88874443  0.91507540  1.0
  C  C106  1  0.79012907  0.87755343  0.91800479  1.0
  C  C107  1  0.12547772  0.20671458  0.05119028  1.0
  C  C108  1  0.11868875  0.89574215  0.05002101  1.0
  C  C109  1  0.80780904  0.89123432  0.05742081  1.0
  C  C110  1  0.29250847  0.87861886  0.64209141  1.0
  C  C111  1  0.59022285  0.69706364  0.64391515  1.0
  C  C112  1  0.09079169  0.38740085  0.64087230  1.0
  C  C113  1  0.27968777  0.89474186  0.69165631  1.0
  C  C114  1  0.62319493  0.70948533  0.69303474  1.0
  C  C115  1  0.07353179  0.34988668  0.68907530  1.0
  C  C116  1  0.25122652  0.92276529  0.79283358  1.0
  C  C117  1  0.68632454  0.73645730  0.79354696  1.0
  C  C118  1  0.04864371  0.28420950  0.78849214  1.0
  C  C119  1  0.53295400  0.76185086  0.56950685  1.0
  C  C120  1  0.21142458  0.44799292  0.56574523  1.0
  C  C121  1  0.22439813  0.76513669  0.56463851  1.0
  C  C122  1  0.35839600  0.99641090  0.76887408  1.0
  C  C123  1  0.66067356  0.63276164  0.76711487  1.0
  C  C124  1  0.96899271  0.31438572  0.76541799  1.0
  C  C125  1  0.37177152  0.98328928  0.72046874  1.0
  C  C126  1  0.63059945  0.61984973  0.71896172  1.0
  C  C127  1  0.98082665  0.34572858  0.71782048  1.0
  C  C128  1  0.23424778  0.93702438  0.84215591  1.0
  C  C129  1  0.71962642  0.75247832  0.84276046  1.0
  C  C130  1  0.03940349  0.25401285  0.83753585  1.0
  C  C131  1  0.12823879  0.86391583  0.86438464  1.0
  C  C132  1  0.74358454  0.85469291  0.86733339  1.0
  C  C133  1  0.11963540  0.22664170  0.85913009  1.0
  C  C134  1  0.09656595  0.71483802  0.63756292  1.0
  C  C135  1  0.60630210  0.88787346  0.64437872  1.0
  C  C136  1  0.26080849  0.36023240  0.63511377  1.0
  C  C137  1  0.07958759  0.72887449  0.68693770  1.0
  C  C138  1  0.64050622  0.90431494  0.69349337  1.0
  C  C139  1  0.24631392  0.32154506  0.68307333  1.0
  C  C140  1  0.17233787  0.81903556  0.71466406  1.0
  C  C141  1  0.64782113  0.81372701  0.71846427  1.0
  C  C142  1  0.15298333  0.31810661  0.71087570  1.0
  C  C143  1  0.97272195  0.65474842  0.71099715  1.0
  C  C144  1  0.66662057  0.00819352  0.71988624  1.0
  C  C145  1  0.32391095  0.28810708  0.70576287  1.0
  C  C146  1  0.95905111  0.66848867  0.75934005  1.0
  C  C147  1  0.69580491  0.02070110  0.76812340  1.0
  C  C148  1  0.31205830  0.25680294  0.75339246  1.0
  C  C149  1  0.05080254  0.75755058  0.78811368  1.0
  C  C150  1  0.70263691  0.93085544  0.79413077  1.0
  C  C151  1  0.22151331  0.25604343  0.78257630  1.0
  C  C152  1  0.30535862  0.85580474  0.26133273  1.0
  C  C153  1  0.57069464  0.71799268  0.26344605  1.0
  C  C154  1  0.09224424  0.38493967  0.26020958  1.0
  C  C155  1  0.15821869  0.83297289  0.76508197  1.0
  C  C156  1  0.67884038  0.82697073  0.76860680  1.0
  C  C157  1  0.14074954  0.28564910  0.76046235  1.0
  C  C158  1  0.03784573  0.77412895  0.83766289  1.0
  C  C159  1  0.73392807  0.94255814  0.84344029  1.0
  C  C160  1  0.20981083  0.22759831  0.83195262  1.0
  C  C161  1  0.20228359  0.78877547  0.61532182  1.0
  C  C162  1  0.58046830  0.78483373  0.62003831  1.0
  C  C163  1  0.18472195  0.39441516  0.61450978  1.0
  C  C164  1  0.14531728  0.90419324  0.27567558  1.0
  C  C165  1  0.78173616  0.83839231  0.28538572  1.0
  C  C166  1  0.08491040  0.19677870  0.27830633  1.0
  C  C167  1  0.14428373  0.92113141  0.21996810  1.0
  C  C168  1  0.80875268  0.84704743  0.23078771  1.0
  C  C169  1  0.08450224  0.17508160  0.22319438  1.0
  C  C170  1  0.14882976  0.87151286  0.09712742  1.0
  C  C171  1  0.76480939  0.86606567  0.10622220  1.0
  C  C172  1  0.15076937  0.24817576  0.10062280  1.0
  C  C173  1  0.18497316  0.81355885  0.28533787  1.0
  C  C174  1  0.65945562  0.82688989  0.29232400  1.0
  C  C175  1  0.15313634  0.32870018  0.28882535  1.0
  C  C176  1  0.29590197  0.86103932  0.20543223  1.0
  C  C177  1  0.59501391  0.73517977  0.20857603  1.0
  C  C178  1  0.09897577  0.36702037  0.20509807  1.0
  C  C179  1  0.17206326  0.83643067  0.19099624  1.0
  C  C180  1  0.70988024  0.84770274  0.20002115  1.0
  C  C181  1  0.15485320  0.28964426  0.19576468  1.0
  C  C182  1  0.03716609  0.57645908  0.13789464  1.0
  C  C183  1  0.91768282  0.47549724  0.14860763  1.0
  C  C184  1  0.84995379  0.41743075  0.10188350  1.0
  C  C185  1  0.62612362  0.06684334  0.17759716  1.0
  C  C186  1  0.61215492  0.12873901  0.22206230  1.0
  C  C187  1  0.62368830  0.24496938  0.20882400  1.0
  C  C188  1  0.43331204  0.45453052  0.15857252  1.0
  C  C189  1  0.53357072  0.45005244  0.18480894  1.0
  C  C190  1  0.63618449  0.48072273  0.15131782  1.0
  O  O191  1  0.30738368  0.47051923  0.44336574  1.0
  O  O192  1  0.15380683  0.66627129  0.44689038  1.0
  O  O193  1  0.52312923  0.84311282  0.45323623  1.0
  O  O194  1  0.82929311  0.98819394  0.04109406  1.0
  O  O195  1  0.20130377  0.18809429  0.02895047  1.0
  O  O196  1  0.02043496  0.82078000  0.03156564  1.0
  O  O197  1  0.51495060  0.66781438  0.44652966  1.0
  O  O198  1  0.13205134  0.46497500  0.45128820  1.0
  O  O199  1  0.32577613  0.83410784  0.44896443  1.0
  O  O200  1  0.30554215  0.46570271  0.54637798  1.0
  O  O201  1  0.14845754  0.67158864  0.54365862  1.0
  O  O202  1  0.51485080  0.83962514  0.54937741  1.0
  O  O203  1  0.50897281  0.66591259  0.55022404  1.0
  O  O204  1  0.13893031  0.47722832  0.54729478  1.0
  O  O205  1  0.32147371  0.83632541  0.54562216  1.0
  O  O206  1  0.33219729  0.65089507  0.49753377  1.0
  O  O207  1  0.80954381  0.97149227  0.93785695  1.0
  O  O208  1  0.18297768  0.17382876  0.93108616  1.0
  O  O209  1  0.01145215  0.81754890  0.93500115  1.0
  O  O210  1  0.00853957  0.17008772  0.93037823  1.0
  O  O211  1  0.18318754  0.98382500  0.93503676  1.0
  O  O212  1  0.81316743  0.80247015  0.93772257  1.0
  O  O213  1  0.00071037  0.00060490  0.98442270  1.0
  O  O214  1  0.02806523  0.18731951  0.03421389  1.0
  O  O215  1  0.18892306  0.99215391  0.03099612  1.0
  O  O216  1  0.82411662  0.81410569  0.03509618  1.0
  O  O217  1  0.03310157  0.86233961  0.29607990  1.0
  O  O218  1  0.87059368  0.94089326  0.30932754  1.0
  O  O219  1  0.13753916  0.13714374  0.30198054  1.0
  O  O220  1  0.10526024  0.62779921  0.18142806  1.0
  O  O221  1  0.60674764  0.95326587  0.18714843  1.0
  O  O222  1  0.35028307  0.45645961  0.19165563  1.0
  O  O223  1  0.48662377  0.48282498  0.49891205  1.0
  O  O224  1  0.83702414  0.16087040  0.98434357  1.0
