# generated using pymatgen
data_Zn4H12C54O13F12
_symmetry_space_group_name_H-M   'P 1'
_cell_length_a   24.42019835
_cell_length_b   24.42015084
_cell_length_c   24.42016401
_cell_angle_alpha   60.00010805
_cell_angle_beta   60.00016659
_cell_angle_gamma   60.00017310
_symmetry_Int_Tables_number   1
_chemical_formula_structural   Zn4H12C54O13F12
_chemical_formula_sum   'Zn8 H24 C108 O26 F24'
_cell_volume   10297.51842082
_cell_formula_units_Z   2
loop_
 _symmetry_equiv_pos_site_id
 _symmetry_equiv_pos_as_xyz
  1  'x, y, z'
loop_
 _atom_site_type_symbol
 _atom_site_label
 _atom_site_symmetry_multiplicity
 _atom_site_fract_x
 _atom_site_fract_y
 _atom_site_fract_z
 _atom_site_occupancy
  Zn  Zn0  1  0.53283412  0.53283321  0.03283277  1.0
  Zn  Zn1  1  0.53283333  0.40149910  0.03283265  1.0
  Zn  Zn2  1  0.53283388  0.53283297  0.90149794  1.0
  Zn  Zn3  1  0.40149614  0.53283420  0.03283411  1.0
  Zn  Zn4  1  0.96716675  0.96716598  0.46716498  1.0
  Zn  Zn5  1  0.96716637  0.96716580  0.59850017  1.0
  Zn  Zn6  1  0.96716646  0.09850072  0.46716529  1.0
  Zn  Zn7  1  0.09850404  0.96716510  0.46716435  1.0
  H  H8  1  0.43647111  0.65156758  0.15156762  1.0
  H  H9  1  0.26039546  0.65156807  0.15156632  1.0
  H  H10  1  0.06353177  0.84843094  0.34843028  1.0
  H  H11  1  0.23960692  0.84843203  0.34843022  1.0
  H  H12  1  0.65156911  0.26039213  0.93646963  1.0
  H  H13  1  0.65156857  0.43646762  0.76039360  1.0
  H  H14  1  0.84843176  0.23960587  0.56352892  1.0
  H  H15  1  0.84843231  0.06352896  0.73960565  1.0
  H  H16  1  0.65156806  0.65156774  0.93646985  1.0
  H  H17  1  0.65156840  0.65156788  0.76039299  1.0
  H  H18  1  0.84843137  0.84843142  0.56352969  1.0
  H  H19  1  0.84843153  0.84843159  0.73960574  1.0
  H  H20  1  0.43646915  0.26039345  0.15156775  1.0
  H  H21  1  0.26039412  0.43646927  0.15156818  1.0
  H  H22  1  0.06353015  0.23960654  0.34842953  1.0
  H  H23  1  0.23960568  0.06353055  0.34843016  1.0
  H  H24  1  0.65156941  0.26039340  0.15156625  1.0
  H  H25  1  0.65156803  0.43646987  0.15156760  1.0
  H  H26  1  0.84843107  0.23960677  0.34843116  1.0
  H  H27  1  0.84843195  0.06353095  0.34843015  1.0
  H  H28  1  0.26039315  0.65156842  0.93646907  1.0
  H  H29  1  0.43646864  0.65156823  0.76039327  1.0
  H  H30  1  0.23960610  0.84843116  0.56352913  1.0
  H  H31  1  0.06353010  0.84843152  0.73960551  1.0
  C  C32  1  0.60468709  0.39531394  0.10468484  1.0
  C  C33  1  0.60468628  0.39531569  0.89530969  1.0
  C  C34  1  0.60468660  0.60468582  0.89531069  1.0
  C  C35  1  0.39531580  0.60468540  0.89531049  1.0
  C  C36  1  0.39531409  0.60468639  0.10468512  1.0
  C  C37  1  0.39531226  0.39531440  0.10468540  1.0
  C  C38  1  0.89531433  0.89531237  0.60468818  1.0
  C  C39  1  0.89531409  0.10468485  0.60468579  1.0
  C  C40  1  0.89531442  0.10468826  0.39531186  1.0
  C  C41  1  0.10468454  0.10468831  0.39531013  1.0
  C  C42  1  0.10468778  0.89531294  0.39531206  1.0
  C  C43  1  0.10468445  0.89531242  0.60468768  1.0
  C  C44  1  0.38204325  0.66786748  0.16786582  1.0
  C  C45  1  0.34201030  0.70841518  0.20841366  1.0
  C  C46  1  0.36998660  0.73022348  0.23022093  1.0
  C  C47  1  0.28222502  0.66786681  0.16786560  1.0
  C  C48  1  0.24116193  0.70841508  0.20841349  1.0
  C  C49  1  0.16957077  0.73022187  0.23022088  1.0
  C  C50  1  0.11796013  0.83213134  0.33213004  1.0
  C  C51  1  0.15799257  0.79158523  0.29158289  1.0
  C  C52  1  0.13001677  0.76977582  0.26977511  1.0
  C  C53  1  0.21777786  0.83213265  0.33213019  1.0
  C  C54  1  0.25883994  0.79158567  0.29158298  1.0
  C  C55  1  0.33043210  0.76977807  0.26977508  1.0
  C  C56  1  0.35203125  0.64797046  0.14796882  1.0
  C  C57  1  0.27054953  0.72945222  0.22944983  1.0
  C  C58  1  0.14797163  0.85202948  0.35202714  1.0
  C  C59  1  0.22945385  0.77054850  0.27054467  1.0
  C  C60  1  0.66786825  0.28222246  0.88203989  1.0
  C  C61  1  0.70841577  0.24115900  0.84200902  1.0
  C  C62  1  0.73022421  0.16956723  0.86998375  1.0
  C  C63  1  0.66786773  0.38204150  0.78222197  1.0
  C  C64  1  0.70841574  0.34200632  0.74116075  1.0
  C  C65  1  0.73022317  0.36998361  0.66956810  1.0
  C  C66  1  0.83213262  0.21777555  0.61795701  1.0
  C  C67  1  0.79158461  0.25883822  0.65799057  1.0
  C  C68  1  0.76977716  0.33042919  0.63001493  1.0
  C  C69  1  0.83213315  0.11795698  0.71777551  1.0
  C  C70  1  0.79158562  0.15798916  0.75883840  1.0
  C  C71  1  0.76977770  0.13001345  0.83043051  1.0
  C  C72  1  0.64797063  0.35202638  0.85203031  1.0
  C  C73  1  0.72945234  0.27054652  0.77054631  1.0
  C  C74  1  0.85202974  0.14796943  0.64796917  1.0
  C  C75  1  0.77054803  0.22945023  0.72945188  1.0
  C  C76  1  0.66786770  0.66786748  0.88204023  1.0
  C  C77  1  0.70841477  0.70841477  0.84200950  1.0
  C  C78  1  0.73022328  0.73022259  0.86998441  1.0
  C  C79  1  0.66786711  0.66786708  0.78222239  1.0
  C  C80  1  0.70841468  0.70841467  0.74116097  1.0
  C  C81  1  0.73022361  0.73022364  0.66956779  1.0
  C  C82  1  0.83213273  0.83213229  0.61795810  1.0
  C  C83  1  0.79158465  0.79158487  0.65799022  1.0
  C  C84  1  0.76977565  0.76977627  0.63001594  1.0
  C  C85  1  0.83213232  0.83213208  0.71777674  1.0
  C  C86  1  0.79158425  0.79158466  0.75883915  1.0
  C  C87  1  0.76977633  0.76977724  0.83043105  1.0
  C  C88  1  0.64797052  0.64797025  0.85202946  1.0
  C  C89  1  0.72945185  0.72945258  0.77054696  1.0
  C  C90  1  0.85202992  0.85202857  0.64796893  1.0
  C  C91  1  0.77054709  0.77054769  0.72945268  1.0
  C  C92  1  0.38204079  0.28222299  0.16786713  1.0
  C  C93  1  0.34200878  0.24116026  0.20841525  1.0
  C  C94  1  0.36998402  0.16956835  0.23022395  1.0
  C  C95  1  0.28222314  0.38204159  0.16786707  1.0
  C  C96  1  0.24116149  0.34200865  0.20841470  1.0
  C  C97  1  0.16956933  0.36998501  0.23022256  1.0
  C  C98  1  0.11795801  0.21777669  0.33213055  1.0
  C  C99  1  0.15799102  0.25883909  0.29158374  1.0
  C  C100  1  0.13001528  0.33043069  0.26977667  1.0
  C  C101  1  0.21777617  0.11795839  0.33213021  1.0
  C  C102  1  0.25883831  0.15799117  0.29158405  1.0
  C  C103  1  0.33043047  0.13001481  0.26977701  1.0
  C  C104  1  0.35202985  0.35202851  0.14796947  1.0
  C  C105  1  0.27054752  0.27054794  0.22945118  1.0
  C  C106  1  0.14796995  0.14797130  0.35202560  1.0
  C  C107  1  0.22945228  0.22945188  0.27054634  1.0
  C  C108  1  0.66786812  0.28222396  0.16786505  1.0
  C  C109  1  0.70841521  0.24116170  0.20841352  1.0
  C  C110  1  0.73022415  0.16956880  0.23022193  1.0
  C  C111  1  0.66786769  0.38204215  0.16786584  1.0
  C  C112  1  0.70841528  0.34200958  0.20841395  1.0
  C  C113  1  0.73022228  0.36998619  0.23022131  1.0
  C  C114  1  0.83213286  0.21777747  0.33213107  1.0
  C  C115  1  0.79158427  0.25883929  0.29158398  1.0
  C  C116  1  0.76977734  0.33043104  0.26977678  1.0
  C  C117  1  0.83213279  0.11795992  0.33213062  1.0
  C  C118  1  0.79158521  0.15799107  0.29158403  1.0
  C  C119  1  0.76977670  0.13001591  0.26977507  1.0
  C  C120  1  0.64797152  0.35202945  0.14796836  1.0
  C  C121  1  0.72945237  0.27054866  0.22945058  1.0
  C  C122  1  0.85202998  0.14797039  0.35202748  1.0
  C  C123  1  0.77054813  0.22945293  0.27054611  1.0
  C  C124  1  0.28222314  0.66786693  0.88204064  1.0
  C  C125  1  0.24116048  0.70841495  0.84200830  1.0
  C  C126  1  0.16956882  0.73022286  0.86998447  1.0
  C  C127  1  0.38204128  0.66786750  0.78222262  1.0
  C  C128  1  0.34200776  0.70841529  0.74115986  1.0
  C  C129  1  0.36998398  0.73022350  0.66956776  1.0
  C  C130  1  0.21777610  0.83213124  0.61795786  1.0
  C  C131  1  0.25883826  0.79158480  0.65799007  1.0
  C  C132  1  0.33043043  0.76977672  0.63001455  1.0
  C  C133  1  0.11795796  0.83213161  0.71777623  1.0
  C  C134  1  0.15799048  0.79158510  0.75883844  1.0
  C  C135  1  0.13001426  0.76977689  0.83043095  1.0
  C  C136  1  0.35202836  0.64796995  0.85202886  1.0
  C  C137  1  0.27054700  0.72945138  0.77054698  1.0
  C  C138  1  0.14797088  0.85202821  0.64796924  1.0
  C  C139  1  0.22945124  0.77054711  0.72945186  1.0
  O  O140  1  0.49999836  0.50000015  0.99999991  1.0
  O  O141  1  0.58803635  0.45860021  0.08803579  1.0
  O  O142  1  0.58803556  0.36532396  0.95860235  1.0
  O  O143  1  0.58803732  0.58803582  0.86532629  1.0
  O  O144  1  0.58803679  0.36532575  0.08803461  1.0
  O  O145  1  0.58803590  0.58803594  0.95860150  1.0
  O  O146  1  0.58803755  0.45859749  0.86532658  1.0
  O  O147  1  0.45859914  0.58803527  0.86532608  1.0
  O  O148  1  0.36532668  0.58803720  0.08803518  1.0
  O  O149  1  0.36532494  0.58803652  0.95860139  1.0
  O  O150  1  0.45860196  0.58803571  0.08803565  1.0
  O  O151  1  0.45860212  0.36532498  0.08803439  1.0
  O  O152  1  0.36532740  0.45859871  0.08803694  1.0
  O  O153  1  0.00000188  0.99999910  0.49999837  1.0
  O  O154  1  0.91196504  0.91196272  0.54139631  1.0
  O  O155  1  0.91196333  0.04139910  0.63467226  1.0
  O  O156  1  0.91196269  0.13467334  0.41196261  1.0
  O  O157  1  0.91196361  0.91196237  0.63467217  1.0
  O  O158  1  0.91196513  0.04139821  0.41196118  1.0
  O  O159  1  0.91196481  0.13467374  0.54139742  1.0
  O  O160  1  0.04140020  0.13467305  0.41196031  1.0
  O  O161  1  0.13467419  0.91196293  0.41196210  1.0
  O  O162  1  0.13467390  0.04139872  0.41196185  1.0
  O  O163  1  0.04139941  0.91196284  0.41196258  1.0
  O  O164  1  0.04140061  0.91196319  0.63467202  1.0
  O  O165  1  0.13467481  0.91196242  0.54139688  1.0
  F  F166  1  0.35908296  0.78924742  0.28924462  1.0
  F  F167  1  0.43757607  0.71075350  0.21075333  1.0
  F  F168  1  0.06242731  0.78924391  0.28924528  1.0
  F  F169  1  0.14091892  0.71075238  0.21075273  1.0
  F  F170  1  0.78924752  0.06242320  0.85908197  1.0
  F  F171  1  0.71075591  0.14091567  0.93757446  1.0
  F  F172  1  0.78924646  0.35908089  0.56242446  1.0
  F  F173  1  0.71075485  0.43757384  0.64091631  1.0
  F  F174  1  0.78924571  0.78924634  0.85908273  1.0
  F  F175  1  0.71075499  0.71075277  0.93757473  1.0
  F  F176  1  0.78924544  0.78924653  0.56242424  1.0
  F  F177  1  0.71075373  0.71075329  0.64091698  1.0
  F  F178  1  0.35908127  0.06242449  0.28924796  1.0
  F  F179  1  0.43757448  0.14091723  0.21075513  1.0
  F  F180  1  0.06242532  0.35908211  0.28924673  1.0
  F  F181  1  0.14091804  0.43757502  0.21075324  1.0
  F  F182  1  0.78924551  0.06242503  0.28924518  1.0
  F  F183  1  0.71075427  0.14091860  0.21075151  1.0
  F  F184  1  0.78924522  0.35908285  0.28924617  1.0
  F  F185  1  0.71075448  0.43757531  0.21075280  1.0
  F  F186  1  0.06242480  0.78924689  0.85908192  1.0
  F  F187  1  0.14091704  0.71075393  0.93757479  1.0
  F  F188  1  0.35908170  0.78924724  0.56242369  1.0
  F  F189  1  0.43757394  0.71075475  0.64091673  1.0
