# generated using pymatgen
data_ZnH20C20(NO2)2
_symmetry_space_group_name_H-M   'P 1'
_cell_length_a   11.61727478
_cell_length_b   16.10840639
_cell_length_c   24.95295369
_cell_angle_alpha   90.00004841
_cell_angle_beta   89.99997209
_cell_angle_gamma   89.99996781
_symmetry_Int_Tables_number   1
_chemical_formula_structural   ZnH20C20(NO2)2
_chemical_formula_sum   'Zn8 H160 C160 N16 O32'
_cell_volume   4669.59053444
_cell_formula_units_Z   8
loop_
 _symmetry_equiv_pos_site_id
 _symmetry_equiv_pos_as_xyz
  1  'x, y, z'
loop_
 _atom_site_type_symbol
 _atom_site_label
 _atom_site_symmetry_multiplicity
 _atom_site_fract_x
 _atom_site_fract_y
 _atom_site_fract_z
 _atom_site_occupancy
  Zn  Zn0  1  0.25000231  0.24999924  0.70220655  1.0
  Zn  Zn1  1  0.74999904  0.24999982  0.79779237  1.0
  Zn  Zn2  1  0.74999997  0.75000053  0.29779198  1.0
  Zn  Zn3  1  0.24999894  0.75000057  0.20220816  1.0
  Zn  Zn4  1  0.75000009  0.75000038  0.07263346  1.0
  Zn  Zn5  1  0.25000140  0.74999948  0.42736627  1.0
  Zn  Zn6  1  0.24999961  0.25000001  0.92736707  1.0
  Zn  Zn7  1  0.74999916  0.24999967  0.57263386  1.0
  H  H8  1  0.39029005  0.00137621  0.66534991  1.0
  H  H9  1  0.60971062  0.00137627  0.83465008  1.0
  H  H10  1  0.89028914  0.49862217  0.83465058  1.0
  H  H11  1  0.10971287  0.49862222  0.66534927  1.0
  H  H12  1  0.60971050  0.99862419  0.33465022  1.0
  H  H13  1  0.39028908  0.99862474  0.16535045  1.0
  H  H14  1  0.10971141  0.50137760  0.16534995  1.0
  H  H15  1  0.89028768  0.50137693  0.33465046  1.0
  H  H16  1  0.56054423  0.08113392  0.68188663  1.0
  H  H17  1  0.43945724  0.08113527  0.81811260  1.0
  H  H18  1  0.06054295  0.41886336  0.81811434  1.0
  H  H19  1  0.93945741  0.41886557  0.68188588  1.0
  H  H20  1  0.43945632  0.91886586  0.31811230  1.0
  H  H21  1  0.56054331  0.91886574  0.18188673  1.0
  H  H22  1  0.93945589  0.58113455  0.18188579  1.0
  H  H23  1  0.06054315  0.58113420  0.31811345  1.0
  H  H24  1  0.58961528  0.93660896  0.65850445  1.0
  H  H25  1  0.41038640  0.93660912  0.84149524  1.0
  H  H26  1  0.08961252  0.56338915  0.84149557  1.0
  H  H27  1  0.91038773  0.56339072  0.65850472  1.0
  H  H28  1  0.41038700  0.06339081  0.34149487  1.0
  H  H29  1  0.58961415  0.06339127  0.15850489  1.0
  H  H30  1  0.91038632  0.43660938  0.15850416  1.0
  H  H31  1  0.08961111  0.43660905  0.34149501  1.0
  H  H32  1  0.70303602  0.99648324  0.63090332  1.0
  H  H33  1  0.29696476  0.99648411  0.86909561  1.0
  H  H34  1  0.20303500  0.50351482  0.86909628  1.0
  H  H35  1  0.79696615  0.50351640  0.63090357  1.0
  H  H36  1  0.29696454  0.00351653  0.36909561  1.0
  H  H37  1  0.70303494  0.00351566  0.13090372  1.0
  H  H38  1  0.79696384  0.49648433  0.13090385  1.0
  H  H39  1  0.20303440  0.49648275  0.36909535  1.0
  H  H40  1  0.60677253  0.99268705  0.54109913  1.0
  H  H41  1  0.39322825  0.99268675  0.95890019  1.0
  H  H42  1  0.10677227  0.50731167  0.95890090  1.0
  H  H43  1  0.89322802  0.50731371  0.54109977  1.0
  H  H44  1  0.39322717  0.00731334  0.45889980  1.0
  H  H45  1  0.60677144  0.00731240  0.04109994  1.0
  H  H46  1  0.89322743  0.49268748  0.04109964  1.0
  H  H47  1  0.10677254  0.49268668  0.45889996  1.0
  H  H48  1  0.62972975  0.89081789  0.56466625  1.0
  H  H49  1  0.37026853  0.89081881  0.93533302  1.0
  H  H50  1  0.12973116  0.60918020  0.93533377  1.0
  H  H51  1  0.87027078  0.60918228  0.56466655  1.0
  H  H52  1  0.37026909  0.10918188  0.43533308  1.0
  H  H53  1  0.62973031  0.10918096  0.06466631  1.0
  H  H54  1  0.87026940  0.39081895  0.06466596  1.0
  H  H55  1  0.12972978  0.39081749  0.43533318  1.0
  H  H56  1  0.42694724  0.88133098  0.59499614  1.0
  H  H57  1  0.57305191  0.88132867  0.90500392  1.0
  H  H58  1  0.92694826  0.61866823  0.90500421  1.0
  H  H59  1  0.07305453  0.61866882  0.59499611  1.0
  H  H60  1  0.57305160  0.11867003  0.40500358  1.0
  H  H61  1  0.42694779  0.11866924  0.09499661  1.0
  H  H62  1  0.07305144  0.38133092  0.09499632  1.0
  H  H63  1  0.92694603  0.38133095  0.40500362  1.0
  H  H64  1  0.43192605  0.91011591  0.52643753  1.0
  H  H65  1  0.56807221  0.91011493  0.97356254  1.0
  H  H66  1  0.93192617  0.58988454  0.97356282  1.0
  H  H67  1  0.06807406  0.58988443  0.52643709  1.0
  H  H68  1  0.56807278  0.08988449  0.47356219  1.0
  H  H69  1  0.43192577  0.08988422  0.02643839  1.0
  H  H70  1  0.06807353  0.41011585  0.02643771  1.0
  H  H71  1  0.93192564  0.41011596  0.47356224  1.0
  H  H72  1  0.39377800  0.05646538  0.54869560  1.0
  H  H73  1  0.60622263  0.05646249  0.95130522  1.0
  H  H74  1  0.89377959  0.44353486  0.95130530  1.0
  H  H75  1  0.10622074  0.44353476  0.54869453  1.0
  H  H76  1  0.60622169  0.94353626  0.45130453  1.0
  H  H77  1  0.39377879  0.94353541  0.04869571  1.0
  H  H78  1  0.10622355  0.55646367  0.04869524  1.0
  H  H79  1  0.89377895  0.55646501  0.45130480  1.0
  H  H80  1  0.28838372  0.99421492  0.58019353  1.0
  H  H81  1  0.71161620  0.99421195  0.91980659  1.0
  H  H82  1  0.78838395  0.50578435  0.91980765  1.0
  H  H83  1  0.21161720  0.50578362  0.58019261  1.0
  H  H84  1  0.71161683  0.00578610  0.41980619  1.0
  H  H85  1  0.28838350  0.00578596  0.08019394  1.0
  H  H86  1  0.21161746  0.49421356  0.08019368  1.0
  H  H87  1  0.78838250  0.49421553  0.41980712  1.0
  H  H88  1  0.23914525  0.06328495  0.73145033  1.0
  H  H89  1  0.76085623  0.06328673  0.76854889  1.0
  H  H90  1  0.73913929  0.43671349  0.76855019  1.0
  H  H91  1  0.26085933  0.43671357  0.73145123  1.0
  H  H92  1  0.76085874  0.93671358  0.26855060  1.0
  H  H93  1  0.23914088  0.93671428  0.23145004  1.0
  H  H94  1  0.26085782  0.56328628  0.23145034  1.0
  H  H95  1  0.73914123  0.56328620  0.26854850  1.0
  H  H96  1  0.14180707  0.97532371  0.79911953  1.0
  H  H97  1  0.85819200  0.97532660  0.70087858  1.0
  H  H98  1  0.64180494  0.52467437  0.70087968  1.0
  H  H99  1  0.35819276  0.52467388  0.79912179  1.0
  H  H100  1  0.85819349  0.02467482  0.20088060  1.0
  H  H101  1  0.14180769  0.02467565  0.29912075  1.0
  H  H102  1  0.35819304  0.47532416  0.29912045  1.0
  H  H103  1  0.64180780  0.47532527  0.20087874  1.0
  H  H104  1  0.98451616  0.19927723  0.86165611  1.0
  H  H105  1  0.01548522  0.19927914  0.63834318  1.0
  H  H106  1  0.48451515  0.30072111  0.63834235  1.0
  H  H107  1  0.51548615  0.30072063  0.86165740  1.0
  H  H108  1  0.01548354  0.80072254  0.13834201  1.0
  H  H109  1  0.98451533  0.80072311  0.36165775  1.0
  H  H110  1  0.51548540  0.69927742  0.36165657  1.0
  H  H111  1  0.48451440  0.69927790  0.13834314  1.0
  H  H112  1  0.08761477  0.27714975  0.79088505  1.0
  H  H113  1  0.91238656  0.27715139  0.70911468  1.0
  H  H114  1  0.58761161  0.22284937  0.70911430  1.0
  H  H115  1  0.41238803  0.22284884  0.79088580  1.0
  H  H116  1  0.91238665  0.72284940  0.20911387  1.0
  H  H117  1  0.08761228  0.72284962  0.29088545  1.0
  H  H118  1  0.41238550  0.77714978  0.29088583  1.0
  H  H119  1  0.58760994  0.77714969  0.20911513  1.0
  H  H120  1  0.93197288  0.07212192  0.90149666  1.0
  H  H121  1  0.06802601  0.07212438  0.59850257  1.0
  H  H122  1  0.43197440  0.42787644  0.59850182  1.0
  H  H123  1  0.56802595  0.42787661  0.90149920  1.0
  H  H124  1  0.06802509  0.92787909  0.09850227  1.0
  H  H125  1  0.93197540  0.92787725  0.40149837  1.0
  H  H126  1  0.56802701  0.57212271  0.40149751  1.0
  H  H127  1  0.43197461  0.57212316  0.09850053  1.0
  H  H128  1  0.07433512  0.91721747  0.87037963  1.0
  H  H129  1  0.92566313  0.91722024  0.62961965  1.0
  H  H130  1  0.57433646  0.58278127  0.62962000  1.0
  H  H131  1  0.42566463  0.58278084  0.87038030  1.0
  H  H132  1  0.92566199  0.08278417  0.12962010  1.0
  H  H133  1  0.07433570  0.08278264  0.37038048  1.0
  H  H134  1  0.42566410  0.41721726  0.37038013  1.0
  H  H135  1  0.57433678  0.41721769  0.12961943  1.0
  H  H136  1  0.01653071  0.78954442  0.91159636  1.0
  H  H137  1  0.98347022  0.78954462  0.58840245  1.0
  H  H138  1  0.51653286  0.71045434  0.58840328  1.0
  H  H139  1  0.48347072  0.71045456  0.91159709  1.0
  H  H140  1  0.98346984  0.21045846  0.08840417  1.0
  H  H141  1  0.01652861  0.21045577  0.41159688  1.0
  H  H142  1  0.48347028  0.28954481  0.41159725  1.0
  H  H143  1  0.51653156  0.28954583  0.08840184  1.0
  H  H144  1  0.91770849  0.71502294  0.98586400  1.0
  H  H145  1  0.08229078  0.71502467  0.51413477  1.0
  H  H146  1  0.41771021  0.78497627  0.51413555  1.0
  H  H147  1  0.58229159  0.78497593  0.98586446  1.0
  H  H148  1  0.08229379  0.28497807  0.01413613  1.0
  H  H149  1  0.91770461  0.28497697  0.48586376  1.0
  H  H150  1  0.58229035  0.21502350  0.48586458  1.0
  H  H151  1  0.41770811  0.21502446  0.01413447  1.0
  H  H152  1  0.77832854  0.93251748  0.04512013  1.0
  H  H153  1  0.22167195  0.93251911  0.45488050  1.0
  H  H154  1  0.27832824  0.56748237  0.45488040  1.0
  H  H155  1  0.72167253  0.56748201  0.04511964  1.0
  H  H156  1  0.22167116  0.06748353  0.95488040  1.0
  H  H157  1  0.77832688  0.06748252  0.54511963  1.0
  H  H158  1  0.72167232  0.43251678  0.54511973  1.0
  H  H159  1  0.27833061  0.43251963  0.95487969  1.0
  H  H160  1  0.87430013  0.01768891  0.97520776  1.0
  H  H161  1  0.12570053  0.01768939  0.52479303  1.0
  H  H162  1  0.37430083  0.48231010  0.52479233  1.0
  H  H163  1  0.62569948  0.48230972  0.97520832  1.0
  H  H164  1  0.12569612  0.98231272  0.02479277  1.0
  H  H165  1  0.87430175  0.98231100  0.47520830  1.0
  H  H166  1  0.62569887  0.51768905  0.47520820  1.0
  H  H167  1  0.37430452  0.51769067  0.02479181  1.0
  C  C168  1  0.41246393  0.04760732  0.63399010  1.0
  C  C169  1  0.58753757  0.04760620  0.86601031  1.0
  C  C170  1  0.91246216  0.45239167  0.86601118  1.0
  C  C171  1  0.08753817  0.45239107  0.63398865  1.0
  C  C172  1  0.58753749  0.95239369  0.36601003  1.0
  C  C173  1  0.41246213  0.95239295  0.13399062  1.0
  C  C174  1  0.08753754  0.54760748  0.13398935  1.0
  C  C175  1  0.91246152  0.54760808  0.36600988  1.0
  C  C176  1  0.54234636  0.06333821  0.64017814  1.0
  C  C177  1  0.45765427  0.06333900  0.85982228  1.0
  C  C178  1  0.04234502  0.43665907  0.85982283  1.0
  C  C179  1  0.95765532  0.43665935  0.64017739  1.0
  C  C180  1  0.45765420  0.93666094  0.35982119  1.0
  C  C181  1  0.54234457  0.93666015  0.14017785  1.0
  C  C182  1  0.95765640  0.56334008  0.14017690  1.0
  C  C183  1  0.04234437  0.56333980  0.35982234  1.0
  C  C184  1  0.61044030  0.98334416  0.62757787  1.0
  C  C185  1  0.38956049  0.98334499  0.87242185  1.0
  C  C186  1  0.11043840  0.51665394  0.87242256  1.0
  C  C187  1  0.88956188  0.51665548  0.62757771  1.0
  C  C188  1  0.38956112  0.01665561  0.37242146  1.0
  C  C189  1  0.61043921  0.01665478  0.12757828  1.0
  C  C190  1  0.88956043  0.48334521  0.12757757  1.0
  C  C191  1  0.11043868  0.48334429  0.37242162  1.0
  C  C192  1  0.58073200  0.94814139  0.57235714  1.0
  C  C193  1  0.41926709  0.94814166  0.92764256  1.0
  C  C194  1  0.08073260  0.55185672  0.92764289  1.0
  C  C195  1  0.91926852  0.55185879  0.57235700  1.0
  C  C196  1  0.41926770  0.05185838  0.42764259  1.0
  C  C197  1  0.58073174  0.05185811  0.07235717  1.0
  C  C198  1  0.91926710  0.44814119  0.07235724  1.0
  C  C199  1  0.08073204  0.44814036  0.42764273  1.0
  C  C200  1  0.45146245  0.93188779  0.56724393  1.0
  C  C201  1  0.54853666  0.93188677  0.93275616  1.0
  C  C202  1  0.95146176  0.56811079  0.93275682  1.0
  C  C203  1  0.04853848  0.56811198  0.56724388  1.0
  C  C204  1  0.54853725  0.06811260  0.43275580  1.0
  C  C205  1  0.45146132  0.06811238  0.06724437  1.0
  C  C206  1  0.04853794  0.43188774  0.06724411  1.0
  C  C207  1  0.95146121  0.43188842  0.43275625  1.0
  C  C208  1  0.38038416  0.00926955  0.57985141  1.0
  C  C209  1  0.61961479  0.00926786  0.92014858  1.0
  C  C210  1  0.88038402  0.49072946  0.92014948  1.0
  C  C211  1  0.11961628  0.49072877  0.57985077  1.0
  C  C212  1  0.61961468  0.99073147  0.42014872  1.0
  C  C213  1  0.38038405  0.99073191  0.07985155  1.0
  C  C214  1  0.11961653  0.50926969  0.07985145  1.0
  C  C215  1  0.88038428  0.50927100  0.42014856  1.0
  C  C216  1  0.33719667  0.12271844  0.64774802  1.0
  C  C217  1  0.66280821  0.12271726  0.85225323  1.0
  C  C218  1  0.83719239  0.37728183  0.85225408  1.0
  C  C219  1  0.16280628  0.37727997  0.64774691  1.0
  C  C220  1  0.66280733  0.87728257  0.35225251  1.0
  C  C221  1  0.33719320  0.87728313  0.14774850  1.0
  C  C222  1  0.16280645  0.62271857  0.14774725  1.0
  C  C223  1  0.83719256  0.62271918  0.35225242  1.0
  C  C224  1  0.58694803  0.13469223  0.60529451  1.0
  C  C225  1  0.41304995  0.13469122  0.89470676  1.0
  C  C226  1  0.08694757  0.36530690  0.89470686  1.0
  C  C227  1  0.91305283  0.36530777  0.60529333  1.0
  C  C228  1  0.41304994  0.86530878  0.39470562  1.0
  C  C229  1  0.58694716  0.86530856  0.10529337  1.0
  C  C230  1  0.91305299  0.63469225  0.10529327  1.0
  C  C231  1  0.08694859  0.63469200  0.39470640  1.0
  C  C232  1  0.18291431  0.09073028  0.76156662  1.0
  C  C233  1  0.81708543  0.09073137  0.73843221  1.0
  C  C234  1  0.68291012  0.40926881  0.73843352  1.0
  C  C235  1  0.31708938  0.40926890  0.76156749  1.0
  C  C236  1  0.81708969  0.90926887  0.23843391  1.0
  C  C237  1  0.18291168  0.90926964  0.26156631  1.0
  C  C238  1  0.31708699  0.59073096  0.26156661  1.0
  C  C239  1  0.68291204  0.59073149  0.23843344  1.0
  C  C240  1  0.12838775  0.04226556  0.79966070  1.0
  C  C241  1  0.87160944  0.04226782  0.70033730  1.0
  C  C242  1  0.62838615  0.45773355  0.70033905  1.0
  C  C243  1  0.37161331  0.45773305  0.79966199  1.0
  C  C244  1  0.87161366  0.95773359  0.20033943  1.0
  C  C245  1  0.12838681  0.95773381  0.29966122  1.0
  C  C246  1  0.37161268  0.54226622  0.29966108  1.0
  C  C247  1  0.62838638  0.54226610  0.20033934  1.0
  C  C248  1  0.05589826  0.08007939  0.83774839  1.0
  C  C249  1  0.94409891  0.08008158  0.66225003  1.0
  C  C250  1  0.55589844  0.41991912  0.66225057  1.0
  C  C251  1  0.44410277  0.41991926  0.83775005  1.0
  C  C252  1  0.94410230  0.91992038  0.16225174  1.0
  C  C253  1  0.05589820  0.91992006  0.33774930  1.0
  C  C254  1  0.44410211  0.58008003  0.33774876  1.0
  C  C255  1  0.55589692  0.58008051  0.16225129  1.0
  C  C256  1  0.04147574  0.16637471  0.83428109  1.0
  C  C257  1  0.95852309  0.16637689  0.66571698  1.0
  C  C258  1  0.54147513  0.33362381  0.66571747  1.0
  C  C259  1  0.45852615  0.33362394  0.83428310  1.0
  C  C260  1  0.95852482  0.83362506  0.16571743  1.0
  C  C261  1  0.04147489  0.83362474  0.33428275  1.0
  C  C262  1  0.45852543  0.66637534  0.33428186  1.0
  C  C263  1  0.54147268  0.66637645  0.16571824  1.0
  C  C264  1  0.09907617  0.21040882  0.79469340  1.0
  C  C265  1  0.90092348  0.21041108  0.70530590  1.0
  C  C266  1  0.59907383  0.28958968  0.70530595  1.0
  C  C267  1  0.40092576  0.28958978  0.79469419  1.0
  C  C268  1  0.90092611  0.78959033  0.20530553  1.0
  C  C269  1  0.09907363  0.78959117  0.29469423  1.0
  C  C270  1  0.40092500  0.71040947  0.29469418  1.0
  C  C271  1  0.59907221  0.71040999  0.20530634  1.0
  C  C272  1  0.99614286  0.03528771  0.88007874  1.0
  C  C273  1  0.00385606  0.03529022  0.61992047  1.0
  C  C274  1  0.49614347  0.46471063  0.61992013  1.0
  C  C275  1  0.50385771  0.46470956  0.88008011  1.0
  C  C276  1  0.00385597  0.96471268  0.11992099  1.0
  C  C277  1  0.99614363  0.96471203  0.38007966  1.0
  C  C278  1  0.50385794  0.53528852  0.38007880  1.0
  C  C279  1  0.49614113  0.53528959  0.11992042  1.0
  C  C280  1  0.01278193  0.95467930  0.89312004  1.0
  C  C281  1  0.98721802  0.95468077  0.60687966  1.0
  C  C282  1  0.51278332  0.54531946  0.60687921  1.0
  C  C283  1  0.48721780  0.54531965  0.89312067  1.0
  C  C284  1  0.98721690  0.04532233  0.10688009  1.0
  C  C285  1  0.01278168  0.04532148  0.39312047  1.0
  C  C286  1  0.48721809  0.45467907  0.39312052  1.0
  C  C287  1  0.51278276  0.45468012  0.10687906  1.0
  C  C288  1  0.95376595  0.91099511  0.93604710  1.0
  C  C289  1  0.04623575  0.91099630  0.56395298  1.0
  C  C290  1  0.45376691  0.58900471  0.56395324  1.0
  C  C291  1  0.54623418  0.58900431  0.93604826  1.0
  C  C292  1  0.04623374  0.08900652  0.06395263  1.0
  C  C293  1  0.95376481  0.08900472  0.43604795  1.0
  C  C294  1  0.54623451  0.41099444  0.43604729  1.0
  C  C295  1  0.45376724  0.41099484  0.06395147  1.0
  C  C296  1  0.96437346  0.82421682  0.94023375  1.0
  C  C297  1  0.03562745  0.82421800  0.55976547  1.0
  C  C298  1  0.46437435  0.67578299  0.55976579  1.0
  C  C299  1  0.53562753  0.67578261  0.94023456  1.0
  C  C300  1  0.03562709  0.17578481  0.05976638  1.0
  C  C301  1  0.96437139  0.17578301  0.44023385  1.0
  C  C302  1  0.53562706  0.32421616  0.44023434  1.0
  C  C303  1  0.46437389  0.32421716  0.05976436  1.0
  C  C304  1  0.90846878  0.78169806  0.98086702  1.0
  C  C305  1  0.09153216  0.78169917  0.51913219  1.0
  C  C306  1  0.40847054  0.71830115  0.51913294  1.0
  C  C307  1  0.59153217  0.71830142  0.98086744  1.0
  C  C308  1  0.09153178  0.21830295  0.01913352  1.0
  C  C309  1  0.90846581  0.21830184  0.48086674  1.0
  C  C310  1  0.59153001  0.28169800  0.48086719  1.0
  C  C311  1  0.40846839  0.28169897  0.01913189  1.0
  C  C312  1  0.83178947  0.90364557  0.01445321  1.0
  C  C313  1  0.16821191  0.90364788  0.48554701  1.0
  C  C314  1  0.33178911  0.59635426  0.48554691  1.0
  C  C315  1  0.66821163  0.59635326  0.01445395  1.0
  C  C316  1  0.16821023  0.09635482  0.98554692  1.0
  C  C317  1  0.83178865  0.09635375  0.51445312  1.0
  C  C318  1  0.66821058  0.40364613  0.51445362  1.0
  C  C319  1  0.33179064  0.40364838  0.98554538  1.0
  C  C320  1  0.88553993  0.95059063  0.97516594  1.0
  C  C321  1  0.11446088  0.95059235  0.52483376  1.0
  C  C322  1  0.38554010  0.54940922  0.52483403  1.0
  C  C323  1  0.61446016  0.54940823  0.97516706  1.0
  C  C324  1  0.11445804  0.04941039  0.02483419  1.0
  C  C325  1  0.88554054  0.04940866  0.47516637  1.0
  C  C326  1  0.61445960  0.45059117  0.47516651  1.0
  C  C327  1  0.38554212  0.45059216  0.02483227  1.0
  N  N328  1  0.16873626  0.17366958  0.75886837  1.0
  N  N329  1  0.83126428  0.17367130  0.74113091  1.0
  N  N330  1  0.66873299  0.32633013  0.74113137  1.0
  N  N331  1  0.33126743  0.32632959  0.75886839  1.0
  N  N332  1  0.83126688  0.82632957  0.24113136  1.0
  N  N333  1  0.16873283  0.82633096  0.25886802  1.0
  N  N334  1  0.33126584  0.67366964  0.25886876  1.0
  N  N335  1  0.66873140  0.67366956  0.24113134  1.0
  N  N336  1  0.84241247  0.82035800  0.01755983  1.0
  N  N337  1  0.15758983  0.82035907  0.48243954  1.0
  N  N338  1  0.34241378  0.67964182  0.48244069  1.0
  N  N339  1  0.65758863  0.67964145  0.01756021  1.0
  N  N340  1  0.15758809  0.17964239  0.98244070  1.0
  N  N341  1  0.84240901  0.17964194  0.51756019  1.0
  N  N342  1  0.65758678  0.32035733  0.51756024  1.0
  N  N343  1  0.34241365  0.32036018  0.98243992  1.0
  O  O344  1  0.38038060  0.17607258  0.68135367  1.0
  O  O345  1  0.61962511  0.17607386  0.81864761  1.0
  O  O346  1  0.88037295  0.32392642  0.81864802  1.0
  O  O347  1  0.11962404  0.32392463  0.68135134  1.0
  O  O348  1  0.61962512  0.82392719  0.31864726  1.0
  O  O349  1  0.38037545  0.82392901  0.18135492  1.0
  O  O350  1  0.11962244  0.67607459  0.18135291  1.0
  O  O351  1  0.88037738  0.67607514  0.31864799  1.0
  O  O352  1  0.23630985  0.12828449  0.63040420  1.0
  O  O353  1  0.76369589  0.12827957  0.86959626  1.0
  O  O354  1  0.73630469  0.37171830  0.86959833  1.0
  O  O355  1  0.26369398  0.37171576  0.63040346  1.0
  O  O356  1  0.76369587  0.87171963  0.36959593  1.0
  O  O357  1  0.23630553  0.87171710  0.13040467  1.0
  O  O358  1  0.26369500  0.62828457  0.13040500  1.0
  O  O359  1  0.73630314  0.62828277  0.36959427  1.0
  O  O360  1  0.68944968  0.16078294  0.61853983  1.0
  O  O361  1  0.31054829  0.16078195  0.88146025  1.0
  O  O362  1  0.18944925  0.33921738  0.88146071  1.0
  O  O363  1  0.81055375  0.33921708  0.61853946  1.0
  O  O364  1  0.31055001  0.83921559  0.38145790  1.0
  O  O365  1  0.68944710  0.83921844  0.11853908  1.0
  O  O366  1  0.81055475  0.66078425  0.11853902  1.0
  O  O367  1  0.18944681  0.66078207  0.38146027  1.0
  O  O368  1  0.53009736  0.16338593  0.56715394  1.0
  O  O369  1  0.46989802  0.16338308  0.93284813  1.0
  O  O370  1  0.03009774  0.33661322  0.93284743  1.0
  O  O371  1  0.96990182  0.33661216  0.56715354  1.0
  O  O372  1  0.46989803  0.83661819  0.43284819  1.0
  O  O373  1  0.53009823  0.83661545  0.06715280  1.0
  O  O374  1  0.96990454  0.66338655  0.06715310  1.0
  O  O375  1  0.03009960  0.66338575  0.43284659  1.0
