# generated using pymatgen
data_Zr3H41C69O16
_symmetry_space_group_name_H-M   'P 1'
_cell_length_a   19.99952174
_cell_length_b   20.01808121
_cell_length_c   20.14784619
_cell_angle_alpha   92.71431368
_cell_angle_beta   91.94458448
_cell_angle_gamma   92.86756646
_symmetry_Int_Tables_number   1
_chemical_formula_structural   Zr3H41C69O16
_chemical_formula_sum   'Zr6 H82 C138 O32'
_cell_volume   8041.76353565
_cell_formula_units_Z   2
loop_
 _symmetry_equiv_pos_site_id
 _symmetry_equiv_pos_as_xyz
  1  'x, y, z'
loop_
 _atom_site_type_symbol
 _atom_site_label
 _atom_site_symmetry_multiplicity
 _atom_site_fract_x
 _atom_site_fract_y
 _atom_site_fract_z
 _atom_site_occupancy
  Zr  Zr0  1  0.18756357  0.13351790  0.04079068  1.0
  Zr  Zr1  1  0.22624381  0.99618980  0.13583977  1.0
  Zr  Zr2  1  0.02132770  0.06761229  0.01538199  1.0
  Zr  Zr3  1  0.09105933  0.09460483  0.17896461  1.0
  Zr  Zr4  1  0.15582172  0.96843626  0.97292226  1.0
  Zr  Zr5  1  0.05955211  0.92995892  0.11098282  1.0
  H  H6  1  0.08556865  0.41025254  0.71340864  1.0
  H  H7  1  0.09215483  0.62513119  0.73245827  1.0
  H  H8  1  0.05815778  0.50846248  0.90357786  1.0
  H  H9  1  0.19002321  0.55918303  0.25066038  1.0
  H  H10  1  0.13944164  0.43790146  0.41466364  1.0
  H  H11  1  0.14398493  0.65250101  0.43866219  1.0
  H  H12  1  0.95569457  0.96672217  0.55899008  1.0
  H  H13  1  0.77669111  0.98427417  0.66984431  1.0
  H  H14  1  0.76508706  0.97796930  0.45587274  1.0
  H  H15  1  0.29701975  0.08788842  0.59661424  1.0
  H  H16  1  0.46424403  0.03477132  0.47918133  1.0
  H  H17  1  0.48496451  0.04822115  0.69235890  1.0
  H  H18  1  0.50092238  0.66818183  0.04387516  1.0
  H  H19  1  0.71605125  0.69298657  0.04915721  1.0
  H  H20  1  0.59603680  0.85960207  0.00724308  1.0
  H  H21  1  0.74598945  0.39849193  0.10838636  1.0
  H  H22  1  0.53121044  0.36987847  0.10200996  1.0
  H  H23  1  0.65427598  0.20386158  0.13781592  1.0
  H  H24  1  0.22965707  0.13375598  0.17638225  1.0
  H  H25  1  0.11859530  0.08987863  0.91942721  1.0
  H  H26  1  0.96659560  0.02951858  0.13699065  1.0
  H  H27  1  0.17855840  0.87293309  0.07046396  1.0
  H  H28  1  0.76261674  0.23210056  0.22867769  1.0
  H  H29  1  0.80042774  0.30288081  0.03427917  1.0
  H  H30  1  0.90565658  0.24132563  0.03207672  1.0
  H  H31  1  0.87199824  0.17690682  0.22939034  1.0
  H  H32  1  0.48056650  0.29019544  0.03454734  1.0
  H  H33  1  0.55243876  0.17171315  0.19262701  1.0
  H  H34  1  0.44623710  0.10078732  0.18264317  1.0
  H  H35  1  0.37359068  0.22183443  0.02795340  1.0
  H  H36  1  0.69799333  0.88697796  0.95017497  1.0
  H  H37  1  0.76746278  0.77484136  0.11404180  1.0
  H  H38  1  0.87504846  0.84214314  0.11863957  1.0
  H  H39  1  0.80476622  0.95720886  0.95810714  1.0
  H  H40  1  0.44885406  0.76477731  0.11454498  1.0
  H  H41  1  0.48816611  0.83508471  0.92025287  1.0
  H  H42  1  0.38071453  0.89369778  0.92017950  1.0
  H  H43  1  0.34595932  0.82991783  0.11746157  1.0
  H  H44  1  0.70098848  0.62015159  0.13147559  1.0
  H  H45  1  0.53170228  0.56340388  0.99933433  1.0
  H  H46  1  0.54457437  0.44506444  0.02269281  1.0
  H  H47  1  0.71386379  0.50173608  0.15488170  1.0
  H  H48  1  0.26989644  0.00840522  0.67714862  1.0
  H  H49  1  0.42913759  0.13795270  0.76809140  1.0
  H  H50  1  0.36743890  0.14352104  0.87378506  1.0
  H  H51  1  0.21119104  0.01019977  0.78389904  1.0
  H  H52  1  0.41808133  0.07900704  0.40375966  1.0
  H  H53  1  0.23779528  0.05837054  0.51461126  1.0
  H  H54  1  0.16970070  0.06226883  0.41040989  1.0
  H  H55  1  0.34947172  0.07316685  0.29948534  1.0
  H  H56  1  0.98449502  0.90813910  0.65214156  1.0
  H  H57  1  0.84783753  0.04792660  0.73294088  1.0
  H  H58  1  0.91464923  0.05609735  0.83923934  1.0
  H  H59  1  0.05265592  0.91920228  0.75839672  1.0
  H  H60  1  0.83491688  0.89458471  0.38460495  1.0
  H  H61  1  0.97163064  0.04783631  0.47584393  1.0
  H  H62  1  0.03119187  0.05490853  0.36944750  1.0
  H  H63  1  0.89802122  0.89865357  0.27969132  1.0
  H  H64  1  0.68885846  0.05879246  0.48420041  1.0
  H  H65  1  0.67294617  0.93270772  0.65098899  1.0
  H  H66  1  0.55477368  0.95973070  0.66127873  1.0
  H  H67  1  0.57070090  0.08562030  0.49441904  1.0
  H  H68  1  0.27039460  0.66873377  0.27428908  1.0
  H  H69  1  0.07177688  0.70258298  0.34018383  1.0
  H  H70  1  0.07081043  0.80700433  0.27748030  1.0
  H  H71  1  0.27182900  0.77707617  0.21757288  1.0
  H  H72  1  0.18959824  0.36470879  0.36670769  1.0
  H  H73  1  0.15326579  0.47482732  0.19108431  1.0
  H  H74  1  0.15461473  0.36974499  0.12176004  1.0
  H  H75  1  0.18061818  0.25935448  0.29802413  1.0
  H  H76  1  0.07992406  0.59163631  0.96025939  1.0
  H  H77  1  0.05535350  0.70201444  0.78265903  1.0
  H  H78  1  0.06292500  0.80738957  0.85140065  1.0
  H  H79  1  0.07761752  0.69687983  0.02863614  1.0
  H  H80  1  0.99547035  0.33605082  0.78435511  1.0
  H  H81  1  0.14939820  0.42915937  0.91749252  1.0
  H  H82  1  0.15315488  0.32421478  0.97924738  1.0
  H  H83  1  0.99582922  0.23284905  0.84973328  1.0
  H  H84  1  0.16731820  0.44253544  0.63742546  1.0
  H  H85  1  0.03726041  0.60734827  0.63031592  1.0
  H  H86  1  0.06080636  0.61915393  0.51213339  1.0
  H  H87  1  0.19085624  0.45438666  0.51925790  1.0
  C  C88  1  0.07275054  0.45324874  0.81222758  1.0
  C  C89  1  0.08181478  0.45640412  0.74380364  1.0
  C  C90  1  0.08773472  0.51874335  0.71464653  1.0
  C  C91  1  0.08365359  0.57727942  0.75509746  1.0
  C  C92  1  0.07246359  0.57558745  0.82346121  1.0
  C  C93  1  0.06727775  0.51259666  0.85090308  1.0
  C  C94  1  0.16651487  0.61228691  0.34125387  1.0
  C  C95  1  0.17649376  0.55412062  0.30218391  1.0
  C  C96  1  0.16682045  0.49033367  0.32744309  1.0
  C  C97  1  0.14988921  0.48663849  0.39431819  1.0
  C  C98  1  0.14248343  0.54407571  0.43549500  1.0
  C  C99  1  0.14950707  0.60697094  0.40779283  1.0
  C  C100  1  0.86378237  0.97050737  0.50067124  1.0
  C  C101  1  0.90142567  0.96937586  0.56054963  1.0
  C  C102  1  0.87074589  0.97379103  0.62195179  1.0
  C  C103  1  0.80116073  0.97950912  0.62243561  1.0
  C  C104  1  0.76230704  0.98154662  0.56340074  1.0
  C  C105  1  0.79425078  0.97608756  0.50247415  1.0
  C  C106  1  0.38708892  0.06757257  0.65099202  1.0
  C  C107  1  0.34869343  0.07387577  0.59228996  1.0
  C  C108  1  0.37534738  0.06352430  0.52943345  1.0
  C  C109  1  0.44266598  0.04697367  0.52690400  1.0
  C  C110  1  0.48297507  0.04221721  0.58462230  1.0
  C  C111  1  0.45462877  0.05274346  0.64687709  1.0
  C  C112  1  0.54175846  0.76603679  0.02185519  1.0
  C  C113  1  0.54668054  0.69906680  0.03793284  1.0
  C  C114  1  0.60941685  0.67185611  0.04785064  1.0
  C  C115  1  0.66704017  0.71385181  0.04297255  1.0
  C  C116  1  0.66344851  0.78151652  0.02848515  1.0
  C  C117  1  0.60029219  0.80668787  0.01633238  1.0
  C  C118  1  0.70695864  0.29909085  0.12686267  1.0
  C  C119  1  0.70076091  0.36651950  0.11313906  1.0
  C  C120  1  0.63749918  0.39287875  0.10415556  1.0
  C  C121  1  0.58057193  0.34964540  0.10742901  1.0
  C  C122  1  0.58531377  0.28146747  0.11921338  1.0
  C  C123  1  0.64903900  0.25705377  0.13059339  1.0
  C  C124  1  0.08054505  0.21080294  0.95620510  1.0
  C  C125  1  0.33594969  0.12078221  0.10110968  1.0
  C  C126  1  0.15789572  0.24178015  0.16727878  1.0
  C  C127  1  0.24852707  0.07281153  0.89814224  1.0
  C  C128  1  0.16561175  0.85744232  0.20189820  1.0
  C  C129  1  0.91350536  0.94060454  0.04349179  1.0
  C  C130  1  0.21701576  0.06054705  0.28318734  1.0
  C  C131  1  0.29865394  0.90827048  0.02639613  1.0
  C  C132  1  0.02643291  0.99658846  0.87011004  1.0
  C  C133  1  0.95340046  0.16236532  0.12327445  1.0
  C  C134  1  0.00414969  0.98575053  0.25551044  1.0
  C  C135  1  0.08183725  0.82412623  0.98284146  1.0
  C  C136  1  0.79470913  0.23517822  0.18608828  1.0
  C  C137  1  0.77380866  0.27042410  0.13111618  1.0
  C  C138  1  0.81612237  0.27529880  0.07706748  1.0
  C  C139  1  0.87510738  0.24155945  0.07588542  1.0
  C  C140  1  0.89496376  0.20525025  0.13044661  1.0
  C  C141  1  0.85569647  0.20416875  0.18662027  1.0
  C  C142  1  0.47278535  0.24973363  0.06829112  1.0
  C  C143  1  0.52377715  0.23709697  0.11524453  1.0
  C  C144  1  0.51369746  0.18234868  0.15573113  1.0
  C  C145  1  0.45415362  0.14267914  0.15060369  1.0
  C  C146  1  0.40293497  0.15742566  0.10521796  1.0
  C  C147  1  0.41326058  0.21107617  0.06364376  1.0
  C  C148  1  0.73634288  0.87771618  0.98796432  1.0
  C  C149  1  0.72549538  0.82497427  0.03073965  1.0
  C  C150  1  0.77597168  0.81362431  0.07860964  1.0
  C  C151  1  0.83579114  0.85171528  0.08208314  1.0
  C  C152  1  0.84681055  0.90350064  0.03844829  1.0
  C  C153  1  0.79618931  0.91691052  0.99189366  1.0
  C  C154  1  0.43378624  0.79279199  0.07184277  1.0
  C  C155  1  0.47584473  0.79637682  0.01753147  1.0
  C  C156  1  0.45604499  0.83266701  0.96286850  1.0
  C  C157  1  0.39616043  0.86560619  0.96267546  1.0
  C  C158  1  0.35709748  0.86544346  0.01896566  1.0
  C  C159  1  0.37613396  0.82856266  0.07340347  1.0
  C  C160  1  0.66704100  0.58177787  0.10662118  1.0
  C  C161  1  0.61558261  0.60093020  0.06330894  1.0
  C  C162  1  0.57114235  0.55030478  0.03440837  1.0
  C  C163  1  0.57847119  0.48342540  0.04765039  1.0
  C  C164  1  0.63027511  0.46414690  0.09053421  1.0
  C  C165  1  0.67435459  0.51487892  0.11988791  1.0
  C  C166  1  0.29110639  0.03844110  0.72007778  1.0
  C  C167  1  0.35354933  0.07310363  0.71520102  1.0
  C  C168  1  0.38090987  0.11053092  0.77127401  1.0
  C  C169  1  0.34645726  0.11392579  0.83045350  1.0
  C  C170  1  0.28532137  0.07753209  0.83513002  1.0
  C  C171  1  0.25808042  0.03950850  0.77940678  1.0
  C  C172  1  0.36372937  0.07365707  0.40598230  1.0
  C  C173  1  0.33362855  0.06771911  0.46773151  1.0
  C  C174  1  0.26306826  0.06414830  0.46798569  1.0
  C  C175  1  0.22424980  0.06555179  0.40932673  1.0
  C  C176  1  0.25526461  0.06757204  0.34819909  1.0
  C  C177  1  0.32544509  0.07178994  0.34719049  1.0
  C  C178  1  0.96944518  0.94134958  0.69284327  1.0
  C  C179  1  0.91100859  0.97700248  0.68493009  1.0
  C  C180  1  0.89184360  0.01838336  0.73859465  1.0
  C  C181  1  0.92934266  0.02377033  0.79787774  1.0
  C  C182  1  0.98768015  0.98826258  0.80538336  1.0
  C  C183  1  0.00750509  0.94697252  0.75228450  1.0
  C  C184  1  0.87841296  0.92927548  0.38151876  1.0
  C  C185  1  0.89917823  0.97074975  0.43737629  1.0
  C  C186  1  0.95566656  0.01487045  0.43295803  1.0
  C  C187  1  0.98912299  0.01886833  0.37402116  1.0
  C  C188  1  0.96849379  0.97693644  0.31853964  1.0
  C  C189  1  0.91357389  0.93132109  0.32290867  1.0
  C  C190  1  0.65930305  0.03571705  0.52235427  1.0
  C  C191  1  0.69009143  0.99366951  0.56680816  1.0
  C  C192  1  0.65094439  0.96694509  0.61683716  1.0
  C  C193  1  0.58423420  0.98235934  0.62281224  1.0
  C  C194  1  0.55370227  0.02502577  0.57882096  1.0
  C  C195  1  0.59259720  0.05103794  0.52825865  1.0
  C  C196  1  0.22711363  0.69979292  0.27611078  1.0
  C  C197  1  0.17086430  0.67823546  0.31083653  1.0
  C  C198  1  0.11571814  0.71902220  0.31346454  1.0
  C  C199  1  0.11510637  0.77743238  0.27892998  1.0
  C  C200  1  0.17120785  0.79832479  0.24381873  1.0
  C  C201  1  0.22800816  0.76017220  0.24419760  1.0
  C  C202  1  0.18032872  0.36653752  0.31324848  1.0
  C  C203  1  0.17074768  0.42837793  0.28470347  1.0
  C  C204  1  0.16220353  0.42822589  0.21501769  1.0
  C  C205  1  0.16207935  0.36899003  0.17561543  1.0
  C  C206  1  0.16737176  0.30763216  0.20535122  1.0
  C  C207  1  0.17678550  0.30712476  0.27468987  1.0
  C  C208  1  0.07380341  0.63825951  0.93547363  1.0
  C  C209  1  0.06880592  0.63801116  0.86549963  1.0
  C  C210  1  0.06195535  0.70000361  0.83640107  1.0
  C  C211  1  0.06477394  0.75949075  0.87480192  1.0
  C  C212  1  0.07081890  0.75889577  0.94431720  1.0
  C  C213  1  0.07323157  0.69755236  0.97455947  1.0
  C  C214  1  0.02968307  0.33361246  0.82742858  1.0
  C  C215  1  0.07214625  0.38963895  0.84682057  1.0
  C  C216  1  0.11567571  0.38608921  0.90274309  1.0
  C  C217  1  0.11775559  0.32803304  0.93743484  1.0
  C  C218  1  0.07430615  0.27267678  0.91857281  1.0
  C  C219  1  0.02969198  0.27597136  0.86385965  1.0
  C  C220  1  0.14278872  0.48066857  0.60989221  1.0
  C  C221  1  0.10044184  0.52403536  0.64306935  1.0
  C  C222  1  0.07174217  0.57408132  0.60634441  1.0
  C  C223  1  0.08502637  0.58075074  0.53954277  1.0
  C  C224  1  0.12754929  0.53752961  0.50638077  1.0
  C  C225  1  0.15607247  0.48739106  0.54309927  1.0
  O  O226  1  0.03126333  0.16872973  0.95953498  1.0
  O  O227  1  0.32565987  0.06621880  0.12969427  1.0
  O  O228  1  0.18221880  0.23242655  0.11044566  1.0
  O  O229  1  0.24788403  0.12153212  0.94061377  1.0
  O  O230  1  0.21772857  0.01520204  0.90268476  1.0
  O  O231  1  0.12413367  0.19761294  0.19871253  1.0
  O  O232  1  0.29116065  0.15081446  0.06789565  1.0
  O  O233  1  0.13934399  0.20530522  0.98281348  1.0
  O  O234  1  0.20647261  0.03292092  0.04351070  1.0
  O  O235  1  0.09411131  0.11548462  0.07920609  1.0
  O  O236  1  0.19915297  0.10494762  0.14808604  1.0
  O  O237  1  0.12059937  0.07359929  0.96397881  1.0
  O  O238  1  0.21617834  0.89658423  0.19315095  1.0
  O  O239  1  0.92365809  0.99589501  0.01604416  1.0
  O  O240  1  0.16100358  0.08682525  0.27531965  1.0
  O  O241  1  0.25757133  0.91539217  0.97819795  1.0
  O  O242  1  0.08155107  0.96862616  0.87835074  1.0
  O  O243  1  0.99308643  0.15350682  0.17223788  1.0
  O  O244  1  0.00462479  0.93793048  0.21176059  1.0
  O  O245  1  0.05847323  0.83319832  0.04019881  1.0
  O  O246  1  0.03192011  0.04456617  0.25082233  1.0
  O  O247  1  0.11785386  0.86724107  0.95245248  1.0
  O  O248  1  0.24713316  0.02680983  0.23827312  1.0
  O  O249  1  0.95692392  0.13537184  0.06430541  1.0
  O  O250  1  0.99941425  0.03433168  0.91403933  1.0
  O  O251  1  0.29536199  0.93514638  0.08544714  1.0
  O  O252  1  0.10653951  0.86237632  0.17590551  1.0
  O  O253  1  0.95756085  0.91131413  0.07820937  1.0
  O  O254  1  0.06762267  0.97796373  0.02248591  1.0
  O  O255  1  0.12621983  0.00058438  0.15876548  1.0
  O  O256  1  0.01112044  0.03040626  0.11934435  1.0
  O  O257  1  0.16349143  0.91824820  0.07159751  1.0
