# generated using pymatgen
data_Cu2H21C22(NO2)5
_symmetry_space_group_name_H-M   'P 1'
_cell_length_a   16.29800880
_cell_length_b   16.29803032
_cell_length_c   18.44731100
_cell_angle_alpha   100.56398496
_cell_angle_beta   100.56418363
_cell_angle_gamma   91.16694195
_symmetry_Int_Tables_number   1
_chemical_formula_structural   Cu2H21C22(NO2)5
_chemical_formula_sum   'Cu8 H84 C88 N20 O40'
_cell_volume   4727.98250605
_cell_formula_units_Z   4
loop_
 _symmetry_equiv_pos_site_id
 _symmetry_equiv_pos_as_xyz
  1  'x, y, z'
loop_
 _atom_site_type_symbol
 _atom_site_label
 _atom_site_symmetry_multiplicity
 _atom_site_fract_x
 _atom_site_fract_y
 _atom_site_fract_z
 _atom_site_occupancy
  Cu  Cu0  1  0.12700475  0.57263574  0.44195019  1.0
  Cu  Cu1  1  0.97469651  0.58367212  0.53896517  1.0
  Cu  Cu2  1  0.42736715  0.87299590  0.05805258  1.0
  Cu  Cu3  1  0.41632814  0.02530355  0.96103250  1.0
  Cu  Cu4  1  0.87299599  0.42736506  0.55805082  1.0
  Cu  Cu5  1  0.02530229  0.41632743  0.46103315  1.0
  Cu  Cu6  1  0.57263349  0.12700303  0.94194756  1.0
  Cu  Cu7  1  0.58367254  0.97469601  0.03896613  1.0
  H  H8  1  0.87140374  0.47036825  0.44085304  1.0
  H  H9  1  0.93229206  0.63293918  0.23166600  1.0
  H  H10  1  0.94067653  0.52232941  0.22423694  1.0
  H  H11  1  0.84856451  0.63437412  0.33360843  1.0
  H  H12  1  0.85522840  0.52395874  0.32444696  1.0
  H  H13  1  0.73719491  0.34805062  0.05746599  1.0
  H  H14  1  0.64192490  0.38873898  0.01787445  1.0
  H  H15  1  0.58507249  0.37958647  0.13456485  1.0
  H  H16  1  0.67870242  0.33700862  0.17260185  1.0
  H  H17  1  0.65116802  0.72339541  0.18437254  1.0
  H  H18  1  0.57846864  0.65830265  0.11103434  1.0
  H  H19  1  0.65197530  0.69783616  0.01501247  1.0
  H  H20  1  0.73102509  0.75657157  0.08568789  1.0
  H  H21  1  0.07289059  0.70209974  0.34783840  1.0
  H  H22  1  0.13463893  0.77250430  0.25959536  1.0
  H  H23  1  0.35530086  0.63341360  0.30793752  1.0
  H  H24  1  0.28163765  0.56624379  0.39126173  1.0
  H  H25  1  0.06051890  0.74163440  0.53582399  1.0
  H  H26  1  0.15946384  0.84870722  0.62753453  1.0
  H  H27  1  0.12926388  0.70717219  0.79902733  1.0
  H  H28  1  0.03196294  0.60805101  0.70070782  1.0
  H  H29  1  0.52963052  0.12859518  0.05914725  1.0
  H  H30  1  0.36706248  0.06770743  0.26833363  1.0
  H  H31  1  0.47767173  0.05932302  0.27576224  1.0
  H  H32  1  0.36562541  0.15143593  0.16639143  1.0
  H  H33  1  0.47604118  0.14477264  0.17555322  1.0
  H  H34  1  0.65194913  0.26280459  0.44253345  1.0
  H  H35  1  0.61126066  0.35807491  0.48212538  1.0
  H  H36  1  0.62041357  0.41492700  0.36543547  1.0
  H  H37  1  0.66298965  0.32129731  0.32739733  1.0
  H  H38  1  0.27660261  0.34882855  0.31562550  1.0
  H  H39  1  0.34169481  0.42152981  0.38896444  1.0
  H  H40  1  0.30216411  0.34802312  0.48498574  1.0
  H  H41  1  0.24342636  0.26897434  0.41431175  1.0
  H  H42  1  0.29790088  0.92710802  0.15216179  1.0
  H  H43  1  0.22749625  0.86536084  0.24040500  1.0
  H  H44  1  0.36658637  0.64469874  0.19206321  1.0
  H  H45  1  0.43375615  0.71836220  0.10873957  1.0
  H  H46  1  0.25836375  0.93947891  0.96417472  1.0
  H  H47  1  0.15129217  0.84053469  0.87246178  1.0
  H  H48  1  0.29283019  0.87073693  0.70097108  1.0
  H  H49  1  0.39195079  0.96803717  0.79929418  1.0
  H  H50  1  0.12859634  0.52963192  0.55914722  1.0
  H  H51  1  0.06770802  0.36706100  0.76833372  1.0
  H  H52  1  0.05932355  0.47767077  0.77576224  1.0
  H  H53  1  0.15143682  0.36562606  0.66639149  1.0
  H  H54  1  0.14477168  0.47604144  0.67555330  1.0
  H  H55  1  0.26280511  0.65194831  0.94253405  1.0
  H  H56  1  0.35807515  0.61126057  0.98212624  1.0
  H  H57  1  0.41492693  0.62041308  0.86543574  1.0
  H  H58  1  0.32129763  0.66299093  0.82739830  1.0
  H  H59  1  0.34883075  0.27660351  0.81562730  1.0
  H  H60  1  0.42153078  0.34169690  0.88896625  1.0
  H  H61  1  0.34802475  0.30216339  0.98498714  1.0
  H  H62  1  0.26897493  0.24342736  0.91431215  1.0
  H  H63  1  0.92710824  0.29790043  0.65216220  1.0
  H  H64  1  0.86536115  0.22749588  0.74040436  1.0
  H  H65  1  0.64469922  0.36658658  0.69206166  1.0
  H  H66  1  0.71836181  0.43375638  0.60873843  1.0
  H  H67  1  0.93947993  0.25836577  0.46417660  1.0
  H  H68  1  0.84053562  0.15129296  0.37246562  1.0
  H  H69  1  0.87073564  0.29282924  0.20097250  1.0
  H  H70  1  0.96803710  0.39194855  0.29929233  1.0
  H  H71  1  0.47036956  0.87140499  0.94085301  1.0
  H  H72  1  0.63293823  0.93229276  0.73166565  1.0
  H  H73  1  0.52232897  0.94067717  0.72423758  1.0
  H  H74  1  0.63437399  0.84856300  0.83360743  1.0
  H  H75  1  0.52395950  0.85522691  0.82444595  1.0
  H  H76  1  0.34805032  0.73719558  0.55746670  1.0
  H  H77  1  0.38873880  0.64192527  0.51787478  1.0
  H  H78  1  0.37958651  0.58507318  0.63456425  1.0
  H  H79  1  0.33701105  0.67870287  0.67260358  1.0
  H  H80  1  0.72339619  0.65117100  0.68437391  1.0
  H  H81  1  0.65830468  0.57847100  0.61103528  1.0
  H  H82  1  0.69783600  0.65197768  0.51501409  1.0
  H  H83  1  0.75657313  0.73102646  0.58568851  1.0
  H  H84  1  0.70209858  0.07289215  0.84783782  1.0
  H  H85  1  0.77250320  0.13463933  0.75959516  1.0
  H  H86  1  0.63341430  0.35530082  0.80793758  1.0
  H  H87  1  0.56624389  0.28163735  0.89126112  1.0
  H  H88  1  0.74163571  0.06052127  0.03582490  1.0
  H  H89  1  0.84870670  0.15946611  0.12753784  1.0
  H  H90  1  0.70716930  0.12926387  0.29902755  1.0
  H  H91  1  0.60804926  0.03196239  0.20070651  1.0
  C  C92  1  0.77520938  0.62985919  0.17870987  1.0
  C  C93  1  0.66299272  0.53368160  0.09722331  1.0
  C  C94  1  0.79574460  0.47863445  0.15143645  1.0
  C  C95  1  0.90244334  0.57493369  0.23908852  1.0
  C  C96  1  0.88757968  0.58203646  0.31949171  1.0
  C  C97  1  0.96926435  0.59503795  0.37576000  1.0
  C  C98  1  0.68379894  0.38364288  0.07025776  1.0
  C  C99  1  0.63692695  0.34202849  0.11961831  1.0
  C  C100  1  0.60055889  0.25471319  0.08100242  1.0
  C  C101  1  0.64291290  0.68430078  0.12822556  1.0
  C  C102  1  0.66466649  0.73564664  0.07228302  1.0
  C  C103  1  0.61143651  0.81149664  0.07168384  1.0
  C  C104  1  0.13496448  0.68840392  0.33630999  1.0
  C  C105  1  0.17052883  0.72802437  0.28804322  1.0
  C  C106  1  0.25099835  0.70893175  0.27557368  1.0
  C  C107  1  0.29208989  0.64995203  0.31377182  1.0
  C  C108  1  0.25251698  0.61291407  0.36112377  1.0
  C  C109  1  0.07766867  0.73806622  0.59510595  1.0
  C  C110  1  0.13267451  0.79647285  0.64644781  1.0
  C  C111  1  0.15236710  0.78795572  0.72197367  1.0
  C  C112  1  0.11459834  0.71961804  0.74221001  1.0
  C  C113  1  0.06074524  0.66324978  0.68769235  1.0
  C  C114  1  0.37014126  0.22478935  0.32128922  1.0
  C  C115  1  0.46631756  0.33700698  0.40277516  1.0
  C  C116  1  0.52136488  0.20425631  0.34856360  1.0
  C  C117  1  0.42506681  0.09755651  0.26091156  1.0
  C  C118  1  0.41796370  0.11242070  0.18050783  1.0
  C  C119  1  0.40496095  0.03073750  0.12423912  1.0
  C  C120  1  0.61635640  0.31620056  0.42974203  1.0
  C  C121  1  0.65797115  0.36307371  0.38038171  1.0
  C  C122  1  0.74528616  0.39943886  0.41899824  1.0
  C  C123  1  0.31569829  0.35708548  0.37177407  1.0
  C  C124  1  0.26435298  0.33533373  0.42771696  1.0
  C  C125  1  0.18850451  0.38856429  0.42831685  1.0
  C  C126  1  0.31159609  0.86503560  0.16368990  1.0
  C  C127  1  0.27197680  0.82947261  0.21195708  1.0
  C  C128  1  0.29106928  0.74900100  0.22442747  1.0
  C  C129  1  0.35004684  0.70791072  0.18622878  1.0
  C  C130  1  0.38708515  0.74748256  0.13887726  1.0
  C  C131  1  0.26193228  0.92233061  0.90489146  1.0
  C  C132  1  0.20352757  0.86732573  0.85355007  1.0
  C  C133  1  0.21204406  0.84763358  0.77802313  1.0
  C  C134  1  0.28038135  0.88540355  0.75778968  1.0
  C  C135  1  0.33674987  0.93925347  0.81230633  1.0
  C  C136  1  0.22479070  0.37014099  0.82128984  1.0
  C  C137  1  0.33700795  0.46631796  0.90277640  1.0
  C  C138  1  0.20425548  0.52136573  0.84856381  1.0
  C  C139  1  0.09755733  0.42506586  0.76091119  1.0
  C  C140  1  0.11242106  0.41796435  0.68050822  1.0
  C  C141  1  0.03073636  0.40496223  0.62424036  1.0
  C  C142  1  0.31620048  0.61635667  0.92974229  1.0
  C  C143  1  0.36307317  0.65797231  0.88038205  1.0
  C  C144  1  0.39944060  0.74528761  0.91899893  1.0
  C  C145  1  0.35708715  0.31569878  0.87177459  1.0
  C  C146  1  0.33533419  0.26435292  0.92771669  1.0
  C  C147  1  0.38856486  0.18850417  0.92831511  1.0
  C  C148  1  0.86503563  0.31159688  0.66368983  1.0
  C  C149  1  0.82947256  0.27197707  0.71195692  1.0
  C  C150  1  0.74900114  0.29106905  0.72442658  1.0
  C  C151  1  0.70791016  0.35004753  0.68622779  1.0
  C  C152  1  0.74748369  0.38708549  0.63887648  1.0
  C  C153  1  0.92233079  0.26193396  0.40489366  1.0
  C  C154  1  0.86732498  0.20352795  0.35355299  1.0
  C  C155  1  0.84763173  0.21204445  0.27802530  1.0
  C  C156  1  0.88540236  0.28038214  0.25779089  1.0
  C  C157  1  0.93925484  0.33675040  0.31230737  1.0
  C  C158  1  0.62985882  0.77521084  0.67870942  1.0
  C  C159  1  0.53368196  0.66299445  0.59722521  1.0
  C  C160  1  0.47863520  0.79574387  0.65143612  1.0
  C  C161  1  0.57493330  0.90244429  0.73908826  1.0
  C  C162  1  0.58203632  0.88757823  0.81949113  1.0
  C  C163  1  0.59503851  0.96926268  0.87576049  1.0
  C  C164  1  0.38364308  0.68380024  0.57025823  1.0
  C  C165  1  0.34202896  0.63692709  0.61961920  1.0
  C  C166  1  0.25471392  0.60056131  0.58100256  1.0
  C  C167  1  0.68430114  0.64291407  0.62822544  1.0
  C  C168  1  0.73564651  0.66466707  0.57228276  1.0
  C  C169  1  0.81149554  0.61143526  0.57168384  1.0
  C  C170  1  0.68840337  0.13496458  0.83631025  1.0
  C  C171  1  0.72802265  0.17052756  0.78804308  1.0
  C  C172  1  0.70893139  0.25099855  0.77557278  1.0
  C  C173  1  0.64995268  0.29209070  0.81377213  1.0
  C  C174  1  0.61291490  0.25251700  0.86112289  1.0
  C  C175  1  0.73806655  0.07766956  0.09510913  1.0
  C  C176  1  0.79647129  0.13267507  0.14644955  1.0
  C  C177  1  0.78795550  0.15236847  0.22197680  1.0
  C  C178  1  0.71961626  0.11459724  0.24221028  1.0
  C  C179  1  0.66324834  0.06074670  0.18769254  1.0
  N  N180  1  0.82262387  0.56045890  0.18553193  1.0
  N  N181  1  0.71618272  0.46882080  0.10701193  1.0
  N  N182  1  0.69605555  0.61314852  0.13394640  1.0
  N  N183  1  0.17516379  0.63168278  0.37199043  1.0
  N  N184  1  0.04271370  0.67243681  0.61551268  1.0
  N  N185  1  0.43954108  0.17737723  0.31446818  1.0
  N  N186  1  0.53117848  0.28381673  0.39298723  1.0
  N  N187  1  0.38685005  0.30394313  0.36605228  1.0
  N  N188  1  0.36831739  0.82483465  0.12800935  1.0
  N  N189  1  0.32756334  0.95728655  0.88448628  1.0
  N  N190  1  0.17737680  0.43954066  0.81446833  1.0
  N  N191  1  0.28381736  0.53117938  0.89298779  1.0
  N  N192  1  0.30394391  0.38685166  0.86605321  1.0
  N  N193  1  0.82483445  0.36831802  0.62800962  1.0
  N  N194  1  0.95728638  0.32756337  0.38448757  1.0
  N  N195  1  0.56045847  0.82262482  0.68553175  1.0
  N  N196  1  0.46882101  0.71618407  0.60701249  1.0
  N  N197  1  0.61314882  0.69605767  0.63394734  1.0
  N  N198  1  0.63168141  0.17516489  0.87199114  1.0
  N  N199  1  0.67243671  0.04271301  0.11551278  1.0
  O  O200  1  0.80153547  0.70090194  0.21054841  1.0
  O  O201  1  0.59231159  0.52110891  0.05901565  1.0
  O  O202  1  0.83943878  0.41900458  0.15958539  1.0
  O  O203  1  0.02292941  0.53873679  0.36418852  1.0
  O  O204  1  0.98268045  0.65687143  0.42912933  1.0
  O  O205  1  0.62264781  0.22673787  0.01798253  1.0
  O  O206  1  0.55288337  0.21667148  0.11205189  1.0
  O  O207  1  0.54450660  0.81012692  0.09632529  1.0
  O  O208  1  0.64082210  0.87102036  0.04507773  1.0
  O  O209  1  0.92259565  0.47459637  0.48314202  1.0
  O  O210  1  0.29909658  0.19846248  0.28945072  1.0
  O  O211  1  0.47888958  0.40768787  0.44098314  1.0
  O  O212  1  0.58099644  0.16056189  0.34041450  1.0
  O  O213  1  0.46126310  0.97707151  0.13581154  1.0
  O  O214  1  0.34312693  0.01732151  0.07087183  1.0
  O  O215  1  0.77326087  0.37734994  0.48201755  1.0
  O  O216  1  0.78332943  0.44711594  0.38794872  1.0
  O  O217  1  0.18987371  0.45549581  0.40367820  1.0
  O  O218  1  0.12897900  0.35917902  0.45492268  1.0
  O  O219  1  0.52540320  0.07740472  0.01685816  1.0
  O  O220  1  0.19846458  0.29909762  0.78945120  1.0
  O  O221  1  0.40768787  0.47889126  0.94098451  1.0
  O  O222  1  0.16056193  0.58099560  0.84041443  1.0
  O  O223  1  0.97707126  0.46126277  0.63581227  1.0
  O  O224  1  0.01732081  0.34312750  0.57087146  1.0
  O  O225  1  0.37735165  0.77326231  0.98201708  1.0
  O  O226  1  0.44711858  0.78332871  0.88794922  1.0
  O  O227  1  0.45549411  0.18987327  0.90367399  1.0
  O  O228  1  0.35917916  0.12897857  0.95492252  1.0
  O  O229  1  0.07740443  0.52540381  0.51685878  1.0
  O  O230  1  0.70090291  0.80153832  0.71054846  1.0
  O  O231  1  0.52110984  0.59231168  0.55901691  1.0
  O  O232  1  0.41900305  0.83943891  0.65958577  1.0
  O  O233  1  0.53873757  0.02292805  0.86418817  1.0
  O  O234  1  0.65687239  0.98267616  0.92912844  1.0
  O  O235  1  0.22673862  0.62265086  0.51798325  1.0
  O  O236  1  0.21667003  0.55288424  0.61205089  1.0
  O  O237  1  0.81012519  0.54450561  0.59632261  1.0
  O  O238  1  0.87102111  0.64082178  0.54507768  1.0
  O  O239  1  0.47459626  0.92259545  0.98314199  1.0
