# generated using pymatgen
data_AlH5C12I2O5
_symmetry_space_group_name_H-M   'P 1'
_cell_length_a   6.68958017
_cell_length_b   20.54851579
_cell_length_c   23.49245703
_cell_angle_alpha   102.64209441
_cell_angle_beta   89.99969252
_cell_angle_gamma   89.99827626
_symmetry_Int_Tables_number   1
_chemical_formula_structural   AlH5C12I2O5
_chemical_formula_sum   'Al4 H20 C48 I8 O20'
_cell_volume   3151.00502559
_cell_formula_units_Z   4
loop_
 _symmetry_equiv_pos_site_id
 _symmetry_equiv_pos_as_xyz
  1  'x, y, z'
loop_
 _atom_site_type_symbol
 _atom_site_label
 _atom_site_symmetry_multiplicity
 _atom_site_fract_x
 _atom_site_fract_y
 _atom_site_fract_z
 _atom_site_occupancy
  Al  Al0  1  0.70596344  0.24846949  0.74938176  1.0
  Al  Al1  1  0.29402751  0.75152452  0.25060899  1.0
  Al  Al2  1  0.20597227  0.25152485  0.75061105  1.0
  Al  Al3  1  0.79403812  0.74846640  0.24937837  1.0
  H  H4  1  0.75958041  0.59545740  0.34334870  1.0
  H  H5  1  0.24040905  0.40454684  0.65665213  1.0
  H  H6  1  0.25956759  0.90455139  0.15664673  1.0
  H  H7  1  0.74041887  0.09545075  0.84335147  1.0
  H  H8  1  0.81787473  0.46149765  0.46962642  1.0
  H  H9  1  0.18211323  0.53850799  0.53037616  1.0
  H  H10  1  0.31788186  0.03851628  0.03037923  1.0
  H  H11  1  0.68210759  0.96149807  0.96962514  1.0
  H  H12  1  0.66510224  0.32164767  0.60096536  1.0
  H  H13  1  0.33487078  0.67836515  0.39904074  1.0
  H  H14  1  0.16511683  0.17836585  0.89903468  1.0
  H  H15  1  0.83489056  0.82165013  0.10096839  1.0
  H  H16  1  0.22789002  0.47280835  0.58213168  1.0
  H  H17  1  0.77208598  0.52720252  0.41787441  1.0
  H  H18  1  0.72790344  0.02720221  0.91788075  1.0
  H  H19  1  0.27208900  0.97281071  0.08212579  1.0
  H  H20  1  0.46178233  0.33726061  0.77234626  1.0
  H  H21  1  0.53820712  0.66273177  0.22765580  1.0
  H  H22  1  0.96180431  0.16273597  0.72766001  1.0
  H  H23  1  0.03819411  0.83725557  0.27234466  1.0
  C  C24  1  0.45407581  0.17940482  0.81986073  1.0
  C  C25  1  0.54591215  0.82059302  0.18013179  1.0
  C  C26  1  0.95407639  0.32059417  0.68013514  1.0
  C  C27  1  0.04592204  0.67940367  0.31985737  1.0
  C  C28  1  0.45348595  0.16350251  0.66151339  1.0
  C  C29  1  0.54650649  0.83649177  0.33847649  1.0
  C  C30  1  0.95348081  0.33649363  0.83848071  1.0
  C  C31  1  0.04652658  0.66350044  0.16150829  1.0
  C  C32  1  0.05148778  0.61478196  0.10720779  1.0
  C  C33  1  0.94852559  0.38520878  0.89278555  1.0
  C  C34  1  0.55146220  0.88520706  0.39278609  1.0
  C  C35  1  0.44856014  0.11477800  0.60721592  1.0
  C  C36  1  0.06132145  0.52712356  0.00821762  1.0
  C  C37  1  0.93866950  0.47286110  0.99177873  1.0
  C  C38  1  0.56136669  0.97284382  0.49178176  1.0
  C  C39  1  0.43874385  0.02711329  0.50823142  1.0
  C  C40  1  0.94601338  0.42673671  0.93877007  1.0
  C  C41  1  0.05398056  0.57325148  0.06122282  1.0
  C  C42  1  0.44608549  0.07324172  0.56123703  1.0
  C  C43  1  0.55400562  0.92672386  0.43877097  1.0
  C  C44  1  0.04827190  0.64014204  0.36611494  1.0
  C  C45  1  0.95171456  0.35986139  0.63388457  1.0
  C  C46  1  0.54827260  0.85986405  0.13388298  1.0
  C  C47  1  0.45172284  0.14013994  0.86611480  1.0
  C  C48  1  0.88845509  0.59803318  0.37212488  1.0
  C  C49  1  0.11152988  0.40197040  0.62787725  1.0
  C  C50  1  0.38845647  0.90197377  0.12787617  1.0
  C  C51  1  0.61153747  0.09802835  0.87212595  1.0
  C  C52  1  0.89659004  0.56016034  0.41410183  1.0
  C  C53  1  0.10339194  0.43984794  0.58590164  1.0
  C  C54  1  0.39659010  0.93985220  0.08590053  1.0
  C  C55  1  0.60339636  0.06015791  0.91410643  1.0
  C  C56  1  0.05829475  0.56439764  0.45360027  1.0
  C  C57  1  0.94168574  0.43561389  0.54640452  1.0
  C  C58  1  0.55829735  0.93561481  0.04640419  1.0
  C  C59  1  0.44168762  0.06439812  0.95360235  1.0
  C  C60  1  0.21346236  0.60956351  0.44797622  1.0
  C  C61  1  0.78652111  0.39045098  0.55203077  1.0
  C  C62  1  0.71347358  0.89045235  0.05203249  1.0
  C  C63  1  0.28652335  0.10956290  0.94797363  1.0
  C  C64  1  0.21186306  0.64539451  0.40408172  1.0
  C  C65  1  0.78812042  0.35461388  0.59592218  1.0
  C  C66  1  0.71186640  0.85461781  0.09592436  1.0
  C  C67  1  0.28813053  0.14539465  0.90407826  1.0
  C  C68  1  0.06332790  0.52512547  0.49805830  1.0
  C  C69  1  0.93666006  0.47488250  0.50194385  1.0
  C  C70  1  0.56332462  0.97488591  0.00194395  1.0
  C  C71  1  0.43665886  0.02513098  0.99806087  1.0
  I  I72  1  0.71686937  0.45430269  0.05033094  1.0
  I  I73  1  0.28310066  0.54568021  0.94966017  1.0
  I  I74  1  0.21692090  0.04567616  0.44968052  1.0
  I  I75  1  0.78324047  0.95428165  0.55031349  1.0
  I  I76  1  0.45911179  0.62589335  0.50620231  1.0
  I  I77  1  0.54083880  0.37413210  0.49381171  1.0
  I  I78  1  0.95914230  0.87412477  0.99380764  1.0
  I  I79  1  0.04086509  0.12589856  0.00619765  1.0
  O  O80  1  0.28484792  0.18389307  0.68349334  1.0
  O  O81  1  0.71514602  0.81610051  0.31649566  1.0
  O  O82  1  0.78483610  0.31610177  0.81650267  1.0
  O  O83  1  0.21516532  0.68389116  0.18348763  1.0
  O  O84  1  0.62423857  0.19138404  0.79984263  1.0
  O  O85  1  0.37576135  0.80860780  0.20014723  1.0
  O  O86  1  0.12422051  0.30860900  0.70014960  1.0
  O  O87  1  0.87576895  0.69138479  0.29984028  1.0
  O  O88  1  0.62551966  0.18120398  0.68235234  1.0
  O  O89  1  0.37448774  0.81879413  0.31763930  1.0
  O  O90  1  0.12550759  0.31879786  0.81764212  1.0
  O  O91  1  0.87450429  0.68119911  0.18235083  1.0
  O  O92  1  0.78502013  0.30282306  0.69656231  1.0
  O  O93  1  0.21498129  0.69716758  0.30343059  1.0
  O  O94  1  0.28502116  0.19717313  0.80343327  1.0
  O  O95  1  0.71495932  0.80281888  0.19655528  1.0
  O  O96  1  0.45759609  0.29003805  0.75470404  1.0
  O  O97  1  0.54240981  0.70995691  0.24529064  1.0
  O  O98  1  0.95759242  0.20995970  0.74529486  1.0
  O  O99  1  0.04239853  0.79003348  0.25469850  1.0
