# generated using pymatgen
data_Zn4H50C60N4O19
_symmetry_space_group_name_H-M   'P 1'
_cell_length_a   17.90958530
_cell_length_b   19.19247551
_cell_length_c   19.24733341
_cell_angle_alpha   95.03002394
_cell_angle_beta   99.15503177
_cell_angle_gamma   103.80290044
_symmetry_Int_Tables_number   1
_chemical_formula_structural   Zn4H50C60N4O19
_chemical_formula_sum   'Zn4 H50 C60 N4 O19'
_cell_volume   6288.27968218
_cell_formula_units_Z   1
loop_
 _symmetry_equiv_pos_site_id
 _symmetry_equiv_pos_as_xyz
  1  'x, y, z'
loop_
 _atom_site_type_symbol
 _atom_site_label
 _atom_site_symmetry_multiplicity
 _atom_site_fract_x
 _atom_site_fract_y
 _atom_site_fract_z
 _atom_site_occupancy
  Zn  Zn0  1  0.56500703  0.45511539  0.45296501  1.0
  Zn  Zn1  1  0.42835565  0.43055591  0.54424860  1.0
  Zn  Zn2  1  0.43655988  0.54297534  0.43216718  1.0
  Zn  Zn3  1  0.56776617  0.57800304  0.57705910  1.0
  H  H4  1  0.06923710  0.59699876  0.67790000  1.0
  H  H5  1  0.59535546  0.25434958  0.43648229  1.0
  H  H6  1  0.18985220  0.36704406  0.34319988  1.0
  H  H7  1  0.94850029  0.61736442  0.70653350  1.0
  H  H8  1  0.80435391  0.60290277  0.67343670  1.0
  H  H9  1  0.14119046  0.54599633  0.59804365  1.0
  H  H10  1  0.85370481  0.42592103  0.41946032  1.0
  H  H11  1  0.09673224  0.36571993  0.22941836  1.0
  H  H12  1  0.01285586  0.39906716  0.23599543  1.0
  H  H13  1  0.92572664  0.27297683  0.19479413  1.0
  H  H14  1  0.98329749  0.30350543  0.13063304  1.0
  H  H15  1  0.59768401  0.59146044  0.80079344  1.0
  H  H16  1  0.00964628  0.24063403  0.18670071  1.0
  H  H17  1  0.54253550  0.65942352  0.98176648  1.0
  H  H18  1  0.59165588  0.69636900  0.91428482  1.0
  H  H19  1  0.72170910  0.71318002  0.99634015  1.0
  H  H20  1  0.66115590  0.76111867  0.03467011  1.0
  H  H21  1  0.67150665  0.67744196  0.06341513  1.0
  H  H22  1  0.61125760  0.44621088  0.24551385  1.0
  H  H23  1  0.37725030  0.43062505  0.74654606  1.0
  H  H24  1  0.30178709  0.04483316  0.48311653  1.0
  H  H25  1  0.31100634  0.11498619  0.55369799  1.0
  H  H26  1  0.61862362  0.44707401  0.11583005  1.0
  H  H27  1  0.30301549  0.02647894  0.64111405  1.0
  H  H28  1  0.22027532  0.99692197  0.57066033  1.0
  H  H29  1  0.29978643  0.95557248  0.57369497  1.0
  H  H30  1  0.57561197  0.92106993  0.63318801  1.0
  H  H31  1  0.32554637  0.89076602  0.44714022  1.0
  H  H32  1  0.32906810  0.81727564  0.38461747  1.0
  H  H33  1  0.33713067  0.89997534  0.28976815  1.0
  H  H34  1  0.25083389  0.89566440  0.32593939  1.0
  H  H35  1  0.33257281  0.97265265  0.35185129  1.0
  H  H36  1  0.60840720  0.12671878  0.43993089  1.0
  H  H37  1  0.43503340  0.55662246  0.08874254  1.0
  H  H38  1  0.43836444  0.68851004  0.31126445  1.0
  H  H39  1  0.52380697  0.71690872  0.37808021  1.0
  H  H40  1  0.54984014  0.84267113  0.34095808  1.0
  H  H41  1  0.54707780  0.77559726  0.26985048  1.0
  H  H42  1  0.46546197  0.81336086  0.27267813  1.0
  H  H43  1  0.92316366  0.36104287  0.34704953  1.0
  H  H44  1  0.88495246  0.55967078  0.39852761  1.0
  H  H45  1  0.81546855  0.60789717  0.41883159  1.0
  H  H46  1  0.70964146  0.51789532  0.33100672  1.0
  H  H47  1  0.78693978  0.56096418  0.28888376  1.0
  H  H48  1  0.37101848  0.43193051  0.87639265  1.0
  H  H49  1  0.77950538  0.47115333  0.30937174  1.0
  H  H50  1  0.43065679  0.55947235  0.21915946  1.0
  H  H51  1  0.40084058  0.20547527  0.54446707  1.0
  H  H52  1  0.19863378  0.50629396  0.53332329  1.0
  H  H53  1  0.57300156  0.78924541  0.61734454  1.0
  C  C54  1  0.49244245  0.50907235  0.68910923  1.0
  C  C55  1  0.91699316  0.43686461  0.43282451  1.0
  C  C56  1  0.95551513  0.40058554  0.39240587  1.0
  C  C57  1  0.51723605  0.50476261  0.31676467  1.0
  C  C58  1  0.03820754  0.41313499  0.40846956  1.0
  C  C59  1  0.08127206  0.46100160  0.47057168  1.0
  C  C60  1  0.07861887  0.37848334  0.36403567  1.0
  C  C61  1  0.15930088  0.39290822  0.37824112  1.0
  C  C62  1  0.16336280  0.47146009  0.48597961  1.0
  C  C63  1  0.52098399  0.50336730  0.23974949  1.0
  C  C64  1  0.47111554  0.53461362  0.19572749  1.0
  C  C65  1  0.83687368  0.58287090  0.63637073  1.0
  C  C66  1  0.47342537  0.53321495  0.12395395  1.0
  C  C67  1  0.52673604  0.50112473  0.09553683  1.0
  C  C68  1  0.57751714  0.47094033  0.13942992  1.0
  C  C69  1  0.48992091  0.31211236  0.48917429  1.0
  C  C70  1  0.57365041  0.47092258  0.21099646  1.0
  C  C71  1  0.54780834  0.55371236  0.88944903  1.0
  C  C72  1  0.54852957  0.55565119  0.81734459  1.0
  C  C73  1  0.48323809  0.50748560  0.91063412  1.0
  C  C74  1  0.48820627  0.51030830  0.76603104  1.0
  C  C75  1  0.42395995  0.46520900  0.78704833  1.0
  C  C76  1  0.83640701  0.52593139  0.51809337  1.0
  C  C77  1  0.42074463  0.46561288  0.85860218  1.0
  C  C78  1  0.50467333  0.76804043  0.51211163  1.0
  C  C79  1  0.46725257  0.79816104  0.45622208  1.0
  C  C80  1  0.46836783  0.87234911  0.46486752  1.0
  C  C81  1  0.50121330  0.68943241  0.50973757  1.0
  C  C82  1  0.50939162  0.91662448  0.52881656  1.0
  C  C83  1  0.54585380  0.88602841  0.58405831  1.0
  C  C84  1  0.54439722  0.81346766  0.57519762  1.0
  C  C85  1  0.45398583  0.11696693  0.52583153  1.0
  C  C86  1  0.44593931  0.18725625  0.52181527  1.0
  C  C87  1  0.91641875  0.52480353  0.53803377  1.0
  C  C88  1  0.51502552  0.09593446  0.49688176  1.0
  C  C89  1  0.49718411  0.23651202  0.49065030  1.0
  C  C90  1  0.55658743  0.21544450  0.46112427  1.0
  C  C91  1  0.56417232  0.14560296  0.46361414  1.0
  C  C92  1  0.28868627  0.45433695  0.45646592  1.0
  C  C93  1  0.70943358  0.53983189  0.55074777  1.0
  C  C94  1  0.79588464  0.55018542  0.56792812  1.0
  C  C95  1  0.20140100  0.43928157  0.44011144  1.0
  C  C96  1  0.91609201  0.59011866  0.65453232  1.0
  C  C97  1  0.03589393  0.35063815  0.23834402  1.0
  C  C98  1  0.95682147  0.56114740  0.60673160  1.0
  C  C99  1  0.98570307  0.28818407  0.18446176  1.0
  C  C100  1  0.59761464  0.66706011  0.96094487  1.0
  C  C101  1  0.66725245  0.70703498  0.01724732  1.0
  C  C102  1  0.32279459  0.06209084  0.54060816  1.0
  C  C103  1  0.28417969  0.00696108  0.58416438  1.0
  C  C104  1  0.34630584  0.87649231  0.39808590  1.0
  C  C105  1  0.31507459  0.91356795  0.33792700  1.0
  C  C106  1  0.47746398  0.73565655  0.34638177  1.0
  C  C107  1  0.51181430  0.79546749  0.30508983  1.0
  C  C108  1  0.82250440  0.55430195  0.39984210  1.0
  C  C109  1  0.95746933  0.48749784  0.49401685  1.0
  C  C110  1  0.77150870  0.52420809  0.32797507  1.0
  C  C111  1  0.03940178  0.49659511  0.51498438  1.0
  C  C112  1  0.07854489  0.53877477  0.58122766  1.0
  C  C113  1  0.03860843  0.56782422  0.62606522  1.0
  N  N114  1  0.53485905  0.49896873  0.02350394  1.0
  N  N115  1  0.47471187  0.50388401  0.98172460  1.0
  N  N116  1  0.51087543  0.98998650  0.54188657  1.0
  N  N117  1  0.52496259  0.02577308  0.49107914  1.0
  O  O118  1  0.49941214  0.50255049  0.50270572  1.0
  O  O119  1  0.31843025  0.43279226  0.51261588  1.0
  O  O120  1  0.68068512  0.58656654  0.58138691  1.0
  O  O121  1  0.32576166  0.48770398  0.41273344  1.0
  O  O122  1  0.67045805  0.48314845  0.50902622  1.0
  O  O123  1  0.03462117  0.32811976  0.30788546  1.0
  O  O124  1  0.60900474  0.59689597  0.93888674  1.0
  O  O125  1  0.40573781  0.06721857  0.55602615  1.0
  O  O126  1  0.43113513  0.90180244  0.41174210  1.0
  O  O127  1  0.42877761  0.75911675  0.39222594  1.0
  O  O128  1  0.79708678  0.50474647  0.44918510  1.0
  O  O129  1  0.53088740  0.35021149  0.45085722  1.0
  O  O130  1  0.55072986  0.67228165  0.55634615  1.0
  O  O131  1  0.44326206  0.45740123  0.64714612  1.0
  O  O132  1  0.46832529  0.53582287  0.33893204  1.0
  O  O133  1  0.54469942  0.55901168  0.67170280  1.0
  O  O134  1  0.56316920  0.47487412  0.35428136  1.0
  O  O135  1  0.44381300  0.33300794  0.52607356  1.0
  O  O136  1  0.44845296  0.64511157  0.46310408  1.0
