# generated using pymatgen
data_Zn4H18C43N4(O8F5)2
_symmetry_space_group_name_H-M   'P 1'
_cell_length_a   9.71305685
_cell_length_b   11.06877314
_cell_length_c   22.09994093
_cell_angle_alpha   89.93964943
_cell_angle_beta   88.76674818
_cell_angle_gamma   89.54234434
_symmetry_Int_Tables_number   1
_chemical_formula_structural   Zn4H18C43N4(O8F5)2
_chemical_formula_sum   'Zn4 H18 C43 N4 O16 F10'
_cell_volume   2375.37343665
_cell_formula_units_Z   1
loop_
 _symmetry_equiv_pos_site_id
 _symmetry_equiv_pos_as_xyz
  1  'x, y, z'
loop_
 _atom_site_type_symbol
 _atom_site_label
 _atom_site_symmetry_multiplicity
 _atom_site_fract_x
 _atom_site_fract_y
 _atom_site_fract_z
 _atom_site_occupancy
  Zn  Zn0  1  0.63933764  0.49768237  0.50229539  1.0
  Zn  Zn1  1  0.35870860  0.50864218  0.49961173  1.0
  Zn  Zn2  1  0.36122967  0.49805310  0.00347925  1.0
  Zn  Zn3  1  0.64302333  0.50404870  0.99902183  1.0
  H  H4  1  0.14545381  0.33814744  0.46449642  1.0
  H  H5  1  0.85122722  0.67266697  0.53622859  1.0
  H  H6  1  0.28045492  0.87746488  0.49884879  1.0
  H  H7  1  0.69941966  0.12882552  0.50258906  1.0
  H  H8  1  0.27861693  0.48408080  0.81003656  1.0
  H  H9  1  0.81340191  0.59592471  0.80387306  1.0
  H  H10  1  0.82617700  0.43497826  0.80329088  1.0
  H  H11  1  0.82217358  0.43615217  0.68935628  1.0
  H  H12  1  0.80859263  0.59701996  0.68994039  1.0
  H  H13  1  0.73720228  0.49760886  0.19229149  1.0
  H  H14  1  0.29808261  0.50113687  0.31029042  1.0
  H  H15  1  0.85667548  0.33898882  0.04385840  1.0
  H  H16  1  0.14750913  0.66042511  0.95949090  1.0
  H  H17  1  0.70591805  0.87379378  0.00367997  1.0
  H  H18  1  0.28502494  0.12846028  0.99959081  1.0
  H  H19  1  0.20292486  0.55745838  0.66611140  1.0
  H  H20  1  0.22902674  0.40051903  0.66025224  1.0
  H  H21  1  0.15106460  0.46170386  0.72747153  1.0
  C  C22  1  0.50613151  0.73895651  0.49974236  1.0
  C  C23  1  0.50232363  0.50181122  0.61832293  1.0
  C  C24  1  0.47455466  0.26729424  0.50192834  1.0
  C  C25  1  0.51202142  0.49868176  0.38365369  1.0
  C  C26  1  0.48141661  0.73714654  0.00263172  1.0
  C  C27  1  0.49668880  0.50139407  0.88363940  1.0
  C  C28  1  0.50870055  0.26510432  0.00121502  1.0
  C  C29  1  0.52101998  0.49987732  0.11887291  1.0
  C  C30  1  0.93664124  0.40919806  0.47891750  1.0
  C  C31  1  0.06048166  0.60195681  0.52144288  1.0
  C  C32  1  0.07982763  0.41306488  0.47957615  1.0
  C  C33  1  0.91726989  0.59819050  0.52074549  1.0
  C  C34  1  0.47816120  0.13158482  0.50220950  1.0
  C  C35  1  0.50163969  0.87459465  0.50125549  1.0
  C  C36  1  0.36181298  0.05734303  0.50132708  1.0
  C  C37  1  0.61793028  0.94885359  0.50269707  1.0
  C  C38  1  0.37269490  0.93244601  0.50048457  1.0
  C  C39  1  0.60715602  0.07367474  0.50268328  1.0
  C  C40  1  0.49772214  0.49872716  0.81623180  1.0
  C  C41  1  0.49452538  0.49819710  0.68571908  1.0
  C  C42  1  0.61854905  0.50435427  0.78137150  1.0
  C  C43  1  0.36946383  0.48931124  0.72044277  1.0
  C  C44  1  0.61584686  0.50430402  0.71832813  1.0
  C  C45  1  0.37480194  0.49041300  0.78386148  1.0
  C  C46  1  0.77403926  0.51325001  0.78313490  1.0
  C  C47  1  0.77127941  0.51367669  0.71161376  1.0
  C  C48  1  0.51864598  0.49821241  0.31579100  1.0
  C  C49  1  0.51633132  0.49990559  0.18677598  1.0
  C  C50  1  0.64123026  0.49703936  0.28079440  1.0
  C  C51  1  0.39383626  0.50110433  0.22183050  1.0
  C  C52  1  0.64041124  0.49809932  0.21807059  1.0
  C  C53  1  0.39477414  0.50016973  0.28450577  1.0
  C  C54  1  0.06471336  0.41009701  0.02992584  1.0
  C  C55  1  0.93977575  0.58883474  0.97307188  1.0
  C  C56  1  0.92182265  0.41053073  0.02544045  1.0
  C  C57  1  0.08249529  0.58861984  0.97766143  1.0
  C  C58  1  0.50608435  0.12950913  0.00206906  1.0
  C  C59  1  0.48473289  0.87273196  0.00234735  1.0
  C  C60  1  0.62307495  0.05441230  0.00336586  1.0
  C  C61  1  0.36772650  0.94787744  0.00110269  1.0
  C  C62  1  0.61320578  0.92961178  0.00325864  1.0
  C  C63  1  0.37765435  0.07262198  0.00089282  1.0
  C  C64  1  0.23038440  0.47656810  0.69216989  1.0
  N  N65  1  0.85684075  0.49895016  0.49921409  1.0
  N  N66  1  0.14045143  0.51205723  0.50130056  1.0
  N  N67  1  0.14354974  0.49662878  0.00653562  1.0
  N  N68  1  0.86086499  0.50244857  0.99648789  1.0
  O  O69  1  0.61787047  0.68495149  0.51244970  1.0
  O  O70  1  0.39388931  0.68821513  0.48582353  1.0
  O  O71  1  0.39271117  0.52539261  0.58954915  1.0
  O  O72  1  0.62080776  0.48237553  0.59371531  1.0
  O  O73  1  0.35916021  0.32141587  0.50891853  1.0
  O  O74  1  0.59069281  0.31807799  0.49467779  1.0
  O  O75  1  0.62303831  0.51797637  0.41138264  1.0
  O  O76  1  0.39402997  0.48068008  0.40836256  1.0
  O  O77  1  0.36559596  0.68503248  0.00794786  1.0
  O  O78  1  0.59824320  0.68464186  0.99772607  1.0
  O  O79  1  0.61353639  0.49021018  0.90868999  1.0
  O  O80  1  0.38094401  0.51497980  0.91130023  1.0
  O  O81  1  0.62282717  0.31828540  0.00851784  1.0
  O  O82  1  0.39291733  0.31662798  0.99318272  1.0
  O  O83  1  0.40725697  0.48700132  0.09227266  1.0
  O  O84  1  0.63867421  0.51188532  0.09301814  1.0
  F  F85  1  0.87490942  0.31169788  0.45729404  1.0
  F  F86  1  0.12222258  0.69903972  0.54377747  1.0
  F  F87  1  0.23245283  0.10572265  0.50017314  1.0
  F  F88  1  0.74729197  0.90034074  0.50296357  1.0
  F  F89  1  0.76628784  0.49349283  0.30722686  1.0
  F  F90  1  0.26852075  0.50422130  0.19575218  1.0
  F  F91  1  0.12707908  0.32001949  0.05890920  1.0
  F  F92  1  0.87722952  0.67877440  0.94389845  1.0
  F  F93  1  0.75195998  0.10180122  0.00419524  1.0
  F  F94  1  0.23886433  0.90070749  0.99922017  1.0
