# generated using pymatgen
data_Al2H45C50N2Cl3O14
_symmetry_space_group_name_H-M   'P 1'
_cell_length_a   6.59426789
_cell_length_b   25.56948669
_cell_length_c   28.61378592
_cell_angle_alpha   90.54898110
_cell_angle_beta   91.22152806
_cell_angle_gamma   90.86431685
_symmetry_Int_Tables_number   1
_chemical_formula_structural   Al2H45C50N2Cl3O14
_chemical_formula_sum   'Al4 H90 C100 N4 Cl6 O28'
_cell_volume   4822.74705917
_cell_formula_units_Z   2
loop_
 _symmetry_equiv_pos_site_id
 _symmetry_equiv_pos_as_xyz
  1  'x, y, z'
loop_
 _atom_site_type_symbol
 _atom_site_label
 _atom_site_symmetry_multiplicity
 _atom_site_fract_x
 _atom_site_fract_y
 _atom_site_fract_z
 _atom_site_occupancy
  Al  Al0  1  0.76983566  0.74699316  0.74712247  1.0
  Al  Al1  1  0.22606767  0.25043137  0.25444593  1.0
  Al  Al2  1  0.27007034  0.74570345  0.74985316  1.0
  Al  Al3  1  0.72718378  0.25086210  0.25536805  1.0
  H  H4  1  0.70317715  0.57238310  0.57131390  1.0
  H  H5  1  0.32941704  0.42018513  0.43133973  1.0
  H  H6  1  0.34685755  0.60288868  0.56338601  1.0
  H  H7  1  0.68906558  0.44193072  0.40622129  1.0
  H  H8  1  0.32918531  0.65957477  0.63395990  1.0
  H  H9  1  0.68754708  0.36768466  0.34960059  1.0
  H  H10  1  0.75486843  0.61140558  0.94870668  1.0
  H  H11  1  0.16457343  0.37057441  0.04524557  1.0
  H  H12  1  0.27417934  0.53568935  0.89145915  1.0
  H  H13  1  0.76074525  0.47029674  0.12085753  1.0
  H  H14  1  0.79562052  0.12626478  0.34392760  1.0
  H  H15  1  0.19476726  0.86636477  0.65784927  1.0
  H  H16  1  0.79480257  0.05873494  0.40612414  1.0
  H  H17  1  0.18632039  0.93291965  0.59486909  1.0
  H  H18  1  0.17073031  0.09362394  0.43402309  1.0
  H  H19  1  0.80719264  0.89831003  0.56319213  1.0
  H  H20  1  0.16891987  0.15738866  0.36878316  1.0
  H  H21  1  0.81714383  0.83474399  0.62852066  1.0
  H  H22  1  0.17545971  0.00603200  0.45110388  1.0
  H  H23  1  0.80130522  0.98623052  0.54837104  1.0
  H  H24  1  0.18158460  0.94196282  0.51463951  1.0
  H  H25  1  0.79522043  0.05033121  0.48495137  1.0
  H  H26  1  0.68707952  0.13273880  0.04335420  1.0
  H  H27  1  0.28469461  0.96422983  0.88167921  1.0
  H  H28  1  0.25365544  0.03474696  0.11463865  1.0
  H  H29  1  0.76860956  0.88547739  0.95408935  1.0
  H  H30  1  0.17341393  0.01426534  0.03858657  1.0
  H  H31  1  0.82827485  0.99047099  0.95888028  1.0
  H  H32  1  0.19636724  0.95062438  0.97337876  1.0
  H  H33  1  0.80645810  0.05415548  0.02406239  1.0
  H  H34  1  0.47149893  0.61294523  0.70153192  1.0
  H  H35  1  0.73604022  0.60934298  0.71410970  1.0
  H  H36  1  0.49016053  0.53001706  0.65350806  1.0
  H  H37  1  0.75263816  0.52648113  0.66641821  1.0
  H  H38  1  0.67368815  0.51971797  0.75342540  1.0
  H  H39  1  0.56755100  0.46717557  0.71972843  1.0
  H  H40  1  0.41129321  0.51879003  0.73835597  1.0
  H  H41  1  0.52523816  0.27681953  0.36939850  1.0
  H  H42  1  0.26873794  0.26788245  0.38601869  1.0
  H  H43  1  0.60853587  0.31880071  0.44695719  1.0
  H  H44  1  0.35431518  0.31054240  0.46410595  1.0
  H  H45  1  0.38652957  0.21216064  0.45773464  1.0
  H  H46  1  0.57326548  0.23900304  0.49699362  1.0
  H  H47  1  0.64004798  0.21989097  0.43956550  1.0
  H  H48  1  0.56976599  0.40943904  0.99143225  1.0
  H  H49  1  0.68301934  0.36635874  0.03282004  1.0
  H  H50  1  0.62220677  0.34248180  0.92802969  1.0
  H  H51  1  0.72740414  0.29963198  0.96978511  1.0
  H  H52  1  0.39318888  0.29797153  0.01258373  1.0
  H  H53  1  0.36141088  0.27623908  0.95385401  1.0
  H  H54  1  0.28711937  0.34015387  0.96967588  1.0
  H  H55  1  0.29353589  0.62865436  0.96923206  1.0
  H  H56  1  0.41123154  0.58615244  0.01043662  1.0
  H  H57  1  0.25291453  0.69566166  0.03277888  1.0
  H  H58  1  0.37287592  0.65389890  0.07323855  1.0
  H  H59  1  0.69630117  0.65798242  0.02736083  1.0
  H  H60  1  0.61860541  0.72175328  0.04282775  1.0
  H  H61  1  0.57547576  0.69800466  0.98494067  1.0
  H  H62  1  0.42305445  0.08921879  0.23675006  1.0
  H  H63  1  0.31723932  0.03021181  0.21191863  1.0
  H  H64  1  0.10356882  0.10978276  0.27434221  1.0
  H  H65  1  0.97476278  0.05797042  0.24408385  1.0
  H  H66  1  0.18224281  0.99172019  0.28753474  1.0
  H  H67  1  0.06160236  0.03373608  0.32772884  1.0
  H  H68  1  0.32272017  0.04264331  0.31676443  1.0
  H  H69  1  0.92420538  0.75381727  0.92925412  1.0
  H  H70  1  0.81850505  0.80551502  0.96217823  1.0
  H  H71  1  0.19029690  0.81433896  0.89943225  1.0
  H  H72  1  0.09753107  0.86608800  0.93343667  1.0
  H  H73  1  0.16617406  0.81290080  0.00734724  1.0
  H  H74  1  0.38936126  0.82513232  0.97532011  1.0
  H  H75  1  0.26778085  0.76273961  0.97186471  1.0
  H  H76  1  0.66797649  0.50763580  0.89175963  1.0
  H  H77  1  0.61575634  0.44806405  0.92164623  1.0
  H  H78  1  0.78544567  0.45601120  0.82289932  1.0
  H  H79  1  0.73931708  0.39719751  0.85317196  1.0
  H  H80  1  0.36393800  0.41990508  0.85716208  1.0
  H  H81  1  0.44614353  0.41567323  0.79858336  1.0
  H  H82  1  0.41360494  0.47771699  0.82514321  1.0
  H  H83  1  0.36821944  0.54529144  0.08232987  1.0
  H  H84  1  0.30767311  0.48778120  0.11446155  1.0
  H  H85  1  0.24717675  0.60083432  0.14787390  1.0
  H  H86  1  0.18809181  0.54433144  0.18031939  1.0
  H  H87  1  0.55626345  0.51900663  0.18235931  1.0
  H  H88  1  0.52951732  0.58300519  0.20533818  1.0
  H  H89  1  0.61960103  0.57407918  0.14786218  1.0
  H  H90  1  0.52505659  0.68482299  0.77251395  1.0
  H  H91  1  0.47842308  0.31664151  0.23975386  1.0
  H  H92  1  0.02564052  0.80910127  0.77174415  1.0
  H  H93  1  0.96776019  0.19000080  0.22739628  1.0
  C  C94  1  0.51340578  0.80865316  0.68578830  1.0
  C  C95  1  0.48439529  0.18530716  0.31510439  1.0
  C  C96  1  0.53168419  0.81219114  0.81158911  1.0
  C  C97  1  0.46108004  0.18984932  0.18885736  1.0
  C  C98  1  0.01999556  0.68049876  0.81077103  1.0
  C  C99  1  0.96808567  0.31607814  0.19361785  1.0
  C  C100  1  0.01000853  0.68415745  0.68437172  1.0
  C  C101  1  0.99423493  0.31122112  0.32015922  1.0
  C  C102  1  0.83167702  0.62180306  0.62561340  1.0
  C  C103  1  0.18734008  0.36651019  0.38242495  1.0
  C  C104  1  0.84118583  0.59137947  0.58502791  1.0
  C  C105  1  0.18737876  0.40867089  0.41379962  1.0
  C  C106  1  0.02511862  0.58424769  0.56244877  1.0
  C  C107  1  0.01006948  0.43626792  0.42240480  1.0
  C  C108  1  0.20323179  0.60824597  0.58077082  1.0
  C  C109  1  0.82757967  0.42063069  0.39966240  1.0
  C  C110  1  0.19265163  0.63983113  0.62036481  1.0
  C  C111  1  0.82757175  0.37912166  0.36804220  1.0
  C  C112  1  0.00918542  0.64755280  0.64345040  1.0
  C  C113  1  0.00496593  0.35151759  0.35819537  1.0
  C  C114  1  0.01839802  0.48118126  0.45482614  1.0
  C  C115  1  0.02699809  0.55102490  0.52041471  1.0
  C  C116  1  0.86439219  0.64243892  0.88419093  1.0
  C  C117  1  0.08020186  0.34466909  0.11343688  1.0
  C  C118  1  0.86971215  0.60854245  0.92208268  1.0
  C  C119  1  0.07698395  0.37918273  0.07609103  1.0
  C  C120  1  0.01820489  0.57029793  0.92535909  1.0
  C  C121  1  0.96218421  0.42472907  0.07838370  1.0
  C  C122  1  0.16163560  0.56636777  0.89030039  1.0
  C  C123  1  0.84873081  0.43480558  0.11822910  1.0
  C  C124  1  0.16031681  0.60175527  0.85359721  1.0
  C  C125  1  0.85034860  0.39936758  0.15490289  1.0
  C  C126  1  0.01400166  0.64135781  0.84956405  1.0
  C  C127  1  0.96684526  0.35375630  0.15374543  1.0
  C  C128  1  0.95604755  0.48081326  0.95575737  1.0
  C  C129  1  0.02606185  0.51470243  0.04811467  1.0
  C  C130  1  0.93141448  0.44546536  0.99265460  1.0
  C  C131  1  0.05095170  0.54997292  0.01113606  1.0
  C  C132  1  0.96831663  0.46217036  0.03922903  1.0
  C  C133  1  0.01387209  0.53313605  0.96477677  1.0
  C  C134  1  0.65959443  0.11841181  0.36385907  1.0
  C  C135  1  0.32787732  0.87392463  0.63685168  1.0
  C  C136  1  0.65865288  0.08129534  0.39900244  1.0
  C  C137  1  0.32366502  0.91059760  0.60128087  1.0
  C  C138  1  0.48299511  0.07153305  0.42490084  1.0
  C  C139  1  0.49623719  0.92045338  0.57441385  1.0
  C  C140  1  0.30681856  0.09958957  0.41360090  1.0
  C  C141  1  0.67389957  0.89250635  0.58460953  1.0
  C  C142  1  0.30551921  0.13575173  0.37762226  1.0
  C  C143  1  0.67988661  0.85649269  0.62064962  1.0
  C  C144  1  0.48261056  0.14577044  0.35280627  1.0
  C  C145  1  0.50654579  0.84686854  0.64695450  1.0
  C  C146  1  0.31239109  0.00257111  0.47288038  1.0
  C  C147  1  0.66436164  0.98973734  0.52663283  1.0
  C  C148  1  0.31574745  0.96632247  0.50880102  1.0
  C  C149  1  0.66104660  0.02594151  0.49072397  1.0
  C  C150  1  0.49183339  0.95906467  0.53645062  1.0
  C  C151  1  0.48510417  0.03312567  0.46300246  1.0
  C  C152  1  0.58658390  0.16053696  0.10965806  1.0
  C  C153  1  0.39905156  0.89555818  0.84765689  1.0
  C  C154  1  0.59290228  0.12418810  0.07321995  1.0
  C  C155  1  0.39154056  0.93225550  0.88390716  1.0
  C  C156  1  0.47542766  0.07802840  0.07441342  1.0
  C  C157  1  0.52508509  0.92833112  0.92229001  1.0
  C  C158  1  0.34689706  0.07014352  0.11225051  1.0
  C  C159  1  0.66672510  0.88812602  0.92381480  1.0
  C  C160  1  0.33750566  0.10716398  0.14823106  1.0
  C  C161  1  0.67007640  0.85043423  0.88800099  1.0
  C  C162  1  0.46117054  0.15270343  0.14814445  1.0
  C  C163  1  0.53486328  0.85376913  0.84882310  1.0
  C  C164  1  0.31783453  0.00916572  0.02133581  1.0
  C  C165  1  0.68489741  0.99539198  0.97664114  1.0
  C  C166  1  0.33005563  0.97364274  0.98438389  1.0
  C  C167  1  0.67174079  0.03156176  0.01304784  1.0
  C  C168  1  0.51372463  0.96617326  0.96146478  1.0
  C  C169  1  0.48803930  0.03919212  0.03608927  1.0
  C  C170  1  0.61551749  0.59816715  0.68847582  1.0
  C  C171  1  0.60708677  0.53916413  0.68052740  1.0
  C  C172  1  0.56249518  0.50965618  0.72539597  1.0
  C  C173  1  0.40614720  0.29224330  0.39174197  1.0
  C  C174  1  0.47388216  0.29304181  0.44294931  1.0
  C  C175  1  0.52096314  0.23807560  0.46029989  1.0
  C  C176  1  0.67766406  0.37707979  0.99556626  1.0
  C  C177  1  0.61510844  0.33063521  0.96486742  1.0
  C  C178  1  0.40271313  0.31025421  0.97596716  1.0
  C  C179  1  0.30263456  0.61840901  0.00658203  1.0
  C  C180  1  0.36903212  0.66535353  0.03624161  1.0
  C  C181  1  0.57609421  0.68684408  0.02197520  1.0
  C  C182  1  0.28112236  0.07037474  0.22340200  1.0
  C  C183  1  0.12072100  0.06975499  0.26069274  1.0
  C  C184  1  0.17517461  0.03237472  0.30025036  1.0
  C  C185  1  0.90682928  0.79646250  0.93085014  1.0
  C  C186  1  0.11395341  0.82335488  0.93227453  1.0
  C  C187  1  0.24114634  0.80505225  0.97406219  1.0
  C  C188  1  0.71208181  0.46623338  0.89501169  1.0
  C  C189  1  0.68647984  0.43752093  0.84869875  1.0
  C  C190  1  0.46536249  0.43770543  0.83153552  1.0
  C  C191  1  0.26845604  0.52926503  0.10938114  1.0
  C  C192  1  0.29325985  0.56032256  0.15452472  1.0
  C  C193  1  0.51161451  0.55900689  0.17346131  1.0
  N  N194  1  0.20641413  0.53265883  0.50574909  1.0
  N  N195  1  0.84579043  0.50741369  0.46286509  1.0
  N  N196  1  0.20238818  0.49738097  0.47194733  1.0
  N  N197  1  0.85019993  0.54346010  0.49603292  1.0
  Cl  Cl198  1  0.73175438  0.21718138  0.10494459  1.0
  Cl  Cl199  1  0.23491758  0.90482383  0.80035968  1.0
  Cl  Cl200  1  0.66486436  0.68560771  0.88223422  1.0
  Cl  Cl201  1  0.22495275  0.28914230  0.10827610  1.0
  Cl  Cl202  1  0.34030005  0.59216521  0.81117516  1.0
  Cl  Cl203  1  0.71008273  0.41438631  0.20376701  1.0
  O  O204  1  0.35753040  0.79434887  0.79923619  1.0
  O  O205  1  0.63170550  0.19885928  0.20912945  1.0
  O  O206  1  0.68765483  0.79453745  0.70027457  1.0
  O  O207  1  0.31475022  0.19683202  0.29614857  1.0
  O  O208  1  0.84159904  0.70197986  0.69741225  1.0
  O  O209  1  0.15855524  0.29072533  0.30730803  1.0
  O  O210  1  0.70022594  0.79816473  0.79529371  1.0
  O  O211  1  0.29164793  0.20812719  0.20057444  1.0
  O  O212  1  0.85176277  0.69251579  0.79173151  1.0
  O  O213  1  0.13876850  0.30631164  0.21268080  1.0
  O  O214  1  0.34516301  0.79324762  0.70225371  1.0
  O  O215  1  0.65611775  0.20458996  0.30440599  1.0
  O  O216  1  0.51942213  0.71406487  0.75111936  1.0
  O  O217  1  0.47823392  0.28277157  0.25477579  1.0
  O  O218  1  0.19339232  0.69841367  0.80030828  1.0
  O  O219  1  0.79686937  0.29747808  0.20487161  1.0
  O  O220  1  0.18165089  0.69563329  0.70360217  1.0
  O  O221  1  0.82061438  0.30066198  0.30150675  1.0
  O  O222  1  0.02276268  0.77815896  0.75174825  1.0
  O  O223  1  0.97405064  0.21778440  0.25085327  1.0
  O  O224  1  0.64490668  0.62588281  0.64529661  1.0
  O  O225  1  0.37171925  0.34458242  0.37488097  1.0
  O  O226  1  0.87651798  0.39482597  0.98109676  1.0
  O  O227  1  0.10575043  0.60082482  0.02225079  1.0
  O  O228  1  0.20321236  0.09916599  0.18380005  1.0
  O  O229  1  0.79007784  0.80790471  0.88922951  1.0
  O  O230  1  0.92227161  0.46422491  0.91029057  1.0
  O  O231  1  0.05944316  0.53213248  0.09329888  1.0
