# generated using pymatgen
data_NiH12C15NO4
_symmetry_space_group_name_H-M   'P 1'
_cell_length_a   9.51224750
_cell_length_b   18.24470184
_cell_length_c   18.57789553
_cell_angle_alpha   89.99999013
_cell_angle_beta   96.60418302
_cell_angle_gamma   89.99974992
_symmetry_Int_Tables_number   1
_chemical_formula_structural   NiH12C15NO4
_chemical_formula_sum   'Ni4 H48 C60 N4 O16'
_cell_volume   3202.76451318
_cell_formula_units_Z   4
loop_
 _symmetry_equiv_pos_site_id
 _symmetry_equiv_pos_as_xyz
  1  'x, y, z'
loop_
 _atom_site_type_symbol
 _atom_site_label
 _atom_site_symmetry_multiplicity
 _atom_site_fract_x
 _atom_site_fract_y
 _atom_site_fract_z
 _atom_site_occupancy
  Ni  Ni0  1  0.68713770  0.75000008  0.25506999  1.0
  Ni  Ni1  1  0.31286234  0.25000105  0.74492914  1.0
  Ni  Ni2  1  0.43316986  0.75000036  0.25513608  1.0
  Ni  Ni3  1  0.56683017  0.25000022  0.74486251  1.0
  H  H4  1  0.70961584  0.93459228  0.09688136  1.0
  H  H5  1  0.29038900  0.43459493  0.90311961  1.0
  H  H6  1  0.29038220  0.06540885  0.90312466  1.0
  H  H7  1  0.70961942  0.56541168  0.09687514  1.0
  H  H8  1  0.79552864  0.91332023  0.42839389  1.0
  H  H9  1  0.20446788  0.41332532  0.57160448  1.0
  H  H10  1  0.20444819  0.08667761  0.57160829  1.0
  H  H11  1  0.79554796  0.58667855  0.42839121  1.0
  H  H12  1  0.78865451  0.03153003  0.01538885  1.0
  H  H13  1  0.21134420  0.53153164  0.98460972  1.0
  H  H14  1  0.21134232  0.96846945  0.98460850  1.0
  H  H15  1  0.78865689  0.46847113  0.01538947  1.0
  H  H16  1  0.19303431  0.70149559  0.36455619  1.0
  H  H17  1  0.80696825  0.20149491  0.63544309  1.0
  H  H18  1  0.80696678  0.29850006  0.63544300  1.0
  H  H19  1  0.19303708  0.79849909  0.36455687  1.0
  H  H20  1  0.94259306  0.79854428  0.36256300  1.0
  H  H21  1  0.05741185  0.29854257  0.63743639  1.0
  H  H22  1  0.05741440  0.20145575  0.63743762  1.0
  H  H23  1  0.94258822  0.70145746  0.36256490  1.0
  H  H24  1  0.34121283  0.91040538  0.39976201  1.0
  H  H25  1  0.65878378  0.41040889  0.60024014  1.0
  H  H26  1  0.65876806  0.08959191  0.60023071  1.0
  H  H27  1  0.34122911  0.58959663  0.39976830  1.0
  H  H28  1  0.26916440  0.87822848  0.08400365  1.0
  H  H29  1  0.73083773  0.37823012  0.91599611  1.0
  H  H30  1  0.73083239  0.12176553  0.91599100  1.0
  H  H31  1  0.26916771  0.62176663  0.08400978  1.0
  H  H32  1  0.79418693  0.00822568  0.52531774  1.0
  H  H33  1  0.20580883  0.50823069  0.47468175  1.0
  H  H34  1  0.20578459  0.99177271  0.47468308  1.0
  H  H35  1  0.79421235  0.49177537  0.52531692  1.0
  H  H36  1  0.17162239  0.86395045  0.25276277  1.0
  H  H37  1  0.82837877  0.36395081  0.74723533  1.0
  H  H38  1  0.82838193  0.13604574  0.74723929  1.0
  H  H39  1  0.17162329  0.63604594  0.25275907  1.0
  H  H40  1  0.15428932  0.81564111  0.16973510  1.0
  H  H41  1  0.84571016  0.31564141  0.83026453  1.0
  H  H42  1  0.84571499  0.18435673  0.83026696  1.0
  H  H43  1  0.15428351  0.68435917  0.16973372  1.0
  H  H44  1  0.90557591  0.81633800  0.16761667  1.0
  H  H45  1  0.09442463  0.31633836  0.83238356  1.0
  H  H46  1  0.09442836  0.18365875  0.83238270  1.0
  H  H47  1  0.90557231  0.68365619  0.16762025  1.0
  H  H48  1  0.92117670  0.86409924  0.25103311  1.0
  H  H49  1  0.07882450  0.36409910  0.74896714  1.0
  H  H50  1  0.07882649  0.13589970  0.74896512  1.0
  H  H51  1  0.92117884  0.63589929  0.25103971  1.0
  C  C52  1  0.52544034  0.84692156  0.15573648  1.0
  C  C53  1  0.47456206  0.34692215  0.84426331  1.0
  C  C54  1  0.47455330  0.15307245  0.84425962  1.0
  C  C55  1  0.52544967  0.65307405  0.15573915  1.0
  C  C56  1  0.49348055  0.90163666  0.09623843  1.0
  C  C57  1  0.50652137  0.40163772  0.90376077  1.0
  C  C58  1  0.50651629  0.09836228  0.90375945  1.0
  C  C59  1  0.49348819  0.59836451  0.09623888  1.0
  C  C60  1  0.60109577  0.94273560  0.07208943  1.0
  C  C61  1  0.39890788  0.44273744  0.92790825  1.0
  C  C62  1  0.39890114  0.05726499  0.92791223  1.0
  C  C63  1  0.60109840  0.55726698  0.07208530  1.0
  C  C64  1  0.69659811  0.93448484  0.44439750  1.0
  C  C65  1  0.30339826  0.43449026  0.55560248  1.0
  C  C66  1  0.30338295  0.06551355  0.55560437  1.0
  C  C67  1  0.69661446  0.56551635  0.44439627  1.0
  C  C68  1  0.67977012  0.03848113  0.99059529  1.0
  C  C69  1  0.32023700  0.53848432  0.00940373  1.0
  C  C70  1  0.32022677  0.96151781  0.00940528  1.0
  C  C71  1  0.67977891  0.46151901  0.99059627  1.0
  C  C72  1  0.57176459  0.99510207  0.01613563  1.0
  C  C73  1  0.42823334  0.49510603  0.98386280  1.0
  C  C74  1  0.42823443  0.00489906  0.98386614  1.0
  C  C75  1  0.57176877  0.50490113  0.01613429  1.0
  C  C76  1  0.57010635  0.84911116  0.35186850  1.0
  C  C77  1  0.42989397  0.34911518  0.64813494  1.0
  C  C78  1  0.42988838  0.15089216  0.64812981  1.0
  C  C79  1  0.57011672  0.65089362  0.35186908  1.0
  C  C80  1  0.56746411  0.90655469  0.40890333  1.0
  C  C81  1  0.43253147  0.40655816  0.59109876  1.0
  C  C82  1  0.43251897  0.09344589  0.59109381  1.0
  C  C83  1  0.56747925  0.59344845  0.40890687  1.0
  C  C84  1  0.43948246  0.93224996  0.42758178  1.0
  C  C85  1  0.56051712  0.43225425  0.57241998  1.0
  C  C86  1  0.56049213  0.06774788  0.57241328  1.0
  C  C87  1  0.43950633  0.56775182  0.42758796  1.0
  C  C88  1  0.35163946  0.91149996  0.06427280  1.0
  C  C89  1  0.64836235  0.41149905  0.93572479  1.0
  C  C90  1  0.64835944  0.08849843  0.93572197  1.0
  C  C91  1  0.35163770  0.58850099  0.06427489  1.0
  C  C92  1  0.69521771  0.98674549  0.49769618  1.0
  C  C93  1  0.30477823  0.48675146  0.50230484  1.0
  C  C94  1  0.30475382  0.01325071  0.50230517  1.0
  C  C95  1  0.69524300  0.51325405  0.49769706  1.0
  C  C96  1  0.43462276  0.98605846  0.48196081  1.0
  C  C97  1  0.56537215  0.48606329  0.51804176  1.0
  C  C98  1  0.56534872  0.01393664  0.51803785  1.0
  C  C99  1  0.43464912  0.51394277  0.48196283  1.0
  C  C100  1  0.12248757  0.81582257  0.22461577  1.0
  C  C101  1  0.87751406  0.31582116  0.77538559  1.0
  C  C102  1  0.87751569  0.18417582  0.77538623  1.0
  C  C103  1  0.12248706  0.68417503  0.22461467  1.0
  C  C104  1  0.95917152  0.81625955  0.22308921  1.0
  C  C105  1  0.04082901  0.31626005  0.77690994  1.0
  C  C106  1  0.04083061  0.18373719  0.77690896  1.0
  C  C107  1  0.95917107  0.68373724  0.22309189  1.0
  C  C108  1  0.14472161  0.74999794  0.33682740  1.0
  C  C109  1  0.85528056  0.24999825  0.66317293  1.0
  C  C110  1  0.98077737  0.75000028  0.33588792  1.0
  C  C111  1  0.01922374  0.24999920  0.66411234  1.0
  N  N112  1  0.91184671  0.74999927  0.25992185  1.0
  N  N113  1  0.08815440  0.24999966  0.74007842  1.0
  N  N114  1  0.18340825  0.74999845  0.26216683  1.0
  N  N115  1  0.81659286  0.24999829  0.73783289  1.0
  O  O116  1  0.44818706  0.82315582  0.32678221  1.0
  O  O117  1  0.55181020  0.32315463  0.67321460  1.0
  O  O118  1  0.55180777  0.17689737  0.67316173  1.0
  O  O119  1  0.44819184  0.67689912  0.32683793  1.0
  O  O120  1  0.65215716  0.82874572  0.17571811  1.0
  O  O121  1  0.34784120  0.32874496  0.82428415  1.0
  O  O122  1  0.34783190  0.17128884  0.82431811  1.0
  O  O123  1  0.65216560  0.67129125  0.17567929  1.0
  O  O124  1  0.41554342  0.82200102  0.18251011  1.0
  O  O125  1  0.58445385  0.32200246  0.81748671  1.0
  O  O126  1  0.58443035  0.17794859  0.81743861  1.0
  O  O127  1  0.41556926  0.67794769  0.18256159  1.0
  O  O128  1  0.68782169  0.82958701  0.33238489  1.0
  O  O129  1  0.31217998  0.32959732  0.66762508  1.0
  O  O130  1  0.31219928  0.17036972  0.66766167  1.0
  O  O131  1  0.68779717  0.67036654  0.33233513  1.0
