# generated using pymatgen
data_ZnH8C12(IN2)2
_symmetry_space_group_name_H-M   'P 1'
_cell_length_a   14.85425726
_cell_length_b   19.20757179
_cell_length_c   31.22700991
_cell_angle_alpha   101.72800847
_cell_angle_beta   89.99054074
_cell_angle_gamma   112.75266776
_symmetry_Int_Tables_number   1
_chemical_formula_structural   ZnH8C12(IN2)2
_chemical_formula_sum   'Zn12 H96 C144 I24 N48'
_cell_volume   8014.25285314
_cell_formula_units_Z   12
loop_
 _symmetry_equiv_pos_site_id
 _symmetry_equiv_pos_as_xyz
  1  'x, y, z'
loop_
 _atom_site_type_symbol
 _atom_site_label
 _atom_site_symmetry_multiplicity
 _atom_site_fract_x
 _atom_site_fract_y
 _atom_site_fract_z
 _atom_site_occupancy
  Zn  Zn0  1  0.71965537  0.24671032  0.55871720  1.0
  Zn  Zn1  1  0.18467823  0.65760509  0.73239604  1.0
  Zn  Zn2  1  0.04161670  0.83028690  0.91023655  1.0
  Zn  Zn3  1  0.52699084  0.24672628  0.05884403  1.0
  Zn  Zn4  1  0.47312025  0.65755646  0.23239763  1.0
  Zn  Zn5  1  0.78863348  0.83020557  0.41017191  1.0
  Zn  Zn6  1  0.47300957  0.75327428  0.94115605  1.0
  Zn  Zn7  1  0.52687968  0.34244180  0.76760216  1.0
  Zn  Zn8  1  0.21136857  0.16979558  0.58982921  1.0
  Zn  Zn9  1  0.28034389  0.75328793  0.44128163  1.0
  Zn  Zn10  1  0.81532440  0.34239721  0.26760458  1.0
  Zn  Zn11  1  0.95838015  0.16971193  0.08976331  1.0
  H  H12  1  0.62911678  0.14479986  0.61911064  1.0
  H  H13  1  0.47229198  0.03191478  0.62329240  1.0
  H  H14  1  0.37650202  0.03947804  0.49475468  1.0
  H  H15  1  0.53709530  0.15297047  0.49582613  1.0
  H  H16  1  0.57009336  0.31457718  0.56973058  1.0
  H  H17  1  0.53654351  0.41703951  0.62177672  1.0
  H  H18  1  0.80504640  0.46617322  0.69816001  1.0
  H  H19  1  0.82506704  0.35770355  0.64407685  1.0
  H  H20  1  0.39554890  0.50274818  0.66916548  1.0
  H  H21  1  0.24313770  0.53098984  0.67708893  1.0
  H  H22  1  0.38646041  0.72938747  0.77312735  1.0
  H  H23  1  0.54431847  0.70930018  0.76935676  1.0
  H  H24  1  0.07416828  0.64219924  0.64759131  1.0
  H  H25  1  0.08550215  0.72223848  0.59134444  1.0
  H  H26  1  0.35079409  0.89449982  0.66452988  1.0
  H  H27  1  0.32576197  0.81016312  0.71937671  1.0
  H  H28  1  0.71920529  0.73534607  0.81632391  1.0
  H  H29  1  0.84834399  0.81398204  0.87739553  1.0
  H  H30  1  0.00926375  0.67973111  0.84101239  1.0
  H  H31  1  0.88851891  0.59778621  0.77604765  1.0
  H  H32  1  0.83655932  0.75500540  0.47607557  1.0
  H  H33  1  0.98234138  0.77116346  0.52468216  1.0
  H  H34  1  0.14304258  0.98446115  0.48480953  1.0
  H  H35  1  0.99079153  0.95938637  0.43719998  1.0
  H  H36  1  0.51571570  0.14490598  0.11928153  1.0
  H  H37  1  0.55955235  0.03196662  0.12343070  1.0
  H  H38  1  0.66270826  0.03940998  0.99482965  1.0
  H  H39  1  0.61567706  0.15292299  0.99592750  1.0
  H  H40  1  0.74464481  0.31455684  0.06976100  1.0
  H  H41  1  0.88064168  0.41699370  0.12184886  1.0
  H  H42  1  0.66121372  0.46627138  0.19814375  1.0
  H  H43  1  0.53275076  0.35777431  0.14407002  1.0
  H  H44  1  0.10743337  0.50279590  0.16912518  1.0
  H  H45  1  0.28802227  0.53098362  0.17710089  1.0
  H  H46  1  0.34305882  0.72936031  0.27314911  1.0
  H  H47  1  0.16513662  0.70930719  0.26936616  1.0
  H  H48  1  0.56813212  0.64210803  0.14753501  1.0
  H  H49  1  0.63671779  0.72212477  0.09123344  1.0
  H  H50  1  0.54357484  0.89431152  0.16445623  1.0
  H  H51  1  0.48440338  0.81002269  0.21934658  1.0
  H  H52  1  0.01612662  0.73504122  0.31642860  1.0
  H  H53  1  0.96554594  0.81374977  0.37746856  1.0
  H  H54  1  0.67037508  0.67961323  0.34098655  1.0
  H  H55  1  0.70925493  0.59764802  0.27604705  1.0
  H  H56  1  0.91826814  0.75498349  0.97613776  1.0
  H  H57  1  0.78843065  0.77112398  0.02464550  1.0
  H  H58  1  0.84119527  0.98436188  0.98468225  1.0
  H  H59  1  0.96860552  0.95932532  0.93720048  1.0
  H  H60  1  0.48428270  0.85509459  0.88071855  1.0
  H  H61  1  0.44044768  0.96803452  0.87656977  1.0
  H  H62  1  0.33729274  0.96059174  0.00517121  1.0
  H  H63  1  0.38432364  0.84707816  0.00407297  1.0
  H  H64  1  0.25535618  0.68544489  0.93023891  1.0
  H  H65  1  0.11935758  0.58300860  0.87815144  1.0
  H  H66  1  0.33878324  0.53373035  0.80185455  1.0
  H  H67  1  0.46724898  0.64222626  0.85592878  1.0
  H  H68  1  0.89256540  0.49720409  0.83087451  1.0
  H  H69  1  0.71197756  0.46901579  0.82289937  1.0
  H  H70  1  0.65694092  0.27064025  0.72685193  1.0
  H  H71  1  0.83486312  0.29069338  0.73063424  1.0
  H  H72  1  0.43187137  0.35789196  0.85246372  1.0
  H  H73  1  0.36328359  0.27787637  0.90876575  1.0
  H  H74  1  0.45642702  0.10568789  0.83554498  1.0
  H  H75  1  0.51559761  0.18997498  0.78065378  1.0
  H  H76  1  0.98387331  0.26496108  0.68357042  1.0
  H  H77  1  0.03445582  0.18625079  0.62253184  1.0
  H  H78  1  0.32962812  0.32038618  0.65901690  1.0
  H  H79  1  0.29074528  0.40235081  0.72395634  1.0
  H  H80  1  0.08173160  0.24501708  0.02386200  1.0
  H  H81  1  0.21156842  0.22887658  0.97535490  1.0
  H  H82  1  0.15880313  0.01563869  0.01531911  1.0
  H  H83  1  0.03139471  0.04067756  0.06280021  1.0
  H  H84  1  0.37088334  0.85520013  0.38088969  1.0
  H  H85  1  0.52770709  0.96808579  0.37670801  1.0
  H  H86  1  0.62349887  0.96052079  0.50524519  1.0
  H  H87  1  0.46290560  0.84702836  0.50417341  1.0
  H  H88  1  0.42990494  0.68542050  0.43026754  1.0
  H  H89  1  0.46345441  0.58295874  0.37822019  1.0
  H  H90  1  0.19495036  0.53382677  0.30183776  1.0
  H  H91  1  0.17492818  0.64229470  0.35592294  1.0
  H  H92  1  0.60445045  0.49724892  0.33083641  1.0
  H  H93  1  0.75686194  0.46900783  0.32291239  1.0
  H  H94  1  0.61354173  0.27061252  0.22687202  1.0
  H  H95  1  0.45568329  0.29070039  0.23064364  1.0
  H  H96  1  0.92583098  0.35779901  0.35240881  1.0
  H  H97  1  0.91449730  0.27776151  0.40865557  1.0
  H  H98  1  0.64920603  0.10550017  0.33547013  1.0
  H  H99  1  0.67423853  0.18983629  0.28062323  1.0
  H  H100  1  0.28079425  0.26464871  0.18367544  1.0
  H  H101  1  0.15165449  0.18601332  0.12260325  1.0
  H  H102  1  0.99074100  0.32027003  0.15898553  1.0
  H  H103  1  0.11148429  0.40221320  0.22395068  1.0
  H  H104  1  0.16344129  0.24499690  0.52392408  1.0
  H  H105  1  0.01765731  0.22883769  0.47531767  1.0
  H  H106  1  0.85695871  0.01554115  0.51519109  1.0
  H  H107  1  0.00921139  0.04061651  0.56280039  1.0
  C  C108  1  0.57072276  0.11960706  0.59248728  1.0
  C  C109  1  0.48487043  0.05697568  0.59447335  1.0
  C  C110  1  0.41349617  0.02668249  0.55884043  1.0
  C  C111  1  0.43131084  0.06110556  0.52261618  1.0
  C  C112  1  0.51936786  0.12369460  0.52312768  1.0
  C  C113  1  0.62018823  0.34914256  0.59871904  1.0
  C  C114  1  0.60200696  0.40662280  0.62759058  1.0
  C  C115  1  0.66917471  0.45014824  0.66401458  1.0
  C  C116  1  0.75096258  0.43284241  0.67038895  1.0
  C  C117  1  0.76280687  0.37356573  0.64047563  1.0
  C  C118  1  0.65636398  0.51379202  0.69543363  1.0
  C  C119  1  0.57214836  0.58852013  0.71893006  1.0
  C  C120  1  0.71828295  0.61412678  0.75452617  1.0
  C  C121  1  0.48186113  0.60435640  0.71873944  1.0
  C  C122  1  0.39636322  0.55394129  0.69215510  1.0
  C  C123  1  0.31222683  0.56945680  0.69631096  1.0
  C  C124  1  0.39284539  0.68087880  0.74996658  1.0
  C  C125  1  0.47946072  0.66941266  0.74791891  1.0
  C  C126  1  0.13362910  0.69882826  0.65003778  1.0
  C  C127  1  0.14012794  0.74302610  0.61919613  1.0
  C  C128  1  0.28851874  0.83917225  0.66005523  1.0
  C  C129  1  0.27561835  0.79230437  0.68996595  1.0
  C  C130  1  0.79413768  0.66057359  0.79123552  1.0
  C  C131  1  0.78311051  0.72206295  0.82025946  1.0
  C  C132  1  0.85443768  0.76526524  0.85457088  1.0
  C  C133  1  0.94378930  0.68974814  0.83415340  1.0
  C  C134  1  0.87649556  0.64434600  0.79836944  1.0
  C  C135  1  0.90640316  0.80455203  0.47888788  1.0
  C  C136  1  0.98638554  0.81395156  0.50585020  1.0
  C  C137  1  0.07353898  0.87903054  0.50796372  1.0
  C  C138  1  0.07626757  0.93307940  0.48341475  1.0
  C  C139  1  0.99300513  0.91957593  0.45729540  1.0
  C  C140  1  0.16079484  0.89089576  0.53590082  1.0
  C  C141  1  0.22829241  0.86331055  0.59177159  1.0
  C  C142  1  0.32010648  0.96097231  0.56031219  1.0
  C  C143  1  0.21908739  0.81461821  0.62404362  1.0
  C  C144  1  0.54881771  0.11964796  0.09262657  1.0
  C  C145  1  0.57195272  0.05697834  0.09458789  1.0
  C  C146  1  0.61291057  0.02661110  0.05891695  1.0
  C  C147  1  0.62954437  0.06106366  0.02270317  1.0
  C  C148  1  0.60413868  0.12366828  0.02323291  1.0
  C  C149  1  0.72909733  0.34913592  0.09874829  1.0
  C  C150  1  0.80473337  0.40658740  0.12763049  1.0
  C  C151  1  0.78108239  0.45013241  0.16403744  1.0
  C  C152  1  0.68198537  0.43292473  0.17038540  1.0
  C  C153  1  0.61088335  0.37363649  0.14047548  1.0
  C  C154  1  0.85753672  0.51370970  0.19548438  1.0
  C  C155  1  0.01647333  0.58844299  0.21896913  1.0
  C  C156  1  0.89590556  0.61397855  0.25459232  1.0
  C  C157  1  0.12263456  0.60433660  0.21875655  1.0
  C  C158  1  0.15777218  0.55396337  0.19215608  1.0
  C  C159  1  0.25740197  0.56945604  0.19633134  1.0
  C  C160  1  0.28817338  0.68086021  0.24999661  1.0
  C  C161  1  0.19007006  0.66938216  0.24793066  1.0
  C  C162  1  0.56522313  0.69870510  0.14995878  1.0
  C  C163  1  0.60283868  0.74287813  0.11910384  1.0
  C  C164  1  0.55048438  0.83897322  0.15998201  1.0
  C  C165  1  0.51661504  0.79213790  0.18989924  1.0
  C  C166  1  0.86643232  0.66037165  0.29130643  1.0
  C  C167  1  0.93893896  0.72180889  0.32034746  1.0
  C  C168  1  0.91076623  0.76503982  0.35463210  1.0
  C  C169  1  0.74589002  0.68958525  0.33415843  1.0
  C  C170  1  0.76782893  0.64416758  0.29839305  1.0
  C  C171  1  0.89796123  0.80451497  0.97891711  1.0
  C  C172  1  0.82727971  0.81390413  0.00580798  1.0
  C  C173  1  0.80517351  0.87896108  0.00786402  1.0
  C  C174  1  0.85658765  0.93299973  0.98332707  1.0
  C  C175  1  0.92648671  0.91952092  0.95727949  1.0
  C  C176  1  0.72974387  0.89081252  0.03578782  1.0
  C  C177  1  0.63475517  0.86314346  0.09169128  1.0
  C  C178  1  0.64053303  0.96086935  0.06031181  1.0
  C  C179  1  0.59536049  0.81442620  0.12394503  1.0
  C  C180  1  0.45118338  0.88035261  0.90737352  1.0
  C  C181  1  0.42804789  0.94302396  0.90541369  1.0
  C  C182  1  0.38709215  0.97339004  0.94108417  1.0
  C  C183  1  0.37045788  0.93893922  0.97729784  1.0
  C  C184  1  0.39586405  0.87633287  0.97676693  1.0
  C  C185  1  0.27090270  0.65086523  0.90125090  1.0
  C  C186  1  0.19526531  0.59341374  0.87236870  1.0
  C  C187  1  0.21891754  0.54986990  0.83596254  1.0
  C  C188  1  0.31801159  0.56707699  0.82961355  1.0
  C  C189  1  0.38911457  0.62636581  0.85952386  1.0
  C  C190  1  0.14246168  0.48629087  0.80451570  1.0
  C  C191  1  0.98352429  0.41155873  0.78103110  1.0
  C  C192  1  0.10409437  0.38602376  0.74540798  1.0
  C  C193  1  0.87736778  0.39566512  0.78124368  1.0
  C  C194  1  0.84222910  0.44603893  0.80784486  1.0
  C  C195  1  0.74259709  0.43054453  0.80366906  1.0
  C  C196  1  0.71182539  0.31913978  0.75000308  1.0
  C  C197  1  0.80992968  0.33061840  0.75206879  1.0
  C  C198  1  0.43477940  0.30129431  0.85003987  1.0
  C  C199  1  0.39716279  0.25712186  0.88089585  1.0
  C  C200  1  0.44951680  0.16102618  0.84001920  1.0
  C  C201  1  0.48338691  0.20786036  0.81010055  1.0
  C  C202  1  0.13356753  0.33963181  0.70869338  1.0
  C  C203  1  0.06106222  0.27819457  0.67965138  1.0
  C  C204  1  0.08923438  0.23496248  0.64536852  1.0
  C  C205  1  0.25410933  0.31041590  0.66584429  1.0
  C  C206  1  0.23217052  0.35583241  0.70160824  1.0
  C  C207  1  0.10203841  0.19548676  0.02108344  1.0
  C  C208  1  0.17272032  0.18609701  0.99419217  1.0
  C  C209  1  0.19482526  0.12103891  0.99213599  1.0
  C  C210  1  0.14341334  0.06700199  0.01667316  1.0
  C  C211  1  0.07351178  0.08047849  0.04272172  1.0
  C  C212  1  0.27025587  0.10918805  0.96421194  1.0
  C  C213  1  0.36524842  0.13685942  0.90830942  1.0
  C  C214  1  0.35946863  0.03913238  0.93968938  1.0
  C  C215  1  0.40464195  0.18557437  0.87605537  1.0
  C  C216  1  0.42927813  0.88039177  0.40751290  1.0
  C  C217  1  0.51512970  0.94302431  0.40552666  1.0
  C  C218  1  0.58650463  0.97331750  0.44115958  1.0
  C  C219  1  0.56868967  0.93889385  0.47738344  1.0
  C  C220  1  0.48063303  0.87630423  0.47687251  1.0
  C  C221  1  0.37980718  0.65085337  0.40127918  1.0
  C  C222  1  0.39798970  0.59337430  0.37240715  1.0
  C  C223  1  0.33082109  0.54985117  0.33598440  1.0
  C  C224  1  0.24903591  0.56715700  0.32961003  1.0
  C  C225  1  0.23719181  0.62643136  0.35952402  1.0
  C  C226  1  0.34363537  0.48620508  0.30456441  1.0
  C  C227  1  0.42785089  0.41147812  0.28106973  1.0
  C  C228  1  0.28171775  0.38587031  0.24547283  1.0
  C  C229  1  0.51813813  0.39564185  0.28126131  1.0
  C  C230  1  0.60363603  0.44605696  0.30784693  1.0
  C  C231  1  0.68777243  0.43054145  0.30369012  1.0
  C  C232  1  0.60715666  0.31912234  0.25003358  1.0
  C  C233  1  0.52053883  0.33058617  0.25208000  1.0
  C  C234  1  0.86637131  0.30117231  0.34996326  1.0
  C  C235  1  0.85987151  0.25697389  0.38080420  1.0
  C  C236  1  0.71148139  0.16082773  0.33994510  1.0
  C  C237  1  0.72438120  0.20769446  0.31003391  1.0
  C  C238  1  0.20586273  0.33942292  0.20876309  1.0
  C  C239  1  0.21689028  0.27793299  0.17973908  1.0
  C  C240  1  0.14556004  0.23473128  0.14542870  1.0
  C  C241  1  0.05621352  0.31025185  0.16584533  1.0
  C  C242  1  0.12350715  0.35565109  0.20162860  1.0
  C  C243  1  0.09359715  0.19544970  0.52111234  1.0
  C  C244  1  0.01361536  0.18605132  0.49415049  1.0
  C  C245  1  0.92645932  0.12097118  0.49203650  1.0
  C  C246  1  0.92373342  0.06692232  0.51658579  1.0
  C  C247  1  0.00699557  0.08042522  0.54270508  1.0
  C  C248  1  0.83920548  0.10910597  0.46410069  1.0
  C  C249  1  0.77170753  0.13669175  0.40822871  1.0
  C  C250  1  0.67989259  0.03902826  0.43968885  1.0
  C  C251  1  0.78091177  0.18538120  0.37595696  1.0
  I  I252  1  0.72781079  0.28692425  0.48560826  1.0
  I  I253  1  0.84698246  0.21367751  0.59637939  1.0
  I  I254  1  0.21534608  0.75087297  0.80706598  1.0
  I  I255  1  0.03204398  0.53347912  0.70432941  1.0
  I  I256  1  0.11840364  0.94442852  0.87377455  1.0
  I  I257  1  0.11934108  0.76044303  0.94938590  1.0
  I  I258  1  0.55869607  0.28697406  0.98573408  1.0
  I  I259  1  0.36666820  0.21382637  0.09657768  1.0
  I  I260  1  0.53589719  0.75088176  0.30703156  1.0
  I  I261  1  0.50198073  0.53355970  0.20449092  1.0
  I  I262  1  0.82608012  0.94422317  0.37360848  1.0
  I  I263  1  0.64103999  0.76040217  0.44933611  1.0
  I  I264  1  0.44130607  0.71302592  0.01426593  1.0
  I  I265  1  0.63333221  0.78617420  0.90342208  1.0
  I  I266  1  0.46410495  0.24911823  0.69296781  1.0
  I  I267  1  0.49801978  0.46643971  0.79550902  1.0
  I  I268  1  0.17392030  0.05577740  0.62639096  1.0
  I  I269  1  0.35896100  0.23959955  0.55066380  1.0
  I  I270  1  0.27218885  0.71307343  0.51439082  1.0
  I  I271  1  0.15301709  0.78632132  0.40361983  1.0
  I  I272  1  0.78466097  0.24912876  0.19293521  1.0
  I  I273  1  0.96795942  0.46652202  0.29567203  1.0
  I  I274  1  0.88159985  0.05557147  0.12622610  1.0
  I  I275  1  0.88065577  0.23955580  0.05061365  1.0
  N  N276  1  0.58789296  0.15227454  0.55736500  1.0
  N  N277  1  0.69867114  0.33263201  0.60508816  1.0
  N  N278  1  0.72718073  0.55294939  0.72845267  1.0
  N  N279  1  0.64343817  0.63558050  0.75024269  1.0
  N  N280  1  0.57605638  0.52830966  0.68954852  1.0
  N  N281  1  0.93317818  0.74948682  0.86164210  1.0
  N  N282  1  0.31031469  0.63173180  0.72479475  1.0
  N  N283  1  0.19987742  0.72313670  0.68497605  1.0
  N  N284  1  0.90975377  0.85614672  0.45478264  1.0
  N  N285  1  0.14818189  0.84660714  0.56532550  1.0
  N  N286  1  0.31491616  0.92175826  0.59189294  1.0
  N  N287  1  0.24640262  0.94614663  0.53051866  1.0
  N  N288  1  0.56425616  0.15228531  0.05749866  1.0
  N  N289  1  0.63408750  0.33265420  0.10511052  1.0
  N  N290  1  0.82585056  0.55280588  0.22852826  1.0
  N  N291  1  0.99222042  0.63549139  0.25029257  1.0
  N  N292  1  0.95236362  0.52823849  0.18959253  1.0
  N  N293  1  0.81622705  0.74929491  0.36165922  1.0
  N  N294  1  0.32158003  0.63170286  0.22483272  1.0
  N  N295  1  0.52327630  0.72300029  0.18491340  1.0
  N  N296  1  0.94631883  0.85610769  0.95481626  1.0
  N  N297  1  0.69811352  0.84648359  0.06519507  1.0
  N  N298  1  0.60658629  0.92161419  0.09188693  1.0
  N  N299  1  0.69935895  0.94606267  0.03046104  1.0
  N  N300  1  0.43574378  0.84771699  0.94250260  1.0
  N  N301  1  0.36591224  0.66734637  0.89488828  1.0
  N  N302  1  0.17414879  0.44719527  0.77147253  1.0
  N  N303  1  0.00777788  0.36451033  0.74970766  1.0
  N  N304  1  0.04763439  0.47176266  0.81040763  1.0
  N  N305  1  0.18377635  0.25070623  0.63834222  1.0
  N  N306  1  0.67842106  0.36829771  0.77516736  1.0
  N  N307  1  0.47672565  0.27699796  0.81508671  1.0
  N  N308  1  0.05367860  0.14389230  0.04518407  1.0
  N  N309  1  0.30188661  0.15351640  0.93480526  1.0
  N  N310  1  0.39341778  0.07838695  0.90811482  1.0
  N  N311  1  0.30064118  0.05393731  0.96953961  1.0
  N  N312  1  0.41210794  0.84772429  0.44263454  1.0
  N  N313  1  0.30132263  0.66736335  0.39491095  1.0
  N  N314  1  0.27281920  0.44704886  0.27154488  1.0
  N  N315  1  0.35656147  0.36441717  0.24975703  1.0
  N  N316  1  0.42394018  0.47168859  0.31045095  1.0
  N  N317  1  0.06682155  0.25050969  0.13835652  1.0
  N  N318  1  0.68968515  0.36826761  0.27520550  1.0
  N  N319  1  0.80012146  0.27686213  0.31502317  1.0
  N  N320  1  0.09024838  0.14385732  0.54521724  1.0
  N  N321  1  0.85181843  0.15339458  0.43467601  1.0
  N  N322  1  0.68508320  0.07824289  0.40810818  1.0
  N  N323  1  0.75359770  0.05385510  0.46948221  1.0
