# generated using pymatgen
data_CuH7C12N3O4
_symmetry_space_group_name_H-M   'P 1'
_cell_length_a   4.80614594
_cell_length_b   10.63364634
_cell_length_c   31.76440926
_cell_angle_alpha   90.00133701
_cell_angle_beta   90.00016204
_cell_angle_gamma   84.88896908
_symmetry_Int_Tables_number   1
_chemical_formula_structural   CuH7C12N3O4
_chemical_formula_sum   'Cu4 H28 C48 N12 O16'
_cell_volume   1616.92443053
_cell_formula_units_Z   4
loop_
 _symmetry_equiv_pos_site_id
 _symmetry_equiv_pos_as_xyz
  1  'x, y, z'
loop_
 _atom_site_type_symbol
 _atom_site_label
 _atom_site_symmetry_multiplicity
 _atom_site_fract_x
 _atom_site_fract_y
 _atom_site_fract_z
 _atom_site_occupancy
  Cu  Cu0  1  0.49234360  0.39037491  0.19359664  1.0
  Cu  Cu1  1  0.50765036  0.10961443  0.69359760  1.0
  Cu  Cu2  1  0.50764176  0.60962207  0.80640317  1.0
  Cu  Cu3  1  0.49234060  0.89038541  0.30640190  1.0
  H  H4  1  0.34390724  0.47198443  0.28612437  1.0
  H  H5  1  0.65606990  0.02801977  0.78612636  1.0
  H  H6  1  0.65608933  0.52801828  0.71387481  1.0
  H  H7  1  0.34392189  0.97197630  0.21387125  1.0
  H  H8  1  0.55044508  0.38840283  0.35489888  1.0
  H  H9  1  0.44952222  0.11161176  0.85489887  1.0
  H  H10  1  0.44956521  0.61160372  0.64510030  1.0
  H  H11  1  0.55047062  0.88837958  0.14509968  1.0
  H  H12  1  0.21833315  0.59691819  0.99569885  1.0
  H  H13  1  0.78170164  0.90307812  0.49569786  1.0
  H  H14  1  0.78168212  0.40309406  0.00430190  1.0
  H  H15  1  0.21832092  0.09691054  0.50430415  1.0
  H  H16  1  0.61827789  0.58242712  0.13135009  1.0
  H  H17  1  0.38175302  0.91754954  0.63134741  1.0
  H  H18  1  0.38169956  0.41757738  0.86865476  1.0
  H  H19  1  0.61823274  0.08245501  0.36865303  1.0
  H  H20  1  0.46372974  0.64095668  0.05835128  1.0
  H  H21  1  0.53631248  0.85903104  0.55834761  1.0
  H  H22  1  0.53626226  0.35905735  0.94165452  1.0
  H  H23  1  0.46369657  0.14096228  0.44165441  1.0
  H  H24  1  0.16174326  0.26877609  0.13122153  1.0
  H  H25  1  0.83821914  0.23122106  0.63122712  1.0
  H  H26  1  0.83826308  0.73122005  0.86877356  1.0
  H  H27  1  0.16178907  0.76877603  0.36877395  1.0
  H  H28  1  0.98979108  0.31288011  0.05856675  1.0
  H  H29  1  0.01021257  0.18712448  0.55857335  1.0
  H  H30  1  0.01025080  0.68712471  0.94142708  1.0
  H  H31  1  0.98981852  0.81286327  0.44142929  1.0
  C  C32  1  0.10758813  0.52281324  0.01036177  1.0
  C  C33  1  0.89242850  0.97718424  0.51036461  1.0
  C  C34  1  0.89243067  0.47720186  0.98963584  1.0
  C  C35  1  0.10759552  0.02280726  0.48963898  1.0
  C  C36  1  0.79715003  0.16239307  0.20979384  1.0
  C  C37  1  0.20282181  0.33761242  0.70979388  1.0
  C  C38  1  0.20282493  0.83760386  0.79020471  1.0
  C  C39  1  0.79714565  0.66240905  0.29020593  1.0
  C  C40  1  0.74358280  0.22432535  0.25213108  1.0
  C  C41  1  0.25640738  0.27567466  0.75213129  1.0
  C  C42  1  0.25640650  0.77567260  0.74786968  1.0
  C  C43  1  0.74358400  0.72432329  0.24786978  1.0
  C  C44  1  0.49297475  0.38856567  0.28752408  1.0
  C  C45  1  0.50700613  0.11144053  0.78752443  1.0
  C  C46  1  0.50702432  0.61143516  0.71247447  1.0
  C  C47  1  0.49298067  0.88855929  0.21247192  1.0
  C  C48  1  0.60654615  0.34035797  0.32532599  1.0
  C  C49  1  0.39343436  0.15965180  0.82532695  1.0
  C  C50  1  0.39346102  0.65964384  0.67467288  1.0
  C  C51  1  0.60655743  0.84034427  0.17467223  1.0
  C  C52  1  0.85322590  0.17815123  0.29046723  1.0
  C  C53  1  0.14676099  0.32185615  0.79046617  1.0
  C  C54  1  0.14676901  0.82184958  0.70953258  1.0
  C  C55  1  0.85323184  0.67814465  0.20953365  1.0
  C  C56  1  0.03789989  0.05607043  0.29483333  1.0
  C  C57  1  0.96208740  0.44393537  0.79483343  1.0
  C  C58  1  0.96209294  0.94393037  0.70516522  1.0
  C  C59  1  0.03790710  0.55605788  0.20516733  1.0
  C  C60  1  0.22465284  0.34958195  0.11362355  1.0
  C  C61  1  0.77532315  0.15040931  0.61362815  1.0
  C  C62  1  0.77534456  0.65041698  0.88637279  1.0
  C  C63  1  0.22468527  0.84958683  0.38637260  1.0
  C  C64  1  0.48007798  0.52528739  0.11381762  1.0
  C  C65  1  0.51993658  0.97469648  0.61381737  1.0
  C  C66  1  0.51991090  0.47472190  0.88618408  1.0
  C  C67  1  0.48006000  0.02530623  0.38618402  1.0
  C  C68  1  0.39213582  0.55730202  0.07326605  1.0
  C  C69  1  0.60788929  0.94268853  0.57326591  1.0
  C  C70  1  0.60786823  0.44271395  0.92673597  1.0
  C  C71  1  0.39212516  0.05730859  0.42673579  1.0
  C  C72  1  0.12777326  0.37609745  0.07318214  1.0
  C  C73  1  0.87222264  0.12389584  0.57318533  1.0
  C  C74  1  0.87224015  0.62390440  0.92681390  1.0
  C  C75  1  0.12779701  0.87609659  0.42681731  1.0
  C  C76  1  0.20771751  0.48366785  0.05202841  1.0
  C  C77  1  0.79230820  0.01633073  0.55202881  1.0
  C  C78  1  0.79230462  0.51634160  0.94797298  1.0
  C  C79  1  0.20771353  0.98366170  0.44797320  1.0
  N  N80  1  0.56577901  0.32959077  0.25156508  1.0
  N  N81  1  0.43421116  0.17040920  0.75156678  1.0
  N  N82  1  0.43421444  0.67040720  0.74843442  1.0
  N  N83  1  0.56578042  0.82958781  0.24843272  1.0
  N  N84  1  0.78512642  0.23684301  0.32710813  1.0
  N  N85  1  0.21485824  0.26316691  0.82710728  1.0
  N  N86  1  0.21487659  0.76315878  0.67289073  1.0
  N  N87  1  0.78513917  0.73683203  0.17289127  1.0
  N  N88  1  0.39630200  0.42351450  0.13363435  1.0
  N  N89  1  0.60369636  0.07647071  0.63363385  1.0
  N  N90  1  0.60369312  0.57648537  0.86636861  1.0
  N  N91  1  0.39630083  0.92352917  0.36636565  1.0
  O  O92  1  0.66696470  0.21972321  0.17853766  1.0
  O  O93  1  0.33301373  0.28026029  0.67853576  1.0
  O  O94  1  0.33299925  0.78026705  0.82146310  1.0
  O  O95  1  0.66698471  0.71974337  0.32146279  1.0
  O  O96  1  0.95035923  0.06216544  0.20703223  1.0
  O  O97  1  0.04964964  0.43782303  0.70703139  1.0
  O  O98  1  0.04961864  0.93782773  0.79296852  1.0
  O  O99  1  0.95037625  0.56216943  0.29296968  1.0
  O  O100  1  0.30105000  0.06094580  0.28996478  1.0
  O  O101  1  0.69894126  0.43906062  0.78996687  1.0
  O  O102  1  0.69894158  0.93905121  0.71003472  1.0
  O  O103  1  0.30106945  0.56094404  0.21003231  1.0
  O  O104  1  0.92594942  0.95950124  0.30630472  1.0
  O  O105  1  0.07403751  0.54050437  0.80630643  1.0
  O  O106  1  0.07404633  0.04049580  0.69369384  1.0
  O  O107  1  0.92596447  0.45949270  0.19369779  1.0
