# generated using pymatgen
data_Zn2H34C40I11N13O8
_symmetry_space_group_name_H-M   'P 1'
_cell_length_a   14.56478071
_cell_length_b   15.92946151
_cell_length_c   17.20408994
_cell_angle_alpha   88.29403365
_cell_angle_beta   83.09732719
_cell_angle_gamma   84.50589375
_symmetry_Int_Tables_number   1
_chemical_formula_structural   Zn2H34C40I11N13O8
_chemical_formula_sum   'Zn2 H34 C40 I11 N13 O8'
_cell_volume   3943.69660270
_cell_formula_units_Z   1
loop_
 _symmetry_equiv_pos_site_id
 _symmetry_equiv_pos_as_xyz
  1  'x, y, z'
loop_
 _atom_site_type_symbol
 _atom_site_label
 _atom_site_symmetry_multiplicity
 _atom_site_fract_x
 _atom_site_fract_y
 _atom_site_fract_z
 _atom_site_occupancy
  Zn  Zn0  1  0.40284734  0.50525352  0.50013816  1.0
  Zn  Zn1  1  0.59676953  0.48887881  0.50216625  1.0
  H  H2  1  0.50998029  0.34179033  0.11627501  1.0
  H  H3  1  0.55886047  0.60419028  0.10170652  1.0
  H  H4  1  0.33693673  0.47680230  0.75316285  1.0
  H  H5  1  0.56686638  0.61348335  0.88427733  1.0
  H  H6  1  0.45594140  0.09702658  0.31009887  1.0
  H  H7  1  0.55784802  0.06333414  0.33538771  1.0
  H  H8  1  0.64577373  0.84998339  0.39380440  1.0
  H  H9  1  0.71226375  0.93178574  0.38803743  1.0
  H  H10  1  0.38040496  0.14480638  0.62351448  1.0
  H  H11  1  0.33932626  0.05470122  0.65483443  1.0
  H  H12  1  0.34729776  0.15560309  0.44988755  1.0
  H  H13  1  0.48796430  0.94008374  0.36248068  1.0
  H  H14  1  0.32032798  0.08606113  0.38830495  1.0
  H  H15  1  0.57810466  0.00309265  0.63207619  1.0
  H  H16  1  0.49047142  0.04556147  0.69036128  1.0
  H  H17  1  0.15874312  0.64653274  0.42898309  1.0
  H  H18  1  0.05756231  0.69355276  0.40555689  1.0
  H  H19  1  0.92707422  0.61854923  0.63331484  1.0
  H  H20  1  0.91229255  0.55016260  0.70598203  1.0
  H  H21  1  0.82279349  0.44314363  0.66132426  1.0
  H  H22  1  0.88737593  0.37341221  0.60309418  1.0
  H  H23  1  0.02499759  0.35612840  0.63744554  1.0
  H  H24  1  0.63677910  0.06557138  0.42801316  1.0
  H  H25  1  0.12712578  0.35774805  0.58108152  1.0
  H  H26  1  0.62917271  0.39885817  0.97673233  1.0
  H  H27  1  0.54888596  0.41374024  0.91439521  1.0
  H  H28  1  0.37766091  0.64924757  0.01479901  1.0
  H  H29  1  0.39133544  0.58417415  0.09225865  1.0
  H  H30  1  0.63899553  0.05399230  0.52935833  1.0
  H  H31  1  0.36820720  0.95083424  0.54811835  1.0
  H  H32  1  0.38037531  0.94171954  0.42390617  1.0
  H  H33  1  0.93856397  0.59532713  0.41596382  1.0
  H  H34  1  0.94485944  0.38028075  0.48978278  1.0
  H  H35  1  0.91664831  0.44149726  0.40698694  1.0
  C  C36  1  0.49169445  0.65909373  0.47743709  1.0
  C  C37  1  0.54420329  0.47262012  0.26299456  1.0
  C  C38  1  0.45115378  0.96108523  0.41881232  1.0
  C  C39  1  0.47024314  0.52594055  0.65013703  1.0
  C  C40  1  0.60114924  0.94264314  0.47196866  1.0
  C  C41  1  0.60158149  0.03786037  0.48132470  1.0
  C  C42  1  0.49701436  0.24499208  0.51316285  1.0
  C  C43  1  0.50098735  0.91470430  0.48611811  1.0
  C  C44  1  0.44787014  0.05860439  0.42543471  1.0
  C  C45  1  0.50028589  0.07909254  0.49719410  1.0
  C  C46  1  0.45803253  0.04067076  0.57933801  1.0
  C  C47  1  0.38705498  0.50657700  0.78282823  1.0
  C  C48  1  0.44001547  0.94900748  0.56131336  1.0
  C  C49  1  0.49971451  0.16933716  0.50481338  1.0
  C  C50  1  0.49955405  0.82476731  0.47879417  1.0
  C  C51  1  0.49682447  0.33551127  0.51692920  1.0
  C  C52  1  0.49542116  0.74958952  0.47241957  1.0
  C  C53  1  0.94015341  0.59816506  0.47958197  1.0
  C  C54  1  0.95251954  0.44115671  0.45942437  1.0
  C  C55  1  0.05592340  0.45279501  0.43714924  1.0
  C  C56  1  0.90693190  0.51391781  0.51489577  1.0
  C  C57  1  0.04267075  0.60325642  0.49002853  1.0
  C  C58  1  0.54921129  0.54685107  0.13661006  1.0
  C  C59  1  0.08500017  0.50925578  0.50559638  1.0
  C  C60  1  0.04282366  0.46841926  0.58722509  1.0
  C  C61  1  0.93287283  0.49385218  0.60143964  1.0
  C  C62  1  0.18481021  0.50757780  0.50028751  1.0
  C  C63  1  0.53837621  0.47621622  0.35090889  1.0
  C  C64  1  0.80780577  0.51099040  0.51637022  1.0
  C  C65  1  0.46027307  0.54166458  0.73652268  1.0
  C  C66  1  0.52407361  0.58252892  0.77355393  1.0
  C  C67  1  0.51684212  0.58294930  0.85513277  1.0
  C  C68  1  0.44787805  0.54230716  0.90208547  1.0
  C  C69  1  0.55640297  0.54555893  0.21654155  1.0
  C  C70  1  0.38106492  0.50628928  0.86431537  1.0
  C  C71  1  0.52989740  0.39882797  0.22496473  1.0
  C  C72  1  0.52300733  0.39893278  0.14477696  1.0
  C  C73  1  0.52922558  0.47396690  0.10025583  1.0
  C  C74  1  0.45343587  0.53686016  0.98771678  1.0
  C  C75  1  0.51540797  0.47777122  0.01659881  1.0
  I  I76  1  0.63021216  0.64771377  0.71146881  1.0
  I  I77  1  0.06553408  0.70109373  0.58926144  1.0
  I  I78  1  0.27435089  0.44397138  0.92851187  1.0
  I  I79  1  0.68961073  0.87524668  0.57315402  1.0
  I  I80  1  0.43412869  0.86687169  0.66470140  1.0
  I  I81  1  0.58337011  0.65931810  0.26641842  1.0
  I  I82  1  0.07361448  0.50063062  0.31403267  1.0
  I  I83  1  0.14170920  0.33141405  0.42104639  1.0
  I  I84  1  0.51641830  0.28426815  0.28992687  1.0
  I  I85  1  0.11373456  0.50747571  0.69226935  1.0
  I  I86  1  0.84153042  0.71029901  0.50433302  1.0
  N  N87  1  0.26465858  0.50924036  0.49190307  1.0
  N  N88  1  0.88905753  0.42267508  0.63916644  1.0
  N  N89  1  0.05880665  0.38005451  0.58734082  1.0
  N  N90  1  0.56004066  0.40953054  0.97173217  1.0
  N  N91  1  0.38538324  0.58821558  0.03391063  1.0
  N  N92  1  0.73155579  0.49676712  0.51497905  1.0
  N  N93  1  0.49673125  0.09775930  0.35440436  1.0
  N  N94  1  0.64730157  0.91312747  0.40142381  1.0
  N  N95  1  0.36940647  0.08582713  0.60698226  1.0
  N  N96  1  0.35169894  0.09290921  0.43746796  1.0
  N  N97  1  0.52477657  0.05030914  0.63531256  1.0
  N  N98  1  0.09090163  0.63898083  0.42440043  1.0
  N  N99  1  0.89769349  0.56406289  0.65009112  1.0
  O  O100  1  0.41293183  0.63187316  0.47507540  1.0
  O  O101  1  0.56841395  0.61667229  0.48565433  1.0
  O  O102  1  0.39672494  0.53238777  0.61656970  1.0
  O  O103  1  0.55214135  0.50391827  0.61895416  1.0
  O  O104  1  0.41758218  0.37785721  0.52334688  1.0
  O  O105  1  0.57608663  0.36389210  0.51224312  1.0
  O  O106  1  0.45596469  0.48175381  0.38552322  1.0
  O  O107  1  0.61306070  0.47540904  0.38188852  1.0
