# generated using pymatgen
data_CuH16C18(NO2)2
_symmetry_space_group_name_H-M   'P 1'
_cell_length_a   7.70720290
_cell_length_b   15.69231760
_cell_length_c   15.69599268
_cell_angle_alpha   117.33662261
_cell_angle_beta   99.45625526
_cell_angle_gamma   99.39711653
_symmetry_Int_Tables_number   1
_chemical_formula_structural   CuH16C18(NO2)2
_chemical_formula_sum   'Cu3 H48 C54 N6 O12'
_cell_volume   1600.49960726
_cell_formula_units_Z   3
loop_
 _symmetry_equiv_pos_site_id
 _symmetry_equiv_pos_as_xyz
  1  'x, y, z'
loop_
 _atom_site_type_symbol
 _atom_site_label
 _atom_site_symmetry_multiplicity
 _atom_site_fract_x
 _atom_site_fract_y
 _atom_site_fract_z
 _atom_site_occupancy
  Cu  Cu0  1  0.49999844  0.00000007  0.50000067  1.0
  Cu  Cu1  1  0.49999982  0.50000063  0.99999946  1.0
  Cu  Cu2  1  0.00000087  0.50000055  0.50000046  1.0
  H  H3  1  0.89035393  0.05122181  0.32726804  1.0
  H  H4  1  0.77083079  0.11993927  0.28620744  1.0
  H  H5  1  0.68789770  0.98730406  0.22787353  1.0
  H  H6  1  0.59646664  0.19972214  0.38200409  1.0
  H  H7  1  0.55026633  0.33560282  0.45559115  1.0
  H  H8  1  0.12870808  0.17361130  0.51972143  1.0
  H  H9  1  0.95928906  0.30154340  0.53420694  1.0
  H  H10  1  0.36014521  0.45221371  0.46945515  1.0
  H  H11  1  0.10964796  0.94877781  0.67273392  1.0
  H  H12  1  0.22916847  0.88006141  0.71379452  1.0
  H  H13  1  0.31210119  0.01269497  0.77212768  1.0
  H  H14  1  0.40353057  0.80027577  0.61799638  1.0
  H  H15  1  0.44973444  0.66439632  0.54440857  1.0
  H  H16  1  0.87128818  0.82638815  0.48027978  1.0
  H  H17  1  0.04071301  0.69845775  0.46579278  1.0
  H  H18  1  0.63985444  0.54778495  0.53054233  1.0
  H  H19  1  0.83946902  0.27594258  0.94882999  1.0
  H  H20  1  0.65116362  0.16633479  0.88010868  1.0
  H  H21  1  0.70084893  0.24049655  0.01272511  1.0
  H  H22  1  0.39719029  0.18251145  0.80033975  1.0
  H  H23  1  0.21498231  0.12025342  0.66471688  1.0
  H  H24  1  0.95475288  0.34610706  0.82647397  1.0
  H  H25  1  0.65759671  0.23265541  0.69847556  1.0
  H  H26  1  0.90847438  0.01750100  0.54804330  1.0
  H  H27  1  0.16053118  0.72405847  0.05117122  1.0
  H  H28  1  0.34883225  0.83366492  0.11989178  1.0
  H  H29  1  0.29914826  0.75950455  0.98727535  1.0
  H  H30  1  0.60280802  0.81749013  0.19966295  1.0
  H  H31  1  0.78502015  0.87974748  0.33528359  1.0
  H  H32  1  0.04524526  0.65389250  0.17352575  1.0
  H  H33  1  0.34240443  0.76734346  0.30152490  1.0
  H  H34  1  0.09152808  0.98249862  0.45195717  1.0
  H  H35  1  0.56321324  0.67277210  0.72409062  1.0
  H  H36  1  0.48461133  0.71367240  0.83371399  1.0
  H  H37  1  0.45990295  0.77207291  0.75940706  1.0
  H  H38  1  0.21458039  0.61771243  0.81756115  1.0
  H  H39  1  0.09450017  0.54430019  0.87991541  1.0
  H  H40  1  0.60885819  0.48017490  0.65358375  1.0
  H  H41  1  0.42479629  0.46573197  0.76689452  1.0
  H  H42  1  0.89035865  0.53031089  0.98244474  1.0
  H  H43  1  0.43678489  0.32722938  0.27590910  1.0
  H  H44  1  0.51538680  0.28632779  0.16628573  1.0
  H  H45  1  0.54009818  0.22792851  0.24059340  1.0
  H  H46  1  0.78541738  0.38228868  0.18243783  1.0
  H  H47  1  0.90549891  0.45570038  0.12008357  1.0
  H  H48  1  0.39114521  0.51982572  0.34641597  1.0
  H  H49  1  0.57520298  0.53426632  0.23310222  1.0
  H  H50  1  0.10963949  0.46968739  0.01755498  1.0
  C  C51  1  0.75449462  0.05657504  0.29928244  1.0
  C  C52  1  0.64271937  0.06569629  0.37231519  1.0
  C  C53  1  0.56741132  0.14742381  0.40849937  1.0
  C  C54  1  0.44463663  0.16140279  0.46771399  1.0
  C  C55  1  0.35059954  0.24149363  0.48324636  1.0
  C  C56  1  0.41868432  0.32254776  0.47113763  1.0
  C  C57  1  0.18421427  0.23454321  0.50809543  1.0
  C  C58  1  0.09052456  0.30549396  0.51627220  1.0
  C  C59  1  0.31452912  0.38922537  0.48029816  1.0
  C  C60  1  0.24550522  0.94342309  0.70071803  1.0
  C  C61  1  0.35728103  0.93430248  0.62768379  1.0
  C  C62  1  0.43259094  0.85257554  0.59150333  1.0
  C  C63  1  0.55535925  0.83859565  0.53228647  1.0
  C  C64  1  0.64939823  0.75850428  0.51675261  1.0
  C  C65  1  0.58131609  0.67745037  0.52886135  1.0
  C  C66  1  0.81578462  0.76545645  0.49190578  1.0
  C  C67  1  0.90947526  0.69450608  0.48372826  1.0
  C  C68  1  0.68547090  0.61077430  0.51970007  1.0
  C  C69  1  0.69826387  0.24270211  0.94346692  1.0
  C  C70  1  0.57738893  0.30670019  0.93432651  1.0
  C  C71  1  0.42029850  0.26125263  0.85263329  1.0
  C  C72  1  0.28324523  0.30644514  0.83872694  1.0
  C  C73  1  0.10911209  0.24190457  0.75865998  1.0
  C  C74  1  0.09634170  0.14878729  0.67769325  1.0
  C  C75  1  0.94950101  0.27361032  0.76558335  1.0
  C  C76  1  0.78498317  0.21081501  0.69459342  1.0
  C  C77  1  0.92562180  0.09127043  0.61098770  1.0
  C  C78  1  0.30173501  0.75729819  0.05653429  1.0
  C  C79  1  0.42261258  0.69330160  0.06567470  1.0
  C  C80  1  0.57970075  0.73874868  0.14736866  1.0
  C  C81  1  0.71675459  0.69355617  0.16127352  1.0
  C  C82  1  0.89088905  0.75809558  0.24134049  1.0
  C  C83  1  0.90366075  0.85121361  0.32230722  1.0
  C  C84  1  0.05049750  0.72638897  0.23441711  1.0
  C  C85  1  0.21501723  0.78918376  0.30540556  1.0
  C  C86  1  0.07438028  0.90873072  0.38901202  1.0
  C  C87  1  0.45524948  0.70065799  0.75732494  1.0
  C  C88  1  0.27052573  0.62753488  0.69333775  1.0
  C  C89  1  0.15901101  0.59123446  0.73878867  1.0
  C  C90  1  0.97693960  0.53209030  0.69355760  1.0
  C  C91  1  0.86723525  0.51663220  0.75805929  1.0
  C  C92  1  0.94735722  0.52872430  0.85122601  1.0
  C  C93  1  0.67596358  0.49179400  0.72614221  1.0
  C  C94  1  0.57399075  0.48361758  0.78883840  1.0
  C  C95  1  0.83392469  0.51948923  0.90861612  1.0
  C  C96  1  0.54474903  0.29934322  0.24267553  1.0
  C  C97  1  0.72947465  0.37246515  0.30666122  1.0
  C  C98  1  0.84099070  0.40876314  0.26121030  1.0
  C  C99  1  0.02306269  0.46790666  0.30643989  1.0
  C  C100  1  0.13276683  0.48336895  0.24194043  1.0
  C  C101  1  0.05264448  0.47127775  0.14877296  1.0
  C  C102  1  0.32403455  0.50820938  0.27385751  1.0
  C  C103  1  0.42601001  0.51638347  0.21116132  1.0
  C  C104  1  0.16607702  0.48051092  0.09138286  1.0
  N  N105  1  0.15300032  0.38113092  0.50143887  1.0
  N  N106  1  0.84699839  0.61886801  0.49855936  1.0
  N  N107  1  0.77203800  0.12043296  0.61899404  1.0
  N  N108  1  0.22796315  0.87956527  0.38100642  1.0
  N  N109  1  0.65121137  0.49837036  0.87929931  1.0
  N  N110  1  0.34878622  0.50162744  0.12069668  1.0
  O  O111  1  0.39660578  0.10874698  0.50698978  1.0
  O  O112  1  0.62143896  0.99594635  0.39367739  1.0
  O  O113  1  0.60339385  0.89125343  0.49301292  1.0
  O  O114  1  0.37855956  0.00405231  0.60632308  1.0
  O  O115  1  0.28764699  0.39828866  0.89148029  1.0
  O  O116  1  0.62590451  0.39776187  0.00402961  1.0
  O  O117  1  0.71235209  0.60171192  0.10851869  1.0
  O  O118  1  0.37409831  0.60223875  0.99597160  1.0
  O  O119  1  0.88963325  0.49286738  0.60165032  1.0
  O  O120  1  0.22798216  0.60627366  0.60228729  1.0
  O  O121  1  0.11036451  0.50713244  0.39834865  1.0
  O  O122  1  0.77201898  0.39372777  0.39771318  1.0
