# generated using pymatgen
data_CdH22C28(NO3)2
_symmetry_space_group_name_H-M   'P 1'
_cell_length_a   8.75570521
_cell_length_b   12.90466187
_cell_length_c   17.09716590
_cell_angle_alpha   67.82794909
_cell_angle_beta   85.97170565
_cell_angle_gamma   79.23555593
_symmetry_Int_Tables_number   1
_chemical_formula_structural   CdH22C28(NO3)2
_chemical_formula_sum   'Cd2 H44 C56 N4 O12'
_cell_volume   1757.47188047
_cell_formula_units_Z   2
loop_
 _symmetry_equiv_pos_site_id
 _symmetry_equiv_pos_as_xyz
  1  'x, y, z'
loop_
 _atom_site_type_symbol
 _atom_site_label
 _atom_site_symmetry_multiplicity
 _atom_site_fract_x
 _atom_site_fract_y
 _atom_site_fract_z
 _atom_site_occupancy
  Cd  Cd0  1  0.54315643  0.84758977  0.00003495  1.0
  Cd  Cd1  1  0.45684627  0.15240810  0.99996597  1.0
  H  H2  1  0.88499502  0.10681485  0.00004957  1.0
  H  H3  1  0.11500845  0.89318472  0.99994791  1.0
  H  H4  1  0.32139934  0.53332859  0.00010312  1.0
  H  H5  1  0.67859361  0.46667185  0.99989682  1.0
  H  H6  1  0.78237777  0.87560020  0.85310656  1.0
  H  H7  1  0.21762592  0.27144915  0.85294333  1.0
  H  H8  1  0.21762779  0.12440020  0.14689178  1.0
  H  H9  1  0.78237446  0.72855382  0.14705680  1.0
  H  H10  1  0.30690517  0.98440732  0.84121947  1.0
  H  H11  1  0.69311373  0.17452271  0.84120819  1.0
  H  H12  1  0.69310021  0.01558884  0.15878301  1.0
  H  H13  1  0.30688744  0.82547686  0.15879171  1.0
  H  H14  1  0.30998542  0.06767564  0.68187882  1.0
  H  H15  1  0.69005121  0.25059336  0.68186906  1.0
  H  H16  1  0.69001423  0.93232053  0.31812386  1.0
  H  H17  1  0.30994861  0.74940706  0.31813123  1.0
  H  H18  1  0.56511436  0.05126877  0.60777058  1.0
  H  H19  1  0.43492842  0.34123248  0.60767694  1.0
  H  H20  1  0.43488127  0.94872997  0.39223033  1.0
  H  H21  1  0.56507273  0.65876708  0.39232472  1.0
  H  H22  1  0.94057131  0.89826943  0.73244589  1.0
  H  H23  1  0.05949908  0.36961952  0.73223960  1.0
  H  H24  1  0.05942908  0.10173354  0.26755249  1.0
  H  H25  1  0.94049979  0.63038006  0.26776038  1.0
  H  H26  1  0.84930186  0.90204496  0.64043421  1.0
  H  H27  1  0.15067307  0.45771446  0.64014193  1.0
  H  H28  1  0.15070141  0.09795544  0.35956480  1.0
  H  H29  1  0.84932656  0.54228681  0.35985754  1.0
  H  H30  1  0.21855044  0.27229281  0.46653372  1.0
  H  H31  1  0.78164183  0.26102534  0.46643696  1.0
  H  H32  1  0.78145435  0.72770589  0.53346689  1.0
  H  H33  1  0.21835531  0.73897680  0.53356293  1.0
  H  H34  1  0.40133049  0.10388522  0.45786078  1.0
  H  H35  1  0.59871354  0.43810843  0.45767542  1.0
  H  H36  1  0.59867316  0.89611349  0.54214045  1.0
  H  H37  1  0.40128265  0.56189285  0.54232475  1.0
  H  H38  1  0.34008542  0.90931087  0.53742722  1.0
  H  H39  1  0.65965808  0.55306919  0.53734729  1.0
  H  H40  1  0.65991460  0.09068870  0.46257214  1.0
  H  H41  1  0.34034135  0.44693293  0.46265253  1.0
  H  H42  1  0.10178434  0.88448949  0.62251077  1.0
  H  H43  1  0.89794394  0.49293073  0.62249418  1.0
  H  H44  1  0.89821187  0.11551179  0.37748589  1.0
  H  H45  1  0.10205703  0.50706968  0.37750491  1.0
  C  C46  1  0.80272997  0.95420618  0.00002068  1.0
  C  C47  1  0.19727272  0.04579170  0.99998140  1.0
  C  C48  1  0.92388318  0.02119127  0.00001507  1.0
  C  C49  1  0.07612143  0.97880829  0.99998296  1.0
  C  C50  1  0.47417757  0.65190392  0.00002861  1.0
  C  C51  1  0.52581844  0.34809312  0.99997453  1.0
  C  C52  1  0.44279474  0.54258437  0.00003636  1.0
  C  C53  1  0.55719975  0.45741438  0.99996342  1.0
  C  C54  1  0.68110363  0.91856849  0.81202393  1.0
  C  C55  1  0.31891077  0.26962442  0.81188941  1.0
  C  C56  1  0.31889944  0.08143276  0.18797426  1.0
  C  C57  1  0.68108885  0.73037686  0.18811064  1.0
  C  C58  1  0.41450365  0.97960398  0.80549584  1.0
  C  C59  1  0.58550890  0.21508302  0.80545460  1.0
  C  C60  1  0.58549885  0.02039473  0.19450543  1.0
  C  C61  1  0.41449092  0.78491740  0.19454569  1.0
  C  C62  1  0.41704386  0.02502757  0.71746777  1.0
  C  C63  1  0.58298230  0.25771294  0.71741802  1.0
  C  C64  1  0.58295560  0.97496946  0.28253350  1.0
  C  C65  1  0.41701867  0.74228748  0.28258164  1.0
  C  C66  1  0.55924166  0.01554856  0.67653659  1.0
  C  C67  1  0.44079467  0.30818947  0.67643903  1.0
  C  C68  1  0.44075473  0.98445189  0.32346264  1.0
  C  C69  1  0.55920535  0.69181009  0.32356150  1.0
  C  C70  1  0.69481805  0.96100359  0.72421622  1.0
  C  C71  1  0.30522551  0.31505255  0.72407882  1.0
  C  C72  1  0.30518293  0.03899684  0.27578227  1.0
  C  C73  1  0.69477545  0.68494786  0.27592202  1.0
  C  C74  1  0.85082989  0.94700723  0.68385541  1.0
  C  C75  1  0.14920287  0.36936971  0.68368013  1.0
  C  C76  1  0.14916994  0.05299320  0.31614312  1.0
  C  C77  1  0.85079924  0.63063071  0.31632067  1.0
  C  C78  1  0.02237900  0.06490298  0.59154933  1.0
  C  C79  1  0.97762498  0.34353441  0.59147922  1.0
  C  C80  1  0.97762352  0.93509574  0.40844843  1.0
  C  C81  1  0.02237332  0.65646772  0.40851947  1.0
  C  C82  1  0.05554829  0.17530181  0.54701683  1.0
  C  C83  1  0.94453169  0.27762831  0.54696202  1.0
  C  C84  1  0.94445020  0.82469947  0.45298151  1.0
  C  C85  1  0.05547138  0.72237295  0.45303733  1.0
  C  C86  1  0.19334039  0.18686721  0.50047127  1.0
  C  C87  1  0.80677679  0.31255578  0.50035699  1.0
  C  C88  1  0.80666002  0.81313067  0.49952972  1.0
  C  C89  1  0.19322016  0.68744720  0.49964209  1.0
  C  C90  1  0.29633065  0.09246820  0.49608247  1.0
  C  C91  1  0.70369200  0.41131342  0.49594144  1.0
  C  C92  1  0.70366957  0.90753052  0.50391771  1.0
  C  C93  1  0.29630896  0.58868699  0.50405940  1.0
  C  C94  1  0.26164350  0.98418216  0.54017765  1.0
  C  C95  1  0.73822805  0.47550957  0.54007129  1.0
  C  C96  1  0.73835616  0.01581401  0.45982210  1.0
  C  C97  1  0.26177252  0.52449255  0.45992966  1.0
  C  C98  1  0.12616514  0.96972314  0.58820962  1.0
  C  C99  1  0.87370008  0.44200050  0.58814452  1.0
  C  C100  1  0.87383241  0.03027730  0.41178723  1.0
  C  C101  1  0.12630318  0.55799991  0.41185565  1.0
  N  N102  1  0.54423683  0.92802484  0.85138813  1.0
  N  N103  1  0.45577358  0.22075180  0.85130369  1.0
  N  N104  1  0.45576797  0.07197386  0.14861248  1.0
  N  N105  1  0.54422853  0.77924862  0.14869652  1.0
  O  O106  1  0.65938284  0.00249830  0.00001546  1.0
  O  O107  1  0.34061985  0.99750466  0.99998050  1.0
  O  O108  1  0.83819399  0.85482469  0.00002450  1.0
  O  O109  1  0.16180717  0.14516979  0.99998387  1.0
  O  O110  1  0.35804815  0.72863694  0.00005886  1.0
  O  O111  1  0.64194825  0.27136349  0.99993979  1.0
  O  O112  1  0.61554632  0.66545546  0.99999515  1.0
  O  O113  1  0.38445007  0.33453988  0.00001080  1.0
  O  O114  1  0.88680470  0.05879654  0.63645636  1.0
  O  O115  1  0.11322347  0.30481140  0.63640554  1.0
  O  O116  1  0.11319265  0.94120474  0.36354202  1.0
  O  O117  1  0.88677617  0.69518988  0.36359217  1.0
