# generated using pymatgen
data_ZnH14C20N(O2F3)2
_symmetry_space_group_name_H-M   'P 1'
_cell_length_a   19.19333701
_cell_length_b   19.19333903
_cell_length_c   27.69089069
_cell_angle_alpha   69.72220228
_cell_angle_beta   69.72576178
_cell_angle_gamma   90.00378513
_symmetry_Int_Tables_number   1
_chemical_formula_structural   ZnH14C20N(O2F3)2
_chemical_formula_sum   'Zn8 H112 C160 N8 O32 F48'
_cell_volume   8891.75688205
_cell_formula_units_Z   8
loop_
 _symmetry_equiv_pos_site_id
 _symmetry_equiv_pos_as_xyz
  1  'x, y, z'
loop_
 _atom_site_type_symbol
 _atom_site_label
 _atom_site_symmetry_multiplicity
 _atom_site_fract_x
 _atom_site_fract_y
 _atom_site_fract_z
 _atom_site_occupancy
  Zn  Zn0  1  0.50558949  0.07868349  0.48885530  1.0
  Zn  Zn1  1  0.43246214  0.50555485  0.98885443  1.0
  Zn  Zn2  1  0.50557039  0.43248391  0.48885952  1.0
  Zn  Zn3  1  0.92134293  0.49442848  0.01114145  1.0
  Zn  Zn4  1  0.07865667  0.50556997  0.98885850  1.0
  Zn  Zn5  1  0.56753810  0.49444415  0.01114488  1.0
  Zn  Zn6  1  0.49441027  0.92131608  0.51114507  1.0
  Zn  Zn7  1  0.49443048  0.56751566  0.51114094  1.0
  H  H8  1  0.76883663  0.39424993  0.08612767  1.0
  H  H9  1  0.75146494  0.36786338  0.80895210  1.0
  H  H10  1  0.58246949  0.07644463  0.61738130  1.0
  H  H11  1  0.24850428  0.17681669  0.19104837  1.0
  H  H12  1  0.64506057  0.39425823  0.08615383  1.0
  H  H13  1  0.16877492  0.86210713  0.79437179  1.0
  H  H14  1  0.37984181  0.67673323  0.52272722  1.0
  H  H15  1  0.32327164  0.62020565  0.97725933  1.0
  H  H16  1  0.51962222  0.64503524  0.58612741  1.0
  H  H17  1  0.75149477  0.82318176  0.80895244  1.0
  H  H18  1  0.67677413  0.59743822  0.02273883  1.0
  H  H19  1  0.40249984  0.32324778  0.47728095  1.0
  H  H20  1  0.73733227  0.48043958  0.36830689  1.0
  H  H21  1  0.26264211  0.84878562  0.63167432  1.0
  H  H22  1  0.17681650  0.06041653  0.69104736  1.0
  H  H23  1  0.53684975  0.34355107  0.79441360  1.0
  H  H24  1  0.41758339  0.69378333  0.38256743  1.0
  H  H25  1  0.62017713  0.19951175  0.47726144  1.0
  H  H26  1  0.64506475  0.51955753  0.08615963  1.0
  H  H27  1  0.84874475  0.60563935  0.13169319  1.0
  H  H28  1  0.19946120  0.40256962  0.97727190  1.0
  H  H29  1  0.71977362  0.57778292  0.93656814  1.0
  H  H30  1  0.48048209  0.73733513  0.86830857  1.0
  H  H31  1  0.48565599  0.71980890  0.43654511  1.0
  H  H32  1  0.48045996  0.39431640  0.86832645  1.0
  H  H33  1  0.36786555  0.93955204  0.30895306  1.0
  H  H34  1  0.86203555  0.16873540  0.29441337  1.0
  H  H35  1  0.82322792  0.75142483  0.30895523  1.0
  H  H36  1  0.34357689  0.16871097  0.29440128  1.0
  H  H37  1  0.67672931  0.37979448  0.02274062  1.0
  H  H38  1  0.40253528  0.19947015  0.47725933  1.0
  H  H39  1  0.84364638  0.57779875  0.93654570  1.0
  H  H40  1  0.15127647  0.73739016  0.86828712  1.0
  H  H41  1  0.83120794  0.65638340  0.20562381  1.0
  H  H42  1  0.92364739  0.69984861  0.88256876  1.0
  H  H43  1  0.84872148  0.26260829  0.13171432  1.0
  H  H44  1  0.59750000  0.67675234  0.52271927  1.0
  H  H45  1  0.30617290  0.58243549  0.11740527  1.0
  H  H46  1  0.06038827  0.17678155  0.19104655  1.0
  H  H47  1  0.69989277  0.69378928  0.38260441  1.0
  H  H48  1  0.60569081  0.35498415  0.41386038  1.0
  H  H49  1  0.13799277  0.46316802  0.70562434  1.0
  H  H50  1  0.28022733  0.42221721  0.06343181  1.0
  H  H51  1  0.51958856  0.76878539  0.58615342  1.0
  H  H52  1  0.48041183  0.23121474  0.41384666  1.0
  H  H53  1  0.60567753  0.51956370  0.63171330  1.0
  H  H54  1  0.92360532  0.41750280  0.88260489  1.0
  H  H55  1  0.37982326  0.80048838  0.52273864  1.0
  H  H56  1  0.80052788  0.37978001  0.02271955  1.0
  H  H57  1  0.46314994  0.65644794  0.20558656  1.0
  H  H58  1  0.15636530  0.51431637  0.06346805  1.0
  H  H59  1  0.83122477  0.13789188  0.20562873  1.0
  H  H60  1  0.46311248  0.13797776  0.20559870  1.0
  H  H61  1  0.82318366  0.93958192  0.30895318  1.0
  H  H62  1  0.84363502  0.48568319  0.93653183  1.0
  H  H63  1  0.93961898  0.36781548  0.80895575  1.0
  H  H64  1  0.65648008  0.46314641  0.70562835  1.0
  H  H65  1  0.86200762  0.53683211  0.29437574  1.0
  H  H66  1  0.13796540  0.83126473  0.70558585  1.0
  H  H67  1  0.51434433  0.28019066  0.56345477  1.0
  H  H68  1  0.42221494  0.28016618  0.56346815  1.0
  H  H69  1  0.26266765  0.51956111  0.63169317  1.0
  H  H70  1  0.07635134  0.30015152  0.11743136  1.0
  H  H71  1  0.69984061  0.92357700  0.38259523  1.0
  H  H72  1  0.30015963  0.07642201  0.61740516  1.0
  H  H73  1  0.35493612  0.48044204  0.91384083  1.0
  H  H74  1  0.17677255  0.24857586  0.69104433  1.0
  H  H75  1  0.48564942  0.84365892  0.43656795  1.0
  H  H76  1  0.06038015  0.63218352  0.19104383  1.0
  H  H77  1  0.30010770  0.30621140  0.61739516  1.0
  H  H78  1  0.59746512  0.80052998  0.52274075  1.0
  H  H79  1  0.69382924  0.41756520  0.88259425  1.0
  H  H80  1  0.36782805  0.75143477  0.30895259  1.0
  H  H81  1  0.16879182  0.34361617  0.79437656  1.0
  H  H82  1  0.53688743  0.86202293  0.79440028  1.0
  H  H83  1  0.63213532  0.06044753  0.69104632  1.0
  H  H84  1  0.24853696  0.63213562  0.19104717  1.0
  H  H85  1  0.39435683  0.15120855  0.36830839  1.0
  H  H86  1  0.15125350  0.39436134  0.86830655  1.0
  H  H87  1  0.07639286  0.58249733  0.11739536  1.0
  H  H88  1  0.60571761  0.23122449  0.41384084  1.0
  H  H89  1  0.80053975  0.59743051  0.02272805  1.0
  H  H90  1  0.93961109  0.82321914  0.80895364  1.0
  H  H91  1  0.51951663  0.26266500  0.13169119  1.0
  H  H92  1  0.51435089  0.15634064  0.56343193  1.0
  H  H93  1  0.19947181  0.62021900  0.97728097  1.0
  H  H94  1  0.60564341  0.84879045  0.63169236  1.0
  H  H95  1  0.71977821  0.48567016  0.93655444  1.0
  H  H96  1  0.42222415  0.15633131  0.56344536  1.0
  H  H97  1  0.30617324  0.30014843  0.11738234  1.0
  H  H98  1  0.58241692  0.30621623  0.61743281  1.0
  H  H99  1  0.23116321  0.60575021  0.91387254  1.0
  H  H100  1  0.15635449  0.42220082  0.06345440  1.0
  H  H101  1  0.63217275  0.24856423  0.69104731  1.0
  H  H102  1  0.48037818  0.35496488  0.41387268  1.0
  H  H103  1  0.39430903  0.64501597  0.58613948  1.0
  H  H104  1  0.76884424  0.51954980  0.08614009  1.0
  H  H105  1  0.65642343  0.83128860  0.70559895  1.0
  H  H106  1  0.69382541  0.69985114  0.88261902  1.0
  H  H107  1  0.57778537  0.71983339  0.43653172  1.0
  H  H108  1  0.28022282  0.51433052  0.06344500  1.0
  H  H109  1  0.73735836  0.15121507  0.36832561  1.0
  H  H110  1  0.62015858  0.32326690  0.47727250  1.0
  H  H111  1  0.23115607  0.48044976  0.91386015  1.0
  H  H112  1  0.39428278  0.76877564  0.58615888  1.0
  H  H113  1  0.35493982  0.60574190  0.91384625  1.0
  H  H114  1  0.39432279  0.48043587  0.36828657  1.0
  H  H115  1  0.57777609  0.84366770  0.43655431  1.0
  H  H116  1  0.51954044  0.60568373  0.13167399  1.0
  H  H117  1  0.34352024  0.53685315  0.29437189  1.0
  H  H118  1  0.41753082  0.92355494  0.38261857  1.0
  H  H119  1  0.32322738  0.40256192  0.97726098  1.0
  C  C120  1  0.05611870  0.85139231  0.79537330  1.0
  C  C121  1  0.66010421  0.98649918  0.78012303  1.0
  C  C122  1  0.97736481  0.40146626  0.86276504  1.0
  C  C123  1  0.26428970  0.02264922  0.63727088  1.0
  C  C124  1  0.75678978  0.10528624  0.35485240  1.0
  C  C125  1  0.58504655  0.31243768  0.45598482  1.0
  C  C126  1  0.23337638  0.66008051  0.28012364  1.0
  C  C127  1  0.05979358  0.23340472  0.78013149  1.0
  C  C128  1  0.19460997  0.30788162  0.67898461  1.0
  C  C129  1  0.33989611  0.01350038  0.21987649  1.0
  C  C130  1  0.23157843  0.45896946  0.95598426  1.0
  C  C131  1  0.59019133  0.96362605  0.62020858  1.0
  C  C132  1  0.01353643  0.33992439  0.71986929  1.0
  C  C133  1  0.01313320  0.19461307  0.17899934  1.0
  C  C134  1  0.98646348  0.66007631  0.28013077  1.0
  C  C135  1  0.64673903  0.94392864  0.70461198  1.0
  C  C136  1  0.03648716  0.71042931  0.87972084  1.0
  C  C137  1  0.23158999  0.58511661  0.95599575  1.0
  C  C138  1  0.35148793  0.64675514  0.20460343  1.0
  C  C139  1  0.59848944  0.02268117  0.63724524  1.0
  C  C140  1  0.82653142  0.57174640  0.31337475  1.0
  C  C141  1  0.53987381  0.75676560  0.85485398  1.0
  C  C142  1  0.58381797  0.40984482  0.87978060  1.0
  C  C143  1  0.36554774  0.97405575  0.57625150  1.0
  C  C144  1  0.31241374  0.58510372  0.95597675  1.0
  C  C145  1  0.71037470  0.03640175  0.37978226  1.0
  C  C146  1  0.45888816  0.31241501  0.45599571  1.0
  C  C147  1  0.02605518  0.44183400  0.92369344  1.0
  C  C148  1  0.76662358  0.94022814  0.71987538  1.0
  C  C149  1  0.02610230  0.63449385  0.92364930  1.0
  C  C150  1  0.18839032  0.47854595  0.04289224  1.0
  C  C151  1  0.03643050  0.40981902  0.87977647  1.0
  C  C152  1  0.45891953  0.23161020  0.45597670  1.0
  C  C153  1  0.35145843  0.14865027  0.20461277  1.0
  C  C154  1  0.94388169  0.14860781  0.20462751  1.0
  C  C155  1  0.41495329  0.68756246  0.54401539  1.0
  C  C156  1  0.19465974  0.01316563  0.67899979  1.0
  C  C157  1  0.98686440  0.37359250  0.82101624  1.0
  C  C158  1  0.44969970  0.55820369  0.07624954  1.0
  C  C159  1  0.26876403  0.47856221  0.04286785  1.0
  C  C160  1  0.01313370  0.62640708  0.17898416  1.0
  C  C161  1  0.68758658  0.41489584  0.04402349  1.0
  C  C162  1  0.36552655  0.44974291  0.57630465  1.0
  C  C163  1  0.62633459  0.01318925  0.67900654  1.0
  C  C164  1  0.46012341  0.24323566  0.14514587  1.0
  C  C165  1  0.57177387  0.36004459  0.81340636  1.0
  C  C166  1  0.11487874  0.36009313  0.81337477  1.0
  C  C167  1  0.63445258  0.02594381  0.42374946  1.0
  C  C168  1  0.63994088  0.88520084  0.68660194  1.0
  C  C169  1  0.46013922  0.61164108  0.14514637  1.0
  C  C170  1  0.76662346  0.33991961  0.71987694  1.0
  C  C171  1  0.24321124  0.89471444  0.64514704  1.0
  C  C172  1  0.30783481  0.62633926  0.17899999  1.0
  C  C173  1  0.38836377  0.53983415  0.35480027  1.0
  C  C174  1  0.59014968  0.41620749  0.62028033  1.0
  C  C175  1  0.65992174  0.40155974  0.86272794  1.0
  C  C176  1  0.10536522  0.75683548  0.85480103  1.0
  C  C177  1  0.44967065  0.36553029  0.07626261  1.0
  C  C178  1  0.30780387  0.19465914  0.17900768  1.0
  C  C179  1  0.64676607  0.35149077  0.70462685  1.0
  C  C180  1  0.34007074  0.26426399  0.13724615  1.0
  C  C181  1  0.98686560  0.80538762  0.82100171  1.0
  C  C182  1  0.61161897  0.89472836  0.64514566  1.0
  C  C183  1  0.73576877  0.65987093  0.36276497  1.0
  C  C184  1  0.61163543  0.46016542  0.64519987  1.0
  C  C185  1  0.80533883  0.98683337  0.32100137  1.0
  C  C186  1  0.07030992  0.92972042  0.74999013  1.0
  C  C187  1  0.44185717  0.55025326  0.42364881  1.0
  C  C188  1  0.40151024  0.97731783  0.36275529  1.0
  C  C189  1  0.35323480  0.64850880  0.29537289  1.0
  C  C190  1  0.41616317  0.28959982  0.12020954  1.0
  C  C191  1  0.59845230  0.34011816  0.63728773  1.0
  C  C192  1  0.94020386  0.01349963  0.21987696  1.0
  C  C193  1  0.76842252  0.54103067  0.04401569  1.0
  C  C194  1  0.65992625  0.73573558  0.86275525  1.0
  C  C195  1  0.37361237  0.69213246  0.32100036  1.0
  C  C196  1  0.11486563  0.82661283  0.81336755  1.0
  C  C197  1  0.68760076  0.54104187  0.04403173  1.0
  C  C198  1  0.82654951  0.11481942  0.31340633  1.0
  C  C199  1  0.97396512  0.55816948  0.07630248  1.0
  C  C200  1  0.40985048  0.58379096  0.37971985  1.0
  C  C201  1  0.80539043  0.69211851  0.32101547  1.0
  C  C202  1  0.92966950  0.67966970  0.24999950  1.0
  C  C203  1  0.42822653  0.63995554  0.18659372  1.0
  C  C204  1  0.38838064  0.10527008  0.35485538  1.0
  C  C205  1  0.40980796  0.03637408  0.37979213  1.0
  C  C206  1  0.85134774  0.64848101  0.29538274  1.0
  C  C207  1  0.63998111  0.42823290  0.68663301  1.0
  C  C208  1  0.64853934  0.85135098  0.79538767  1.0
  C  C209  1  0.76840977  0.41488296  0.04400461  1.0
  C  C210  1  0.55814434  0.44974687  0.57635100  1.0
  C  C211  1  0.98650213  0.05972236  0.28014079  1.0
  C  C212  1  0.96351101  0.28957082  0.12028050  1.0
  C  C213  1  0.54111223  0.68758512  0.54400437  1.0
  C  C214  1  0.96356758  0.59018447  0.12022191  1.0
  C  C215  1  0.75677537  0.53983526  0.35483174  1.0
  C  C216  1  0.55032165  0.63447152  0.92373794  1.0
  C  C217  1  0.55030463  0.44180092  0.92374707  1.0
  C  C218  1  0.94386436  0.64673176  0.20461655  1.0
  C  C219  1  0.94020618  0.76659485  0.21986852  1.0
  C  C220  1  0.97390635  0.36550572  0.07635145  1.0
  C  C221  1  0.23337681  0.05977198  0.28012434  1.0
  C  C222  1  0.58507395  0.23163231  0.45596834  1.0
  C  C223  1  0.32028884  0.67969990  0.24998953  1.0
  C  C224  1  0.44179194  0.02593882  0.42373717  1.0
  C  C225  1  0.02259339  0.26426062  0.13728799  1.0
  C  C226  1  0.26423107  0.34012920  0.63723524  1.0
  C  C227  1  0.28962562  0.96359781  0.62021906  1.0
  C  C228  1  0.05979638  0.98649938  0.78012343  1.0
  C  C229  1  0.64851231  0.35324386  0.79539660  1.0
  C  C230  1  0.69219534  0.80534043  0.82099355  1.0
  C  C231  1  0.62638906  0.30786711  0.67899925  1.0
  C  C232  1  0.10533327  0.38839311  0.85483247  1.0
  C  C233  1  0.35326129  0.05607093  0.29538790  1.0
  C  C234  1  0.55820774  0.97406019  0.57626335  1.0
  C  C235  1  0.52143064  0.81163179  0.45713220  1.0
  C  C236  1  0.32030072  0.07030037  0.25000086  1.0
  C  C237  1  0.57180157  0.82654185  0.81339905  1.0
  C  C238  1  0.36005944  0.11479873  0.31339829  1.0
  C  C239  1  0.71040513  0.58379020  0.37977790  1.0
  C  C240  1  0.52143793  0.73128146  0.45710796  1.0
  C  C241  1  0.47856912  0.18836778  0.54286781  1.0
  C  C242  1  0.05613659  0.35326837  0.79538375  1.0
  C  C243  1  0.41618298  0.59015530  0.12021863  1.0
  C  C244  1  0.89463343  0.24316409  0.14520033  1.0
  C  C245  1  0.47856183  0.26871811  0.54289205  1.0
  C  C246  1  0.66013598  0.23335687  0.78014110  1.0
  C  C247  1  0.36001913  0.57176612  0.31336701  1.0
  C  C248  1  0.58383326  0.71039974  0.87979236  1.0
  C  C249  1  0.88513350  0.17338618  0.18663347  1.0
  C  C250  1  0.88512055  0.63990700  0.18662486  1.0
  C  C251  1  0.67971100  0.32030022  0.75001105  1.0
  C  C252  1  0.54108023  0.76838937  0.54402331  1.0
  C  C253  1  0.17345025  0.88518015  0.68659367  1.0
  C  C254  1  0.01349755  0.94027665  0.71985973  1.0
  C  C255  1  0.41492636  0.76836726  0.54403153  1.0
  C  C256  1  0.89466768  0.61160702  0.14516711  1.0
  C  C257  1  0.73123629  0.52143735  0.95713239  1.0
  C  C258  1  0.37366580  0.98681088  0.32099318  1.0
  C  C259  1  0.42819700  0.17345716  0.18660210  1.0
  C  C260  1  0.53986157  0.38835792  0.85485208  1.0
  C  C261  1  0.34007976  0.59844038  0.13727079  1.0
  C  C262  1  0.24322518  0.46016599  0.64516767  1.0
  C  C263  1  0.07033089  0.32033043  0.75000058  1.0
  C  C264  1  0.02263622  0.59853442  0.13723440  1.0
  C  C265  1  0.33986434  0.76664270  0.21985914  1.0
  C  C266  1  0.14864056  0.94390816  0.70460342  1.0
  C  C267  1  0.97740590  0.73573952  0.86271344  1.0
  C  C268  1  0.28959463  0.41620938  0.62022174  1.0
  C  C269  1  0.92968977  0.07027859  0.25001039  1.0
  C  C270  1  0.67969959  0.92969919  0.74999938  1.0
  C  C271  1  0.81161056  0.52145362  0.95710750  1.0
  C  C272  1  0.73571062  0.97735035  0.36272971  1.0
  C  C273  1  0.14865265  0.35151912  0.70461734  1.0
  C  C274  1  0.63447296  0.55025891  0.42369487  1.0
  C  C275  1  0.40154857  0.65988141  0.36271237  1.0
  C  C276  1  0.17346850  0.42825430  0.68662531  1.0
  C  C277  1  0.31239964  0.45895826  0.95596835  1.0
  C  C278  1  0.85135920  0.05609140  0.29539623  1.0
  C  C279  1  0.69216614  0.37366088  0.82099995  1.0
  N  N280  1  0.50748210  0.32463295  0.48498542  1.0
  N  N281  1  0.80961811  0.49246687  0.01501485  1.0
  N  N282  1  0.49251774  0.67536718  0.51501444  1.0
  N  N283  1  0.32463680  0.50753253  0.98495651  1.0
  N  N284  1  0.19038213  0.50753213  0.98498518  1.0
  N  N285  1  0.50751082  0.19040697  0.48495663  1.0
  N  N286  1  0.49248949  0.80959261  0.51504324  1.0
  N  N287  1  0.67536407  0.49246703  0.01504360  1.0
  O  O288  1  0.39963917  0.40938772  0.54991216  1.0
  O  O289  1  0.59070234  0.60039769  0.95011902  1.0
  O  O290  1  0.39964903  0.04080606  0.54989237  1.0
  O  O291  1  0.08465984  0.60971247  0.93102767  1.0
  O  O292  1  0.91538706  0.54075520  0.06892957  1.0
  O  O293  1  0.60968560  0.48431694  0.43107145  1.0
  O  O294  1  0.54075436  0.91550016  0.56890163  1.0
  O  O295  1  0.51563595  0.54081876  0.06886448  1.0
  O  O296  1  0.95929829  0.44955167  0.95008693  1.0
  O  O297  1  0.55043911  0.40940503  0.54994377  1.0
  O  O298  1  0.44956082  0.59059173  0.45005615  1.0
  O  O299  1  0.60036115  0.59061184  0.45008699  1.0
  O  O300  1  0.51559333  0.39034727  0.06890084  1.0
  O  O301  1  0.04064665  0.39961784  0.04994425  1.0
  O  O302  1  0.45924619  0.08450110  0.43109850  1.0
  O  O303  1  0.59069958  0.44954284  0.95010678  1.0
  O  O304  1  0.04069804  0.55045127  0.04991345  1.0
  O  O305  1  0.60967995  0.08450663  0.43113387  1.0
  O  O306  1  0.39031964  0.91549574  0.56886622  1.0
  O  O307  1  0.60035167  0.95919632  0.45010818  1.0
  O  O308  1  0.54074389  0.51568705  0.56897058  1.0
  O  O309  1  0.48439704  0.60965679  0.93109782  1.0
  O  O310  1  0.40930291  0.55046456  0.04988635  1.0
  O  O311  1  0.48436472  0.45918753  0.93113152  1.0
  O  O312  1  0.95934986  0.60038229  0.95005785  1.0
  O  O313  1  0.40928376  0.39960356  0.04988388  1.0
  O  O314  1  0.39031353  0.51568207  0.56892848  1.0
  O  O315  1  0.08461016  0.45924211  0.93106907  1.0
  O  O316  1  0.45925778  0.48431027  0.43102914  1.0
  O  O317  1  0.91533722  0.39028766  0.06897213  1.0
  O  O318  1  0.55051372  0.04082607  0.54988207  1.0
  O  O319  1  0.44948628  0.95917518  0.45011784  1.0
  F  F320  1  0.69654084  0.19551977  0.74746827  1.0
  F  F321  1  0.32216276  0.79147973  0.17385862  1.0
  F  F322  1  0.03466176  0.00397807  0.67385924  1.0
  F  F323  1  0.00885714  0.41495763  0.70297839  1.0
  F  F324  1  0.99114333  0.58504306  0.29702153  1.0
  F  F325  1  0.94394460  0.80443815  0.25254464  1.0
  F  F326  1  0.99609215  0.20856932  0.82612907  1.0
  F  F327  1  0.32217167  0.03464704  0.17388289  1.0
  F  F328  1  0.99607372  0.96535713  0.82610745  1.0
  F  F329  1  0.96530101  0.67777997  0.32612784  1.0
  F  F330  1  0.30345908  0.80448092  0.25253215  1.0
  F  F331  1  0.94298696  0.94400945  0.75253166  1.0
  F  F332  1  0.05606877  0.05701602  0.74741868  1.0
  F  F333  1  0.05701288  0.05599068  0.24746783  1.0
  F  F334  1  0.11793587  0.21183399  0.79702199  1.0
  F  F335  1  0.80443611  0.30348717  0.75258085  1.0
  F  F336  1  0.20853527  0.67781939  0.32610708  1.0
  F  F337  1  0.67783763  0.20852039  0.82614110  1.0
  F  F338  1  0.00390769  0.79143081  0.17387114  1.0
  F  F339  1  0.94393265  0.94298355  0.25258165  1.0
  F  F340  1  0.78822505  0.41494349  0.70297793  1.0
  F  F341  1  0.00392604  0.03464243  0.17389292  1.0
  F  F342  1  0.58509125  0.21179074  0.79703558  1.0
  F  F343  1  0.99117456  0.11787250  0.29703511  1.0
  F  F344  1  0.69652026  0.05701253  0.74743316  1.0
  F  F345  1  0.05698331  0.69648945  0.24745432  1.0
  F  F346  1  0.94301700  0.30351012  0.75254556  1.0
  F  F347  1  0.30348006  0.94298703  0.25256636  1.0
  F  F348  1  0.19555372  0.05604562  0.24743448  1.0
  F  F349  1  0.80444730  0.94395508  0.75256495  1.0
  F  F350  1  0.78820478  0.88209669  0.70297275  1.0
  F  F351  1  0.19556428  0.69651296  0.24741923  1.0
  F  F352  1  0.05605579  0.19556198  0.74745508  1.0
  F  F353  1  0.96533904  0.99602094  0.32614065  1.0
  F  F354  1  0.79147130  0.00394596  0.67388175  1.0
  F  F355  1  0.21179617  0.11790344  0.29702683  1.0
  F  F356  1  0.11792176  0.99120241  0.79702169  1.0
  F  F357  1  0.41493017  0.00882246  0.20297338  1.0
  F  F358  1  0.03469946  0.32222072  0.67387209  1.0
  F  F359  1  0.67782927  0.96535309  0.82611634  1.0
  F  F360  1  0.20852909  0.99605417  0.32611797  1.0
  F  F361  1  0.41490914  0.78820939  0.20296414  1.0
  F  F362  1  0.88207833  0.00879547  0.20297901  1.0
  F  F363  1  0.58507014  0.99117710  0.79702578  1.0
  F  F364  1  0.88206397  0.78816614  0.20297787  1.0
  F  F365  1  0.21177487  0.58505720  0.29702213  1.0
  F  F366  1  0.00882560  0.88212595  0.70296543  1.0
  F  F367  1  0.79146465  0.32218130  0.67389262  1.0
