# generated using pymatgen
data_CdH9C10I(NO)3
_symmetry_space_group_name_H-M   'P 1'
_cell_length_a   11.69657160
_cell_length_b   11.69656641
_cell_length_c   14.72908085
_cell_angle_alpha   78.85942182
_cell_angle_beta   78.85937068
_cell_angle_gamma   85.56107222
_symmetry_Int_Tables_number   1
_chemical_formula_structural   CdH9C10I(NO)3
_chemical_formula_sum   'Cd4 H36 C40 I4 N12 O12'
_cell_volume   1938.17198138
_cell_formula_units_Z   4
loop_
 _symmetry_equiv_pos_site_id
 _symmetry_equiv_pos_as_xyz
  1  'x, y, z'
loop_
 _atom_site_type_symbol
 _atom_site_label
 _atom_site_symmetry_multiplicity
 _atom_site_fract_x
 _atom_site_fract_y
 _atom_site_fract_z
 _atom_site_occupancy
  Cd  Cd0  1  0.88938589  0.28295354  0.93356960  1.0
  Cd  Cd1  1  0.71704882  0.11061276  0.56642933  1.0
  Cd  Cd2  1  0.11061407  0.71704753  0.06642975  1.0
  Cd  Cd3  1  0.28295288  0.88938562  0.43356947  1.0
  H  H4  1  0.10034482  0.08350534  0.92464500  1.0
  H  H5  1  0.91649522  0.89965598  0.57535478  1.0
  H  H6  1  0.89965513  0.91649485  0.07535515  1.0
  H  H7  1  0.08350387  0.10034338  0.42464632  1.0
  H  H8  1  0.22140333  0.97298449  0.81605833  1.0
  H  H9  1  0.02701844  0.77859671  0.68393945  1.0
  H  H10  1  0.77859663  0.02701832  0.18394006  1.0
  H  H11  1  0.97298501  0.22140421  0.31605870  1.0
  H  H12  1  0.92786932  0.27186080  0.71829833  1.0
  H  H13  1  0.72814278  0.07212979  0.78170371  1.0
  H  H14  1  0.07213063  0.72814113  0.28170359  1.0
  H  H15  1  0.27186066  0.92786938  0.21829742  1.0
  H  H16  1  0.04431773  0.16579149  0.59594661  1.0
  H  H17  1  0.83421338  0.95567916  0.90405451  1.0
  H  H18  1  0.95568048  0.83421139  0.40405476  1.0
  H  H19  1  0.16579181  0.04431907  0.09594650  1.0
  H  H20  1  0.64702064  0.94232870  0.10367599  1.0
  H  H21  1  0.05767014  0.35297965  0.39632598  1.0
  H  H22  1  0.35298019  0.05767146  0.89632472  1.0
  H  H23  1  0.94232720  0.64701978  0.60367673  1.0
  H  H24  1  0.52560161  0.17916979  0.87689359  1.0
  H  H25  1  0.82083024  0.47439728  0.62310983  1.0
  H  H26  1  0.47439835  0.82083215  0.12310834  1.0
  H  H27  1  0.17916710  0.52560127  0.37689436  1.0
  H  H28  1  0.29259935  0.89232231  0.71712059  1.0
  H  H29  1  0.10767924  0.70739609  0.78287737  1.0
  H  H30  1  0.70739625  0.10767720  0.28287829  1.0
  H  H31  1  0.89232246  0.29259968  0.21712048  1.0
  H  H32  1  0.35521393  0.75893126  0.60788116  1.0
  H  H33  1  0.24106977  0.64478021  0.89211769  1.0
  H  H34  1  0.64477905  0.24106836  0.39211879  1.0
  H  H35  1  0.75893193  0.35521555  0.10788084  1.0
  H  H36  1  0.43116045  0.88161160  0.57957904  1.0
  H  H37  1  0.11838896  0.56883498  0.92042106  1.0
  H  H38  1  0.56883514  0.11838617  0.42042215  1.0
  H  H39  1  0.88161274  0.43116253  0.07957856  1.0
  C  C40  1  0.70064810  0.14091873  0.97730272  1.0
  C  C41  1  0.85908021  0.29935187  0.52269858  1.0
  C  C42  1  0.29935273  0.85908230  0.02269785  1.0
  C  C43  1  0.14091713  0.70064844  0.47730264  1.0
  C  C44  1  0.09052266  0.09995927  0.85120734  1.0
  C  C45  1  0.90004176  0.90947614  0.64879269  1.0
  C  C46  1  0.90947642  0.90004183  0.14879281  1.0
  C  C47  1  0.09995994  0.09052224  0.35120748  1.0
  C  C48  1  0.15899581  0.03758283  0.78766727  1.0
  C  C49  1  0.96241940  0.84100286  0.71233186  1.0
  C  C50  1  0.84100327  0.96241914  0.21233207  1.0
  C  C51  1  0.03758492  0.15899802  0.28766820  1.0
  C  C52  1  0.99443450  0.20499689  0.73603274  1.0
  C  C53  1  0.79500566  0.00556210  0.76396912  1.0
  C  C54  1  0.00556284  0.79500429  0.26396903  1.0
  C  C55  1  0.20499691  0.99443537  0.23603105  1.0
  C  C56  1  0.05893936  0.14618461  0.66819605  1.0
  C  C57  1  0.85381620  0.94105583  0.83180526  1.0
  C  C58  1  0.94105623  0.85381489  0.33180555  1.0
  C  C59  1  0.14618462  0.05894085  0.16819598  1.0
  C  C60  1  0.14207778  0.05973830  0.69429721  1.0
  C  C61  1  0.94026348  0.85791915  0.80570091  1.0
  C  C62  1  0.85791956  0.94026201  0.30570196  1.0
  C  C63  1  0.05973909  0.14207919  0.19429845  1.0
  C  C64  1  0.58249389  0.96695118  0.05829804  1.0
  C  C65  1  0.03304961  0.41750485  0.44170322  1.0
  C  C66  1  0.41750606  0.03305076  0.94170253  1.0
  C  C67  1  0.96694860  0.58249368  0.55829813  1.0
  C  C68  1  0.51357320  0.10079578  0.93084913  1.0
  C  C69  1  0.89920269  0.48642665  0.56915232  1.0
  C  C70  1  0.48642763  0.89920438  0.06915157  1.0
  C  C71  1  0.10079377  0.51357282  0.43085052  1.0
  C  C72  1  0.59683332  0.06835946  0.98924507  1.0
  C  C73  1  0.93164001  0.40316557  0.51075701  1.0
  C  C74  1  0.40316663  0.93164160  0.01075563  1.0
  C  C75  1  0.06835646  0.59683302  0.48924596  1.0
  C  C76  1  0.20684464  0.99469431  0.62091590  1.0
  C  C77  1  0.00531055  0.79315790  0.87908394  1.0
  C  C78  1  0.79315706  0.00530930  0.37908414  1.0
  C  C79  1  0.99469551  0.20684552  0.12091683  1.0
  I  I80  1  0.93343577  0.50786516  0.83596490  1.0
  I  I81  1  0.49213583  0.06655448  0.66403423  1.0
  I  I82  1  0.06656158  0.49213602  0.16403210  1.0
  I  I83  1  0.50786499  0.93343609  0.33596658  1.0
  N  N84  1  0.00948648  0.18162085  0.82620945  1.0
  N  N85  1  0.81838124  0.99051356  0.67379164  1.0
  N  N86  1  0.99051347  0.81838021  0.17379193  1.0
  N  N87  1  0.18162133  0.00948565  0.32620963  1.0
  N  N88  1  0.27042977  0.89758740  0.65276562  1.0
  N  N89  1  0.10241574  0.72956589  0.84723140  1.0
  N  N90  1  0.72956671  0.10241382  0.34723219  1.0
  N  N91  1  0.89758858  0.27043238  0.15276567  1.0
  N  N92  1  0.35057508  0.84719584  0.58611870  1.0
  N  N93  1  0.15280482  0.64942086  0.91387928  1.0
  N  N94  1  0.64942051  0.15280367  0.41388087  1.0
  N  N95  1  0.84719688  0.35057666  0.08611830  1.0
  O  O96  1  0.71760156  0.22427038  0.90601741  1.0
  O  O97  1  0.77573389  0.28239398  0.59398718  1.0
  O  O98  1  0.28239403  0.77573697  0.09398843  1.0
  O  O99  1  0.22426867  0.71760000  0.40601828  1.0
  O  O100  1  0.76975280  0.11752579  0.03629119  1.0
  O  O101  1  0.88246748  0.23025294  0.46370568  1.0
  O  O102  1  0.23025327  0.88246805  0.96370493  1.0
  O  O103  1  0.11752376  0.76975285  0.53629156  1.0
  O  O104  1  0.19896990  0.02632302  0.53670091  1.0
  O  O105  1  0.97368482  0.80103170  0.96329418  1.0
  O  O106  1  0.80103180  0.97368147  0.46329561  1.0
  O  O107  1  0.02632386  0.19897162  0.03670281  1.0
