# generated using pymatgen
data_AlH6C27N13O18
_symmetry_space_group_name_H-M   'P 1'
_cell_length_a   4.18380869
_cell_length_b   16.42996873
_cell_length_c   17.94949049
_cell_angle_alpha   64.24168135
_cell_angle_beta   89.34692991
_cell_angle_gamma   82.89108459
_symmetry_Int_Tables_number   1
_chemical_formula_structural   AlH6C27N13O18
_chemical_formula_sum   'Al1 H6 C27 N13 O18'
_cell_volume   1101.46118989
_cell_formula_units_Z   1
loop_
 _symmetry_equiv_pos_site_id
 _symmetry_equiv_pos_as_xyz
  1  'x, y, z'
loop_
 _atom_site_type_symbol
 _atom_site_label
 _atom_site_symmetry_multiplicity
 _atom_site_fract_x
 _atom_site_fract_y
 _atom_site_fract_z
 _atom_site_occupancy
  Al  Al0  1  0.51793673  0.00917494  0.48553078  1.0
  H  H1  1  0.65297239  0.30718240  0.09851179  1.0
  H  H2  1  0.70919413  0.08159708  0.81529207  1.0
  H  H3  1  0.69194418  0.59711683  0.58926582  1.0
  H  H4  1  0.37617342  0.31940197  0.59098942  1.0
  H  H5  1  0.31436561  0.60139684  0.81172350  1.0
  H  H6  1  0.31788763  0.08232321  0.10214909  1.0
  C  C7  1  0.99810196  0.06806233  0.35961332  1.0
  C  C8  1  0.96390388  0.07823766  0.55659289  1.0
  C  C9  1  0.09262124  0.87068396  0.55822660  1.0
  C  C10  1  0.79836778  0.24125217  0.13184769  1.0
  C  C11  1  0.98495399  0.20024277  0.08916518  1.0
  C  C12  1  0.70056351  0.11935003  0.74813676  1.0
  C  C13  1  0.53695412  0.20775185  0.70891749  1.0
  C  C14  1  0.51447125  0.58711227  0.70581340  1.0
  C  C15  1  0.54938829  0.63211235  0.62043460  1.0
  C  C16  1  0.51174791  0.25160221  0.62239768  1.0
  C  C17  1  0.64884018  0.20715244  0.57727375  1.0
  C  C18  1  0.83389898  0.11997857  0.61366604  1.0
  C  C19  1  0.84597371  0.07744308  0.70130575  1.0
  C  C20  1  0.40941836  0.72163692  0.57635321  1.0
  C  C21  1  0.21640624  0.77096986  0.61223904  1.0
  C  C22  1  0.18697061  0.72238244  0.69870074  1.0
  C  C23  1  0.33416313  0.63341401  0.74483185  1.0
  C  C24  1  0.17128342  0.11576869  0.13389716  1.0
  C  C25  1  0.16776581  0.07418671  0.21961841  1.0
  C  C26  1  0.98787939  0.11337982  0.26518213  1.0
  C  C27  1  0.80452609  0.19812786  0.21770450  1.0
  C  C28  1  0.80916032  0.37020106  0.87774038  1.0
  C  C29  1  0.20051073  0.24564519  0.88035982  1.0
  C  C30  1  0.99002614  0.24620236  0.99814616  1.0
  C  C31  1  0.68231578  0.49397609  0.75289367  1.0
  C  C32  1  0.03296867  0.37735486  0.74970054  1.0
  C  C33  1  0.36794603  0.25323540  0.75598526  1.0
  N  N34  1  0.01406632  0.33098931  0.83599408  1.0
  N  N35  1  0.19120010  0.20471282  0.96248927  1.0
  N  N36  1  0.79438154  0.32548300  0.95956683  1.0
  N  N37  1  0.63299718  0.45118242  0.83437451  1.0
  N  N38  1  0.87358591  0.46068908  0.70913997  1.0
  N  N39  1  0.38306887  0.20773835  0.83910238  1.0
  N  N40  1  0.20885495  0.33669460  0.71009039  1.0
  N  N41  1  0.36364509  0.98379745  0.26308062  1.0
  N  N42  1  0.61314615  0.24728021  0.25904643  1.0
  N  N43  1  0.01321122  0.76199992  0.75097851  1.0
  N  N44  1  0.48772752  0.75819517  0.48720018  1.0
  N  N45  1  0.56529917  0.26076121  0.48684268  1.0
  N  N46  1  0.99270033  0.98100316  0.75219399  1.0
  O  O47  1  0.81828748  0.90637377  0.56644064  1.0
  O  O48  1  0.77932990  0.01907769  0.39341192  1.0
  O  O49  1  0.75795383  0.08940957  0.50029000  1.0
  O  O50  1  0.28970380  0.91198282  0.50463648  1.0
  O  O51  1  0.24929885  0.04000070  0.56428154  1.0
  O  O52  1  0.22731302  0.08513257  0.39373931  1.0
  O  O53  1  0.28915261  0.93524960  0.33376512  1.0
  O  O54  1  0.58486593  0.96394665  0.22505824  1.0
  O  O55  1  0.69957450  0.22782559  0.33080510  1.0
  O  O56  1  0.38349435  0.30434105  0.21825734  1.0
  O  O57  1  0.74752621  0.80789981  0.72486600  1.0
  O  O58  1  0.14742210  0.74198465  0.81864822  1.0
  O  O59  1  0.72451078  0.79938818  0.46649711  1.0
  O  O60  1  0.32688205  0.73569907  0.44393016  1.0
  O  O61  1  0.32582188  0.24295441  0.46056175  1.0
  O  O62  1  0.72277751  0.32372332  0.44850652  1.0
  O  O63  1  0.22573224  0.95004368  0.72540177  1.0
  O  O64  1  0.86814046  0.93993774  0.81865569  1.0
