# generated using pymatgen
data_Cu2H15(C5N)4
_symmetry_space_group_name_H-M   'P 1'
_cell_length_a   30.86975433
_cell_length_b   34.16365075
_cell_length_c   34.84882886
_cell_angle_alpha   89.45320808
_cell_angle_beta   88.89861973
_cell_angle_gamma   89.81903570
_symmetry_Int_Tables_number   1
_chemical_formula_structural   Cu2H15(C5N)4
_chemical_formula_sum   'Cu12 H90 C120 N24'
_cell_volume   36743.76806643
_cell_formula_units_Z   6
loop_
 _symmetry_equiv_pos_site_id
 _symmetry_equiv_pos_as_xyz
  1  'x, y, z'
loop_
 _atom_site_type_symbol
 _atom_site_label
 _atom_site_symmetry_multiplicity
 _atom_site_fract_x
 _atom_site_fract_y
 _atom_site_fract_z
 _atom_site_occupancy
  Cu  Cu0  1  0.90001018  0.80639918  0.80434186  1.0
  Cu  Cu1  1  0.82636250  0.86668221  0.78790961  1.0
  Cu  Cu2  1  0.80946227  0.79980505  0.84957654  1.0
  Cu  Cu3  1  0.10965151  0.78841358  0.20431003  1.0
  Cu  Cu4  1  0.18989697  0.84609078  0.19678858  1.0
  Cu  Cu5  1  0.17595714  0.77830130  0.13590117  1.0
  Cu  Cu6  1  0.15012933  0.22384514  0.78138580  1.0
  Cu  Cu7  1  0.22179495  0.15730045  0.78876782  1.0
  Cu  Cu8  1  0.20491796  0.22129903  0.85512837  1.0
  Cu  Cu9  1  0.84931016  0.21015367  0.22100675  1.0
  Cu  Cu10  1  0.79651503  0.13183348  0.22318743  1.0
  Cu  Cu11  1  0.77863375  0.19756469  0.15846877  1.0
  H  H12  1  0.97443549  0.83991701  0.74747227  1.0
  H  H13  1  0.86445363  0.91066652  0.71391717  1.0
  H  H14  1  0.82547821  0.72281668  0.89923496  1.0
  H  H15  1  0.95392262  0.74363974  0.85119791  1.0
  H  H16  1  0.76318417  0.93192979  0.82003482  1.0
  H  H17  1  0.73136842  0.83585058  0.89748899  1.0
  H  H18  1  0.05427735  0.83198534  0.26818045  1.0
  H  H19  1  0.17036090  0.90297345  0.26687944  1.0
  H  H20  1  0.13990871  0.70155558  0.09674204  1.0
  H  H21  1  0.04164093  0.72194529  0.18477034  1.0
  H  H22  1  0.26247657  0.89596035  0.15431134  1.0
  H  H23  1  0.23340153  0.81133563  0.06674706  1.0
  H  H24  1  0.09944440  0.19391171  0.71095783  1.0
  H  H25  1  0.19866551  0.10427164  0.71708019  1.0
  H  H26  1  0.15815699  0.28656329  0.90583112  1.0
  H  H27  1  0.07715509  0.28454155  0.80572443  1.0
  H  H28  1  0.28537850  0.09962571  0.83161380  1.0
  H  H29  1  0.25567079  0.18183266  0.92229948  1.0
  H  H30  1  0.91683002  0.19344445  0.28600318  1.0
  H  H31  1  0.84040834  0.08741847  0.29335746  1.0
  H  H32  1  0.80322349  0.26542594  0.09872712  1.0
  H  H33  1  0.90313448  0.27850212  0.18322661  1.0
  H  H34  1  0.74981892  0.05989364  0.18504127  1.0
  H  H35  1  0.71268040  0.15311398  0.10713874  1.0
  H  H36  1  0.52526761  0.04402621  0.03317844  1.0
  H  H37  1  0.52911252  0.93815189  0.96747580  1.0
  H  H38  1  0.47289161  0.02039267  0.94370626  1.0
  H  H39  1  0.46538545  0.96163085  0.05326561  1.0
  H  H40  1  0.64821528  0.99191536  0.00186840  1.0
  H  H41  1  0.34825156  0.99198807  0.99424711  1.0
  H  H42  1  0.09658158  0.03507986  0.52004337  1.0
  H  H43  1  0.97161270  0.97975212  0.52806115  1.0
  H  H44  1  0.09201711  0.98284898  0.46568090  1.0
  H  H45  1  0.96576591  0.03504260  0.48042611  1.0
  H  H46  1  0.04097042  0.00572407  0.63079700  1.0
  H  H47  1  0.01625337  0.01224822  0.36683705  1.0
  H  H48  1  0.02911279  0.50956804  0.03407659  1.0
  H  H49  1  0.90995203  0.52032197  0.97266187  1.0
  H  H50  1  0.90307508  0.46082829  0.02054068  1.0
  H  H51  1  0.03424613  0.46522487  0.97687105  1.0
  H  H52  1  0.97298505  0.62333994  0.01456838  1.0
  H  H53  1  0.96972256  0.35414011  0.99023299  1.0
  H  H54  1  0.91303681  0.92963930  0.65396865  1.0
  H  H55  1  0.01172867  0.94714878  0.64709913  1.0
  H  H56  1  0.99421737  0.90111687  0.69624082  1.0
  H  H57  1  0.93682578  0.96781451  0.59336344  1.0
  H  H58  1  0.13635420  0.93111934  0.33394533  1.0
  H  H59  1  0.04001007  0.95020069  0.35419764  1.0
  H  H60  1  0.04733104  0.89999248  0.31026527  1.0
  H  H61  1  0.12278640  0.97394227  0.39584318  1.0
  H  H62  1  0.16363107  0.08175951  0.64715615  1.0
  H  H63  1  0.06475987  0.07332229  0.63364421  1.0
  H  H64  1  0.08093528  0.12591306  0.67234721  1.0
  H  H65  1  0.14105673  0.03913344  0.58666210  1.0
  H  H66  1  0.88399599  0.07748967  0.36019263  1.0
  H  H67  1  0.98469354  0.07726299  0.36308256  1.0
  H  H68  1  0.95618258  0.12834848  0.32363731  1.0
  H  H69  1  0.91726347  0.03978412  0.41812298  1.0
  H  H70  1  0.86181862  0.65603388  0.92749052  1.0
  H  H71  1  0.95562821  0.64157835  0.95554689  1.0
  H  H72  1  0.95199171  0.69175754  0.91162840  1.0
  H  H73  1  0.87508511  0.58928998  0.96532727  1.0
  H  H74  1  0.84114019  0.33165560  0.06673666  1.0
  H  H75  1  0.94007039  0.34795921  0.05787190  1.0
  H  H76  1  0.92262772  0.31191145  0.11277441  1.0
  H  H77  1  0.86367898  0.39108341  0.02077406  1.0
  H  H78  1  0.09692225  0.63455009  0.08676665  1.0
  H  H79  1  0.99741446  0.62865136  0.07576534  1.0
  H  H80  1  0.01648209  0.67375944  0.12354998  1.0
  H  H81  1  0.07108354  0.57415753  0.04830357  1.0
  H  H82  1  0.10837200  0.34750063  0.92526881  1.0
  H  H83  1  0.00748606  0.35035237  0.92744078  1.0
  H  H84  1  0.03759477  0.31515621  0.87328489  1.0
  H  H85  1  0.07534332  0.40075844  0.96736514  1.0
  H  H86  1  0.66656789  0.88108186  0.91931288  1.0
  H  H87  1  0.66430043  0.97017300  0.93734397  1.0
  H  H88  1  0.71458514  0.95295639  0.88588274  1.0
  H  H89  1  0.60153617  0.90321228  0.95849393  1.0
  H  H90  1  0.34337177  0.07231858  0.87995502  1.0
  H  H91  1  0.33826685  0.05761368  0.96826159  1.0
  H  H92  1  0.29443889  0.11217361  0.94687330  1.0
  H  H93  1  0.40347517  0.03001410  0.90622601  1.0
  H  H94  1  0.65477863  0.10366175  0.08531925  1.0
  H  H95  1  0.66188556  0.01540760  0.06452213  1.0
  H  H96  1  0.70929092  0.03525065  0.11673562  1.0
  H  H97  1  0.59459123  0.07916586  0.04581970  1.0
  H  H98  1  0.32746795  0.91404469  0.10862682  1.0
  H  H99  1  0.33099654  0.92941702  0.02042459  1.0
  H  H100  1  0.27960889  0.87852435  0.04052427  1.0
  H  H101  1  0.39225431  0.95185503  0.08529324  1.0
  C  C102  1  0.94314354  0.85396139  0.74390568  1.0
  C  C103  1  0.93124033  0.88379376  0.71797481  1.0
  C  C104  1  0.88689159  0.88977332  0.72626696  1.0
  C  C105  1  0.85404407  0.73242052  0.88317176  1.0
  C  C106  1  0.89729485  0.71952800  0.88557173  1.0
  C  C107  1  0.91969330  0.74363568  0.85895009  1.0
  C  C108  1  0.75996585  0.90427877  0.83543008  1.0
  C  C109  1  0.73433082  0.89509963  0.86810070  1.0
  C  C110  1  0.74306525  0.85511140  0.87464879  1.0
  C  C111  1  0.08579414  0.84527550  0.26309786  1.0
  C  C112  1  0.10398424  0.87817884  0.28060168  1.0
  C  C113  1  0.14532946  0.88120533  0.26303978  1.0
  C  C114  1  0.12055906  0.71095950  0.12132015  1.0
  C  C115  1  0.07946889  0.69800390  0.13417096  1.0
  C  C116  1  0.07001302  0.72197430  0.16587333  1.0
  C  C117  1  0.25167482  0.87143387  0.13744449  1.0
  C  C118  1  0.26034037  0.86273723  0.09862314  1.0
  C  C119  1  0.23616601  0.82856817  0.09259169  1.0
  C  C120  1  0.12721386  0.17553163  0.71731612  1.0
  C  C121  1  0.13997090  0.13987848  0.70061686  1.0
  C  C122  1  0.17830718  0.13008252  0.71982955  1.0
  C  C123  1  0.14379764  0.28267396  0.87794271  1.0
  C  C124  1  0.10389030  0.29651942  0.86423028  1.0
  C  C125  1  0.10206714  0.28097387  0.82705233  1.0
  C  C126  1  0.27502736  0.12399148  0.84935246  1.0
  C  C127  1  0.28109592  0.13022195  0.88878718  1.0
  C  C128  1  0.25919620  0.16571033  0.89572285  1.0
  C  C129  1  0.89332126  0.17011512  0.28327302  1.0
  C  C130  1  0.89131688  0.13361240  0.30221614  1.0
  C  C131  1  0.85375741  0.11629380  0.28768282  1.0
  C  C132  1  0.82368297  0.26469641  0.12369256  1.0
  C  C133  1  0.86292635  0.28429556  0.13011387  1.0
  C  C134  1  0.87504262  0.27077804  0.16663910  1.0
  C  C135  1  0.74446879  0.08723912  0.16971018  1.0
  C  C136  1  0.72077883  0.09422125  0.13621520  1.0
  C  C137  1  0.72483519  0.13487953  0.13024070  1.0
  C  C138  1  0.54397466  0.02100108  0.01894072  1.0
  C  C139  1  0.52223440  0.99107084  0.00020289  1.0
  C  C140  1  0.54613741  0.96131543  0.98234548  1.0
  C  C141  1  0.59175415  0.96189111  0.98169282  1.0
  C  C142  1  0.61289429  0.99164586  0.00152251  1.0
  C  C143  1  0.58951794  0.02103562  0.02091165  1.0
  C  C144  1  0.47407956  0.99109536  0.99870649  1.0
  C  C145  1  0.45338773  0.00740156  0.96694954  1.0
  C  C146  1  0.40786892  0.00934169  0.96564338  1.0
  C  C147  1  0.38353096  0.99162639  0.99545125  1.0
  C  C148  1  0.40367329  0.97347838  0.02679443  1.0
  C  C149  1  0.44918171  0.97486648  0.02875193  1.0
  C  C150  1  0.07067363  0.02188757  0.53751150  1.0
  C  C151  1  0.03371263  0.00758990  0.51963826  1.0
  C  C152  1  0.99974808  0.99194772  0.54216812  1.0
  C  C153  1  0.00266729  0.98926540  0.58227461  1.0
  C  C154  1  0.03892841  0.00585401  0.59960099  1.0
  C  C155  1  0.07274831  0.02279298  0.57778315  1.0
  C  C156  1  0.02962679  0.00925147  0.47742560  1.0
  C  C157  1  0.06300027  0.99560428  0.45314362  1.0
  C  C158  1  0.05770526  0.99471530  0.41317267  1.0
  C  C159  1  0.02011874  0.01150855  0.39786517  1.0
  C  C160  1  0.98688642  0.02656595  0.42151779  1.0
  C  C161  1  0.99137228  0.02377907  0.46148038  1.0
  C  C162  1  0.00375651  0.52805749  0.02204429  1.0
  C  C163  1  0.96912745  0.51051919  0.00333770  1.0
  C  C164  1  0.93591982  0.53396929  0.98858704  1.0
  C  C165  1  0.93793632  0.57499757  0.99094988  1.0
  C  C166  1  0.97173075  0.59164033  0.01160777  1.0
  C  C167  1  0.00462589  0.56869399  0.02771930  1.0
  C  C168  1  0.96854070  0.46755443  0.99880241  1.0
  C  C169  1  0.93152513  0.44582814  0.00868151  1.0
  C  C170  1  0.93235648  0.40471565  0.00746658  1.0
  C  C171  1  0.96931590  0.38598880  0.99222037  1.0
  C  C172  1  0.00601068  0.40743410  0.98020866  1.0
  C  C173  1  0.00579547  0.44812344  0.98541405  1.0
  C  C174  1  0.95947619  0.90423254  0.69116653  1.0
  C  C175  1  0.94734134  0.92710097  0.66107460  1.0
  C  C176  1  0.97810932  0.94829048  0.63762252  1.0
  C  C177  1  0.96959196  0.96842915  0.60485459  1.0
  C  C178  1  0.08266117  0.90278363  0.30861678  1.0
  C  C179  1  0.10106762  0.92843375  0.33297997  1.0
  C  C180  1  0.07501161  0.95177073  0.35862481  1.0
  C  C181  1  0.08851842  0.97372464  0.38833207  1.0
  C  C182  1  0.11539662  0.11822382  0.67313976  1.0
  C  C183  1  0.12921083  0.08940202  0.64924119  1.0
  C  C184  1  0.09901778  0.06810062  0.62648760  1.0
  C  C185  1  0.10775234  0.04326904  0.59721675  1.0
  C  C186  1  0.92324375  0.11693483  0.32741552  1.0
  C  C187  1  0.91685017  0.08805165  0.35392355  1.0
  C  C188  1  0.95211486  0.07000882  0.37393647  1.0
  C  C189  1  0.94897520  0.04540376  0.40459357  1.0
  C  C190  1  0.91668025  0.69000199  0.90961604  1.0
  C  C191  1  0.89680645  0.66046486  0.92949872  1.0
  C  C192  1  0.92141201  0.63386934  0.95268860  1.0
  C  C193  1  0.90802956  0.59994846  0.96960562  1.0
  C  C194  1  0.88838098  0.30978849  0.10538136  1.0
  C  C195  1  0.87535187  0.33082643  0.07440538  1.0
  C  C196  1  0.90586299  0.35346043  0.05178271  1.0
  C  C197  1  0.89717133  0.38207502  0.02584251  1.0
  C  C198  1  0.05108410  0.66991065  0.11703907  1.0
  C  C199  1  0.06261456  0.64078408  0.09258093  1.0
  C  C200  1  0.03098942  0.61849930  0.07257880  1.0
  C  C201  1  0.03856740  0.58701582  0.04998387  1.0
  C  C202  1  0.07042705  0.31846834  0.88414007  1.0
  C  C203  1  0.07568276  0.34171876  0.91507721  1.0
  C  C204  1  0.03998644  0.35997637  0.93513639  1.0
  C  C205  1  0.04333586  0.38875018  0.96141136  1.0
  C  C206  1  0.70769278  0.92178814  0.89023464  1.0
  C  C207  1  0.67569159  0.91188014  0.91577793  1.0
  C  C208  1  0.65217035  0.94006728  0.93841609  1.0
  C  C209  1  0.61570844  0.93253049  0.95950300  1.0
  C  C210  1  0.30288948  0.10621449  0.91682213  1.0
  C  C211  1  0.33260604  0.07768399  0.90957264  1.0
  C  C212  1  0.35214800  0.05451002  0.93926853  1.0
  C  C213  1  0.38733879  0.03105286  0.93446905  1.0
  C  C214  1  0.69894587  0.06572668  0.11313175  1.0
  C  C215  1  0.66707651  0.07365038  0.08782479  1.0
  C  C216  1  0.64717934  0.04464125  0.06440078  1.0
  C  C217  1  0.61086764  0.05069516  0.04376607  1.0
  C  C218  1  0.28651700  0.88399830  0.07069980  1.0
  C  C219  1  0.31852765  0.90969299  0.07870635  1.0
  C  C220  1  0.34253654  0.93129918  0.04988486  1.0
  C  C221  1  0.37886937  0.95229969  0.05640739  1.0
  N  N222  1  0.87377688  0.86558389  0.75491294  1.0
  N  N223  1  0.90867095  0.84308753  0.76572271  1.0
  N  N224  1  0.89205734  0.76862412  0.84199005  1.0
  N  N225  1  0.85123022  0.76184018  0.85725490  1.0
  N  N226  1  0.77171250  0.84183844  0.84810402  1.0
  N  N227  1  0.78195130  0.87235874  0.82351473  1.0
  N  N228  1  0.15097685  0.85243442  0.23717855  1.0
  N  N229  1  0.11404977  0.82991648  0.23743711  1.0
  N  N230  1  0.10280708  0.74708238  0.17139390  1.0
  N  N231  1  0.13408058  0.74044481  0.14348748  1.0
  N  N232  1  0.21516061  0.81772655  0.12523076  1.0
  N  N233  1  0.22453623  0.84458859  0.15303935  1.0
  N  N234  1  0.18721007  0.15762869  0.74601393  1.0
  N  N235  1  0.15557189  0.18605761  0.74418906  1.0
  N  N236  1  0.13790658  0.25961582  0.81936256  1.0
  N  N237  1  0.16370179  0.26039366  0.85113788  1.0
  N  N238  1  0.24178833  0.17952208  0.86309973  1.0
  N  N239  1  0.25134549  0.15339501  0.83429469  1.0
  N  N240  1  0.83529108  0.14051300  0.26192237  1.0
  N  N241  1  0.85967205  0.17414609  0.25947610  1.0
  N  N242  1  0.84551948  0.24523158  0.18072199  1.0
  N  N243  1  0.81369004  0.24121081  0.15390548  1.0
  N  N244  1  0.74906469  0.15060940  0.15789262  1.0
  N  N245  1  0.76098108  0.12101509  0.18266721  1.0
