# generated using pymatgen
data_Zr3H31C46(NO4)5
_symmetry_space_group_name_H-M   'P 1'
_cell_length_a   19.02435771
_cell_length_b   19.05330917
_cell_length_c   19.05319722
_cell_angle_alpha   90.09141596
_cell_angle_beta   119.93821901
_cell_angle_gamma   119.93831263
_symmetry_Int_Tables_number   1
_chemical_formula_structural   Zr3H31C46(NO4)5
_chemical_formula_sum   'Zr6 H62 C92 N10 O40'
_cell_volume   4888.73504736
_cell_formula_units_Z   2
loop_
 _symmetry_equiv_pos_site_id
 _symmetry_equiv_pos_as_xyz
  1  'x, y, z'
loop_
 _atom_site_type_symbol
 _atom_site_label
 _atom_site_symmetry_multiplicity
 _atom_site_fract_x
 _atom_site_fract_y
 _atom_site_fract_z
 _atom_site_occupancy
  Zr  Zr0  1  0.68610081  0.09383150  0.09056307  1.0
  Zr  Zr1  1  0.31451846  0.90940924  0.90623281  1.0
  Zr  Zr2  1  0.49839749  0.90806822  0.90438421  1.0
  Zr  Zr3  1  0.50218855  0.09567039  0.09189592  1.0
  Zr  Zr4  1  0.50026937  0.09433546  0.90559619  1.0
  Zr  Zr5  1  0.50035788  0.90901939  0.09108537  1.0
  H  H6  1  0.64508785  0.07347169  0.92373245  1.0
  H  H7  1  0.35539541  0.07616587  0.92649069  1.0
  H  H8  1  0.35292728  0.78278473  0.92576938  1.0
  H  H9  1  0.64770048  0.07437493  0.21722679  1.0
  H  H10  1  0.08075235  0.72272016  0.93891835  1.0
  H  H11  1  0.91877918  0.35994310  0.13456940  1.0
  H  H12  1  0.71894251  0.28818235  0.86120726  1.0
  H  H13  1  0.85275114  0.41780174  0.86225850  1.0
  H  H14  1  0.27847231  0.64608861  0.06482584  1.0
  H  H15  1  0.14274809  0.51299635  0.05843120  1.0
  H  H16  1  0.08146245  0.86555108  0.64010050  1.0
  H  H17  1  0.92005278  0.06151906  0.27761969  1.0
  H  H18  1  0.72218408  0.93566749  0.35412697  1.0
  H  H19  1  0.85791871  0.94222458  0.48737486  1.0
  H  H20  1  0.28183252  0.13886411  0.71210246  1.0
  H  H21  1  0.14817628  0.13817189  0.58271458  1.0
  H  H22  1  0.58168632  0.72237839  0.13558334  1.0
  H  H23  1  0.57816921  0.35984961  0.93793577  1.0
  H  H24  1  0.43110714  0.28933468  0.06463604  1.0
  H  H25  1  0.42441820  0.41716815  0.05640518  1.0
  H  H26  1  0.42856693  0.64469951  0.86115652  1.0
  H  H27  1  0.42453595  0.51142063  0.86210764  1.0
  H  H28  1  0.42203319  0.06176709  0.64005288  1.0
  H  H29  1  0.41870893  0.86433670  0.27737337  1.0
  H  H30  1  0.57156452  0.13873780  0.35524642  1.0
  H  H31  1  0.57525575  0.13755687  0.48836322  1.0
  H  H32  1  0.56890957  0.93491064  0.71030781  1.0
  H  H33  1  0.57537494  0.94304118  0.58235043  1.0
  H  H34  1  0.07020436  0.87568706  0.90347356  1.0
  H  H35  1  0.29100412  0.10910338  0.11550018  1.0
  H  H36  1  0.93035697  0.09647663  0.12428138  1.0
  H  H37  1  0.70953499  0.88462253  0.89073673  1.0
  H  H38  1  0.27728795  0.71865345  0.64082210  1.0
  H  H39  1  0.72329420  0.35921433  0.28128752  1.0
  H  H40  1  0.92369225  0.28535311  0.35679782  1.0
  H  H41  1  0.05046738  0.41264507  0.49183409  1.0
  H  H42  1  0.07692024  0.64308702  0.71472283  1.0
  H  H43  1  0.95009923  0.50810404  0.58738508  1.0
  H  H44  1  0.87195001  0.53683482  0.92219871  1.0
  H  H45  1  0.91691846  0.63343829  0.90294971  1.0
  H  H46  1  0.11225889  0.56667002  0.15595421  1.0
  H  H47  1  0.07027707  0.50428094  0.20867809  1.0
  H  H48  1  0.88808063  0.84457819  0.43363844  1.0
  H  H49  1  0.92993910  0.79172188  0.49590000  1.0
  H  H50  1  0.12878936  0.07816596  0.46359171  1.0
  H  H51  1  0.08384719  0.09736901  0.36693829  1.0
  H  H52  1  0.58650091  0.53468513  0.15463296  1.0
  H  H53  1  0.61342960  0.62656982  0.20696433  1.0
  H  H54  1  0.60440237  0.56308028  0.94211329  1.0
  H  H55  1  0.63985349  0.50201389  0.92467149  1.0
  H  H56  1  0.39545538  0.05749219  0.43668545  1.0
  H  H57  1  0.36014074  0.07494844  0.49786731  1.0
  H  H58  1  0.41326203  0.84495382  0.46475182  1.0
  H  H59  1  0.38652166  0.79271995  0.37292118  1.0
  H  H60  1  0.09569941  0.53956909  0.43926335  1.0
  H  H61  1  0.20863451  0.63685605  0.49877528  1.0
  H  H62  1  0.90478586  0.56067691  0.46050163  1.0
  H  H63  1  0.79185249  0.50119033  0.36319923  1.0
  H  H64  1  0.69759591  0.76349193  0.89661645  1.0
  H  H65  1  0.78648644  0.77810248  0.73114256  1.0
  H  H66  1  0.21366920  0.26878895  0.22152206  1.0
  H  H67  1  0.30301149  0.10346128  0.23671840  1.0
  C  C68  1  0.73474326  0.23855795  0.99853781  1.0
  C  C69  1  0.26576190  0.00136983  0.76146336  1.0
  C  C70  1  0.26533209  0.76976706  0.00253653  1.0
  C  C71  1  0.73539042  0.99773011  0.23037333  1.0
  C  C72  1  0.73556506  0.99578923  0.00140672  1.0
  C  C73  1  0.73871459  0.23929740  0.23200090  1.0
  C  C74  1  0.26500728  0.99854511  0.00423667  1.0
  C  C75  1  0.26190430  0.76786999  0.76080762  1.0
  C  C76  1  0.49379380  0.99702143  0.75939896  1.0
  C  C77  1  0.50490307  0.76852553  0.99908856  1.0
  C  C78  1  0.49572046  0.00098167  0.23149552  1.0
  C  C79  1  0.50658387  0.24049866  0.00274156  1.0
  C  C80  1  0.18683243  0.69200861  0.00244019  1.0
  C  C81  1  0.81196477  0.31738290  0.99839125  1.0
  C  C82  1  0.09419955  0.67691311  0.96618821  1.0
  C  C83  1  0.01849003  0.60437679  0.96562866  1.0
  C  C84  1  0.90477056  0.37446193  0.07544103  1.0
  C  C85  1  0.97861226  0.45002929  0.07766030  1.0
  C  C86  1  0.79150893  0.33352903  0.92097921  1.0
  C  C87  1  0.86604572  0.40645641  0.92246818  1.0
  C  C88  1  0.20607922  0.63385649  0.03749651  1.0
  C  C89  1  0.13036576  0.56037485  0.03404788  1.0
  C  C90  1  0.03680924  0.54413144  0.99929721  1.0
  C  C91  1  0.95951314  0.46591819  0.99930921  1.0
  C  C92  1  0.18856399  0.00167372  0.68274501  1.0
  C  C93  1  0.81392069  0.99802345  0.30827951  1.0
  C  C94  1  0.09563142  0.92474898  0.62568785  1.0
  C  C95  1  0.02185535  0.92273480  0.55023657  1.0
  C  C96  1  0.90660139  0.03432781  0.32345287  1.0
  C  C97  1  0.98228093  0.03490757  0.39604860  1.0
  C  C98  1  0.79461574  0.96303706  0.36643315  1.0
  C  C99  1  0.87032622  0.96655746  0.43998920  1.0
  C  C100  1  0.20918701  0.07916383  0.66672558  1.0
  C  C101  1  0.13472431  0.07788497  0.59393662  1.0
  C  C102  1  0.04112938  0.00115433  0.53445485  1.0
  C  C103  1  0.96390248  0.00127859  0.45628046  1.0
  C  C104  1  0.50567239  0.69071082  0.99885360  1.0
  C  C105  1  0.50604718  0.31839891  0.00214895  1.0
  C  C106  1  0.54845655  0.67581287  0.07612337  1.0
  C  C107  1  0.55107850  0.60346037  0.07809637  1.0
  C  C108  1  0.54651969  0.37437323  0.96534078  1.0
  C  C109  1  0.54791136  0.44871725  0.96424286  1.0
  C  C110  1  0.46330623  0.33410216  0.03687330  1.0
  C  C111  1  0.46115529  0.40593773  0.03300332  1.0
  C  C112  1  0.46241961  0.63259230  0.92106612  1.0
  C  C113  1  0.46107456  0.55896339  0.92227607  1.0
  C  C114  1  0.50472446  0.54288815  0.99922852  1.0
  C  C115  1  0.50375844  0.46463635  0.99838670  1.0
  C  C116  1  0.49409591  0.99749941  0.68138344  1.0
  C  C117  1  0.49466686  0.00107250  0.30916699  1.0
  C  C118  1  0.45358968  0.03430921  0.62544036  1.0
  C  C119  1  0.45205480  0.03533954  0.55102730  1.0
  C  C120  1  0.45180923  0.92373530  0.32393550  1.0
  C  C121  1  0.44895578  0.92162283  0.39617082  1.0
  C  C122  1  0.53769354  0.07877978  0.36727659  1.0
  C  C123  1  0.53883027  0.07744242  0.44080745  1.0
  C  C124  1  0.53668708  0.96266471  0.66555588  1.0
  C  C125  1  0.53871659  0.96648602  0.59365413  1.0
  C  C126  1  0.49609035  0.00112592  0.53499410  1.0
  C  C127  1  0.49515572  0.00040770  0.45676493  1.0
  C  C128  1  0.08712923  0.92414877  0.95089566  1.0
  C  C129  1  0.01165653  0.91901978  0.95229563  1.0
  C  C130  1  0.90796015  0.85166549  0.88823971  1.0
  C  C131  1  0.21262950  0.05621623  0.07271926  1.0
  C  C132  1  0.14036004  0.05220149  0.07909342  1.0
  C  C133  1  0.16547676  0.11529998  0.14559424  1.0
  C  C134  1  0.91342204  0.04908182  0.07578600  1.0
  C  C135  1  0.98886639  0.04764552  0.08091170  1.0
  C  C136  1  0.09255048  0.11167722  0.14828826  1.0
  C  C137  1  0.78790931  0.92735349  0.94364145  1.0
  C  C138  1  0.86016357  0.92093873  0.94766854  1.0
  C  C139  1  0.83504044  0.85439523  0.88460524  1.0
  C  C140  1  0.18610251  0.99279717  0.00943172  1.0
  C  C141  1  0.03785892  0.98423214  0.01622310  1.0
  C  C142  1  0.81445477  0.99061058  0.00710362  1.0
  C  C143  1  0.96268230  0.98374474  0.01568803  1.0
  C  C144  1  0.18393042  0.68846007  0.68398192  1.0
  C  C145  1  0.81667733  0.31609590  0.31144137  1.0
  C  C146  1  0.20442265  0.67228084  0.62743696  1.0
  C  C147  1  0.13265684  0.59848955  0.55399435  1.0
  C  C148  1  0.79615784  0.37259664  0.32766909  1.0
  C  C149  1  0.86788444  0.44600705  0.40149901  1.0
  C  C150  1  0.90902642  0.33044763  0.36990429  1.0
  C  C151  1  0.97917202  0.40159997  0.44454842  1.0
  C  C152  1  0.09157664  0.63000185  0.66961163  1.0
  C  C153  1  0.02140498  0.55538422  0.59843011  1.0
  C  C154  1  0.03927495  0.53834129  0.53942832  1.0
  C  C155  1  0.96127621  0.46057563  0.46162915  1.0
  C  C156  1  0.72776051  0.78864378  0.81336910  1.0
  C  C157  1  0.88551216  0.77647789  0.83236588  1.0
  C  C158  1  0.11494308  0.16758500  0.22341669  1.0
  C  C159  1  0.27272821  0.18660773  0.21134332  1.0
  N  N160  1  0.93104878  0.59526280  0.93634994  1.0
  N  N161  1  0.06969915  0.50660558  0.15529232  1.0
  N  N162  1  0.93065792  0.84517836  0.49366339  1.0
  N  N163  1  0.06971718  0.06411298  0.40519372  1.0
  N  N164  1  0.60262658  0.59432145  0.15627662  1.0
  N  N165  1  0.58920714  0.50377453  0.92794309  1.0
  N  N166  1  0.41073415  0.07165936  0.49602414  1.0
  N  N167  1  0.39729328  0.84338626  0.40516710  1.0
  N  N168  1  0.15433763  0.58431339  0.49819006  1.0
  N  N169  1  0.84616987  0.50176427  0.41571367  1.0
  O  O170  1  0.76394515  0.20922716  0.05945287  1.0
  O  O171  1  0.23655905  0.94044478  0.79078244  1.0
  O  O172  1  0.23713817  0.80295652  0.94517449  1.0
  O  O173  1  0.76354216  0.05502868  0.19710939  1.0
  O  O174  1  0.64600304  0.93737299  0.94025434  1.0
  O  O175  1  0.64837464  0.21101447  0.19896933  1.0
  O  O176  1  0.35455792  0.05975058  0.06261634  1.0
  O  O177  1  0.35223839  0.80087821  0.78910615  1.0
  O  O178  1  0.49008643  0.05452538  0.78864022  1.0
  O  O179  1  0.50799534  0.80061914  0.06025722  1.0
  O  O180  1  0.49280326  0.93989277  0.19949585  1.0
  O  O181  1  0.51039850  0.21129773  0.94530571  1.0
  O  O182  1  0.49997156  0.79678176  0.93697443  1.0
  O  O183  1  0.50069271  0.06310683  0.20324957  1.0
  O  O184  1  0.50165875  0.20780891  0.06015842  1.0
  O  O185  1  0.49880944  0.93967018  0.79215466  1.0
  O  O186  1  0.76579075  0.05859777  0.05817505  1.0
  O  O187  1  0.23317040  0.79675559  0.79373251  1.0
  O  O188  1  0.23481097  0.94179705  0.94143214  1.0
  O  O189  1  0.76746409  0.20637681  0.20313786  1.0
  O  O190  1  0.64501434  0.94090918  0.20263573  1.0
  O  O191  1  0.64415192  0.20511528  0.93661887  1.0
  O  O192  1  0.35635371  0.06322755  0.79483563  1.0
  O  O193  1  0.35571248  0.79744772  0.05926711  1.0
  O  O194  1  0.60563854  0.05404993  0.15494665  1.0
  O  O195  1  0.39502074  0.84506579  0.94606164  1.0
  O  O196  1  0.39616801  0.05460617  0.94737315  1.0
  O  O197  1  0.60437110  0.05259503  0.94534655  1.0
  O  O198  1  0.42259442  0.96305963  0.88302877  1.0
  O  O199  1  0.57794375  0.11695099  0.03686943  1.0
  O  O200  1  0.42375902  0.96418306  0.03752783  1.0
  O  O201  1  0.57686763  0.96254863  0.03585803  1.0
  O  O202  1  0.66368268  0.74373159  0.83434022  1.0
  O  O203  1  0.69619256  0.77414942  0.73724551  1.0
  O  O204  1  0.82677539  0.75446029  0.74685534  1.0
  O  O205  1  0.92342455  0.73881047  0.86554290  1.0
  O  O206  1  0.17341888  0.25308238  0.24519715  1.0
  O  O207  1  0.07721921  0.13444905  0.26122508  1.0
  O  O208  1  0.33685542  0.16572728  0.25637795  1.0
  O  O209  1  0.30416727  0.26269642  0.22571316  1.0
