# generated using pymatgen
data_Zn4H7C24S6ClO19
_symmetry_space_group_name_H-M   'P 1'
_cell_length_a   19.61660421
_cell_length_b   19.64447705
_cell_length_c   33.33034328
_cell_angle_alpha   79.03469427
_cell_angle_beta   79.15898041
_cell_angle_gamma   63.95994208
_symmetry_Int_Tables_number   1
_chemical_formula_structural   Zn4H7C24S6ClO19
_chemical_formula_sum   'Zn16 H28 C96 S24 Cl4 O76'
_cell_volume   11249.66643650
_cell_formula_units_Z   4
loop_
 _symmetry_equiv_pos_site_id
 _symmetry_equiv_pos_as_xyz
  1  'x, y, z'
loop_
 _atom_site_type_symbol
 _atom_site_label
 _atom_site_symmetry_multiplicity
 _atom_site_fract_x
 _atom_site_fract_y
 _atom_site_fract_z
 _atom_site_occupancy
  Zn  Zn0  1  0.05596873  0.40112076  0.47685056  1.0
  Zn  Zn1  1  0.98591790  0.48396605  0.56074242  1.0
  Zn  Zn2  1  0.05897012  0.56040288  0.48148021  1.0
  Zn  Zn3  1  0.89810318  0.55224211  0.48170911  1.0
  Zn  Zn4  1  0.69642874  0.34826413  0.27114443  1.0
  Zn  Zn5  1  0.69065963  0.18852855  0.26534880  1.0
  Zn  Zn6  1  0.77072658  0.26540739  0.18982529  1.0
  Zn  Zn7  1  0.84863560  0.19310283  0.27424700  1.0
  Zn  Zn8  1  0.26740048  0.76597561  0.68916830  1.0
  Zn  Zn9  1  0.34773796  0.69892194  0.77227508  1.0
  Zn  Zn10  1  0.19099929  0.84834856  0.77042558  1.0
  Zn  Zn11  1  0.19215736  0.68497669  0.76535802  1.0
  Zn  Zn12  1  0.56212263  0.05853794  0.98277526  1.0
  Zn  Zn13  1  0.40122431  0.05577817  0.97808770  1.0
  Zn  Zn14  1  0.55346884  0.90063639  0.97752908  1.0
  Zn  Zn15  1  0.48496320  0.98277604  0.06010918  1.0
  H  H16  1  0.94823665  0.24387579  0.35766177  1.0
  H  H17  1  0.75315532  0.45966407  0.34457329  1.0
  H  H18  1  0.99337596  0.29485572  0.40597350  1.0
  H  H19  1  0.10336412  0.58956688  0.69768270  1.0
  H  H20  1  0.19324304  0.71158791  0.59731856  1.0
  H  H21  1  0.05320854  0.54843466  0.64702604  1.0
  H  H22  1  0.46326144  0.23962483  0.33960924  1.0
  H  H23  1  0.48346618  0.70186400  0.60229956  1.0
  H  H24  1  0.20573697  0.97947075  0.60072894  1.0
  H  H25  1  0.95102704  0.96201883  0.34455272  1.0
  H  H26  1  0.54383853  0.05905162  0.15264692  1.0
  H  H27  1  0.66294277  0.14201424  0.04750812  1.0
  H  H28  1  0.59457204  0.10892599  0.19855059  1.0
  H  H29  1  0.54915209  0.76936477  0.14843458  1.0
  H  H30  1  0.16206783  0.14135291  0.04190506  1.0
  H  H31  1  0.49696462  0.79698320  0.89716674  1.0
  H  H32  1  0.29157039  0.00494949  0.90174229  1.0
  H  H33  1  0.44223091  0.75392322  0.85001443  1.0
  H  H34  1  0.30212966  0.28178696  0.90273888  1.0
  H  H35  1  0.78647535  0.00743701  0.90604404  1.0
  H  H36  1  0.24110051  0.62336462  0.36414519  1.0
  H  H37  1  0.86736707  0.42734930  0.66082754  1.0
  H  H38  1  0.09914488  0.31697367  0.68771464  1.0
  H  H39  1  0.75899776  0.73248793  0.35786621  1.0
  H  H40  1  0.82806901  0.44505438  0.06590943  1.0
  H  H41  1  0.12580505  0.15961356  0.25209391  1.0
  H  H42  1  0.56383540  0.43760548  0.80458552  1.0
  H  H43  1  0.92243173  0.69601937  0.79382731  1.0
  C  C44  1  0.06862032  0.31651465  0.55928118  1.0
  C  C45  1  0.06798377  0.57352725  0.56655967  1.0
  C  C46  1  0.18268427  0.43924960  0.43651490  1.0
  C  C47  1  0.93323190  0.68063426  0.43874521  1.0
  C  C48  1  0.92897172  0.42867022  0.43323940  1.0
  C  C49  1  0.82043474  0.55696668  0.56610002  1.0
  C  C50  1  0.56752898  0.30973941  0.31058032  1.0
  C  C51  1  0.68195050  0.18274299  0.17952120  1.0
  C  C52  1  0.69503965  0.43232942  0.18867086  1.0
  C  C53  1  0.93580178  0.18310089  0.19113864  1.0
  C  C54  1  0.81937467  0.31954494  0.31992449  1.0
  C  C55  1  0.81039633  0.06501876  0.31236021  1.0
  C  C56  1  0.43386965  0.69700653  0.68908671  1.0
  C  C57  1  0.31188117  0.82443342  0.81915218  1.0
  C  C58  1  0.18282073  0.93350755  0.68730939  1.0
  C  C59  1  0.06657106  0.80617282  0.81020415  1.0
  C  C60  1  0.18317810  0.67752665  0.67946946  1.0
  C  C61  1  0.31383005  0.56690436  0.81092160  1.0
  C  C62  1  0.43866852  0.18555128  0.94014762  1.0
  C  C63  1  0.42855257  0.93187482  0.93004030  1.0
  C  C64  1  0.68484299  0.93571021  0.93884174  1.0
  C  C65  1  0.55916684  0.81572917  0.06133929  1.0
  C  C66  1  0.57157742  0.06813832  0.06904962  1.0
  C  C67  1  0.31655792  0.05913434  0.06138927  1.0
  C  C68  1  0.89855528  0.40455930  0.40314767  1.0
  C  C69  1  0.84764046  0.34875858  0.34859212  1.0
  C  C70  1  0.83050759  0.45153240  0.38529228  1.0
  C  C71  1  0.91581225  0.30179275  0.36563788  1.0
  C  C72  1  0.80561252  0.42337511  0.35826496  1.0
  C  C73  1  0.94052959  0.33006005  0.39236733  1.0
  C  C74  1  0.09658226  0.60469669  0.59403037  1.0
  C  C75  1  0.15228577  0.65215022  0.65027485  1.0
  C  C76  1  0.13555506  0.65217346  0.57996991  1.0
  C  C77  1  0.11229596  0.60643490  0.66474302  1.0
  C  C78  1  0.16308871  0.67521670  0.60817255  1.0
  C  C79  1  0.08484411  0.58362278  0.63670672  1.0
  C  C80  1  0.30624097  0.45419152  0.40112988  1.0
  C  C81  1  0.44728793  0.29590652  0.34810662  1.0
  C  C82  1  0.25949317  0.41530417  0.41308820  1.0
  C  C83  1  0.49298819  0.33511764  0.33615393  1.0
  C  C84  1  0.37962749  0.33925032  0.37206447  1.0
  C  C85  1  0.37528070  0.41069057  0.37768324  1.0
  C  C86  1  0.72910127  0.58198338  0.63486592  1.0
  C  C87  1  0.52711131  0.67672693  0.62316514  1.0
  C  C88  1  0.74665527  0.58610850  0.59218561  1.0
  C  C89  1  0.51020500  0.67166544  0.66554046  1.0
  C  C90  1  0.60694139  0.64482509  0.61209033  1.0
  C  C91  1  0.64897838  0.61588694  0.64632325  1.0
  C  C92  1  0.07513766  0.22706685  0.62817098  1.0
  C  C93  1  0.17406590  0.02417585  0.62057427  1.0
  C  C94  1  0.08943592  0.24249723  0.58559549  1.0
  C  C95  1  0.15903406  0.00914028  0.66268604  1.0
  C  C96  1  0.14288411  0.10363414  0.60826441  1.0
  C  C97  1  0.10529095  0.14738725  0.64140524  1.0
  C  C98  1  0.83482202  0.80205233  0.39997591  1.0
  C  C99  1  0.90381982  0.94506645  0.35113746  1.0
  C  C100  1  0.90540920  0.75659762  0.41433246  1.0
  C  C101  1  0.83351925  0.98981596  0.33720902  1.0
  C  C102  1  0.90392419  0.87673891  0.37403514  1.0
  C  C103  1  0.83369312  0.87105781  0.37689750  1.0
  C  C104  1  0.65615080  0.15408372  0.14932625  1.0
  C  C105  1  0.60040097  0.09775523  0.09725696  1.0
  C  C106  1  0.67581498  0.16305567  0.10616897  1.0
  C  C107  1  0.58072808  0.08814921  0.13995811  1.0
  C  C108  1  0.64771812  0.13495358  0.08067380  1.0
  C  C109  1  0.60873363  0.11593469  0.16526759  1.0
  C  C110  1  0.67515870  0.52219225  0.11947983  1.0
  C  C111  1  0.57684176  0.72480178  0.12827351  1.0
  C  C112  1  0.66779185  0.50613807  0.16226284  1.0
  C  C113  1  0.58457154  0.74009684  0.08583761  1.0
  C  C114  1  0.60945285  0.64530052  0.14036142  1.0
  C  C115  1  0.64156760  0.60193761  0.10678564  1.0
  C  C116  1  0.08429910  0.11403324  0.18009618  1.0
  C  C117  1  0.17070155  0.12203399  0.07411544  1.0
  C  C118  1  0.01196552  0.15503941  0.16707792  1.0
  C  C119  1  0.24225792  0.08180560  0.08717900  1.0
  C  C120  1  0.11340611  0.13338798  0.10809001  1.0
  C  C121  1  0.14273637  0.10144884  0.14630399  1.0
  C  C122  1  0.33753098  0.85498034  0.84852107  1.0
  C  C123  1  0.39767568  0.90416681  0.90192227  1.0
  C  C124  1  0.29455376  0.92623773  0.86371701  1.0
  C  C125  1  0.44057712  0.83289231  0.88759750  1.0
  C  C126  1  0.32489779  0.95007673  0.89013607  1.0
  C  C127  1  0.41022854  0.80921891  0.86140720  1.0
  C  C128  1  0.40793463  0.45277154  0.85552721  1.0
  C  C129  1  0.34634786  0.30241763  0.89913776  1.0
  C  C130  1  0.33995386  0.49361260  0.83784271  1.0
  C  C131  1  0.41434832  0.26146711  0.91603999  1.0
  C  C132  1  0.34424468  0.37209384  0.87722770  1.0
  C  C133  1  0.41069519  0.38279593  0.87808455  1.0
  C  C134  1  0.94834756  0.78675367  0.85121032  1.0
  C  C135  1  0.80423894  0.94919753  0.89999889  1.0
  C  C136  1  0.99260118  0.82770391  0.83645631  1.0
  C  C137  1  0.76031238  0.90858123  0.91433689  1.0
  C  C138  1  0.87269376  0.90443532  0.87714089  1.0
  C  C139  1  0.87939194  0.83063022  0.87460507  1.0
  S  S140  1  0.29988310  0.32618175  0.39618621  1.0
  S  S141  1  0.45519028  0.42381008  0.35393888  1.0
  S  S142  1  0.66611296  0.63223793  0.56639971  1.0
  S  S143  1  0.59008713  0.62922551  0.69215893  1.0
  S  S144  1  0.13895523  0.16054262  0.56187243  1.0
  S  S145  1  0.10729614  0.09031857  0.68765148  1.0
  S  S146  1  0.96950054  0.79811287  0.40004762  1.0
  S  S147  1  0.76743138  0.95014022  0.35153599  1.0
  S  S148  1  0.61960922  0.58768995  0.18669564  1.0
  S  S149  1  0.63044228  0.65920110  0.06032848  1.0
  S  S150  1  0.01520471  0.17730387  0.11416614  1.0
  S  S151  1  0.24097677  0.05704061  0.14022965  1.0
  S  S152  1  0.27955817  0.44777032  0.84914291  1.0
  S  S153  1  0.47560789  0.30696550  0.90605061  1.0
  S  S154  1  0.95093715  0.91844513  0.85132008  1.0
  S  S155  1  0.80131478  0.81639058  0.90064206  1.0
  S  S156  1  0.29084302  0.54363032  0.41449182  1.0
  S  S157  1  0.79257920  0.54393734  0.67340755  1.0
  S  S158  1  0.02027332  0.29367206  0.66338146  1.0
  S  S159  1  0.75129151  0.78481465  0.40982838  1.0
  S  S160  1  0.71414503  0.45647610  0.08247365  1.0
  S  S161  1  0.10725312  0.07457101  0.23091061  1.0
  S  S162  1  0.48220321  0.48152693  0.85540206  1.0
  S  S163  1  0.97200262  0.69008423  0.84654094  1.0
  Cl  Cl164  1  0.77617918  0.54558047  0.39362162  1.0
  Cl  Cl165  1  0.15026690  0.68657235  0.52898042  1.0
  Cl  Cl166  1  0.73523985  0.20593807  0.08186239  1.0
  Cl  Cl167  1  0.20314616  0.98770090  0.85251314  1.0
  O  O168  1  0.00048026  0.49815706  0.50005652  1.0
  O  O169  1  0.07370178  0.31379809  0.52073883  1.0
  O  O170  1  0.01986718  0.54616155  0.58390985  1.0
  O  O171  1  0.14718465  0.50919485  0.44187031  1.0
  O  O172  1  0.04884137  0.37495978  0.57723590  1.0
  O  O173  1  0.15869411  0.38684144  0.44863546  1.0
  O  O174  1  0.09441787  0.57486097  0.52865492  1.0
  O  O175  1  0.99664994  0.65998924  0.45287845  1.0
  O  O176  1  0.88181809  0.48180115  0.45412153  1.0
  O  O177  1  0.89325355  0.64290750  0.44294272  1.0
  O  O178  1  0.00063657  0.39215868  0.43605668  1.0
  O  O179  1  0.87874675  0.50685195  0.58270745  1.0
  O  O180  1  0.81839605  0.58448550  0.52804015  1.0
  O  O181  1  0.75159056  0.24871286  0.25032418  1.0
  O  O182  1  0.60105318  0.35443984  0.30513676  1.0
  O  O183  1  0.67327174  0.15612354  0.21737191  1.0
  O  O184  1  0.74349599  0.37434654  0.17170223  1.0
  O  O185  1  0.59153733  0.24637887  0.29619729  1.0
  O  O186  1  0.66769002  0.43430552  0.22670139  1.0
  O  O187  1  0.70929069  0.23171352  0.16577079  1.0
  O  O188  1  0.87922825  0.20960628  0.17014318  1.0
  O  O189  1  0.85935253  0.25047292  0.31298179  1.0
  O  O190  1  0.93347549  0.17963332  0.22975070  1.0
  O  O191  1  0.75780200  0.36598956  0.30485847  1.0
  O  O192  1  0.74274994  0.09496243  0.30193789  1.0
  O  O193  1  0.85953726  0.09336956  0.30358966  1.0
  O  O194  1  0.24898781  0.74917417  0.74940663  1.0
  O  O195  1  0.37658946  0.72439118  0.66861107  1.0
  O  O196  1  0.35181300  0.75427799  0.81409086  1.0
  O  O197  1  0.15990993  0.93338425  0.72585290  1.0
  O  O198  1  0.43194104  0.68896246  0.72824345  1.0
  O  O199  1  0.22387441  0.87578489  0.66809495  1.0
  O  O200  1  0.25379371  0.86991882  0.80104495  1.0
  O  O201  1  0.09828480  0.85213062  0.80669635  1.0
  O  O202  1  0.17312654  0.65390953  0.71756597  1.0
  O  O203  1  0.09096135  0.74582427  0.79325879  1.0
  O  O204  1  0.21706311  0.72069599  0.66382224  1.0
  O  O205  1  0.36166178  0.59578083  0.79806997  1.0
  O  O206  1  0.24492447  0.59352397  0.80267829  1.0
  O  O207  1  0.50037718  0.99935169  0.99971000  1.0
  O  O208  1  0.50493019  0.15773746  0.95219546  1.0
  O  O209  1  0.38527276  0.99690686  0.94217351  1.0
  O  O210  1  0.65402456  0.88842746  0.94824946  1.0
  O  O211  1  0.39204172  0.15419066  0.94669589  1.0
  O  O212  1  0.65703980  0.00352342  0.94836181  1.0
  O  O213  1  0.49557959  0.88834784  0.93958051  1.0
  O  O214  1  0.57004669  0.81594888  0.02227474  1.0
  O  O215  1  0.52943422  0.03357122  0.08580320  1.0
  O  O216  1  0.52919224  0.87369467  0.08114064  1.0
  O  O217  1  0.59162452  0.07969546  0.03060332  1.0
  O  O218  1  0.31544427  0.07779782  0.02262486  1.0
  O  O219  1  0.37545501  0.02274236  0.08063390  1.0
  O  O220  1  0.21952091  0.60442434  0.39043400  1.0
  O  O221  1  0.26589090  0.54742877  0.45741862  1.0
  O  O222  1  0.35718037  0.55657191  0.39510540  1.0
  O  O223  1  0.81681350  0.45486771  0.67656638  1.0
  O  O224  1  0.85813580  0.56095281  0.66073815  1.0
  O  O225  1  0.74429370  0.56708137  0.71105507  1.0
  O  O226  1  0.06930011  0.34083367  0.66433830  1.0
  O  O227  1  0.95137359  0.34785574  0.64665234  1.0
  O  O228  1  0.01773677  0.25018089  0.70320274  1.0
  O  O229  1  0.77413430  0.71250613  0.38560515  1.0
  O  O230  1  0.73715730  0.76012185  0.45245479  1.0
  O  O231  1  0.69419430  0.84990395  0.38858969  1.0
  O  O232  1  0.80469756  0.41669702  0.08675524  1.0
  O  O233  1  0.68765649  0.39760156  0.09376699  1.0
  O  O234  1  0.70457303  0.50258843  0.04290901  1.0
  O  O235  1  0.08114518  0.14831142  0.25461148  1.0
  O  O236  1  0.06114109  0.03550411  0.25095766  1.0
  O  O237  1  0.18968867  0.03703725  0.22737758  1.0
  O  O238  1  0.51813650  0.48544931  0.80773817  1.0
  O  O239  1  0.45085091  0.55720859  0.86633591  1.0
  O  O240  1  0.53905351  0.41828080  0.87777817  1.0
  O  O241  1  0.97312682  0.68971342  0.79799574  1.0
  O  O242  1  0.04791573  0.64228568  0.85622697  1.0
  O  O243  1  0.90733259  0.67583741  0.86772462  1.0
