# generated using pymatgen
data_CoH14C14N4(ClO)2
_symmetry_space_group_name_H-M   'P 1'
_cell_length_a   7.34361301
_cell_length_b   11.93027449
_cell_length_c   22.53510148
_cell_angle_alpha   90.00002960
_cell_angle_beta   90.00007071
_cell_angle_gamma   89.99979084
_symmetry_Int_Tables_number   1
_chemical_formula_structural   CoH14C14N4(ClO)2
_chemical_formula_sum   'Co4 H56 C56 N16 Cl8 O8'
_cell_volume   1974.32996349
_cell_formula_units_Z   4
loop_
 _symmetry_equiv_pos_site_id
 _symmetry_equiv_pos_as_xyz
  1  'x, y, z'
loop_
 _atom_site_type_symbol
 _atom_site_label
 _atom_site_symmetry_multiplicity
 _atom_site_fract_x
 _atom_site_fract_y
 _atom_site_fract_z
 _atom_site_occupancy
  Co  Co0  1  0.75000028  0.50000015  0.25728847  1.0
  Co  Co1  1  0.75000014  0.99999954  0.24271173  1.0
  Co  Co2  1  0.25000073  0.50000011  0.74271197  1.0
  Co  Co3  1  0.24999951  0.00000073  0.75728827  1.0
  H  H4  1  0.50226624  0.98994549  0.09396018  1.0
  H  H5  1  0.99773098  0.01005381  0.09396015  1.0
  H  H6  1  0.99773287  0.48994569  0.40604002  1.0
  H  H7  1  0.50226689  0.51005392  0.40603992  1.0
  H  H8  1  0.49773340  0.01005394  0.90603982  1.0
  H  H9  1  0.00226731  0.98994645  0.90603985  1.0
  H  H10  1  0.00226677  0.51005457  0.59396043  1.0
  H  H11  1  0.49773412  0.48994635  0.59396008  1.0
  H  H12  1  0.85955333  0.66357040  0.16528716  1.0
  H  H13  1  0.64044825  0.33643065  0.16528751  1.0
  H  H14  1  0.64044772  0.16356882  0.33471340  1.0
  H  H15  1  0.85955314  0.83642820  0.33471309  1.0
  H  H16  1  0.14044768  0.33642986  0.83471240  1.0
  H  H17  1  0.35955412  0.66357045  0.83471249  1.0
  H  H18  1  0.35955193  0.83642976  0.66528749  1.0
  H  H19  1  0.14044651  0.16357039  0.66528736  1.0
  H  H20  1  0.70853585  0.80087752  0.09867196  1.0
  H  H21  1  0.79146547  0.19912262  0.09867189  1.0
  H  H22  1  0.79146438  0.30087651  0.40132863  1.0
  H  H23  1  0.70853400  0.69912142  0.40132778  1.0
  H  H24  1  0.29146516  0.19912107  0.90132760  1.0
  H  H25  1  0.20853690  0.80088015  0.90132811  1.0
  H  H26  1  0.20853662  0.69912124  0.59867181  1.0
  H  H27  1  0.29146156  0.30087968  0.59867133  1.0
  H  H28  1  0.19620537  0.70477892  0.17890800  1.0
  H  H29  1  0.30379667  0.29522075  0.17890797  1.0
  H  H30  1  0.30379448  0.20477780  0.32109281  1.0
  H  H31  1  0.19620401  0.79522201  0.32109198  1.0
  H  H32  1  0.80379700  0.29522050  0.82109244  1.0
  H  H33  1  0.69620298  0.70478035  0.82109070  1.0
  H  H34  1  0.69620244  0.79522078  0.67890808  1.0
  H  H35  1  0.80379564  0.20477909  0.67890802  1.0
  H  H36  1  0.36878034  0.56923703  0.24141051  1.0
  H  H37  1  0.13122330  0.43076354  0.24141089  1.0
  H  H38  1  0.13122031  0.06923624  0.25858982  1.0
  H  H39  1  0.36878067  0.93076435  0.25858909  1.0
  H  H40  1  0.63122339  0.43076323  0.75858949  1.0
  H  H41  1  0.86877907  0.56923672  0.75858823  1.0
  H  H42  1  0.86877797  0.93076318  0.74141107  1.0
  H  H43  1  0.63122034  0.06923675  0.74141091  1.0
  H  H44  1  0.26557535  0.79814378  0.05751963  1.0
  H  H45  1  0.23442351  0.20185494  0.05751998  1.0
  H  H46  1  0.23442667  0.29814377  0.44248076  1.0
  H  H47  1  0.26557500  0.70185700  0.44247994  1.0
  H  H48  1  0.73442566  0.20185481  0.94247993  1.0
  H  H49  1  0.76557478  0.79814365  0.94247869  1.0
  H  H50  1  0.76557297  0.70185649  0.55752057  1.0
  H  H51  1  0.73442601  0.29814327  0.55752051  1.0
  H  H52  1  0.22336576  0.88041355  0.12112041  1.0
  H  H53  1  0.27663470  0.11958523  0.12112031  1.0
  H  H54  1  0.27663306  0.38041255  0.37887956  1.0
  H  H55  1  0.22336565  0.61958648  0.37887914  1.0
  H  H56  1  0.77663661  0.11958504  0.87888004  1.0
  H  H57  1  0.72336222  0.88041503  0.87887880  1.0
  H  H58  1  0.72336387  0.61958604  0.62112088  1.0
  H  H59  1  0.77663672  0.38041378  0.62112042  1.0
  C  C60  1  0.71203599  0.67333229  0.16583561  1.0
  C  C61  1  0.78796558  0.32666876  0.16583602  1.0
  C  C62  1  0.78796499  0.17333121  0.33416539  1.0
  C  C63  1  0.71203586  0.82666665  0.33416414  1.0
  C  C64  1  0.28796501  0.32666714  0.83416351  1.0
  C  C65  1  0.21203542  0.67333318  0.83416354  1.0
  C  C66  1  0.21203329  0.82666737  0.66583594  1.0
  C  C67  1  0.28796515  0.17333362  0.66583587  1.0
  C  C68  1  0.62663359  0.75027192  0.12886883  1.0
  C  C69  1  0.87336784  0.24972742  0.12886925  1.0
  C  C70  1  0.87336830  0.25027069  0.37113264  1.0
  C  C71  1  0.62663269  0.74972721  0.37113133  1.0
  C  C72  1  0.37336741  0.24972583  0.87113029  1.0
  C  C73  1  0.12663589  0.75027368  0.87113075  1.0
  C  C74  1  0.12663271  0.74972790  0.62886781  1.0
  C  C75  1  0.37336695  0.25027222  0.62886734  1.0
  C  C76  1  0.43747191  0.76234227  0.13210508  1.0
  C  C77  1  0.06252995  0.23765652  0.13210582  1.0
  C  C78  1  0.06252896  0.26234258  0.36789575  1.0
  C  C79  1  0.43747107  0.73765645  0.36789411  1.0
  C  C80  1  0.56253046  0.23765632  0.86789448  1.0
  C  C81  1  0.93747378  0.76234206  0.86789419  1.0
  C  C82  1  0.93747068  0.73765685  0.63210558  1.0
  C  C83  1  0.56252722  0.26234382  0.63210544  1.0
  C  C84  1  0.34291927  0.69588961  0.17308378  1.0
  C  C85  1  0.15708138  0.30410922  0.17308414  1.0
  C  C86  1  0.15708063  0.19588882  0.32691702  1.0
  C  C87  1  0.34291924  0.80411016  0.32691581  1.0
  C  C88  1  0.65708174  0.30410814  0.82691622  1.0
  C  C89  1  0.84291962  0.69589104  0.82691542  1.0
  C  C90  1  0.84291901  0.80410976  0.67308387  1.0
  C  C91  1  0.65707904  0.19589010  0.67308375  1.0
  C  C92  1  0.43736217  0.62083844  0.20840025  1.0
  C  C93  1  0.06263998  0.37916211  0.20840059  1.0
  C  C94  1  0.06263681  0.12083867  0.29160053  1.0
  C  C95  1  0.43736293  0.87916279  0.29159982  1.0
  C  C96  1  0.56263748  0.37916099  0.79159930  1.0
  C  C97  1  0.93736103  0.62083983  0.79159853  1.0
  C  C98  1  0.93735875  0.87916076  0.70840036  1.0
  C  C99  1  0.56263944  0.12083915  0.70840018  1.0
  C  C100  1  0.33277790  0.84336314  0.09407772  1.0
  C  C101  1  0.16722109  0.15663646  0.09407804  1.0
  C  C102  1  0.16722250  0.34336324  0.40592268  1.0
  C  C103  1  0.33277768  0.65663749  0.40592187  1.0
  C  C104  1  0.66722175  0.15663629  0.90592228  1.0
  C  C105  1  0.83277855  0.84336381  0.90592107  1.0
  C  C106  1  0.83277579  0.65663618  0.59407821  1.0
  C  C107  1  0.66722333  0.34336361  0.59407769  1.0
  C  C108  1  0.44941893  0.94603453  0.00861598  1.0
  C  C109  1  0.05058110  0.05396498  0.00861622  1.0
  C  C110  1  0.05058086  0.44603415  0.49138445  1.0
  C  C111  1  0.44941828  0.55396583  0.49138411  1.0
  C  C112  1  0.55058208  0.05396489  0.99138447  1.0
  C  C113  1  0.94941718  0.94603445  0.99138334  1.0
  C  C114  1  0.94941743  0.55396528  0.50861643  1.0
  C  C115  1  0.55058273  0.44603443  0.50861634  1.0
  N  N116  1  0.62036476  0.60883599  0.20500425  1.0
  N  N117  1  0.87963833  0.39116510  0.20500428  1.0
  N  N118  1  0.87963525  0.10883551  0.29499629  1.0
  N  N119  1  0.62036410  0.89116399  0.29499590  1.0
  N  N120  1  0.37963761  0.39116344  0.79499531  1.0
  N  N121  1  0.12036540  0.60883684  0.79499528  1.0
  N  N122  1  0.12036440  0.89116308  0.70500416  1.0
  N  N123  1  0.37963419  0.10883795  0.70500410  1.0
  N  N124  1  0.44062369  0.93112209  0.06763501  1.0
  N  N125  1  0.05937521  0.06887664  0.06763526  1.0
  N  N126  1  0.05937619  0.43112247  0.43236453  1.0
  N  N127  1  0.44062409  0.56887746  0.43236463  1.0
  N  N128  1  0.55937596  0.06887650  0.93236499  1.0
  N  N129  1  0.94062172  0.93112278  0.93236474  1.0
  N  N130  1  0.94062209  0.56887696  0.56763547  1.0
  N  N131  1  0.55937692  0.43112281  0.56763538  1.0
  Cl  Cl132  1  0.97104935  0.58516729  0.30682281  1.0
  Cl  Cl133  1  0.52895276  0.41483222  0.30682270  1.0
  Cl  Cl134  1  0.52895352  0.08516666  0.19317728  1.0
  Cl  Cl135  1  0.97104680  0.91483190  0.19317748  1.0
  Cl  Cl136  1  0.02895302  0.41483298  0.69317764  1.0
  Cl  Cl137  1  0.47104825  0.58516720  0.69317730  1.0
  Cl  Cl138  1  0.47104749  0.91483276  0.80682228  1.0
  Cl  Cl139  1  0.02895284  0.08516836  0.80682252  1.0
  O  O140  1  0.38298089  0.88254031  0.97064224  1.0
  O  O141  1  0.11701870  0.11745846  0.97064208  1.0
  O  O142  1  0.11701844  0.38254184  0.52935766  1.0
  O  O143  1  0.38298084  0.61745818  0.52935775  1.0
  O  O144  1  0.61701875  0.11745828  0.02935820  1.0
  O  O145  1  0.88297958  0.88254012  0.02935792  1.0
  O  O146  1  0.88297984  0.61745926  0.47064189  1.0
  O  O147  1  0.61702017  0.38254125  0.47064181  1.0
