# generated using pymatgen
data_FeH16(C12N5)2
_symmetry_space_group_name_H-M   'P 1'
_cell_length_a   8.90907441
_cell_length_b   16.23101007
_cell_length_c   16.23407890
_cell_angle_alpha   116.73160383
_cell_angle_beta   100.53541933
_cell_angle_gamma   100.54059040
_symmetry_Int_Tables_number   1
_chemical_formula_structural   FeH16(C12N5)2
_chemical_formula_sum   'Fe3 H48 C72 N30'
_cell_volume   1965.01832831
_cell_formula_units_Z   3
loop_
 _symmetry_equiv_pos_site_id
 _symmetry_equiv_pos_as_xyz
  1  'x, y, z'
loop_
 _atom_site_type_symbol
 _atom_site_label
 _atom_site_symmetry_multiplicity
 _atom_site_fract_x
 _atom_site_fract_y
 _atom_site_fract_z
 _atom_site_occupancy
  Fe  Fe0  1  0.00000066  0.50000005  0.49999971  1.0
  Fe  Fe1  1  0.49999871  0.99999936  0.49999989  1.0
  Fe  Fe2  1  0.50000070  0.50000003  0.00000015  1.0
  H  H3  1  0.42014813  0.31434961  0.33901057  1.0
  H  H4  1  0.10595650  0.02468236  0.68580713  1.0
  H  H5  1  0.08108878  0.66098647  0.97527485  1.0
  H  H6  1  0.57985311  0.68565138  0.66099054  1.0
  H  H7  1  0.89403951  0.97531501  0.31419244  1.0
  H  H8  1  0.91891209  0.33901380  0.02472529  1.0
  H  H9  1  0.41974156  0.25817074  0.16579807  1.0
  H  H10  1  0.16162735  0.90755137  0.74182774  1.0
  H  H11  1  0.25371597  0.83420948  0.09234872  1.0
  H  H12  1  0.58025739  0.74183025  0.83420220  1.0
  H  H13  1  0.83837244  0.09244672  0.25817316  1.0
  H  H14  1  0.74628491  0.16579078  0.90765081  1.0
  H  H15  1  0.68013846  0.31063736  0.13685399  1.0
  H  H16  1  0.36959164  0.82613471  0.68939046  1.0
  H  H17  1  0.54308533  0.86325459  0.17377346  1.0
  H  H18  1  0.31986050  0.68936363  0.86314566  1.0
  H  H19  1  0.63040701  0.17386338  0.31061094  1.0
  H  H20  1  0.45691556  0.13674567  0.82622606  1.0
  H  H21  1  0.92729813  0.41198680  0.27848887  1.0
  H  H22  1  0.51534617  0.86645466  0.58796429  1.0
  H  H23  1  0.64868310  0.72159111  0.13356836  1.0
  H  H24  1  0.07270083  0.58801419  0.72151078  1.0
  H  H25  1  0.48465284  0.13354416  0.41203685  1.0
  H  H26  1  0.35131777  0.27840916  0.86643178  1.0
  H  H27  1  0.40397033  0.36766024  0.63918750  1.0
  H  H28  1  0.03606851  0.27152805  0.63232614  1.0
  H  H29  1  0.76474268  0.36080874  0.72855056  1.0
  H  H30  1  0.59603169  0.63234002  0.36081213  1.0
  H  H31  1  0.96393159  0.72847293  0.36767424  1.0
  H  H32  1  0.23525742  0.63919225  0.27144920  1.0
  H  H33  1  0.34321267  0.37831755  0.78630887  1.0
  H  H34  1  0.96485123  0.40805300  0.62166397  1.0
  H  H35  1  0.55698548  0.21368225  0.59203021  1.0
  H  H36  1  0.65678857  0.62168344  0.21369163  1.0
  H  H37  1  0.03514851  0.59194727  0.37833544  1.0
  H  H38  1  0.44301462  0.78631874  0.40797017  1.0
  H  H39  1  0.73156346  0.62515057  0.96616940  1.0
  H  H40  1  0.10626452  0.34094552  0.37477518  1.0
  H  H41  1  0.76536547  0.03372435  0.65892997  1.0
  H  H42  1  0.26843706  0.37484897  0.03382976  1.0
  H  H43  1  0.89373408  0.65905474  0.62522473  1.0
  H  H44  1  0.23463426  0.96627592  0.34107067  1.0
  H  H45  1  0.81515520  0.61863142  0.82602623  1.0
  H  H46  1  0.19654302  0.20738967  0.38143590  1.0
  H  H47  1  0.98907881  0.17388976  0.79259749  1.0
  H  H48  1  0.18484454  0.38136884  0.17397441  1.0
  H  H49  1  0.80345671  0.79261059  0.61856351  1.0
  H  H50  1  0.01092207  0.82611050  0.20740204  1.0
  C  C51  1  0.68611723  0.42945979  0.49708160  1.0
  C  C52  1  0.25689367  0.06780084  0.57073218  1.0
  C  C53  1  0.18911128  0.50290627  0.93226064  1.0
  C  C54  1  0.31388251  0.57054047  0.50291843  1.0
  C  C55  1  0.74310384  0.93219725  0.42926849  1.0
  C  C56  1  0.81088845  0.49709400  0.06773938  1.0
  C  C57  1  0.66983729  0.47945795  0.63738048  1.0
  C  C58  1  0.19059169  0.15808973  0.52071738  1.0
  C  C59  1  0.03254016  0.36258379  0.84203694  1.0
  C  C60  1  0.33016245  0.52054231  0.36261954  1.0
  C  C61  1  0.80940883  0.84190981  0.47928363  1.0
  C  C62  1  0.96746108  0.63741720  0.15796356  1.0
  C  C63  1  0.67105806  0.38998006  0.39592653  1.0
  C  C64  1  0.28124034  0.00605417  0.61016070  1.0
  C  C65  1  0.27512993  0.60406060  0.99390806  1.0
  C  C66  1  0.32894168  0.61002020  0.60407287  1.0
  C  C67  1  0.71875680  0.99394320  0.38983899  1.0
  C  C68  1  0.72487095  0.39593966  0.00609146  1.0
  C  C69  1  0.52857591  0.33237284  0.32069157  1.0
  C  C70  1  0.19638892  0.98836375  0.66776179  1.0
  C  C71  1  0.20783654  0.67932837  0.01161288  1.0
  C  C72  1  0.47142305  0.66762815  0.67930870  1.0
  C  C73  1  0.80360709  0.01163362  0.33223717  1.0
  C  C74  1  0.79216283  0.32067117  0.98838555  1.0
  C  C75  1  0.52959693  0.30225485  0.22589876  1.0
  C  C76  1  0.22749396  0.92362455  0.69780136  1.0
  C  C77  1  0.30356552  0.77413358  0.07634779  1.0
  C  C78  1  0.47040203  0.69774613  0.77410027  1.0
  C  C79  1  0.77250433  0.07637282  0.30219844  1.0
  C  C80  1  0.69643686  0.22586741  0.92365282  1.0
  C  C81  1  0.67361707  0.33116075  0.20959548  1.0
  C  C82  1  0.34259335  0.87838639  0.66888853  1.0
  C  C83  1  0.46388752  0.79048766  0.12158980  1.0
  C  C84  1  0.32638189  0.66884024  0.79040417  1.0
  C  C85  1  0.65740680  0.12161242  0.33111335  1.0
  C  C86  1  0.53611336  0.20951261  0.87840973  1.0
  C  C87  1  0.81197908  0.38844437  0.28800133  1.0
  C  C88  1  0.42359852  0.89952141  0.61158103  1.0
  C  C89  1  0.52387663  0.71206139  0.10047055  1.0
  C  C90  1  0.18802065  0.61155589  0.71199807  1.0
  C  C91  1  0.57640014  0.10047669  0.38841914  1.0
  C  C92  1  0.47612461  0.28793960  0.89952933  1.0
  C  C93  1  0.61740301  0.49111778  0.72023679  1.0
  C  C94  1  0.12621588  0.22915756  0.50893726  1.0
  C  C95  1  0.89709529  0.27969820  0.77092369  1.0
  C  C96  1  0.38259787  0.50888249  0.27976335  1.0
  C  C97  1  0.87378464  0.77084198  0.49106313  1.0
  C  C98  1  0.10290445  0.72030207  0.22907572  1.0
  C  C99  1  0.47978173  0.42545410  0.71063890  1.0
  C  C100  1  0.05410937  0.28516268  0.57452410  1.0
  C  C101  1  0.76911624  0.28935151  0.71489623  1.0
  C  C102  1  0.52021837  0.57454689  0.28936087  1.0
  C  C103  1  0.94589151  0.71483758  0.42547603  1.0
  C  C104  1  0.23088350  0.71064875  0.28510318  1.0
  C  C105  1  0.44517334  0.43161951  0.79259771  1.0
  C  C106  1  0.01340884  0.36098169  0.56833993  1.0
  C  C107  1  0.65257780  0.20737234  0.63906088  1.0
  C  C108  1  0.55482604  0.56838003  0.20740195  1.0
  C  C109  1  0.98659090  0.63901857  0.43166009  1.0
  C  C110  1  0.34742308  0.79262792  0.36093926  1.0
  C  C111  1  0.66291035  0.56857023  0.89267844  1.0
  C  C112  1  0.09421351  0.32405871  0.43137706  1.0
  C  C113  1  0.77020628  0.10723409  0.67587782  1.0
  C  C114  1  0.33708903  0.43142931  0.10732060  1.0
  C  C115  1  0.90578586  0.67594083  0.56862260  1.0
  C  C116  1  0.22979496  0.89276690  0.32412268  1.0
  C  C117  1  0.70787889  0.56519396  0.81443330  1.0
  C  C118  1  0.14263154  0.24923833  0.43482911  1.0
  C  C119  1  0.89338630  0.18550296  0.75078916  1.0
  C  C120  1  0.29212199  0.43480631  0.18556684  1.0
  C  C121  1  0.85736898  0.75076121  0.56517067  1.0
  C  C122  1  0.10661380  0.81449803  0.24921061  1.0
  N  N123  1  0.83287090  0.49085048  0.55851175  1.0
  N  N124  1  0.34215020  0.06777056  0.50926923  1.0
  N  N125  1  0.27437744  0.44143226  0.93225937  1.0
  N  N126  1  0.16712883  0.50914978  0.44148827  1.0
  N  N127  1  0.65784881  0.93222826  0.49073191  1.0
  N  N128  1  0.72562308  0.55856728  0.06773979  1.0
  N  N129  1  0.82325646  0.52452507  0.64904837  1.0
  N  N130  1  0.29884309  0.12463265  0.47558520  1.0
  N  N131  1  0.17426070  0.35089687  0.87545788  1.0
  N  N132  1  0.17674406  0.47547447  0.35095140  1.0
  N  N133  1  0.70115742  0.87536689  0.52441643  1.0
  N  N134  1  0.82573904  0.64910339  0.12454153  1.0
  N  N135  1  0.58005941  0.41924481  0.54345907  1.0
  N  N136  1  0.16111091  0.12443094  0.58098535  1.0
  N  N137  1  0.03665494  0.45646828  0.87564166  1.0
  N  N138  1  0.41994033  0.58075546  0.45654033  1.0
  N  N139  1  0.83888733  0.87556860  0.41901542  1.0
  N  N140  1  0.96334630  0.54353271  0.12435884  1.0
  N  N141  1  0.81313550  0.41770351  0.38024488  1.0
  N  N142  1  0.39549762  0.96255697  0.58235903  1.0
  N  N143  1  0.43289786  0.61981116  0.03742833  1.0
  N  N144  1  0.18686460  0.58229748  0.61975551  1.0
  N  N145  1  0.60450025  0.03744184  0.41764201  1.0
  N  N146  1  0.56710302  0.38018911  0.96257119  1.0
  N  N147  1  0.53618881  0.50105728  0.88357269  1.0
  N  N148  1  0.03501805  0.38248469  0.49888851  1.0
  N  N149  1  0.65264632  0.11638869  0.61750278  1.0
  N  N150  1  0.46381207  0.49894298  0.11642745  1.0
  N  N151  1  0.96498246  0.61751485  0.50111064  1.0
  N  N152  1  0.34735342  0.88361157  0.38249724  1.0
