# generated using pymatgen
data_Zn4H8C40Br4Cl8O13
_symmetry_space_group_name_H-M   'P 1'
_cell_length_a   23.88379687
_cell_length_b   23.88391431
_cell_length_c   23.88198261
_cell_angle_alpha   66.89469584
_cell_angle_beta   72.31175148
_cell_angle_gamma   107.68536159
_symmetry_Int_Tables_number   1
_chemical_formula_structural   Zn4H8C40Br4Cl8O13
_chemical_formula_sum   'Zn8 H16 C80 Br8 Cl16 O26'
_cell_volume   10454.91894336
_cell_formula_units_Z   2
loop_
 _symmetry_equiv_pos_site_id
 _symmetry_equiv_pos_as_xyz
  1  'x, y, z'
loop_
 _atom_site_type_symbol
 _atom_site_label
 _atom_site_symmetry_multiplicity
 _atom_site_fract_x
 _atom_site_fract_y
 _atom_site_fract_z
 _atom_site_occupancy
  Zn  Zn0  1  0.05752666  0.09960722  0.45790539  1.0
  Zn  Zn1  1  0.05752399  0.95791115  0.48455817  1.0
  Zn  Zn2  1  0.94246812  0.95790068  0.59961951  1.0
  Zn  Zn3  1  0.94248770  0.98457454  0.45789899  1.0
  Zn  Zn4  1  0.94247732  0.40039227  0.04209311  1.0
  Zn  Zn5  1  0.05753309  0.54209569  0.90037981  1.0
  Zn  Zn6  1  0.94247624  0.54208534  0.01543589  1.0
  Zn  Zn7  1  0.05751139  0.51542739  0.04210218  1.0
  H  H8  1  0.92374702  0.27165199  0.96388442  1.0
  H  H9  1  0.07625302  0.46389385  0.77161084  1.0
  H  H10  1  0.92374260  0.03610562  0.72838895  1.0
  H  H11  1  0.07619249  0.22836191  0.53609864  1.0
  H  H12  1  0.07626568  0.61240824  0.15207305  1.0
  H  H13  1  0.92375811  0.65214041  0.11233769  1.0
  H  H14  1  0.07619455  0.84782630  0.38769347  1.0
  H  H15  1  0.92374458  0.88763123  0.34788812  1.0
  H  H16  1  0.73552600  0.27164375  0.15213884  1.0
  H  H17  1  0.73551775  0.46389342  0.11234366  1.0
  H  H18  1  0.26448557  0.03610312  0.38766494  1.0
  H  H19  1  0.26447915  0.22833888  0.34793582  1.0
  H  H20  1  0.26448641  0.65216845  0.77163756  1.0
  H  H21  1  0.26447323  0.61234229  0.96391642  1.0
  H  H22  1  0.73553016  0.88766795  0.53608060  1.0
  H  H23  1  0.73550994  0.84790415  0.72835126  1.0
  C  C24  1  0.18224364  0.09110886  0.40889266  1.0
  C  C25  1  0.99999738  0.86326433  0.63673357  1.0
  C  C26  1  0.99998218  0.09111028  0.59112388  1.0
  C  C27  1  0.81775752  0.90889452  0.59110140  1.0
  C  C28  1  0.00000772  0.13673334  0.36326321  1.0
  C  C29  1  0.99998693  0.90886350  0.40889011  1.0
  C  C30  1  0.00000566  0.40889229  0.90886868  1.0
  C  C31  1  0.00000746  0.63673168  0.86326598  1.0
  C  C32  1  0.81776007  0.40888666  0.09112837  1.0
  C  C33  1  0.00000104  0.59113753  0.09110594  1.0
  C  C34  1  0.99999573  0.36326756  0.13673495  1.0
  C  C35  1  0.18223526  0.59111936  0.90889992  1.0
  C  C36  1  0.00000475  0.19484402  0.30515614  1.0
  C  C37  1  0.99999898  0.30515844  0.19484217  1.0
  C  C38  1  0.95695875  0.18003954  0.27691947  1.0
  C  C39  1  0.04304278  0.31996291  0.22307993  1.0
  C  C40  1  0.95695715  0.23387891  0.22308152  1.0
  C  C41  1  0.04304551  0.26612407  0.27691774  1.0
  C  C42  1  0.99999857  0.80515834  0.69484394  1.0
  C  C43  1  0.00000653  0.69484391  0.80515308  1.0
  C  C44  1  0.95695872  0.77691928  0.76612987  1.0
  C  C45  1  0.04304690  0.72308503  0.73386576  1.0
  C  C46  1  0.95696145  0.72308044  0.81996559  1.0
  C  C47  1  0.04304442  0.77692441  0.68003059  1.0
  C  C48  1  0.00000028  0.37142553  0.87140275  1.0
  C  C49  1  0.95694520  0.29973694  0.90821468  1.0
  C  C50  1  0.95703437  0.26502682  0.87325486  1.0
  C  C51  1  0.99999439  0.30056026  0.80053988  1.0
  C  C52  1  0.04296040  0.37326669  0.76499873  1.0
  C  C53  1  0.04305381  0.40822933  0.79970408  1.0
  C  C54  1  0.99999048  0.26532131  0.76529947  1.0
  C  C55  1  0.99998559  0.23469997  0.73467904  1.0
  C  C56  1  0.99997186  0.19945219  0.69944676  1.0
  C  C57  1  0.95702077  0.12673950  0.73499693  1.0
  C  C58  1  0.95692775  0.09177582  0.70029146  1.0
  C  C59  1  0.99996526  0.12858011  0.62859033  1.0
  C  C60  1  0.04300359  0.20027801  0.59176934  1.0
  C  C61  1  0.04291769  0.23498762  0.62672880  1.0
  C  C62  1  0.00001576  0.62862247  0.12855392  1.0
  C  C63  1  0.04307042  0.63487679  0.15718394  1.0
  C  C64  1  0.04297123  0.66973998  0.19198851  1.0
  C  C65  1  0.00000587  0.69947893  0.19942150  1.0
  C  C66  1  0.95704371  0.69204956  0.16967646  1.0
  C  C67  1  0.95696022  0.65725923  0.13479973  1.0
  C  C68  1  0.99999649  0.73470596  0.23467379  1.0
  C  C69  1  0.99998996  0.76530653  0.26531550  1.0
  C  C70  1  0.99997392  0.80052624  0.30057414  1.0
  C  C71  1  0.04291695  0.80792962  0.33034234  1.0
  C  C72  1  0.04300216  0.84271892  0.36521979  1.0
  C  C73  1  0.99996757  0.87137804  0.37144625  1.0
  C  C74  1  0.95692911  0.86514813  0.34279124  1.0
  C  C75  1  0.95702303  0.83028494  0.30798784  1.0
  C  C76  1  0.74282814  0.37141784  0.12859232  1.0
  C  C77  1  0.70794354  0.29972975  0.15724298  1.0
  C  C78  1  0.63827636  0.26502223  0.19203752  1.0
  C  C79  1  0.60110070  0.30055410  0.19945615  1.0
  C  C80  1  0.63827198  0.37326369  0.16969571  1.0
  C  C81  1  0.70794047  0.40822632  0.13482414  1.0
  C  C82  1  0.53062020  0.26530271  0.23470521  1.0
  C  C83  1  0.46937947  0.23466998  0.26534321  1.0
  C  C84  1  0.39890198  0.19943262  0.30058917  1.0
  C  C85  1  0.36172971  0.12672561  0.33033466  1.0
  C  C86  1  0.29206327  0.09176455  0.36520667  1.0
  C  C87  1  0.25717819  0.12857202  0.37145359  1.0
  C  C88  1  0.29206057  0.20025443  0.34282679  1.0
  C  C89  1  0.36172756  0.23496245  0.30802121  1.0
  C  C90  1  0.25717124  0.62860066  0.87142856  1.0
  C  C91  1  0.29206547  0.65726855  0.79972695  1.0
  C  C92  1  0.36173271  0.69206615  0.76501749  1.0
  C  C93  1  0.39890134  0.69947011  0.80055958  1.0
  C  C94  1  0.36172303  0.66969635  0.87327823  1.0
  C  C95  1  0.29205497  0.63482746  0.90824339  1.0
  C  C96  1  0.46938164  0.73471162  0.76530653  1.0
  C  C97  1  0.53062147  0.76533862  0.73466645  1.0
  C  C98  1  0.60110021  0.80057963  0.69942495  1.0
  C  C99  1  0.63827914  0.83032637  0.62671299  1.0
  C  C100  1  0.70794634  0.86520098  0.59175086  1.0
  C  C101  1  0.74282440  0.87143921  0.62856835  1.0
  C  C102  1  0.70793442  0.84279937  0.70025930  1.0
  C  C103  1  0.63826782  0.80800124  0.73496416  1.0
  Br  Br104  1  0.89627730  0.08749085  0.30879286  1.0
  Br  Br105  1  0.10371990  0.41250796  0.19120928  1.0
  Br  Br106  1  0.89627952  0.20507647  0.19121057  1.0
  Br  Br107  1  0.10372231  0.29493325  0.30878755  1.0
  Br  Br108  1  0.89628137  0.80878880  0.79494782  1.0
  Br  Br109  1  0.10372240  0.69121343  0.70504919  1.0
  Br  Br110  1  0.89628042  0.69120213  0.91252805  1.0
  Br  Br111  1  0.10372808  0.80880271  0.58746901  1.0
  Cl  Cl112  1  0.09607330  0.41896568  0.67682871  1.0
  Cl  Cl113  1  0.90391692  0.17686334  0.91896953  1.0
  Cl  Cl114  1  0.09602070  0.32315783  0.58101040  1.0
  Cl  Cl115  1  0.90392568  0.08103535  0.82317280  1.0
  Cl  Cl116  1  0.90392166  0.72708755  0.17709946  1.0
  Cl  Cl117  1  0.09609299  0.67715039  0.22703410  1.0
  Cl  Cl118  1  0.90393426  0.82290103  0.27290925  1.0
  Cl  Cl119  1  0.09601929  0.77286721  0.32294331  1.0
  Cl  Cl120  1  0.59581440  0.41897200  0.17707981  1.0
  Cl  Cl121  1  0.59581570  0.17685823  0.22710437  1.0
  Cl  Cl122  1  0.40418258  0.32312855  0.27297661  1.0
  Cl  Cl123  1  0.40419740  0.08103803  0.32290709  1.0
  Cl  Cl124  1  0.40417764  0.67707558  0.91899272  1.0
  Cl  Cl125  1  0.40420189  0.72714414  0.67684014  1.0
  Cl  Cl126  1  0.59580486  0.77294042  0.82314082  1.0
  Cl  Cl127  1  0.59582691  0.82292012  0.58100298  1.0
  O  O128  1  0.99999695  0.99999825  0.50000214  1.0
  O  O129  1  0.15335530  0.12729468  0.41391009  1.0
  O  O130  1  0.03975731  0.88580345  0.57445042  1.0
  O  O131  1  0.95877571  0.02603829  0.62731033  1.0
  O  O132  1  0.15335618  0.02605346  0.43273110  1.0
  O  O133  1  0.04120306  0.12728776  0.52605548  1.0
  O  O134  1  0.96021920  0.88578633  0.65397252  1.0
  O  O135  1  0.84664262  0.91391763  0.62729103  1.0
  O  O136  1  0.96025410  0.07445224  0.38579171  1.0
  O  O137  1  0.84665053  0.93274874  0.52603539  1.0
  O  O138  1  0.03977254  0.15396372  0.38579162  1.0
  O  O139  1  0.04120047  0.91390214  0.43273994  1.0
  O  O140  1  0.95878898  0.93273643  0.41390971  1.0
  O  O141  1  0.00000386  0.49999914  0.99999355  1.0
  O  O142  1  0.95879376  0.37271430  0.97394000  1.0
  O  O143  1  0.03978436  0.61421071  0.84602492  1.0
  O  O144  1  0.84664947  0.47394619  0.06727180  1.0
  O  O145  1  0.04122294  0.47396013  0.87268519  1.0
  O  O146  1  0.84665143  0.37270446  0.08609812  1.0
  O  O147  1  0.96024825  0.61419411  0.92554663  1.0
  O  O148  1  0.95878704  0.58609317  0.06725808  1.0
  O  O149  1  0.03973938  0.42554709  0.11421596  1.0
  O  O150  1  0.04120180  0.56726875  0.08608678  1.0
  O  O151  1  0.96023793  0.34603717  0.11419899  1.0
  O  O152  1  0.15335157  0.58608793  0.87270936  1.0
  O  O153  1  0.15334089  0.56725370  0.97396708  1.0
