# generated using pymatgen
data_AlH12C27N7O6
_symmetry_space_group_name_H-M   'P 1'
_cell_length_a   3.91974629
_cell_length_b   17.92625009
_cell_length_c   18.13979195
_cell_angle_alpha   118.77303132
_cell_angle_beta   94.12271388
_cell_angle_gamma   95.35956174
_symmetry_Int_Tables_number   1
_chemical_formula_structural   AlH12C27N7O6
_chemical_formula_sum   'Al1 H12 C27 N7 O6'
_cell_volume   1102.34321923
_cell_formula_units_Z   1
loop_
 _symmetry_equiv_pos_site_id
 _symmetry_equiv_pos_as_xyz
  1  'x, y, z'
loop_
 _atom_site_type_symbol
 _atom_site_label
 _atom_site_symmetry_multiplicity
 _atom_site_fract_x
 _atom_site_fract_y
 _atom_site_fract_z
 _atom_site_occupancy
  Al  Al0  1  0.99185752  0.00077016  0.50341530  1.0
  H  H1  1  0.70629347  0.31767806  0.89695961  1.0
  H  H2  1  0.30751485  0.09104781  0.19187913  1.0
  H  H3  1  0.97181771  0.60538101  0.41290937  1.0
  H  H4  1  0.89947953  0.30662251  0.41305001  1.0
  H  H5  1  0.85001673  0.22429755  0.49229121  1.0
  H  H6  1  0.21606831  0.01353490  0.27488861  1.0
  H  H7  1  0.11069381  0.76661134  0.49216077  1.0
  H  H8  1  0.52548773  0.76002962  0.27633136  1.0
  H  H9  1  0.34320052  0.59983658  0.19331986  1.0
  H  H10  1  0.67764514  0.07787419  0.89769384  1.0
  H  H11  1  0.63012205  0.99872582  0.73857692  1.0
  H  H12  1  0.60177380  0.23775889  0.73765698  1.0
  C  C13  1  0.56314005  0.06651931  0.63459066  1.0
  C  C14  1  0.50282443  0.06690285  0.43631436  1.0
  C  C15  1  0.40762368  0.86781791  0.43705013  1.0
  C  C16  1  0.68079154  0.24776651  0.86128000  1.0
  C  C17  1  0.69574317  0.20216356  0.90610807  1.0
  C  C18  1  0.41758351  0.12019305  0.25829065  1.0
  C  C19  1  0.60799407  0.20327497  0.29793961  1.0
  C  C20  1  0.14805066  0.59365950  0.29857370  1.0
  C  C21  1  0.08851759  0.64027088  0.38356539  1.0
  C  C22  1  0.75525633  0.24196070  0.38337397  1.0
  C  C23  1  0.72471884  0.19670932  0.42725198  1.0
  C  C24  1  0.52941215  0.11439725  0.38815487  1.0
  C  C25  1  0.37018434  0.07703597  0.30401332  1.0
  C  C26  1  0.16829554  0.72920655  0.42747021  1.0
  C  C27  1  0.32670917  0.77234931  0.38882577  1.0
  C  C28  1  0.39860727  0.72573544  0.30509823  1.0
  C  C29  1  0.30112797  0.63704067  0.25936688  1.0
  C  C30  1  0.66900824  0.11201738  0.86172195  1.0
  C  C31  1  0.63936707  0.06834192  0.77369117  1.0
  C  C32  1  0.61148871  0.11375744  0.72910001  1.0
  C  C33  1  0.62661066  0.20345083  0.77317933  1.0
  C  C34  1  0.90972666  0.37630347  0.12259006  1.0
  C  C35  1  0.68002383  0.24442924  0.12208738  1.0
  C  C36  1  0.73894218  0.24878077  0.99942221  1.0
  C  C37  1  0.04117044  0.49975786  0.25117797  1.0
  C  C38  1  0.85279410  0.37766112  0.25624213  1.0
  C  C39  1  0.66504459  0.24990843  0.25058300  1.0
  N  N40  1  0.81408042  0.33276640  0.16690929  1.0
  N  N41  1  0.63921932  0.20330771  0.03756175  1.0
  N  N42  1  0.87440585  0.33269486  0.03812166  1.0
  N  N43  1  0.03297202  0.46014469  0.16622179  1.0
  N  N44  1  0.95802362  0.46216022  0.29758515  1.0
  N  N45  1  0.59843618  0.20393759  0.16528823  1.0
  N  N46  1  0.78400418  0.33462002  0.29746259  1.0
  O  O47  1  0.65958384  0.90459379  0.41993431  1.0
  O  O48  1  0.76289212  0.01117103  0.59757090  1.0
  O  O49  1  0.75789350  0.08372419  0.49267533  1.0
  O  O50  1  0.21504020  0.90748829  0.49354742  1.0
  O  O51  1  0.23302392  0.01288881  0.41933285  1.0
  O  O52  1  0.32407639  0.08457097  0.59683052  1.0
