# generated using pymatgen
data_AlH11C16N2O5
_symmetry_space_group_name_H-M   'P 1'
_cell_length_a   6.66282064
_cell_length_b   23.79509815
_cell_length_c   25.43272365
_cell_angle_alpha   90.14893148
_cell_angle_beta   89.83798171
_cell_angle_gamma   89.86777125
_symmetry_Int_Tables_number   1
_chemical_formula_structural   AlH11C16N2O5
_chemical_formula_sum   'Al4 H44 C64 N8 O20'
_cell_volume   4032.12630475
_cell_formula_units_Z   4
loop_
 _symmetry_equiv_pos_site_id
 _symmetry_equiv_pos_as_xyz
  1  'x, y, z'
loop_
 _atom_site_type_symbol
 _atom_site_label
 _atom_site_symmetry_multiplicity
 _atom_site_fract_x
 _atom_site_fract_y
 _atom_site_fract_z
 _atom_site_occupancy
  Al  Al0  1  0.99434917  0.00361853  0.49550806  1.0
  Al  Al1  1  0.49358033  0.00526192  0.49397337  1.0
  Al  Al2  1  0.98993140  0.50439652  0.99456865  1.0
  Al  Al3  1  0.49062491  0.50307752  0.99525705  1.0
  H  H4  1  0.24065901  0.07477718  0.51399399  1.0
  H  H5  1  0.73807087  0.93560758  0.51742434  1.0
  H  H6  1  0.23734762  0.43256033  0.01197849  1.0
  H  H7  1  0.73581150  0.57225119  0.01828767  1.0
  H  H8  1  0.44129486  0.41649098  0.13815583  1.0
  H  H9  1  0.45875776  0.35284842  0.21614799  1.0
  H  H10  1  0.05754358  0.37875261  0.10188260  1.0
  H  H11  1  0.45284009  0.10925905  0.36307735  1.0
  H  H12  1  0.07635371  0.13386683  0.39960413  1.0
  H  H13  1  0.08825856  0.21567986  0.33765998  1.0
  H  H14  1  0.92784722  0.58902095  0.85967880  1.0
  H  H15  1  0.91727403  0.65358298  0.78192375  1.0
  H  H16  1  0.55042478  0.62894856  0.88285529  1.0
  H  H17  1  0.93285517  0.90590395  0.62888124  1.0
  H  H18  1  0.54686180  0.86632617  0.59151150  1.0
  H  H19  1  0.53870545  0.78714373  0.65572979  1.0
  H  H20  1  0.54942731  0.58401481  0.13574660  1.0
  H  H21  1  0.55542503  0.64508902  0.21601540  1.0
  H  H22  1  0.92897543  0.62661456  0.11156179  1.0
  H  H23  1  0.55684117  0.89709825  0.36736046  1.0
  H  H24  1  0.94094953  0.86369138  0.40672336  1.0
  H  H25  1  0.94084683  0.78164708  0.34478532  1.0
  H  H26  1  0.44541174  0.36243638  0.90301126  1.0
  H  H27  1  0.46159932  0.27985667  0.84187373  1.0
  H  H28  1  0.06136160  0.40083649  0.86793228  1.0
  H  H29  1  0.44005917  0.13144132  0.61206163  1.0
  H  H30  1  0.06122581  0.08622980  0.63014634  1.0
  H  H31  1  0.08097182  0.14597132  0.71123175  1.0
  H  H32  1  0.10574161  0.27574938  0.20777446  1.0
  H  H33  1  0.22597634  0.30667555  0.15506135  1.0
  H  H34  1  0.45529852  0.21581207  0.25927909  1.0
  H  H35  1  0.31958063  0.16245554  0.28748940  1.0
  H  H36  1  0.55317314  0.73627030  0.77981361  1.0
  H  H37  1  0.68846829  0.70665789  0.83026598  1.0
  H  H38  1  0.90036132  0.79991561  0.73248724  1.0
  H  H39  1  0.77717055  0.85445644  0.70200748  1.0
  H  H40  1  0.91681391  0.72736137  0.22052948  1.0
  H  H41  1  0.78358111  0.69991372  0.16839456  1.0
  H  H42  1  0.57511655  0.78824083  0.26540405  1.0
  H  H43  1  0.70354300  0.84278914  0.29427313  1.0
  H  H44  1  0.10384012  0.29085899  0.76753647  1.0
  H  H45  1  0.22325761  0.34666682  0.79692816  1.0
  H  H46  1  0.45085008  0.23141578  0.72148519  1.0
  H  H47  1  0.31107620  0.20657371  0.66978320  1.0
  C  C48  1  0.74028164  0.07171958  0.56733312  1.0
  C  C49  1  0.75386285  0.07149309  0.42427452  1.0
  C  C50  1  0.25130914  0.93260907  0.42804514  1.0
  C  C51  1  0.23858124  0.93562967  0.56608508  1.0
  C  C52  1  0.74813450  0.43368056  0.92655173  1.0
  C  C53  1  0.73918062  0.43675117  0.06762539  1.0
  C  C54  1  0.23570124  0.56866965  0.06939602  1.0
  C  C55  1  0.24527154  0.56875795  0.92263504  1.0
  C  C56  1  0.74808468  0.39990135  0.11493952  1.0
  C  C57  1  0.57784360  0.39323941  0.14716285  1.0
  C  C58  1  0.58825070  0.35788566  0.19033952  1.0
  C  C59  1  0.76476187  0.32748019  0.20173937  1.0
  C  C60  1  0.93903414  0.33545596  0.16987157  1.0
  C  C61  1  0.92678607  0.37209822  0.12692532  1.0
  C  C62  1  0.77079174  0.28769073  0.24272359  1.0
  C  C63  1  0.78520410  0.25095336  0.27621252  1.0
  C  C64  1  0.78055843  0.20672118  0.31305535  1.0
  C  C65  1  0.59792829  0.17611764  0.31956994  1.0
  C  C66  1  0.59191674  0.13232829  0.35633720  1.0
  C  C67  1  0.76335217  0.11733871  0.38444631  1.0
  C  C68  1  0.94488860  0.14642813  0.37710254  1.0
  C  C69  1  0.95105684  0.19133272  0.34250629  1.0
  C  C70  1  0.23970349  0.60642743  0.87587033  1.0
  C  C71  1  0.05958641  0.61286271  0.84770853  1.0
  C  C72  1  0.05407124  0.64892372  0.80497828  1.0
  C  C73  1  0.22392295  0.68074478  0.79054388  1.0
  C  C74  1  0.40714234  0.67352955  0.81879782  1.0
  C  C75  1  0.41203512  0.63547240  0.86081605  1.0
  C  C76  1  0.21711969  0.72112428  0.75002075  1.0
  C  C77  1  0.22875383  0.75834820  0.71690944  1.0
  C  C78  1  0.23269737  0.80223973  0.67971652  1.0
  C  C79  1  0.05802529  0.83620933  0.67250604  1.0
  C  C80  1  0.06497845  0.87976783  0.63553248  1.0
  C  C81  1  0.23951961  0.89057259  0.60677403  1.0
  C  C82  1  0.41241173  0.85769727  0.61449343  1.0
  C  C83  1  0.40722580  0.81376670  0.65016513  1.0
  C  C84  1  0.23958045  0.60339839  0.11831645  1.0
  C  C85  1  0.41728760  0.60785730  0.14777059  1.0
  C  C86  1  0.42016931  0.64185079  0.19216204  1.0
  C  C87  1  0.24987414  0.67338469  0.20728728  1.0
  C  C88  1  0.06779637  0.66739210  0.17831497  1.0
  C  C89  1  0.06622121  0.63174297  0.13433570  1.0
  C  C90  1  0.25583337  0.71261764  0.24898334  1.0
  C  C91  1  0.24582320  0.74956687  0.28260187  1.0
  C  C92  1  0.24691007  0.79400106  0.31950597  1.0
  C  C93  1  0.42442249  0.82686940  0.32553724  1.0
  C  C94  1  0.42259942  0.87169398  0.36145215  1.0
  C  C95  1  0.24927211  0.88488335  0.38990454  1.0
  C  C96  1  0.07370621  0.85282581  0.38377210  1.0
  C  C97  1  0.07444750  0.80757320  0.34935908  1.0
  C  C98  1  0.75306423  0.38611277  0.88832443  1.0
  C  C99  1  0.58185970  0.35255815  0.88116408  1.0
  C  C100  1  0.59173147  0.30695547  0.84722080  1.0
  C  C101  1  0.76868836  0.29466227  0.81877362  1.0
  C  C102  1  0.94185870  0.32902439  0.82588036  1.0
  C  C103  1  0.93080938  0.37418262  0.86128386  1.0
  C  C104  1  0.77434159  0.25031515  0.78185280  1.0
  C  C105  1  0.78632228  0.21363863  0.74801641  1.0
  C  C106  1  0.77522936  0.17518816  0.70577094  1.0
  C  C107  1  0.58955930  0.17059107  0.67808836  1.0
  C  C108  1  0.58030780  0.13554430  0.63375667  1.0
  C  C109  1  0.75005488  0.10660690  0.61608981  1.0
  C  C110  1  0.93182050  0.11017362  0.64392439  1.0
  C  C111  1  0.94226797  0.14342361  0.68870117  1.0
  N  N112  1  0.11466928  0.30825830  0.18219142  1.0
  N  N113  1  0.43040502  0.19123134  0.29117242  1.0
  N  N114  1  0.57569104  0.70291541  0.80388663  1.0
  N  N115  1  0.88544110  0.82457666  0.70026020  1.0
  N  N116  1  0.89794397  0.69571132  0.19421739  1.0
  N  N117  1  0.59475610  0.81329669  0.29731831  1.0
  N  N118  1  0.11683360  0.31642184  0.79934470  1.0
  N  N119  1  0.42339261  0.19969885  0.69574065  1.0
  O  O120  1  0.90785952  0.06022108  0.54534770  1.0
  O  O121  1  0.58221117  0.05845994  0.44272885  1.0
  O  O122  1  0.41903425  0.95593995  0.43777790  1.0
  O  O123  1  0.06822575  0.95678480  0.55440402  1.0
  O  O124  1  0.08399027  0.94606413  0.44901968  1.0
  O  O125  1  0.40644139  0.94878304  0.54520796  1.0
  O  O126  1  0.56783544  0.05629782  0.55107190  1.0
  O  O127  1  0.92038648  0.04965020  0.43778379  1.0
  O  O128  1  0.24333639  0.03911767  0.49552824  1.0
  O  O129  1  0.74246664  0.97014614  0.49734845  1.0
  O  O130  1  0.91483177  0.45680547  0.93760656  1.0
  O  O131  1  0.56639264  0.45388654  0.05316185  1.0
  O  O132  1  0.40465626  0.55716078  0.04814690  1.0
  O  O133  1  0.07683311  0.55738829  0.94380956  1.0
  O  O134  1  0.06422484  0.55372905  0.05206555  1.0
  O  O135  1  0.41560296  0.55136076  0.93845064  1.0
  O  O136  1  0.57867100  0.44715187  0.94629880  1.0
  O  O137  1  0.90533660  0.44790455  0.04478003  1.0
  O  O138  1  0.23993859  0.46943130  0.99598246  1.0
  O  O139  1  0.73879555  0.53848427  0.99689207  1.0
