# generated using pymatgen
data_CdH14C22(NO)4
_symmetry_space_group_name_H-M   'P 1'
_cell_length_a   7.95432840
_cell_length_b   18.82131600
_cell_length_c   19.08536760
_cell_angle_alpha   90.00036187
_cell_angle_beta   90.00022823
_cell_angle_gamma   79.65396112
_symmetry_Int_Tables_number   1
_chemical_formula_structural   CdH14C22(NO)4
_chemical_formula_sum   'Cd4 H56 C88 N16 O16'
_cell_volume   2810.83158998
_cell_formula_units_Z   4
loop_
 _symmetry_equiv_pos_site_id
 _symmetry_equiv_pos_as_xyz
  1  'x, y, z'
loop_
 _atom_site_type_symbol
 _atom_site_label
 _atom_site_symmetry_multiplicity
 _atom_site_fract_x
 _atom_site_fract_y
 _atom_site_fract_z
 _atom_site_occupancy
  Cd  Cd0  1  0.69924762  0.99468661  0.93959061  1.0
  Cd  Cd1  1  0.30074724  0.50531419  0.43959208  1.0
  Cd  Cd2  1  0.30072325  0.00531349  0.06041260  1.0
  Cd  Cd3  1  0.69924558  0.49468753  0.56041007  1.0
  H  H4  1  0.14224568  0.29617937  0.56722310  1.0
  H  H5  1  0.85774103  0.20381520  0.06722362  1.0
  H  H6  1  0.85774999  0.70382450  0.43277486  1.0
  H  H7  1  0.14224550  0.79618651  0.93277382  1.0
  H  H8  1  0.19615951  0.19980851  0.65948149  1.0
  H  H9  1  0.80383366  0.30018768  0.15948304  1.0
  H  H10  1  0.80383181  0.80019374  0.34051543  1.0
  H  H11  1  0.19615492  0.69981512  0.84051493  1.0
  H  H12  1  0.52115647  0.39787457  0.66804810  1.0
  H  H13  1  0.47886260  0.10211411  0.16805782  1.0
  H  H14  1  0.47884229  0.60212498  0.33195458  1.0
  H  H15  1  0.52114782  0.89788167  0.83194486  1.0
  H  H16  1  0.30475695  0.11019606  0.72573939  1.0
  H  H17  1  0.69523921  0.38980052  0.22574184  1.0
  H  H18  1  0.69524502  0.88980187  0.27426120  1.0
  H  H19  1  0.30474721  0.61019849  0.77426032  1.0
  H  H20  1  0.41111086  0.02170568  0.81878221  1.0
  H  H21  1  0.58887976  0.47829414  0.31878084  1.0
  H  H22  1  0.58889922  0.97829387  0.18121942  1.0
  H  H23  1  0.41111683  0.52170163  0.68122498  1.0
  H  H24  1  0.69501728  0.16019075  0.91116517  1.0
  H  H25  1  0.30499352  0.33980800  0.41117084  1.0
  H  H26  1  0.30498821  0.83981367  0.08883227  1.0
  H  H27  1  0.69501668  0.66018237  0.58883655  1.0
  H  H28  1  0.60114422  0.25567232  0.82094601  1.0
  H  H29  1  0.39887031  0.24432158  0.32095648  1.0
  H  H30  1  0.39885282  0.74432832  0.17904933  1.0
  H  H31  1  0.60113898  0.75567095  0.67904986  1.0
  H  H32  1  0.83147302  0.56430414  0.21630962  1.0
  H  H33  1  0.16853093  0.93569697  0.71630006  1.0
  H  H34  1  0.16853798  0.43569325  0.78369097  1.0
  H  H35  1  0.83146475  0.06430691  0.28368899  1.0
  H  H36  1  0.74217211  0.65864829  0.12345493  1.0
  H  H37  1  0.25783623  0.84134634  0.62345332  1.0
  H  H38  1  0.25782860  0.34134965  0.87654670  1.0
  H  H39  1  0.74216196  0.15865160  0.37654307  1.0
  H  H40  1  0.22574759  0.68112888  0.27614903  1.0
  H  H41  1  0.77424259  0.81888230  0.77614344  1.0
  H  H42  1  0.77426249  0.31887067  0.72384317  1.0
  H  H43  1  0.22575102  0.18112644  0.22385505  1.0
  H  H44  1  0.76696884  0.72043854  0.02407115  1.0
  H  H45  1  0.23300668  0.77956307  0.52406807  1.0
  H  H46  1  0.23301712  0.27956156  0.97592891  1.0
  H  H47  1  0.76696990  0.22044135  0.47593042  1.0
  H  H48  1  0.69056690  0.82752307  0.94596197  1.0
  H  H49  1  0.30941748  0.67247884  0.44595770  1.0
  H  H50  1  0.30942191  0.17247918  0.05403966  1.0
  H  H51  1  0.69057213  0.32752450  0.55404131  1.0
  H  H52  1  0.91336859  0.95663592  0.08101826  1.0
  H  H53  1  0.08665100  0.54335792  0.58101764  1.0
  H  H54  1  0.08662960  0.04336202  0.91898337  1.0
  H  H55  1  0.91336423  0.45663840  0.41898556  1.0
  H  H56  1  0.00504652  0.85480080  0.16259119  1.0
  H  H57  1  0.99496483  0.64519351  0.66259169  1.0
  H  H58  1  0.99495110  0.14519551  0.83740940  1.0
  H  H59  1  0.00504605  0.35480118  0.33741256  1.0
  C  C60  1  0.31452824  0.41056434  0.55392022  1.0
  C  C61  1  0.68547118  0.08942961  0.05392392  1.0
  C  C62  1  0.68547863  0.58943683  0.44608036  1.0
  C  C63  1  0.31452907  0.91056940  0.94607771  1.0
  C  C64  1  0.32943056  0.35404538  0.60976546  1.0
  C  C65  1  0.67057600  0.14594782  0.10977106  1.0
  C  C66  1  0.67057929  0.64595471  0.39023460  1.0
  C  C67  1  0.32942574  0.85405065  0.89022953  1.0
  C  C68  1  0.23668176  0.29756794  0.60842229  1.0
  C  C69  1  0.76331953  0.20242579  0.10842578  1.0
  C  C70  1  0.76331803  0.70243215  0.39157725  1.0
  C  C71  1  0.23667523  0.79757430  0.89157271  1.0
  C  C72  1  0.26793656  0.24397566  0.65965512  1.0
  C  C73  1  0.73206531  0.25601783  0.15965784  1.0
  C  C74  1  0.73205946  0.75602443  0.34034337  1.0
  C  C75  1  0.26793368  0.74398118  0.84034170  1.0
  C  C76  1  0.39232863  0.24788312  0.71112817  1.0
  C  C77  1  0.60767851  0.25210798  0.21113486  1.0
  C  C78  1  0.60766807  0.75211536  0.28887136  1.0
  C  C79  1  0.39232117  0.74788942  0.78886625  1.0
  C  C80  1  0.44584222  0.35493597  0.66476948  1.0
  C  C81  1  0.55416666  0.14505593  0.16477697  1.0
  C  C82  1  0.55415654  0.64506358  0.33523058  1.0
  C  C83  1  0.44583851  0.85494038  0.83522571  1.0
  C  C84  1  0.44340806  0.19178352  0.76549325  1.0
  C  C85  1  0.55659739  0.30821275  0.26549862  1.0
  C  C86  1  0.55659024  0.80821711  0.23450733  1.0
  C  C87  1  0.44340583  0.69178518  0.73450563  1.0
  C  C88  1  0.39089172  0.12451051  0.76553858  1.0
  C  C89  1  0.60910471  0.37548631  0.26554184  1.0
  C  C90  1  0.60910853  0.87548851  0.23446148  1.0
  C  C91  1  0.39088537  0.62451001  0.73446188  1.0
  C  C92  1  0.45052165  0.07424144  0.81732422  1.0
  C  C93  1  0.54947216  0.42575675  0.31732508  1.0
  C  C94  1  0.54948214  0.92575811  0.18267584  1.0
  C  C95  1  0.45052192  0.57423902  0.68267970  1.0
  C  C96  1  0.60746539  0.15200783  0.86915802  1.0
  C  C97  1  0.39254055  0.34798959  0.36915970  1.0
  C  C98  1  0.39254000  0.84799388  0.13084309  1.0
  C  C99  1  0.60746678  0.65200456  0.63084403  1.0
  C  C100  1  0.55399643  0.20494782  0.81945462  1.0
  C  C101  1  0.44601363  0.29504769  0.31946287  1.0
  C  C102  1  0.44600438  0.79505281  0.18054230  1.0
  C  C103  1  0.55399246  0.70494647  0.68054296  1.0
  C  C104  1  0.08953982  0.56280288  0.31236792  1.0
  C  C105  1  0.91046066  0.93720851  0.81235805  1.0
  C  C106  1  0.91047598  0.43719505  0.68762848  1.0
  C  C107  1  0.08954460  0.06280238  0.18763310  1.0
  C  C108  1  0.03474749  0.61565876  0.25356068  1.0
  C  C109  1  0.96525384  0.88435229  0.75355372  1.0
  C  C110  1  0.96526292  0.38434295  0.74643676  1.0
  C  C111  1  0.03474514  0.11565861  0.24644162  1.0
  C  C112  1  0.89916261  0.60926622  0.20892143  1.0
  C  C113  1  0.10083808  0.89073646  0.70891358  1.0
  C  C114  1  0.10084918  0.39073225  0.79107863  1.0
  C  C115  1  0.89915633  0.10926741  0.29107915  1.0
  C  C116  1  0.85131194  0.66130251  0.15726103  1.0
  C  C117  1  0.14868954  0.83869717  0.65725608  1.0
  C  C118  1  0.14868923  0.33869435  0.84273955  1.0
  C  C119  1  0.85130853  0.16130400  0.34273979  1.0
  C  C120  1  0.94032560  0.71907493  0.15165123  1.0
  C  C121  1  0.05967412  0.78092580  0.65164629  1.0
  C  C122  1  0.05967682  0.28092192  0.84834935  1.0
  C  C123  1  0.94032395  0.21907538  0.34835220  1.0
  C  C124  1  0.11742671  0.67475459  0.24324727  1.0
  C  C125  1  0.88256929  0.82525693  0.74323981  1.0
  C  C126  1  0.88258462  0.32524496  0.75675069  1.0
  C  C127  1  0.11742763  0.17475288  0.25675763  1.0
  C  C128  1  0.89221504  0.77882662  0.10100630  1.0
  C  C129  1  0.10778297  0.72117111  0.60100473  1.0
  C  C130  1  0.10777870  0.22117293  0.89899219  1.0
  C  C131  1  0.89221625  0.27882736  0.39899690  1.0
  C  C132  1  0.80219433  0.77173327  0.03882401  1.0
  C  C133  1  0.19779250  0.72826572  0.53882211  1.0
  C  C134  1  0.19779289  0.22826683  0.96117605  1.0
  C  C135  1  0.80219197  0.27173491  0.46118057  1.0
  C  C136  1  0.75882112  0.83114274  0.99499961  1.0
  C  C137  1  0.24117332  0.66885730  0.49499729  1.0
  C  C138  1  0.24117044  0.16885897  0.00500150  1.0
  C  C139  1  0.75881892  0.33114280  0.50500382  1.0
  C  C140  1  0.88430538  0.90349610  0.06928447  1.0
  C  C141  1  0.11571070  0.59649983  0.56928424  1.0
  C  C142  1  0.11569235  0.09650292  0.93071559  1.0
  C  C143  1  0.88430212  0.40349918  0.43071897  1.0
  C  C144  1  0.93493355  0.84649247  0.11520800  1.0
  C  C145  1  0.06507335  0.65350535  0.61520908  1.0
  C  C146  1  0.06506143  0.15350709  0.88479154  1.0
  C  C147  1  0.93493341  0.34649312  0.38479569  1.0
  N  N148  1  0.47698255  0.30385662  0.71369216  1.0
  N  N149  1  0.52302964  0.19613448  0.21369992  1.0
  N  N150  1  0.52301118  0.69614293  0.28630894  1.0
  N  N151  1  0.47697404  0.80386237  0.78630328  1.0
  N  N152  1  0.55761798  0.08726846  0.86831891  1.0
  N  N153  1  0.44237721  0.41273058  0.36832161  1.0
  N  N154  1  0.44238466  0.91273380  0.13168167  1.0
  N  N155  1  0.55762110  0.58726412  0.63168527  1.0
  N  N156  1  0.07230026  0.72523245  0.19432824  1.0
  N  N157  1  0.92768787  0.77477285  0.69432263  1.0
  N  N158  1  0.92769999  0.27476656  0.80566972  1.0
  N  N159  1  0.07230575  0.22522995  0.30567795  1.0
  N  N160  1  0.79733606  0.89613557  0.01019670  1.0
  N  N161  1  0.20267320  0.60386325  0.51019666  1.0
  N  N162  1  0.20266144  0.10386398  0.98980388  1.0
  N  N163  1  0.79733287  0.39613685  0.48980602  1.0
  O  O164  1  0.42223756  0.45350856  0.55386595  1.0
  O  O165  1  0.57776313  0.04648539  0.05386816  1.0
  O  O166  1  0.57778956  0.54648343  0.44612991  1.0
  O  O167  1  0.42223461  0.95351362  0.94613400  1.0
  O  O168  1  0.19900199  0.41331478  0.50741802  1.0
  O  O169  1  0.80098933  0.08668538  0.00741823  1.0
  O  O170  1  0.80098372  0.58669773  0.49258990  1.0
  O  O171  1  0.19900989  0.91331309  0.99258183  1.0
  O  O172  1  0.22155669  0.57520562  0.34654608  1.0
  O  O173  1  0.77845192  0.92480219  0.84654221  1.0
  O  O174  1  0.77846597  0.42478799  0.65344821  1.0
  O  O175  1  0.22154076  0.07521465  0.15345314  1.0
  O  O176  1  0.00775837  0.51324826  0.32460744  1.0
  O  O177  1  0.99223351  0.98676590  0.82459173  1.0
  O  O178  1  0.99225011  0.48674913  0.67539210  1.0
  O  O179  1  0.00778193  0.01324175  0.17539785  1.0
