# generated using pymatgen
data_NdH24C24(NO2)6
_symmetry_space_group_name_H-M   'P 1'
_cell_length_a   16.05081423
_cell_length_b   16.05077122
_cell_length_c   16.46093720
_cell_angle_alpha   90.00004941
_cell_angle_beta   89.99996527
_cell_angle_gamma   59.99989805
_symmetry_Int_Tables_number   1
_chemical_formula_structural   NdH24C24(NO2)6
_chemical_formula_sum   'Nd4 H96 C96 N24 O48'
_cell_volume   3672.63455760
_cell_formula_units_Z   4
loop_
 _symmetry_equiv_pos_site_id
 _symmetry_equiv_pos_as_xyz
  1  'x, y, z'
loop_
 _atom_site_type_symbol
 _atom_site_label
 _atom_site_symmetry_multiplicity
 _atom_site_fract_x
 _atom_site_fract_y
 _atom_site_fract_z
 _atom_site_occupancy
  Nd  Nd0  1  0.66666667  0.66666667  0.66666667  1.0
  Nd  Nd1  1  0.33333333  0.33333333  0.83336037  1.0
  Nd  Nd2  1  0.33333333  0.33333333  0.33333333  1.0
  Nd  Nd3  1  0.66666667  0.66666667  0.16664036  1.0
  H  H4  1  0.50682559  0.74830981  0.48584098  1.0
  H  H5  1  0.74830774  0.74486886  0.48584151  1.0
  H  H6  1  0.74486368  0.50682615  0.48583959  1.0
  H  H7  1  0.25513504  0.25168987  0.01415913  1.0
  H  H8  1  0.49317626  0.25513076  0.01415845  1.0
  H  H9  1  0.25168906  0.49317423  0.01416045  1.0
  H  H10  1  0.49317469  0.25168952  0.51415914  1.0
  H  H11  1  0.25169209  0.25513263  0.51415982  1.0
  H  H12  1  0.25513625  0.49317390  0.51416053  1.0
  H  H13  1  0.74486525  0.74830946  0.98584099  1.0
  H  H14  1  0.50682366  0.74486930  0.98584167  1.0
  H  H15  1  0.74830988  0.50682654  0.98583907  1.0
  H  H16  1  0.31502875  0.09538934  0.55917054  1.0
  H  H17  1  0.09538585  0.58958441  0.55916899  1.0
  H  H18  1  0.58958420  0.31502818  0.55916934  1.0
  H  H19  1  0.41041873  0.90461043  0.94082975  1.0
  H  H20  1  0.68497037  0.41041537  0.94083128  1.0
  H  H21  1  0.90461187  0.68497149  0.94083073  1.0
  H  H22  1  0.68497117  0.90461072  0.44082958  1.0
  H  H23  1  0.90461505  0.41041494  0.44083053  1.0
  H  H24  1  0.41041572  0.68497187  0.44083018  1.0
  H  H25  1  0.58958155  0.09538891  0.05916977  1.0
  H  H26  1  0.31502955  0.58958469  0.05916884  1.0
  H  H27  1  0.09538743  0.31502857  0.05916940  1.0
  H  H28  1  0.34254441  0.84985318  0.42946214  1.0
  H  H29  1  0.84985054  0.80760530  0.42946198  1.0
  H  H30  1  0.80760290  0.34254476  0.42946179  1.0
  H  H31  1  0.19239844  0.15014653  0.07053803  1.0
  H  H32  1  0.65745576  0.19239501  0.07053852  1.0
  H  H33  1  0.15014745  0.65745562  0.07053765  1.0
  H  H34  1  0.65745490  0.15014686  0.57053798  1.0
  H  H35  1  0.15014964  0.19239548  0.57053876  1.0
  H  H36  1  0.19239640  0.65745530  0.57053833  1.0
  H  H37  1  0.80760185  0.84985280  0.92946148  1.0
  H  H38  1  0.34254416  0.80760505  0.92946099  1.0
  H  H39  1  0.84985185  0.34254444  0.92946187  1.0
  H  H40  1  0.24422767  0.02382855  0.46705913  1.0
  H  H41  1  0.02382515  0.73194825  0.46706071  1.0
  H  H42  1  0.73194868  0.24422490  0.46706151  1.0
  H  H43  1  0.26805588  0.97617117  0.03294044  1.0
  H  H44  1  0.75577322  0.26805143  0.03293940  1.0
  H  H45  1  0.97617300  0.75577538  0.03293832  1.0
  H  H46  1  0.75577225  0.97617150  0.53294039  1.0
  H  H47  1  0.97617576  0.26805108  0.53293881  1.0
  H  H48  1  0.26805125  0.75577515  0.53293861  1.0
  H  H49  1  0.73194378  0.02382816  0.96705968  1.0
  H  H50  1  0.24422707  0.73194790  0.96706073  1.0
  H  H51  1  0.02382630  0.24422468  0.96706180  1.0
  H  H52  1  0.44031922  0.08750757  0.63672441  1.0
  H  H53  1  0.08750302  0.47217674  0.63672346  1.0
  H  H54  1  0.47217480  0.44031852  0.63672455  1.0
  H  H55  1  0.52782714  0.91249288  0.86327520  1.0
  H  H56  1  0.55968051  0.52782305  0.86327625  1.0
  H  H57  1  0.91249349  0.55968117  0.86327616  1.0
  H  H58  1  0.55968008  0.91249248  0.36327511  1.0
  H  H59  1  0.91249628  0.52782332  0.36327667  1.0
  H  H60  1  0.52782513  0.55968153  0.36327558  1.0
  H  H61  1  0.47217279  0.08750717  0.13672431  1.0
  H  H62  1  0.44032004  0.47217700  0.13672449  1.0
  H  H63  1  0.08750581  0.44031889  0.13672397  1.0
  H  H64  1  0.56801041  0.09148520  0.69733028  1.0
  H  H65  1  0.09148378  0.34050684  0.69732931  1.0
  H  H66  1  0.34050530  0.56800950  0.69732994  1.0
  H  H67  1  0.65949575  0.90851450  0.80266926  1.0
  H  H68  1  0.43199039  0.65949369  0.80267043  1.0
  H  H69  1  0.90851467  0.43199092  0.80267020  1.0
  H  H70  1  0.43198951  0.90851485  0.30266924  1.0
  H  H71  1  0.90851578  0.65949394  0.30267082  1.0
  H  H72  1  0.65949462  0.43199056  0.30267019  1.0
  H  H73  1  0.34050356  0.09148555  0.19733087  1.0
  H  H74  1  0.56801015  0.34050637  0.19732969  1.0
  H  H75  1  0.09148463  0.56800913  0.19732993  1.0
  H  H76  1  0.68381590  0.99087197  0.67937132  1.0
  H  H77  1  0.99087152  0.32531301  0.67937156  1.0
  H  H78  1  0.32531196  0.68381598  0.67937251  1.0
  H  H79  1  0.67468860  0.00912772  0.82062817  1.0
  H  H80  1  0.31618415  0.67468739  0.82062856  1.0
  H  H81  1  0.00912756  0.31618456  0.82062728  1.0
  H  H82  1  0.31618340  0.00912809  0.32062819  1.0
  H  H83  1  0.00912841  0.67468704  0.32062856  1.0
  H  H84  1  0.67468797  0.31618406  0.32062761  1.0
  H  H85  1  0.32531168  0.99087162  0.17937195  1.0
  H  H86  1  0.68381640  0.32531266  0.17937157  1.0
  H  H87  1  0.99087236  0.68381550  0.17937223  1.0
  H  H88  1  0.61132420  0.89362844  0.64589690  1.0
  H  H89  1  0.89362700  0.49504815  0.64589726  1.0
  H  H90  1  0.49504699  0.61132431  0.64589743  1.0
  H  H91  1  0.50495234  0.10637200  0.85410327  1.0
  H  H92  1  0.38867540  0.50495227  0.85410287  1.0
  H  H93  1  0.10637188  0.38867549  0.85410290  1.0
  H  H94  1  0.38867572  0.10637161  0.35410261  1.0
  H  H95  1  0.10637292  0.50495191  0.35410286  1.0
  H  H96  1  0.50495329  0.38867503  0.35410270  1.0
  H  H97  1  0.49504723  0.89362877  0.14589685  1.0
  H  H98  1  0.61132578  0.49504778  0.14589726  1.0
  H  H99  1  0.89362804  0.61132457  0.14589722  1.0
  C  C100  1  0.44910855  0.96343594  0.57497574  1.0
  C  C101  1  0.96343200  0.58746005  0.57497483  1.0
  C  C102  1  0.58745601  0.44910832  0.57497488  1.0
  C  C103  1  0.41254512  0.03656381  0.92502451  1.0
  C  C104  1  0.55089167  0.41254033  0.92502523  1.0
  C  C105  1  0.03656484  0.55089146  0.92502544  1.0
  C  C106  1  0.55089075  0.03656412  0.42502438  1.0
  C  C107  1  0.03656819  0.41254072  0.42502590  1.0
  C  C108  1  0.41254392  0.55089173  0.42502524  1.0
  C  C109  1  0.58745517  0.96343552  0.07497562  1.0
  C  C110  1  0.44910790  0.58746044  0.07497489  1.0
  C  C111  1  0.96343509  0.44910858  0.07497469  1.0
  C  C112  1  0.50538953  0.86254071  0.55533403  1.0
  C  C113  1  0.86253764  0.63207544  0.55533565  1.0
  C  C114  1  0.63206995  0.50538956  0.55533385  1.0
  C  C115  1  0.36792995  0.13745833  0.94466621  1.0
  C  C116  1  0.49461268  0.36792497  0.94466445  1.0
  C  C117  1  0.13745967  0.49461093  0.94466704  1.0
  C  C118  1  0.49461138  0.13745863  0.44466670  1.0
  C  C119  1  0.13746219  0.36792605  0.44466508  1.0
  C  C120  1  0.36792961  0.49461121  0.44466628  1.0
  C  C121  1  0.63206945  0.86254029  0.05533391  1.0
  C  C122  1  0.50538724  0.63207509  0.05533567  1.0
  C  C123  1  0.86253989  0.50538985  0.05533309  1.0
  C  C124  1  0.46404402  0.82440425  0.50131584  1.0
  C  C125  1  0.82440090  0.71155750  0.50131812  1.0
  C  C126  1  0.71155170  0.46404382  0.50131501  1.0
  C  C127  1  0.28844820  0.17559552  0.99868444  1.0
  C  C128  1  0.53595798  0.28844291  0.99868259  1.0
  C  C129  1  0.17559565  0.53595664  0.99868523  1.0
  C  C130  1  0.53595590  0.17559581  0.49868428  1.0
  C  C131  1  0.17559919  0.28844471  0.49868444  1.0
  C  C132  1  0.28844823  0.53595623  0.49868511  1.0
  C  C133  1  0.71155209  0.82440381  0.00131568  1.0
  C  C134  1  0.46404194  0.71155715  0.00131753  1.0
  C  C135  1  0.82440428  0.46404341  0.00131489  1.0
  C  C136  1  0.35546293  0.01978554  0.54226502  1.0
  C  C137  1  0.01978201  0.62475686  0.54226659  1.0
  C  C138  1  0.62475470  0.35546164  0.54226569  1.0
  C  C139  1  0.37524846  0.98021423  0.95773527  1.0
  C  C140  1  0.64453835  0.37524292  0.95773311  1.0
  C  C141  1  0.98021609  0.64453873  0.95773434  1.0
  C  C142  1  0.64453735  0.98021380  0.45773510  1.0
  C  C143  1  0.98021890  0.37524247  0.45773354  1.0
  C  C144  1  0.37524523  0.64453841  0.45773443  1.0
  C  C145  1  0.62475147  0.01978582  0.04226486  1.0
  C  C146  1  0.35546157  0.62475714  0.04226701  1.0
  C  C147  1  0.01978321  0.35546132  0.04226518  1.0
  C  C148  1  0.37196506  0.88152937  0.47103390  1.0
  C  C149  1  0.88152560  0.74651051  0.47103612  1.0
  C  C150  1  0.74650736  0.37196418  0.47103479  1.0
  C  C151  1  0.25349469  0.11847034  0.02896625  1.0
  C  C152  1  0.62803605  0.25348979  0.02896437  1.0
  C  C153  1  0.11847198  0.62803621  0.02896529  1.0
  C  C154  1  0.62803486  0.11847069  0.52896623  1.0
  C  C155  1  0.11847521  0.25349026  0.52896461  1.0
  C  C156  1  0.25349194  0.62803587  0.52896533  1.0
  C  C157  1  0.74650559  0.88152900  0.97103387  1.0
  C  C158  1  0.37196388  0.74651026  0.97103575  1.0
  C  C159  1  0.88152794  0.37196384  0.97103484  1.0
  C  C160  1  0.31646650  0.97984050  0.49155527  1.0
  C  C161  1  0.97983602  0.70369868  0.49155678  1.0
  C  C162  1  0.70369546  0.31646493  0.49155670  1.0
  C  C163  1  0.29630667  0.02015921  0.00844489  1.0
  C  C164  1  0.68353465  0.29630160  0.00844367  1.0
  C  C165  1  0.02016020  0.68353548  0.00844342  1.0
  C  C166  1  0.68353378  0.02015884  0.50844425  1.0
  C  C167  1  0.02016453  0.29630137  0.50844335  1.0
  C  C168  1  0.29630348  0.68353585  0.50844343  1.0
  C  C169  1  0.70369263  0.97984085  0.99155524  1.0
  C  C170  1  0.31646527  0.70369846  0.99155645  1.0
  C  C171  1  0.97983946  0.31646386  0.99155670  1.0
  C  C172  1  0.48518759  0.01034842  0.62494739  1.0
  C  C173  1  0.01034518  0.50446870  0.62494713  1.0
  C  C174  1  0.50446669  0.48518712  0.62494880  1.0
  C  C175  1  0.49553606  0.98965132  0.87505282  1.0
  C  C176  1  0.51481401  0.49553110  0.87505200  1.0
  C  C177  1  0.98965400  0.51481255  0.87505126  1.0
  C  C178  1  0.51481234  0.98965163  0.37505273  1.0
  C  C179  1  0.98965474  0.49553136  0.37505239  1.0
  C  C180  1  0.49553323  0.51481294  0.37505072  1.0
  C  C181  1  0.50446485  0.01034801  0.12494791  1.0
  C  C182  1  0.48518592  0.50446895  0.12494751  1.0
  C  C183  1  0.01034593  0.48518750  0.12494825  1.0
  C  C184  1  0.61244109  0.01343328  0.70489663  1.0
  C  C185  1  0.01343202  0.37412684  0.70489635  1.0
  C  C186  1  0.37412610  0.61244072  0.70489634  1.0
  C  C187  1  0.62587449  0.98656643  0.79510351  1.0
  C  C188  1  0.38755900  0.62587298  0.79510343  1.0
  C  C189  1  0.98656672  0.38755968  0.79510376  1.0
  C  C190  1  0.38755884  0.98656677  0.29510349  1.0
  C  C191  1  0.98656728  0.62587322  0.29510317  1.0
  C  C192  1  0.62587382  0.38755933  0.29510378  1.0
  C  C193  1  0.37412543  0.01343363  0.20489662  1.0
  C  C194  1  0.61244093  0.37412707  0.20489609  1.0
  C  C195  1  0.01343321  0.61244037  0.20489637  1.0
  N  N196  1  0.57079507  0.96650641  0.65836890  1.0
  N  N197  1  0.96650409  0.46270006  0.65836796  1.0
  N  N198  1  0.46269948  0.57079228  0.65836755  1.0
  N  N199  1  0.53730182  0.03349403  0.84163128  1.0
  N  N200  1  0.42920441  0.53730033  0.84163152  1.0
  N  N201  1  0.03349233  0.42920753  0.84163220  1.0
  N  N202  1  0.42920423  0.03349364  0.34163123  1.0
  N  N203  1  0.03349548  0.53730071  0.34163156  1.0
  N  N204  1  0.53730045  0.42920777  0.34163197  1.0
  N  N205  1  0.46269836  0.96650675  0.15836884  1.0
  N  N206  1  0.57079516  0.46270044  0.15836799  1.0
  N  N207  1  0.96650723  0.57079325  0.15836731  1.0
  N  N208  1  0.79144361  0.72248405  0.76180938  1.0
  N  N209  1  0.72248681  0.48607151  0.76180808  1.0
  N  N210  1  0.48607025  0.79143768  0.76180767  1.0
  N  N211  1  0.51392599  0.27751421  0.73818953  1.0
  N  N212  1  0.20855836  0.51392823  0.73819154  1.0
  N  N213  1  0.27750864  0.20856208  0.73819139  1.0
  N  N214  1  0.20855953  0.27751456  0.23818953  1.0
  N  N215  1  0.27751312  0.51392853  0.23819143  1.0
  N  N216  1  0.51392968  0.20856236  0.23819184  1.0
  N  N217  1  0.48607305  0.72248513  0.26181060  1.0
  N  N218  1  0.79144157  0.48607182  0.26180858  1.0
  N  N219  1  0.72249191  0.79143797  0.26180813  1.0
  O  O220  1  0.59140998  0.80872557  0.58609651  1.0
  O  O221  1  0.80872268  0.59986696  0.58609636  1.0
  O  O222  1  0.59986397  0.59141037  0.58609581  1.0
  O  O223  1  0.40013591  0.19127344  0.91390309  1.0
  O  O224  1  0.40858987  0.40013346  0.91390379  1.0
  O  O225  1  0.19127329  0.40859011  0.91390446  1.0
  O  O226  1  0.40859030  0.19127376  0.41390301  1.0
  O  O227  1  0.19127715  0.40013453  0.41390437  1.0
  O  O228  1  0.40013721  0.40858968  0.41390431  1.0
  O  O229  1  0.59986412  0.80872517  0.08609703  1.0
  O  O230  1  0.59141032  0.59986731  0.08609634  1.0
  O  O231  1  0.80872565  0.59141067  0.08609566  1.0
  O  O232  1  0.74291823  0.77148992  0.69997940  1.0
  O  O233  1  0.77148764  0.48559018  0.69997380  1.0
  O  O234  1  0.48559267  0.74291876  0.69997156  1.0
  O  O235  1  0.51440626  0.22851122  0.80002135  1.0
  O  O236  1  0.25707746  0.51441027  0.80002579  1.0
  O  O237  1  0.22851146  0.25708101  0.80002812  1.0
  O  O238  1  0.25708258  0.22851085  0.30002134  1.0
  O  O239  1  0.22851192  0.51441060  0.30002572  1.0
  O  O240  1  0.51440725  0.25708130  0.30002795  1.0
  O  O241  1  0.48559295  0.77149027  0.19998060  1.0
  O  O242  1  0.74292247  0.48558978  0.19997372  1.0
  O  O243  1  0.77148846  0.74291904  0.19997200  1.0
  O  O244  1  0.78788098  0.64557744  0.77780175  1.0
  O  O245  1  0.64557869  0.56654067  0.77780115  1.0
  O  O246  1  0.56653539  0.78788383  0.77780066  1.0
  O  O247  1  0.43345628  0.35442299  0.72219839  1.0
  O  O248  1  0.21211905  0.43345981  0.72219849  1.0
  O  O249  1  0.35441994  0.21211592  0.72219957  1.0
  O  O250  1  0.21212019  0.35442262  0.22219837  1.0
  O  O251  1  0.35442123  0.43345939  0.22219836  1.0
  O  O252  1  0.43346489  0.21211551  0.22219946  1.0
  O  O253  1  0.56654302  0.64557706  0.27780234  1.0
  O  O254  1  0.78788087  0.56654025  0.27780163  1.0
  O  O255  1  0.64558096  0.78788342  0.27780055  1.0
  O  O256  1  0.83862085  0.74773593  0.80397040  1.0
  O  O257  1  0.74774306  0.41364610  0.80397332  1.0
  O  O258  1  0.41364357  0.83860125  0.80397360  1.0
  O  O259  1  0.58635259  0.25225871  0.69602543  1.0
  O  O260  1  0.16138946  0.58635437  0.69602631  1.0
  O  O261  1  0.25224493  0.16139853  0.69602610  1.0
  O  O262  1  0.16138881  0.25225836  0.19602608  1.0
  O  O263  1  0.25225650  0.58635468  0.19602619  1.0
  O  O264  1  0.58635671  0.16139809  0.19602592  1.0
  O  O265  1  0.41364556  0.74773991  0.30397287  1.0
  O  O266  1  0.83861046  0.41364569  0.30397382  1.0
  O  O267  1  0.74775499  0.83860153  0.30397402  1.0
