# generated using pymatgen
data_Zn4H6C24S6O19F2
_symmetry_space_group_name_H-M   'P 1'
_cell_length_a   19.60997772
_cell_length_b   19.64778104
_cell_length_c   33.25769896
_cell_angle_alpha   79.31360899
_cell_angle_beta   79.44204370
_cell_angle_gamma   64.07312166
_symmetry_Int_Tables_number   1
_chemical_formula_structural   Zn4H6C24S6O19F2
_chemical_formula_sum   'Zn16 H24 C96 S24 O76 F8'
_cell_volume   11248.48029187
_cell_formula_units_Z   4
loop_
 _symmetry_equiv_pos_site_id
 _symmetry_equiv_pos_as_xyz
  1  'x, y, z'
loop_
 _atom_site_type_symbol
 _atom_site_label
 _atom_site_symmetry_multiplicity
 _atom_site_fract_x
 _atom_site_fract_y
 _atom_site_fract_z
 _atom_site_occupancy
  Zn  Zn0  1  0.05596343  0.39792589  0.47989340  1.0
  Zn  Zn1  1  0.98608517  0.48012359  0.56117358  1.0
  Zn  Zn2  1  0.05667085  0.56214586  0.48181498  1.0
  Zn  Zn3  1  0.90270662  0.55690390  0.47870890  1.0
  Zn  Zn4  1  0.69240194  0.34924206  0.27284756  1.0
  Zn  Zn5  1  0.68550629  0.19244239  0.26719531  1.0
  Zn  Zn6  1  0.77130765  0.26525080  0.19069611  1.0
  Zn  Zn7  1  0.84860392  0.19375360  0.27046495  1.0
  Zn  Zn8  1  0.27012637  0.76460884  0.68906044  1.0
  Zn  Zn9  1  0.35219492  0.69562451  0.77035369  1.0
  Zn  Zn10  1  0.19143145  0.84640582  0.77183393  1.0
  Zn  Zn11  1  0.18968014  0.69138369  0.76821099  1.0
  Zn  Zn12  1  0.55824707  0.06356391  0.98256619  1.0
  Zn  Zn13  1  0.40073989  0.05807049  0.97688599  1.0
  Zn  Zn14  1  0.55596396  0.90104790  0.98005134  1.0
  Zn  Zn15  1  0.48394519  0.97934419  0.05932420  1.0
  H  H16  1  0.75001356  0.44955298  0.34902610  1.0
  H  H17  1  0.00155766  0.29988012  0.40046098  1.0
  H  H18  1  0.20057627  0.70130218  0.60069865  1.0
  H  H19  1  0.04982455  0.54931844  0.64957390  1.0
  H  H20  1  0.46164932  0.24046001  0.34227302  1.0
  H  H21  1  0.48111781  0.69908912  0.59996223  1.0
  H  H22  1  0.20169138  0.97629160  0.60244060  1.0
  H  H23  1  0.94292902  0.97749885  0.35084532  1.0
  H  H24  1  0.65012574  0.14799127  0.04925185  1.0
  H  H25  1  0.60073890  0.10032376  0.20073228  1.0
  H  H26  1  0.54799542  0.76804882  0.14918279  1.0
  H  H27  1  0.16455166  0.13748107  0.03974542  1.0
  H  H28  1  0.29943672  0.00051552  0.90119092  1.0
  H  H29  1  0.44941438  0.75010909  0.84942181  1.0
  H  H30  1  0.29995309  0.28206009  0.89990100  1.0
  H  H31  1  0.78695281  0.00966965  0.91154010  1.0
  H  H32  1  0.84381368  0.57251741  0.39996690  1.0
  H  H33  1  0.96554169  0.23520322  0.29155047  1.0
  H  H34  1  0.07033532  0.68636056  0.51395223  1.0
  H  H35  1  0.06304935  0.67996325  0.73663251  1.0
  H  H36  1  0.79397489  0.17815043  0.12181366  1.0
  H  H37  1  0.57176723  0.95606750  0.12829082  1.0
  H  H38  1  0.17750148  0.90606352  0.84997740  1.0
  H  H39  1  0.51364769  0.78505898  0.95859018  1.0
  C  C40  1  0.06223950  0.31352954  0.56287589  1.0
  C  C41  1  0.06500522  0.57370174  0.56873784  1.0
  C  C42  1  0.18144773  0.43980919  0.43951874  1.0
  C  C43  1  0.93652037  0.68662577  0.43785796  1.0
  C  C44  1  0.93419074  0.43296010  0.42875426  1.0
  C  C45  1  0.81903315  0.56025975  0.56076385  1.0
  C  C46  1  0.56322427  0.31261548  0.31223784  1.0
  C  C47  1  0.68566011  0.17694491  0.18083956  1.0
  C  C48  1  0.69056986  0.43092904  0.18892820  1.0
  C  C49  1  0.93778488  0.18568838  0.18903020  1.0
  C  C50  1  0.82177183  0.32109716  0.31626643  1.0
  C  C51  1  0.80842428  0.06868118  0.31087192  1.0
  C  C52  1  0.43660896  0.68868290  0.68717179  1.0
  C  C53  1  0.31607191  0.81752485  0.82107909  1.0
  C  C54  1  0.18961047  0.93103401  0.68935106  1.0
  C  C55  1  0.06362141  0.81004903  0.81252446  1.0
  C  C56  1  0.17674826  0.68563215  0.68139750  1.0
  C  C57  1  0.31290758  0.56854587  0.81049265  1.0
  C  C58  1  0.43649726  0.18697464  0.93785454  1.0
  C  C59  1  0.42831686  0.92865645  0.93395065  1.0
  C  C60  1  0.68140085  0.94119207  0.93904928  1.0
  C  C61  1  0.56242186  0.81321150  0.06220043  1.0
  C  C62  1  0.57367997  0.06318299  0.06907928  1.0
  C  C63  1  0.31797216  0.06142859  0.06037019  1.0
  C  C64  1  0.90085609  0.40564739  0.40124892  1.0
  C  C65  1  0.85227926  0.34532997  0.34663727  1.0
  C  C66  1  0.82859427  0.44710719  0.38694602  1.0
  C  C67  1  0.92331952  0.30261903  0.36217255  1.0
  C  C68  1  0.80576166  0.41680910  0.35997985  1.0
  C  C69  1  0.94649121  0.33322839  0.38881116  1.0
  C  C70  1  0.09802070  0.60125921  0.59625307  1.0
  C  C71  1  0.14930635  0.65246811  0.65400039  1.0
  C  C72  1  0.14223176  0.64353303  0.58276953  1.0
  C  C73  1  0.10741128  0.60791684  0.66750918  1.0
  C  C74  1  0.16670493  0.66854202  0.61152486  1.0
  C  C75  1  0.08235913  0.58344422  0.63874238  1.0
  C  C76  1  0.30180704  0.45472639  0.40176473  1.0
  C  C77  1  0.44424485  0.29755734  0.35004063  1.0
  C  C78  1  0.25597046  0.41542756  0.41479005  1.0
  C  C79  1  0.48864751  0.33805796  0.33728191  1.0
  C  C80  1  0.37597520  0.34058436  0.37352603  1.0
  C  C81  1  0.37039339  0.41286081  0.37811960  1.0
  C  C82  1  0.72793066  0.57693688  0.62796612  1.0
  C  C83  1  0.52622186  0.67135817  0.61997900  1.0
  C  C84  1  0.74443986  0.58452033  0.58535498  1.0
  C  C85  1  0.51154845  0.66300292  0.66251110  1.0
  C  C86  1  0.60551146  0.63944571  0.60749385  1.0
  C  C87  1  0.64901601  0.60783097  0.64109944  1.0
  C  C88  1  0.07865533  0.22246273  0.63035348  1.0
  C  C89  1  0.17392186  0.02116201  0.62245524  1.0
  C  C90  1  0.08714056  0.23910455  0.58776187  1.0
  C  C91  1  0.16491918  0.00622077  0.66498354  1.0
  C  C92  1  0.14256186  0.10031448  0.61000873  1.0
  C  C93  1  0.11016169  0.14355586  0.64357961  1.0
  C  C94  1  0.84393945  0.80198540  0.39516818  1.0
  C  C95  1  0.90039684  0.95485406  0.35362334  1.0
  C  C96  1  0.91138522  0.76109033  0.41307065  1.0
  C  C97  1  0.83300626  0.99402093  0.33582882  1.0
  C  C98  1  0.90424593  0.88441379  0.37503516  1.0
  C  C99  1  0.83914713  0.87223092  0.37320119  1.0
  C  C100  1  0.65569187  0.15177047  0.15056814  1.0
  C  C101  1  0.59810209  0.09360121  0.09940498  1.0
  C  C102  1  0.66820580  0.16600877  0.10728538  1.0
  C  C103  1  0.58324132  0.08167228  0.14267948  1.0
  C  C104  1  0.63984304  0.13673870  0.08259852  1.0
  C  C105  1  0.61229956  0.11025543  0.16738248  1.0
  C  C106  1  0.67454460  0.52180376  0.12131645  1.0
  C  C107  1  0.57705418  0.72321915  0.12917851  1.0
  C  C108  1  0.66542249  0.50520316  0.16391316  1.0
  C  C109  1  0.58747491  0.73815634  0.08668345  1.0
  C  C110  1  0.60921997  0.64401868  0.14163534  1.0
  C  C111  1  0.64294232  0.60074214  0.10812786  1.0
  C  C112  1  0.08454746  0.12514787  0.17721215  1.0
  C  C113  1  0.17250544  0.12297181  0.07224044  1.0
  C  C114  1  0.01219380  0.16175380  0.16427137  1.0
  C  C115  1  0.24392303  0.08646944  0.08593208  1.0
  C  C116  1  0.11454639  0.13733586  0.10578078  1.0
  C  C117  1  0.14362776  0.11100683  0.14423975  1.0
  C  C118  1  0.34331792  0.85057149  0.84872573  1.0
  C  C119  1  0.40390440  0.89844586  0.90353478  1.0
  C  C120  1  0.30176206  0.92247207  0.86315656  1.0
  C  C121  1  0.44664474  0.82774121  0.88792330  1.0
  C  C122  1  0.33219889  0.94499347  0.89019997  1.0
  C  C123  1  0.41594990  0.80490245  0.86115702  1.0
  C  C124  1  0.40519334  0.45162562  0.85251421  1.0
  C  C125  1  0.34431889  0.30257750  0.89598005  1.0
  C  C126  1  0.33740328  0.49391693  0.83510394  1.0
  C  C127  1  0.41247840  0.26160140  0.91287672  1.0
  C  C128  1  0.34211018  0.37191342  0.87375787  1.0
  C  C129  1  0.40887648  0.38184899  0.87458517  1.0
  C  C130  1  0.94134829  0.79769564  0.84898391  1.0
  C  C131  1  0.80238753  0.95380619  0.90260668  1.0
  C  C132  1  0.98899109  0.83521952  0.83705227  1.0
  C  C133  1  0.75588893  0.91529508  0.91394495  1.0
  C  C134  1  0.86987646  0.91066071  0.87864784  1.0
  C  C135  1  0.87298990  0.84008239  0.87260046  1.0
  S  S136  1  0.29729668  0.32565529  0.39785476  1.0
  S  S137  1  0.44840531  0.42821727  0.35358644  1.0
  S  S138  1  0.66194079  0.62980989  0.56073044  1.0
  S  S139  1  0.59315059  0.61653140  0.68776712  1.0
  S  S140  1  0.13439483  0.15687108  0.56326927  1.0
  S  S141  1  0.11887972  0.08748328  0.69026262  1.0
  S  S142  1  0.97013543  0.80939566  0.40300098  1.0
  S  S143  1  0.77375775  0.94640075  0.34494886  1.0
  S  S144  1  0.61739442  0.58747764  0.18837173  1.0
  S  S145  1  0.63586428  0.65684957  0.06149614  1.0
  S  S146  1  0.01617462  0.17943222  0.11076168  1.0
  S  S147  1  0.24169716  0.06957443  0.13933571  1.0
  S  S148  1  0.27697204  0.44745000  0.84565512  1.0
  S  S149  1  0.47438151  0.30635253  0.90210248  1.0
  S  S150  1  0.94974002  0.92402875  0.85499017  1.0
  S  S151  1  0.79304509  0.82698661  0.89570165  1.0
  S  S152  1  0.75744442  0.53667642  0.40329121  1.0
  S  S153  1  0.98701106  0.20599533  0.35279869  1.0
  S  S154  1  0.17651004  0.66402844  0.52974952  1.0
  S  S155  1  0.08714376  0.57362959  0.72060216  1.0
  S  S156  1  0.71398516  0.22618345  0.07982880  1.0
  S  S157  1  0.52287042  0.03606442  0.17000684  1.0
  S  S158  1  0.21179449  0.99331708  0.84690216  1.0
  S  S159  1  0.54350314  0.76413781  0.89733293  1.0
  O  O160  1  0.00100234  0.49790808  0.50056884  1.0
  O  O161  1  0.08013679  0.31268471  0.52381065  1.0
  O  O162  1  0.04696968  0.51911799  0.58431175  1.0
  O  O163  1  0.15542482  0.50416369  0.45323912  1.0
  O  O164  1  0.02520204  0.37220025  0.58194173  1.0
  O  O165  1  0.14926567  0.39369512  0.44502274  1.0
  O  O166  1  0.05498959  0.60759248  0.53190959  1.0
  O  O167  1  0.00401350  0.65920164  0.44858418  1.0
  O  O168  1  0.90805667  0.50492238  0.43050195  1.0
  O  O169  1  0.88980893  0.65530335  0.44681457  1.0
  O  O170  1  0.98815270  0.38246598  0.44788855  1.0
  O  O171  1  0.87779111  0.53201085  0.58014445  1.0
  O  O172  1  0.81807894  0.57033034  0.52154895  1.0
  O  O173  1  0.74809289  0.25060445  0.25066841  1.0
  O  O174  1  0.59343255  0.36042849  0.30299531  1.0
  O  O175  1  0.65162015  0.17990834  0.21714872  1.0
  O  O176  1  0.72162650  0.37197264  0.16978415  1.0
  O  O177  1  0.59129456  0.24528573  0.30188056  1.0
  O  O178  1  0.67882037  0.43238122  0.22809246  1.0
  O  O179  1  0.74439067  0.19176374  0.16890922  1.0
  O  O180  1  0.87953500  0.22279860  0.16903133  1.0
  O  O181  1  0.86885502  0.27063887  0.29307418  1.0
  O  O182  1  0.93653448  0.16796156  0.22802415  1.0
  O  O183  1  0.75034747  0.35408624  0.31467735  1.0
  O  O184  1  0.74500489  0.09271676  0.29586399  1.0
  O  O185  1  0.85249810  0.10265000  0.30632912  1.0
  O  O186  1  0.25199734  0.74924383  0.74948404  1.0
  O  O187  1  0.37814832  0.72539657  0.66764656  1.0
  O  O188  1  0.36684880  0.76457820  0.80157325  1.0
  O  O189  1  0.17762629  0.93077541  0.72859409  1.0
  O  O190  1  0.43679594  0.67186759  0.72627861  1.0
  O  O191  1  0.22031402  0.87305873  0.66939425  1.0
  O  O192  1  0.24394525  0.84272593  0.81959600  1.0
  O  O193  1  0.09339340  0.85844423  0.80383988  1.0
  O  O194  1  0.14310143  0.69526896  0.71821038  1.0
  O  O195  1  0.09301749  0.74292674  0.80186817  1.0
  O  O196  1  0.23097112  0.70436134  0.66570376  1.0
  O  O197  1  0.35661968  0.60293754  0.80557885  1.0
  O  O198  1  0.24870001  0.59250209  0.79626441  1.0
  O  O199  1  0.49925882  0.00169115  0.99936590  1.0
  O  O200  1  0.50407974  0.15827318  0.94847482  1.0
  O  O201  1  0.39554045  0.99998045  0.93538317  1.0
  O  O202  1  0.64729129  0.89689100  0.94437866  1.0
  O  O203  1  0.38837814  0.15727515  0.94681034  1.0
  O  O204  1  0.65750599  0.00481287  0.95337058  1.0
  O  O205  1  0.47864862  0.88139613  0.95732398  1.0
  O  O206  1  0.58151762  0.81397489  0.02318771  1.0
  O  O207  1  0.55855712  0.00465245  0.08110846  1.0
  O  O208  1  0.52379850  0.87141111  0.08163358  1.0
  O  O209  1  0.57161822  0.09650536  0.03258924  1.0
  O  O210  1  0.31687231  0.07232763  0.02134075  1.0
  O  O211  1  0.37704386  0.03046896  0.07985130  1.0
  O  O212  1  0.79718225  0.59290400  0.38519862  1.0
  O  O213  1  0.69320722  0.56073227  0.38095919  1.0
  O  O214  1  0.74863323  0.52767882  0.44763163  1.0
  O  O215  1  0.01367105  0.21621210  0.30482791  1.0
  O  O216  1  0.05337093  0.18337751  0.37312639  1.0
  O  O217  1  0.94238751  0.16197832  0.36120667  1.0
  O  O218  1  0.09930180  0.71889757  0.51069555  1.0
  O  O219  1  0.21725026  0.70977750  0.52877974  1.0
  O  O220  1  0.21216133  0.59321747  0.51210847  1.0
  O  O221  1  0.03117332  0.65059556  0.73935143  1.0
  O  O222  1  0.04232992  0.53197057  0.72157491  1.0
  O  O223  1  0.15787700  0.53914816  0.73860020  1.0
  O  O224  1  0.79906324  0.17948290  0.09105538  1.0
  O  O225  1  0.71752508  0.22454237  0.03657397  1.0
  O  O226  1  0.67809534  0.29700177  0.09745069  1.0
  O  O227  1  0.56983460  0.95097009  0.15913159  1.0
  O  O228  1  0.52387419  0.03288412  0.21329895  1.0
  O  O229  1  0.45210405  0.07149238  0.15202607  1.0
  O  O230  1  0.15614234  0.95275953  0.86472704  1.0
  O  O231  1  0.18728182  0.05709015  0.86948154  1.0
  O  O232  1  0.22045941  0.00281950  0.80257442  1.0
  O  O233  1  0.53320358  0.73702420  0.94532444  1.0
  O  O234  1  0.56625659  0.69820238  0.87685828  1.0
  O  O235  1  0.58725619  0.80898281  0.88925182  1.0
  F  F236  1  0.28372667  0.52520159  0.41002513  1.0
  F  F237  1  0.78055339  0.54362968  0.65450184  1.0
  F  F238  1  0.04439175  0.27488737  0.65677613  1.0
  F  F239  1  0.78860198  0.77810160  0.39787511  1.0
  F  F240  1  0.70998475  0.46949677  0.09495812  1.0
  F  F241  1  0.09805578  0.10508969  0.21675608  1.0
  F  F242  1  0.46225519  0.47346576  0.84888772  1.0
  F  F243  1  0.95734796  0.72863762  0.83923443  1.0
