# generated using pymatgen
data_Zn2H24C35(NO4)2
_symmetry_space_group_name_H-M   'P 1'
_cell_length_a   10.96749514
_cell_length_b   11.66243575
_cell_length_c   13.22082034
_cell_angle_alpha   96.52017453
_cell_angle_beta   96.22333265
_cell_angle_gamma   104.83771808
_symmetry_Int_Tables_number   1
_chemical_formula_structural   Zn2H24C35(NO4)2
_chemical_formula_sum   'Zn2 H24 C35 N2 O8'
_cell_volume   1607.35709784
_cell_formula_units_Z   1
loop_
 _symmetry_equiv_pos_site_id
 _symmetry_equiv_pos_as_xyz
  1  'x, y, z'
loop_
 _atom_site_type_symbol
 _atom_site_label
 _atom_site_symmetry_multiplicity
 _atom_site_fract_x
 _atom_site_fract_y
 _atom_site_fract_z
 _atom_site_occupancy
  Zn  Zn0  1  0.53784679  0.63329856  0.52470965  1.0
  Zn  Zn1  1  0.46353287  0.38394258  0.50403483  1.0
  H  H2  1  0.85414015  0.35738605  0.57512816  1.0
  H  H3  1  0.58011419  0.20622566  0.41129920  1.0
  H  H4  1  0.82823876  0.71735096  0.44698369  1.0
  H  H5  1  0.95782377  0.85449953  0.34355856  1.0
  H  H6  1  0.14291266  0.80284144  0.27604737  1.0
  H  H7  1  0.07654427  0.34590002  0.55799642  1.0
  H  H8  1  0.66494910  0.69856626  0.84920301  1.0
  H  H9  1  0.27807456  0.31419521  0.99093588  1.0
  H  H10  1  0.33656217  0.66849429  0.34257071  1.0
  H  H11  1  0.23224124  0.52634969  0.29442536  1.0
  H  H12  1  0.23242890  0.64794074  0.22532202  1.0
  H  H13  1  0.69788887  0.71499324  0.04048453  1.0
  H  H14  1  0.18571889  0.50716934  0.79561491  1.0
  H  H15  1  0.16273536  0.43467259  0.90569042  1.0
  H  H16  1  0.09072808  0.35651857  0.78137764  1.0
  H  H17  1  0.30742691  0.36626045  0.73047537  1.0
  H  H18  1  0.28277606  0.28804376  0.83608235  1.0
  H  H19  1  0.32177667  0.32310057  0.17894423  1.0
  H  H20  1  0.63308825  0.63848206  0.19848212  1.0
  H  H21  1  0.41410855  0.80800480  0.60959330  1.0
  H  H22  1  0.67127285  0.81609304  0.40168627  1.0
  H  H23  1  0.31843514  0.98753560  0.64724440  1.0
  H  H24  1  0.66815962  0.02327071  0.36758250  1.0
  H  H25  1  0.31735586  0.19558220  0.61482497  1.0
  C  C26  1  0.49710769  0.48912582  0.31445253  1.0
  C  C27  1  0.37995665  0.38974205  0.13988725  1.0
  C  C28  1  0.55610842  0.56723079  0.15219271  1.0
  C  C29  1  0.74335244  0.52098751  0.52520082  1.0
  C  C30  1  0.53816464  0.56144327  0.04381710  1.0
  C  C31  1  0.43465680  0.46981396  0.98281035  1.0
  C  C32  1  0.41459826  0.46372222  0.87313798  1.0
  C  C33  1  0.60201644  0.63605666  0.88871257  1.0
  C  C34  1  0.61999341  0.64483671  0.99398506  1.0
  C  C35  1  0.37725280  0.03252081  0.59437447  1.0
  C  C36  1  0.37557445  0.14609772  0.57676425  1.0
  C  C37  1  0.95463959  0.60328354  0.45530860  1.0
  C  C38  1  0.52315165  0.15351600  0.46140127  1.0
  C  C39  1  0.53191100  0.03676874  0.47385072  1.0
  C  C40  1  0.45742575  0.97532894  0.54327377  1.0
  C  C41  1  0.49821654  0.53958616  0.71328144  1.0
  C  C42  1  0.46877504  0.85980648  0.55772524  1.0
  C  C43  1  0.61465885  0.86647710  0.44085451  1.0
  C  C44  1  0.61118516  0.97914728  0.42192028  1.0
  C  C45  1  0.25442194  0.48738917  0.48465822  1.0
  C  C46  1  0.91565458  0.70250373  0.42386872  1.0
  C  C47  1  0.98721714  0.77729786  0.36597520  1.0
  C  C48  1  0.87575476  0.51806088  0.50764801  1.0
  C  C49  1  0.09428004  0.74999485  0.33030619  1.0
  C  C50  1  0.13722336  0.65428765  0.35796903  1.0
  C  C51  1  0.07389558  0.58456662  0.42961491  1.0
  C  C52  1  0.24031105  0.62279898  0.30289125  1.0
  C  C53  1  0.29588816  0.37721562  0.81187710  1.0
  C  C54  1  0.17681057  0.42119930  0.82463513  1.0
  C  C55  1  0.91704405  0.42303580  0.53819262  1.0
  C  C56  1  0.03960439  0.41418850  0.52558909  1.0
  C  C57  1  0.11865714  0.49356797  0.47444622  1.0
  C  C58  1  0.50119998  0.54453615  0.82763017  1.0
  C  C59  1  0.47926429  0.48290489  0.20006770  1.0
  C  C60  1  0.35676453  0.38527106  0.03495024  1.0
  N  N61  1  0.54500758  0.80885305  0.50887853  1.0
  N  N62  1  0.44848371  0.20535944  0.51144371  1.0
  O  O63  1  0.54847731  0.59156367  0.36844286  1.0
  O  O64  1  0.45667933  0.39114203  0.34962564  1.0
  O  O65  1  0.72092647  0.62139912  0.55150459  1.0
  O  O66  1  0.66115815  0.41918304  0.51139187  1.0
  O  O67  1  0.52103802  0.63928123  0.67851758  1.0
  O  O68  1  0.47915395  0.43675617  0.65979208  1.0
  O  O69  1  0.34033738  0.58685577  0.49764917  1.0
  O  O70  1  0.27477057  0.38471500  0.48687143  1.0
