# generated using pymatgen
data_Zn4H32C34N8O5
_symmetry_space_group_name_H-M   'P 1'
_cell_length_a   11.55061638
_cell_length_b   11.55060877
_cell_length_c   34.78106376
_cell_angle_alpha   90.00004342
_cell_angle_beta   89.99997736
_cell_angle_gamma   89.99997278
_symmetry_Int_Tables_number   1
_chemical_formula_structural   Zn4H32C34N8O5
_chemical_formula_sum   'Zn8 H64 C68 N16 O10'
_cell_volume   4640.37304013
_cell_formula_units_Z   2
loop_
 _symmetry_equiv_pos_site_id
 _symmetry_equiv_pos_as_xyz
  1  'x, y, z'
loop_
 _atom_site_type_symbol
 _atom_site_label
 _atom_site_symmetry_multiplicity
 _atom_site_fract_x
 _atom_site_fract_y
 _atom_site_fract_z
 _atom_site_occupancy
  Zn  Zn0  1  0.09869150  0.09869173  0.78180232  1.0
  Zn  Zn1  1  0.90130821  0.90130811  0.78180265  1.0
  Zn  Zn2  1  0.09869160  0.90130860  0.28180305  1.0
  Zn  Zn3  1  0.90130784  0.09869184  0.28180289  1.0
  Zn  Zn4  1  0.90130758  0.09869234  0.71819811  1.0
  Zn  Zn5  1  0.09869221  0.90130823  0.71819769  1.0
  Zn  Zn6  1  0.90130768  0.90130747  0.21819770  1.0
  Zn  Zn7  1  0.09869270  0.09869196  0.21819793  1.0
  H  H8  1  0.14857534  0.31467000  0.82695047  1.0
  H  H9  1  0.85142432  0.68533082  0.82695019  1.0
  H  H10  1  0.31466967  0.85142465  0.32695116  1.0
  H  H11  1  0.68533145  0.14857590  0.32695047  1.0
  H  H12  1  0.85142363  0.31466966  0.67304915  1.0
  H  H13  1  0.14857621  0.68533081  0.67304867  1.0
  H  H14  1  0.68533137  0.85142266  0.17304957  1.0
  H  H15  1  0.31466907  0.14857581  0.17304951  1.0
  H  H16  1  0.85142384  0.68533181  0.17304925  1.0
  H  H17  1  0.14857659  0.31466926  0.17304954  1.0
  H  H18  1  0.68533124  0.14857629  0.67304885  1.0
  H  H19  1  0.31466860  0.85142245  0.67304954  1.0
  H  H20  1  0.14857728  0.68533128  0.32695028  1.0
  H  H21  1  0.85142471  0.31467013  0.32695105  1.0
  H  H22  1  0.31466954  0.14857569  0.82695044  1.0
  H  H23  1  0.68533098  0.85142340  0.82695050  1.0
  H  H24  1  0.09940909  0.46059565  0.82617996  1.0
  H  H25  1  0.90059056  0.53940516  0.82617963  1.0
  H  H26  1  0.46059521  0.90059086  0.32618062  1.0
  H  H27  1  0.53940505  0.09940969  0.32618023  1.0
  H  H28  1  0.90059067  0.46059529  0.67381999  1.0
  H  H29  1  0.09940917  0.53940431  0.67381919  1.0
  H  H30  1  0.53940495  0.90058980  0.17381984  1.0
  H  H31  1  0.46059462  0.09940954  0.17381974  1.0
  H  H32  1  0.90059095  0.53940529  0.17381977  1.0
  H  H33  1  0.09941035  0.46059491  0.17381981  1.0
  H  H34  1  0.53940484  0.09940922  0.67381910  1.0
  H  H35  1  0.46059414  0.90058952  0.67381979  1.0
  H  H36  1  0.09941024  0.53940565  0.32618002  1.0
  H  H37  1  0.90059001  0.46059576  0.32618054  1.0
  H  H38  1  0.46059510  0.09940941  0.82618018  1.0
  H  H39  1  0.53940542  0.90059054  0.82618027  1.0
  H  H40  1  0.22161385  0.42048948  0.79864197  1.0
  H  H41  1  0.77838670  0.57951041  0.79864167  1.0
  H  H42  1  0.42049004  0.77838515  0.29864263  1.0
  H  H43  1  0.57951025  0.22161533  0.29864227  1.0
  H  H44  1  0.77838593  0.42049010  0.70135797  1.0
  H  H45  1  0.22161474  0.57951043  0.70135716  1.0
  H  H46  1  0.57951104  0.77838414  0.20135779  1.0
  H  H47  1  0.42048936  0.22161352  0.20135802  1.0
  H  H48  1  0.77838533  0.57951059  0.20135775  1.0
  H  H49  1  0.22161594  0.42048880  0.20135806  1.0
  H  H50  1  0.57950915  0.22161492  0.70135738  1.0
  H  H51  1  0.42048979  0.77838475  0.70135775  1.0
  H  H52  1  0.22161498  0.57951084  0.29864205  1.0
  H  H53  1  0.77838531  0.42048965  0.29864257  1.0
  H  H54  1  0.42048987  0.22161420  0.79864222  1.0
  H  H55  1  0.57951069  0.77838568  0.79864199  1.0
  H  H56  1  0.13122128  0.13122088  0.90166151  1.0
  H  H57  1  0.86878088  0.86878183  0.90166069  1.0
  H  H58  1  0.13121794  0.86878231  0.40166108  1.0
  H  H59  1  0.86877962  0.13122014  0.40166209  1.0
  H  H60  1  0.86878037  0.13121950  0.59833893  1.0
  H  H61  1  0.13121956  0.86877993  0.59833850  1.0
  H  H62  1  0.86877963  0.86878006  0.09833851  1.0
  H  H63  1  0.13121917  0.13121911  0.09833875  1.0
  H  H64  1  0.13232767  0.13232740  0.97227665  1.0
  H  H65  1  0.86767440  0.86767461  0.97227555  1.0
  H  H66  1  0.13232607  0.86767422  0.47227594  1.0
  H  H67  1  0.86767228  0.13232839  0.47227695  1.0
  H  H68  1  0.86767398  0.13232672  0.52772407  1.0
  H  H69  1  0.13232603  0.86767255  0.52772393  1.0
  H  H70  1  0.86767324  0.86767354  0.02772365  1.0
  H  H71  1  0.13232651  0.13232633  0.02772389  1.0
  C  C72  1  0.05848925  0.36224148  0.77552336  1.0
  C  C73  1  0.94151133  0.63775835  0.77552334  1.0
  C  C74  1  0.36224117  0.94151074  0.27552376  1.0
  C  C75  1  0.63775828  0.05848882  0.27552334  1.0
  C  C76  1  0.94151056  0.36224208  0.72447627  1.0
  C  C77  1  0.05848922  0.63775850  0.72447608  1.0
  C  C78  1  0.63775810  0.94150975  0.22447642  1.0
  C  C79  1  0.36224141  0.05848796  0.22447662  1.0
  C  C80  1  0.94151079  0.63775859  0.22447665  1.0
  C  C81  1  0.05848958  0.36224172  0.22447667  1.0
  C  C82  1  0.63775801  0.05848933  0.72447626  1.0
  C  C83  1  0.36224177  0.94150952  0.72447667  1.0
  C  C84  1  0.05849035  0.63775886  0.27552316  1.0
  C  C85  1  0.94151083  0.36224157  0.27552365  1.0
  C  C86  1  0.36224195  0.05848859  0.77552330  1.0
  C  C87  1  0.63775864  0.94151125  0.77552340  1.0
  C  C88  1  0.00000005  0.43665809  0.74999965  1.0
  C  C89  1  0.00000002  0.56334318  0.74999938  1.0
  C  C90  1  0.43665711  0.99999939  0.25000010  1.0
  C  C91  1  0.56334213  0.99999936  0.24999980  1.0
  C  C92  1  0.00000000  0.56334285  0.24999979  1.0
  C  C93  1  0.00000090  0.43665776  0.25000006  1.0
  C  C94  1  0.56334183  0.99999993  0.74999975  1.0
  C  C95  1  0.43665768  0.99999909  0.74999976  1.0
  C  C96  1  0.13606258  0.39081575  0.80849216  1.0
  C  C97  1  0.86393710  0.60918502  0.80849185  1.0
  C  C98  1  0.39081454  0.86393651  0.30849226  1.0
  C  C99  1  0.60918487  0.13606313  0.30849187  1.0
  C  C100  1  0.86393636  0.39081545  0.69150777  1.0
  C  C101  1  0.13606346  0.60918506  0.69150756  1.0
  C  C102  1  0.60918564  0.86393546  0.19150790  1.0
  C  C103  1  0.39081478  0.13606219  0.19150782  1.0
  C  C104  1  0.86393660  0.60918519  0.19150785  1.0
  C  C105  1  0.13606381  0.39081505  0.19150787  1.0
  C  C106  1  0.60918464  0.13606357  0.69150747  1.0
  C  C107  1  0.39081431  0.86393521  0.69150786  1.0
  C  C108  1  0.13606456  0.60918549  0.30849196  1.0
  C  C109  1  0.86393659  0.39081501  0.30849217  1.0
  C  C110  1  0.39081614  0.13606289  0.80849211  1.0
  C  C111  1  0.60918527  0.86393702  0.80849190  1.0
  C  C112  1  0.99999898  0.99999907  0.85402386  1.0
  C  C113  1  0.99999865  0.00000100  0.35402436  1.0
  C  C114  1  0.00000053  0.99999994  0.64597652  1.0
  C  C115  1  0.99999941  0.99999914  0.14597679  1.0
  C  C116  1  0.00000148  0.00000099  0.89698079  1.0
  C  C117  1  0.99999776  0.00000191  0.39698107  1.0
  C  C118  1  0.00000055  0.99999989  0.60301923  1.0
  C  C119  1  0.00000030  0.99999909  0.10301922  1.0
  C  C120  1  0.07372739  0.07372698  0.91754514  1.0
  C  C121  1  0.92627476  0.92627491  0.91754520  1.0
  C  C122  1  0.07372575  0.92627541  0.41754531  1.0
  C  C123  1  0.92627266  0.07372794  0.41754543  1.0
  C  C124  1  0.92627516  0.07372553  0.58245499  1.0
  C  C125  1  0.07372565  0.92627473  0.58245516  1.0
  C  C126  1  0.92627439  0.92627396  0.08245487  1.0
  C  C127  1  0.07372615  0.07372430  0.08245482  1.0
  C  C128  1  0.07358192  0.07358158  0.95749849  1.0
  C  C129  1  0.92641845  0.92641867  0.95749826  1.0
  C  C130  1  0.07358201  0.92641831  0.45749837  1.0
  C  C131  1  0.92641809  0.07358254  0.45749849  1.0
  C  C132  1  0.92641890  0.07358177  0.54250222  1.0
  C  C133  1  0.07358023  0.92641927  0.54250181  1.0
  C  C134  1  0.92641813  0.92641850  0.04250152  1.0
  C  C135  1  0.07358160  0.07358054  0.04250204  1.0
  C  C136  1  0.99999891  0.99999922  0.97868882  1.0
  C  C137  1  0.00000031  0.00000027  0.47868903  1.0
  C  C138  1  0.00000060  0.99999980  0.52131127  1.0
  C  C139  1  0.99999948  0.99999900  0.02131126  1.0
  N  N140  1  0.03595456  0.25152783  0.76568984  1.0
  N  N141  1  0.96404517  0.74847198  0.76568955  1.0
  N  N142  1  0.25152846  0.96404464  0.26568997  1.0
  N  N143  1  0.74847186  0.03595577  0.26568982  1.0
  N  N144  1  0.96404358  0.25152758  0.73431006  1.0
  N  N145  1  0.03595532  0.74847217  0.73430989  1.0
  N  N146  1  0.74847166  0.96404448  0.23431022  1.0
  N  N147  1  0.25152784  0.03595326  0.23431042  1.0
  N  N148  1  0.96404549  0.74847224  0.23431017  1.0
  N  N149  1  0.03595574  0.25152809  0.23431017  1.0
  N  N150  1  0.74847158  0.03595544  0.73431004  1.0
  N  N151  1  0.25152818  0.96404430  0.73431019  1.0
  N  N152  1  0.03595560  0.74847250  0.26568967  1.0
  N  N153  1  0.96404472  0.25152877  0.26569012  1.0
  N  N154  1  0.25152839  0.03595473  0.76568980  1.0
  N  N155  1  0.74847221  0.96404509  0.76568988  1.0
  O  O156  1  0.00000070  0.99999995  0.74999995  1.0
  O  O157  1  0.99999958  0.00000001  0.25000022  1.0
  O  O158  1  0.06985318  0.06985263  0.83753667  1.0
  O  O159  1  0.93014646  0.93014648  0.83753672  1.0
  O  O160  1  0.06985155  0.93014698  0.33753683  1.0
  O  O161  1  0.93014437  0.06985446  0.33753724  1.0
  O  O162  1  0.93014677  0.06985136  0.66246318  1.0
  O  O163  1  0.06985222  0.93014735  0.66246335  1.0
  O  O164  1  0.93014686  0.93014658  0.16246335  1.0
  O  O165  1  0.06985272  0.06985273  0.16246329  1.0
