# generated using pymatgen
data_Zn4H12C27S4O15
_symmetry_space_group_name_H-M   'P 1'
_cell_length_a   19.63614920
_cell_length_b   19.64388578
_cell_length_c   33.27969955
_cell_angle_alpha   79.30537598
_cell_angle_beta   79.32172601
_cell_angle_gamma   64.04001423
_symmetry_Int_Tables_number   1
_chemical_formula_structural   Zn4H12C27S4O15
_chemical_formula_sum   'Zn16 H48 C108 S16 O60'
_cell_volume   11262.31409714
_cell_formula_units_Z   4
loop_
 _symmetry_equiv_pos_site_id
 _symmetry_equiv_pos_as_xyz
  1  'x, y, z'
loop_
 _atom_site_type_symbol
 _atom_site_label
 _atom_site_symmetry_multiplicity
 _atom_site_fract_x
 _atom_site_fract_y
 _atom_site_fract_z
 _atom_site_occupancy
  Zn  Zn0  1  0.05616992  0.40026261  0.47900014  1.0
  Zn  Zn1  1  0.98432374  0.48297558  0.55960047  1.0
  Zn  Zn2  1  0.05658632  0.56428404  0.48217672  1.0
  Zn  Zn3  1  0.90029037  0.55648610  0.47837487  1.0
  Zn  Zn4  1  0.69233846  0.35129780  0.27127968  1.0
  Zn  Zn5  1  0.68625217  0.19338798  0.26716485  1.0
  Zn  Zn6  1  0.76969499  0.26533771  0.18969269  1.0
  Zn  Zn7  1  0.84678746  0.19628779  0.27224657  1.0
  Zn  Zn8  1  0.26786109  0.76748448  0.68902587  1.0
  Zn  Zn9  1  0.34989096  0.69580586  0.77023820  1.0
  Zn  Zn10  1  0.19240403  0.84853463  0.77199291  1.0
  Zn  Zn11  1  0.19199833  0.68808653  0.76650504  1.0
  Zn  Zn12  1  0.56046446  0.06041521  0.98273202  1.0
  Zn  Zn13  1  0.40109056  0.05600724  0.97797477  1.0
  Zn  Zn14  1  0.55506788  0.90117159  0.97810624  1.0
  Zn  Zn15  1  0.48447174  0.98180330  0.06024757  1.0
  H  H16  1  0.95431239  0.25296402  0.34834552  1.0
  H  H17  1  0.74117244  0.45080827  0.35624045  1.0
  H  H18  1  0.00266010  0.30164570  0.39663567  1.0
  H  H19  1  0.09269650  0.60381196  0.69956496  1.0
  H  H20  1  0.21456815  0.68787283  0.59714792  1.0
  H  H21  1  0.04434878  0.55634277  0.65062980  1.0
  H  H22  1  0.46274834  0.24148963  0.34247367  1.0
  H  H23  1  0.48025164  0.69747285  0.59980313  1.0
  H  H24  1  0.20639357  0.97925589  0.60234249  1.0
  H  H25  1  0.94755828  0.97004335  0.34439227  1.0
  H  H26  1  0.55671539  0.04390186  0.15220921  1.0
  H  H27  1  0.63907703  0.16579918  0.04903488  1.0
  H  H28  1  0.60535896  0.09313953  0.20005104  1.0
  H  H29  1  0.54840570  0.76919758  0.14789139  1.0
  H  H30  1  0.16344922  0.14514965  0.04086034  1.0
  H  H31  1  0.49759304  0.79348320  0.90189957  1.0
  H  H32  1  0.30132651  0.00791299  0.89346892  1.0
  H  H33  1  0.44837974  0.74634224  0.85330020  1.0
  H  H34  1  0.30068332  0.28147119  0.90180286  1.0
  H  H35  1  0.78559195  0.01122007  0.90651374  1.0
  H  H36  1  0.78653529  0.57211947  0.35843062  1.0
  H  H37  1  0.11191671  0.74411504  0.53270587  1.0
  H  H38  1  0.78258483  0.15151413  0.07196654  1.0
  H  H39  1  0.17748518  0.96605459  0.88976416  1.0
  H  H40  1  0.23003271  0.57767910  0.40209995  1.0
  H  H41  1  0.32947094  0.55386093  0.39887714  1.0
  H  H42  1  0.27669771  0.53758207  0.44651339  1.0
  H  H43  1  0.82489778  0.47795809  0.65328169  1.0
  H  H44  1  0.75759709  0.53414890  0.69129087  1.0
  H  H45  1  0.82161035  0.56720627  0.65752035  1.0
  H  H46  1  0.06049689  0.32662348  0.65671829  1.0
  H  H47  1  0.03900381  0.25709128  0.69269821  1.0
  H  H48  1  0.97520390  0.31806312  0.65624276  1.0
  H  H49  1  0.79192838  0.72221564  0.39380218  1.0
  H  H50  1  0.72815841  0.82039210  0.38477339  1.0
  H  H51  1  0.75051983  0.77625192  0.43534610  1.0
  H  H52  1  0.77034549  0.42655754  0.09437028  1.0
  H  H53  1  0.71078084  0.49115792  0.05697809  1.0
  H  H54  1  0.68285789  0.42443875  0.09170512  1.0
  H  H55  1  0.07525320  0.14330768  0.24220262  1.0
  H  H56  1  0.16157243  0.06682178  0.22501875  1.0
  H  H57  1  0.07415098  0.05613039  0.23760350  1.0
  H  H58  1  0.49441540  0.48421767  0.81609797  1.0
  H  H59  1  0.52227853  0.42818877  0.86388922  1.0
  H  H60  1  0.45677128  0.52616756  0.86213326  1.0
  H  H61  1  0.97448516  0.70778426  0.80753840  1.0
  H  H62  1  0.91765715  0.69559004  0.85441229  1.0
  H  H63  1  0.01677938  0.67107956  0.85350204  1.0
  C  C64  1  0.06076441  0.31601089  0.56273271  1.0
  C  C65  1  0.06959139  0.56931482  0.56879179  1.0
  C  C66  1  0.18258941  0.44096718  0.43919887  1.0
  C  C67  1  0.93473717  0.68693861  0.43807521  1.0
  C  C68  1  0.93135264  0.43127978  0.43070966  1.0
  C  C69  1  0.81716941  0.56035189  0.56166705  1.0
  C  C70  1  0.56457460  0.31321880  0.31310197  1.0
  C  C71  1  0.68010879  0.18208890  0.18084230  1.0
  C  C72  1  0.68761638  0.43258123  0.18699983  1.0
  C  C73  1  0.93684963  0.19016984  0.19029518  1.0
  C  C74  1  0.81672570  0.32145265  0.32002544  1.0
  C  C75  1  0.80929049  0.06633205  0.30948130  1.0
  C  C76  1  0.43482900  0.68586657  0.68697750  1.0
  C  C77  1  0.31909128  0.81906433  0.81875220  1.0
  C  C78  1  0.19133074  0.93423339  0.68904753  1.0
  C  C79  1  0.06411170  0.80843990  0.80996407  1.0
  C  C80  1  0.18319017  0.67927729  0.67976386  1.0
  C  C81  1  0.31449381  0.56684458  0.81209426  1.0
  C  C82  1  0.43831773  0.18453694  0.93807033  1.0
  C  C83  1  0.43019500  0.93164673  0.92981182  1.0
  C  C84  1  0.68437210  0.93888361  0.93859575  1.0
  C  C85  1  0.56203677  0.81469545  0.06100624  1.0
  C  C86  1  0.56854336  0.07123838  0.06908469  1.0
  C  C87  1  0.31647754  0.06049460  0.06133877  1.0
  C  C88  1  0.89938156  0.40299054  0.40332463  1.0
  C  C89  1  0.84532138  0.34964804  0.34924960  1.0
  C  C90  1  0.82486529  0.44577468  0.39230553  1.0
  C  C91  1  0.91883410  0.30680869  0.36077607  1.0
  C  C92  1  0.79862550  0.41883034  0.36509815  1.0
  C  C93  1  0.94542601  0.33361721  0.38754881  1.0
  C  C94  1  0.10228480  0.59543697  0.59683656  1.0
  C  C95  1  0.15545084  0.64942554  0.65095838  1.0
  C  C96  1  0.15108092  0.63206591  0.58120240  1.0
  C  C97  1  0.10826984  0.61157806  0.66643036  1.0
  C  C98  1  0.17677513  0.65936793  0.60847746  1.0
  C  C99  1  0.08185042  0.58513231  0.63939922  1.0
  C  C100  1  0.30281578  0.45782550  0.40313875  1.0
  C  C101  1  0.44535013  0.29834888  0.35063822  1.0
  C  C102  1  0.25768469  0.41717180  0.41493311  1.0
  C  C103  1  0.49018715  0.33851323  0.33833904  1.0
  C  C104  1  0.37701070  0.34118722  0.37413604  1.0
  C  C105  1  0.37091645  0.41329792  0.37962189  1.0
  C  C106  1  0.72808478  0.57353908  0.62965648  1.0
  C  C107  1  0.52509648  0.66910432  0.61987891  1.0
  C  C108  1  0.74296854  0.58319399  0.58680194  1.0
  C  C109  1  0.50977259  0.66000507  0.66236637  1.0
  C  C110  1  0.60439028  0.63736339  0.60755467  1.0
  C  C111  1  0.64822716  0.60483995  0.64098070  1.0
  C  C112  1  0.07565301  0.22736831  0.63105087  1.0
  C  C113  1  0.17680991  0.02439108  0.62214566  1.0
  C  C114  1  0.08608730  0.24204579  0.58818757  1.0
  C  C115  1  0.16649278  0.00949985  0.66465129  1.0
  C  C116  1  0.14422263  0.10349511  0.60955489  1.0
  C  C117  1  0.10942560  0.14760415  0.64274649  1.0
  C  C118  1  0.83908026  0.80181951  0.39661087  1.0
  C  C119  1  0.90299047  0.94963326  0.34952191  1.0
  C  C120  1  0.90902074  0.76058533  0.41231033  1.0
  C  C121  1  0.83375550  0.99114644  0.33390629  1.0
  C  C122  1  0.90579693  0.88044408  0.37213842  1.0
  C  C123  1  0.83840363  0.87040320  0.37356522  1.0
  C  C124  1  0.64932771  0.15659118  0.15144430  1.0
  C  C125  1  0.59610909  0.10134637  0.09788365  1.0
  C  C126  1  0.65883199  0.17811890  0.10867794  1.0
  C  C127  1  0.58554346  0.08123007  0.14044869  1.0
  C  C128  1  0.63253979  0.14979101  0.08220891  1.0
  C  C129  1  0.61222684  0.10866755  0.16687633  1.0
  C  C130  1  0.67286882  0.52098509  0.11852485  1.0
  C  C131  1  0.57675860  0.72424865  0.12790494  1.0
  C  C132  1  0.66298552  0.50639514  0.16140080  1.0
  C  C133  1  0.58659305  0.73948456  0.08541113  1.0
  C  C134  1  0.60784764  0.64503520  0.14031700  1.0
  C  C135  1  0.64092252  0.60093962  0.10704891  1.0
  C  C136  1  0.08365765  0.12325786  0.17964550  1.0
  C  C137  1  0.17091574  0.12706879  0.07328203  1.0
  C  C138  1  0.01201112  0.16459872  0.16588454  1.0
  C  C139  1  0.24214239  0.08587711  0.08675333  1.0
  C  C140  1  0.11275659  0.14108781  0.10680338  1.0
  C  C141  1  0.14068144  0.11030823  0.14533937  1.0
  C  C142  1  0.34766815  0.85029495  0.84637380  1.0
  C  C143  1  0.40166995  0.90312287  0.90073687  1.0
  C  C144  1  0.30552063  0.92482461  0.85733863  1.0
  C  C145  1  0.44393913  0.82948453  0.88932540  1.0
  C  C146  1  0.33276030  0.95038127  0.88471202  1.0
  C  C147  1  0.41677433  0.80356198  0.86238874  1.0
  C  C148  1  0.40962401  0.45037098  0.85318997  1.0
  C  C149  1  0.34537233  0.30159879  0.89737212  1.0
  C  C150  1  0.34028060  0.49222354  0.83695929  1.0
  C  C151  1  0.41413228  0.25960106  0.91344060  1.0
  C  C152  1  0.34310385  0.37107674  0.87535224  1.0
  C  C153  1  0.41016744  0.38106226  0.87508443  1.0
  C  C154  1  0.94506649  0.79156984  0.84873258  1.0
  C  C155  1  0.80312373  0.95357252  0.89949770  1.0
  C  C156  1  0.98943734  0.83257778  0.83484726  1.0
  C  C157  1  0.75880801  0.91320455  0.91334024  1.0
  C  C158  1  0.87104789  0.90994532  0.87590579  1.0
  C  C159  1  0.87740205  0.83687511  0.87220875  1.0
  C  C160  1  0.76913940  0.51748615  0.41070047  1.0
  C  C161  1  0.18214257  0.63823270  0.53632283  1.0
  C  C162  1  0.69087327  0.23568544  0.09001024  1.0
  C  C163  1  0.23502006  0.98173216  0.83826126  1.0
  C  C164  1  0.28407184  0.53574414  0.41312326  1.0
  C  C165  1  0.78585732  0.53626258  0.65967000  1.0
  C  C166  1  0.03556503  0.28513421  0.66091270  1.0
  C  C167  1  0.77396492  0.77918701  0.40274991  1.0
  C  C168  1  0.71100141  0.46300409  0.08872073  1.0
  C  C169  1  0.09985711  0.09584305  0.22338907  1.0
  C  C170  1  0.47439595  0.47313689  0.84865920  1.0
  C  C171  1  0.96420253  0.71232246  0.84070399  1.0
  S  S172  1  0.29775281  0.32730867  0.39795095  1.0
  S  S173  1  0.44972424  0.42808299  0.35538363  1.0
  S  S174  1  0.66173420  0.62856944  0.56126858  1.0
  S  S175  1  0.59122409  0.61297208  0.68753370  1.0
  S  S176  1  0.13602384  0.16048505  0.56312871  1.0
  S  S177  1  0.11774179  0.09110051  0.68949823  1.0
  S  S178  1  0.97182348  0.80436163  0.39910868  1.0
  S  S179  1  0.77189894  0.94651435  0.34656884  1.0
  S  S180  1  0.61580453  0.58793985  0.18668685  1.0
  S  S181  1  0.63337142  0.65780851  0.06042720  1.0
  S  S182  1  0.01475114  0.18687568  0.11252178  1.0
  S  S183  1  0.23886688  0.06412597  0.13999627  1.0
  S  S184  1  0.27802222  0.44774275  0.84815720  1.0
  S  S185  1  0.47605101  0.30421078  0.90199915  1.0
  S  S186  1  0.94920998  0.92384643  0.85009076  1.0
  S  S187  1  0.79920092  0.82242648  0.89781238  1.0
  O  O188  1  0.99978660  0.50047563  0.49950431  1.0
  O  O189  1  0.08013820  0.31539339  0.52377821  1.0
  O  O190  1  0.04037997  0.52269036  0.58519291  1.0
  O  O191  1  0.15470955  0.50623629  0.45219934  1.0
  O  O192  1  0.02127849  0.37513355  0.58147671  1.0
  O  O193  1  0.15121846  0.39404788  0.44522659  1.0
  O  O194  1  0.07248956  0.59716067  0.53106068  1.0
  O  O195  1  0.00336041  0.65864661  0.44708595  1.0
  O  O196  1  0.89534857  0.50162254  0.43589050  1.0
  O  O197  1  0.88685845  0.65724872  0.44950847  1.0
  O  O198  1  0.99203647  0.38346015  0.44584169  1.0
  O  O199  1  0.87635145  0.53164334  0.58079212  1.0
  O  O200  1  0.81624503  0.57156681  0.52255128  1.0
  O  O201  1  0.74856306  0.25164941  0.25007533  1.0
  O  O202  1  0.59542110  0.36052152  0.30414765  1.0
  O  O203  1  0.65396548  0.17586987  0.21866853  1.0
  O  O204  1  0.72200782  0.37290891  0.16839352  1.0
  O  O205  1  0.59206577  0.24622560  0.30220967  1.0
  O  O206  1  0.67257534  0.43451817  0.22610987  1.0
  O  O207  1  0.73092446  0.20654229  0.16544806  1.0
  O  O208  1  0.87912245  0.22714501  0.17009878  1.0
  O  O209  1  0.86048156  0.25550923  0.30920423  1.0
  O  O210  1  0.93488478  0.17354590  0.22941703  1.0
  O  O211  1  0.75162296  0.36554685  0.30838670  1.0
  O  O212  1  0.74355259  0.09345687  0.29687617  1.0
  O  O213  1  0.85568083  0.09793397  0.30310235  1.0
  O  O214  1  0.25031614  0.75023375  0.74939181  1.0
  O  O215  1  0.37645791  0.72304845  0.66753070  1.0
  O  O216  1  0.36741206  0.75905111  0.80314942  1.0
  O  O217  1  0.17624701  0.93348463  0.72819599  1.0
  O  O218  1  0.43487740  0.66873131  0.72607797  1.0
  O  O219  1  0.22542080  0.87634503  0.66896343  1.0
  O  O220  1  0.24861527  0.85441329  0.81381024  1.0
  O  O221  1  0.09281817  0.85752046  0.80093559  1.0
  O  O222  1  0.16683341  0.66278086  0.71817289  1.0
  O  O223  1  0.09437333  0.74089948  0.79949013  1.0
  O  O224  1  0.22042114  0.71877598  0.66339012  1.0
  O  O225  1  0.35894753  0.60079181  0.80525188  1.0
  O  O226  1  0.24901919  0.59181410  0.79934247  1.0
  O  O227  1  0.49997203  0.00023607  0.99981411  1.0
  O  O228  1  0.50526531  0.15638148  0.94927556  1.0
  O  O229  1  0.38659839  0.99747739  0.94078278  1.0
  O  O230  1  0.65277295  0.89225905  0.94649460  1.0
  O  O231  1  0.39083972  0.15410856  0.94612743  1.0
  O  O232  1  0.65792207  0.00499586  0.95042005  1.0
  O  O233  1  0.49560993  0.88761300  0.94112045  1.0
  O  O234  1  0.57598221  0.81523374  0.02179934  1.0
  O  O235  1  0.53194700  0.03109957  0.08546661  1.0
  O  O236  1  0.52899973  0.87292407  0.08084920  1.0
  O  O237  1  0.58429147  0.08816792  0.03065396  1.0
  O  O238  1  0.31580792  0.07688279  0.02236622  1.0
  O  O239  1  0.37525130  0.02411594  0.08071901  1.0
  O  O240  1  0.75344613  0.58358871  0.38436769  1.0
  O  O241  1  0.73504810  0.51810340  0.44501827  1.0
  O  O242  1  0.15407386  0.70970135  0.51533885  1.0
  O  O243  1  0.23315933  0.58550556  0.51994858  1.0
  O  O244  1  0.76151463  0.20715651  0.06815278  1.0
  O  O245  1  0.65526314  0.30389112  0.09097062  1.0
  O  O246  1  0.16813850  0.99987533  0.86392964  1.0
  O  O247  1  0.23649113  0.01482979  0.80376128  1.0
