# generated using pymatgen
data_AlH24C45(ClO2)3
_symmetry_space_group_name_H-M   'P 1'
_cell_length_a   3.96841972
_cell_length_b   23.54883202
_cell_length_c   23.57839566
_cell_angle_alpha   60.07766066
_cell_angle_beta   87.51788173
_cell_angle_gamma   87.72293818
_symmetry_Int_Tables_number   1
_chemical_formula_structural   AlH24C45(ClO2)3
_chemical_formula_sum   'Al1 H24 C45 Cl3 O6'
_cell_volume   1907.51659705
_cell_formula_units_Z   1
loop_
 _symmetry_equiv_pos_site_id
 _symmetry_equiv_pos_as_xyz
  1  'x, y, z'
loop_
 _atom_site_type_symbol
 _atom_site_label
 _atom_site_symmetry_multiplicity
 _atom_site_fract_x
 _atom_site_fract_y
 _atom_site_fract_z
 _atom_site_occupancy
  Al  Al0  1  0.00002494  0.50018800  0.50006683  1.0
  H  H1  1  0.50799431  0.32235453  0.67872122  1.0
  H  H2  1  0.51161387  0.20183665  0.74288022  1.0
  H  H3  1  0.17366935  0.98345439  0.83666338  1.0
  H  H4  1  0.55484262  0.68475878  0.31443360  1.0
  H  H5  1  0.49852165  0.74157183  0.19462514  1.0
  H  H6  1  0.75290605  0.76881661  0.10642364  1.0
  H  H7  1  0.75655685  0.83314038  0.98726344  1.0
  H  H8  1  0.48897653  0.89505494  0.89365934  1.0
  H  H9  1  0.48130449  0.49903034  0.32284966  1.0
  H  H10  1  0.49084300  0.55459086  0.20269105  1.0
  H  H11  1  0.19262669  0.68240082  0.98375172  1.0
  H  H12  1  0.47699687  0.50099781  0.68444116  1.0
  H  H13  1  0.41960585  0.56483435  0.74164359  1.0
  H  H14  1  0.71550820  0.62237181  0.76660073  1.0
  H  H15  1  0.73653933  0.67754163  0.83090905  1.0
  H  H16  1  0.46465183  0.71207056  0.89475081  1.0
  H  H17  1  0.44574939  0.67984594  0.49904139  1.0
  H  H18  1  0.44906880  0.74395319  0.55555725  1.0
  H  H19  1  0.14339658  0.83761728  0.68607674  1.0
  H  H20  1  0.52120081  0.31439076  0.50024566  1.0
  H  H21  1  0.47133472  0.19397744  0.56457861  1.0
  H  H22  1  0.77343987  0.10636268  0.62341241  1.0
  H  H23  1  0.77772758  0.98635202  0.67903170  1.0
  H  H24  1  0.46173726  0.89388885  0.71224242  1.0
  C  C25  1  0.51151298  0.39926118  0.54848466  1.0
  C  C26  1  0.47597640  0.54912089  0.55214439  1.0
  C  C27  1  0.51374925  0.55232168  0.39936379  1.0
  C  C28  1  0.50471916  0.29384217  0.65384084  1.0
  C  C29  1  0.50044790  0.22586703  0.68997046  1.0
  C  C30  1  0.31223353  0.07780411  0.75848074  1.0
  C  C31  1  0.31301374  0.00964718  0.79024437  1.0
  C  C32  1  0.53311637  0.65647524  0.28964146  1.0
  C  C33  1  0.50671109  0.68815116  0.22190004  1.0
  C  C34  1  0.62027316  0.75025715  0.07969328  1.0
  C  C35  1  0.62313982  0.78698713  0.01184100  1.0
  C  C36  1  0.51303769  0.32626261  0.58539768  1.0
  C  C37  1  0.48405042  0.18807914  0.65914454  1.0
  C  C38  1  0.47223932  0.11562969  0.69649792  1.0
  C  C39  1  0.47604009  0.97492130  0.76276357  1.0
  C  C40  1  0.47664302  0.90258617  0.79883616  1.0
  C  C41  1  0.48167955  0.86791560  0.86743510  1.0
  C  C42  1  0.49180652  0.55232560  0.29422810  1.0
  C  C43  1  0.48962150  0.58397517  0.22636704  1.0
  C  C44  1  0.32360252  0.66518186  0.07779999  1.0
  C  C45  1  0.32378621  0.70187604  0.00975641  1.0
  C  C46  1  0.46303102  0.55440901  0.65637184  1.0
  C  C47  1  0.43568740  0.59071832  0.68828923  1.0
  C  C48  1  0.58039626  0.66903426  0.74959902  1.0
  C  C49  1  0.59231732  0.70017395  0.78624999  1.0
  C  C50  1  0.51619010  0.58811539  0.32657607  1.0
  C  C51  1  0.48616102  0.65283139  0.18836378  1.0
  C  C52  1  0.47156609  0.68806746  0.11600663  1.0
  C  C53  1  0.47491121  0.76307982  0.97507756  1.0
  C  C54  1  0.47653663  0.79932276  0.90279559  1.0
  C  C55  1  0.46759642  0.76545322  0.86799019  1.0
  C  C56  1  0.44536065  0.65486787  0.55236798  1.0
  C  C57  1  0.44016479  0.69090776  0.58446271  1.0
  C  C58  1  0.26633565  0.75913523  0.66757346  1.0
  C  C59  1  0.27584441  0.79062287  0.70415060  1.0
  C  C60  1  0.51333831  0.28949752  0.55361673  1.0
  C  C61  1  0.48977808  0.22156237  0.59016769  1.0
  C  C62  1  0.63368619  0.07936491  0.66976898  1.0
  C  C63  1  0.63655218  0.01137349  0.70117643  1.0
  C  C64  1  0.46111953  0.58636181  0.58795278  1.0
  C  C65  1  0.42696594  0.65980919  0.65323432  1.0
  C  C66  1  0.41894324  0.69671995  0.68894473  1.0
  C  C67  1  0.44149304  0.76246455  0.76365464  1.0
  C  C68  1  0.45960652  0.79865836  0.79955851  1.0
  C  C69  1  0.46636944  0.86733817  0.76557108  1.0
  Cl  Cl70  1  0.04886995  0.80197097  0.59496395  1.0
  Cl  Cl71  1  0.09201432  0.11191838  0.80009550  1.0
  Cl  Cl72  1  0.12076006  0.59063685  0.11064582  1.0
  O  O73  1  0.73931697  0.56493260  0.42824131  1.0
  O  O74  1  0.75129833  0.42815795  0.50718623  1.0
  O  O75  1  0.71639554  0.50724691  0.56454962  1.0
  O  O76  1  0.28299866  0.51016127  0.42817960  1.0
  O  O77  1  0.24775722  0.56247351  0.51053295  1.0
  O  O78  1  0.26747263  0.42795209  0.56191622  1.0
