# generated using pymatgen
data_Zn4H50C53N4O23
_symmetry_space_group_name_H-M   'P 1'
_cell_length_a   10.75443394
_cell_length_b   19.16903439
_cell_length_c   19.22242718
_cell_angle_alpha   94.38345359
_cell_angle_beta   92.48683666
_cell_angle_gamma   97.21313959
_symmetry_Int_Tables_number   1
_chemical_formula_structural   Zn4H50C53N4O23
_chemical_formula_sum   'Zn4 H50 C53 N4 O23'
_cell_volume   3914.25503047
_cell_formula_units_Z   1
loop_
 _symmetry_equiv_pos_site_id
 _symmetry_equiv_pos_as_xyz
  1  'x, y, z'
loop_
 _atom_site_type_symbol
 _atom_site_label
 _atom_site_symmetry_multiplicity
 _atom_site_fract_x
 _atom_site_fract_y
 _atom_site_fract_z
 _atom_site_occupancy
  Zn  Zn0  1  0.39899372  0.43469893  0.43180979  1.0
  Zn  Zn1  1  0.61565642  0.56246688  0.45016999  1.0
  Zn  Zn2  1  0.59372005  0.44654394  0.56428806  1.0
  Zn  Zn3  1  0.39999183  0.55717502  0.55942375  1.0
  H  H4  1  0.38447405  0.40648847  0.21231510  1.0
  H  H5  1  0.89163846  0.47180012  0.39158242  1.0
  H  H6  1  0.59996448  0.28610224  0.35608026  1.0
  H  H7  1  0.76376474  0.28811568  0.34556909  1.0
  H  H8  1  0.66180127  0.20743519  0.32857825  1.0
  H  H9  1  0.72296901  0.29018436  0.47290879  1.0
  H  H10  1  0.78229721  0.21200603  0.44482323  1.0
  H  H11  1  0.16003274  0.35635483  0.83925157  1.0
  H  H12  1  0.23811986  0.35202219  0.92176954  1.0
  H  H13  1  0.07911172  0.36918423  0.91695700  1.0
  H  H14  1  0.22539500  0.47961640  0.95293466  1.0
  H  H15  1  0.38805445  0.41436768  0.08206760  1.0
  H  H16  1  0.14480339  0.48673295  0.87258054  1.0
  H  H17  1  0.14429941  0.38801648  0.66155830  1.0
  H  H18  1  0.30979291  0.39467565  0.66414658  1.0
  H  H19  1  0.22698256  0.35055301  0.72851747  1.0
  H  H20  1  0.14930033  0.46420419  0.77243935  1.0
  H  H21  1  0.23338589  0.50936114  0.70946592  1.0
  H  H22  1  0.78962950  0.45765579  0.97945020  1.0
  H  H23  1  0.70376247  0.69892301  0.19522034  1.0
  H  H24  1  0.82582128  0.64473068  0.18782034  1.0
  H  H25  1  0.81493705  0.71217030  0.13043169  1.0
  H  H26  1  0.65251624  0.59320210  0.24392249  1.0
  H  H27  1  0.73487352  0.59805038  0.06531787  1.0
  H  H28  1  0.61444400  0.64968060  0.07485480  1.0
  H  H29  1  0.74110241  0.43110476  0.73155974  1.0
  H  H30  1  0.87831783  0.49337372  0.74913588  1.0
  H  H31  1  0.80687552  0.44981514  0.81840377  1.0
  H  H32  1  0.69103054  0.55574251  0.73018503  1.0
  H  H33  1  0.75745298  0.57567124  0.81567480  1.0
  H  H34  1  0.12660477  0.75408016  0.43319915  1.0
  H  H35  1  0.13369121  0.07961938  0.42038432  1.0
  H  H36  1  0.21745853  0.00554464  0.42439883  1.0
  H  H37  1  0.02928307  0.54624512  0.56769678  1.0
  H  H38  1  0.07663788  0.00758916  0.46915834  1.0
  H  H39  1  0.26267308  0.03500810  0.55306297  1.0
  H  H40  1  0.18006607  0.10892066  0.55032165  1.0
  H  H41  1  0.09228464  0.24183133  0.49681331  1.0
  H  H42  1  0.90486843  0.75681740  0.54311568  1.0
  H  H43  1  0.85026721  0.07465722  0.45475146  1.0
  H  H44  1  0.67654785  0.98693797  0.63717437  1.0
  H  H45  1  0.74165610  0.91122960  0.66256574  1.0
  H  H46  1  0.84206486  0.98970323  0.64907866  1.0
  H  H47  1  0.84491165  0.90363390  0.54516255  1.0
  H  H48  1  0.34625634  0.89611008  0.46288899  1.0
  H  H49  1  0.77195738  0.97749591  0.52227065  1.0
  H  H50  1  0.08199862  0.43428669  0.33053848  1.0
  H  H51  1  0.06449433  0.35593741  0.37396931  1.0
  H  H52  1  0.94167472  0.37445701  0.31592717  1.0
  H  H53  1  0.88495443  0.39658689  0.43819390  1.0
  C  C54  1  0.51329315  0.68856884  0.50796137  1.0
  C  C55  1  0.51958204  0.76727383  0.50680586  1.0
  C  C56  1  0.63333464  0.80970589  0.52742956  1.0
  C  C57  1  0.49156560  0.31086457  0.48685741  1.0
  C  C58  1  0.64535791  0.88355569  0.52564416  1.0
  C  C59  1  0.46914448  0.49795611  0.76706469  1.0
  C  C60  1  0.58075609  0.51107975  0.81004003  1.0
  C  C61  1  0.57099534  0.50398287  0.88168344  1.0
  C  C62  1  0.45164788  0.48736843  0.90885976  1.0
  C  C63  1  0.34032450  0.47554438  0.86531781  1.0
  C  C64  1  0.34934412  0.48020115  0.79294642  1.0
  C  C65  1  0.58672831  0.19823825  0.46587070  1.0
  C  C66  1  0.44417595  0.45345609  0.11855518  1.0
  C  C67  1  0.44276820  0.44898231  0.19010978  1.0
  C  C68  1  0.51999555  0.50907293  0.09130110  1.0
  C  C69  1  0.51767735  0.49669707  0.31201036  1.0
  C  C70  1  0.51865038  0.49993936  0.23493187  1.0
  C  C71  1  0.59523650  0.55475701  0.20743447  1.0
  C  C72  1  0.59778567  0.56083599  0.13566819  1.0
  C  C73  1  0.48064564  0.50102762  0.68980817  1.0
  C  C74  1  0.83529794  0.51676894  0.52242438  1.0
  C  C75  1  0.16859346  0.48311390  0.48466076  1.0
  C  C76  1  0.57658945  0.12473741  0.46741132  1.0
  C  C77  1  0.02908202  0.47930496  0.47481596  1.0
  C  C78  1  0.97337761  0.51647190  0.52397443  1.0
  C  C79  1  0.48229611  0.23174680  0.48475704  1.0
  C  C80  1  0.95103933  0.43589797  0.41484818  1.0
  C  C81  1  0.01432787  0.39806411  0.35581135  1.0
  C  C82  1  0.70078249  0.24065193  0.43953072  1.0
  C  C83  1  0.68014027  0.25651031  0.36291943  1.0
  C  C84  1  0.21567197  0.45903811  0.89792462  1.0
  C  C85  1  0.17040422  0.37953044  0.89356898  1.0
  C  C86  1  0.23448975  0.46549895  0.74300140  1.0
  C  C87  1  0.46448655  0.08642308  0.48760666  1.0
  C  C88  1  0.22889650  0.39597869  0.69681327  1.0
  C  C89  1  0.68875712  0.51167944  0.92789599  1.0
  C  C90  1  0.67712903  0.62052006  0.10507662  1.0
  C  C91  1  0.75962928  0.67171148  0.15777987  1.0
  C  C92  1  0.70639708  0.53303494  0.78013336  1.0
  C  C93  1  0.78777895  0.47314292  0.76922726  1.0
  C  C94  1  0.29926621  0.75262657  0.45408531  1.0
  C  C95  1  0.23775384  0.07579130  0.51989733  1.0
  C  C96  1  0.16154102  0.04014977  0.45441467  1.0
  C  C97  1  0.26271370  0.23469148  0.51770324  1.0
  C  C98  1  0.35683959  0.11967019  0.50167024  1.0
  C  C99  1  0.73782816  0.77269079  0.55529385  1.0
  C  C100  1  0.68018654  0.08691097  0.43892757  1.0
  C  C101  1  0.76237955  0.93105871  0.55249620  1.0
  C  C102  1  0.75515042  0.95604151  0.63004773  1.0
  C  C103  1  0.36777633  0.19322928  0.49968643  1.0
  C  C104  1  0.42514538  0.87107426  0.48178219  1.0
  C  C105  1  0.41511908  0.79813919  0.48316884  1.0
  C  C106  1  0.53832802  0.91340098  0.50269465  1.0
  N  N107  1  0.45061691  0.01358568  0.49447753  1.0
  N  N108  1  0.55252136  0.98731836  0.50001878  1.0
  N  N109  1  0.43636391  0.48289324  0.98065528  1.0
  N  N110  1  0.52649480  0.51598914  0.01926151  1.0
  O  O111  1  0.50181897  0.49991083  0.50140981  1.0
  O  O112  1  0.79067853  0.55785899  0.48170788  1.0
  O  O113  1  0.22319071  0.52845568  0.53199889  1.0
  O  O114  1  0.77542098  0.47549896  0.56186147  1.0
  O  O115  1  0.22203593  0.44063153  0.44539321  1.0
  O  O116  1  0.76500698  0.56477929  0.93831476  1.0
  O  O117  1  0.71096918  0.44804344  0.95065712  1.0
  O  O118  1  0.29510833  0.69187854  0.42891166  1.0
  O  O119  1  0.19545594  0.78704067  0.45664022  1.0
  O  O120  1  0.27365790  0.28643805  0.55971868  1.0
  O  O121  1  0.15240599  0.21015763  0.48125979  1.0
  O  O122  1  0.43428875  0.45200541  0.33515212  1.0
  O  O123  1  0.72774267  0.73505865  0.60365059  1.0
  O  O124  1  0.84531957  0.78400179  0.52056700  1.0
  O  O125  1  0.67389361  0.05624226  0.38062307  1.0
  O  O126  1  0.78765616  0.09720085  0.48103427  1.0
  O  O127  1  0.42728467  0.54714631  0.65985368  1.0
  O  O128  1  0.58622006  0.66088413  0.46675950  1.0
  O  O129  1  0.56715757  0.34504769  0.53368359  1.0
  O  O130  1  0.44066909  0.65889942  0.55006187  1.0
  O  O131  1  0.42456988  0.33553199  0.44094309  1.0
  O  O132  1  0.60035786  0.53898849  0.34933565  1.0
  O  O133  1  0.54381345  0.45604789  0.66040388  1.0
