# generated using pymatgen
data_Zr3H23(C3O)16
_symmetry_space_group_name_H-M   'P 1'
_cell_length_a   18.25726124
_cell_length_b   22.47718586
_cell_length_c   22.58299561
_cell_angle_alpha   65.02098198
_cell_angle_beta   89.41385282
_cell_angle_gamma   88.78588958
_symmetry_Int_Tables_number   1
_chemical_formula_structural   Zr3H23(C3O)16
_chemical_formula_sum   'Zr6 H46 C96 O32'
_cell_volume   8398.67948564
_cell_formula_units_Z   2
loop_
 _symmetry_equiv_pos_site_id
 _symmetry_equiv_pos_as_xyz
  1  'x, y, z'
loop_
 _atom_site_type_symbol
 _atom_site_label
 _atom_site_symmetry_multiplicity
 _atom_site_fract_x
 _atom_site_fract_y
 _atom_site_fract_z
 _atom_site_occupancy
  Zr  Zr0  1  0.21066864  0.97215313  0.03927693  1.0
  Zr  Zr1  1  0.94725936  0.94634299  0.03100828  1.0
  Zr  Zr2  1  0.08610922  0.85645057  0.13865487  1.0
  Zr  Zr3  1  0.07318316  0.06244357  0.93246334  1.0
  Zr  Zr4  1  0.10287388  0.89413436  0.96353106  1.0
  Zr  Zr5  1  0.05459671  0.03008094  0.10016112  1.0
  H  H6  1  0.74008113  0.01773898  0.74133764  1.0
  H  H7  1  0.60823372  0.17323438  0.59931721  1.0
  H  H8  1  0.74759015  0.21420324  0.73023382  1.0
  H  H9  1  0.45204078  0.72496695  0.97636639  1.0
  H  H10  1  0.56801065  0.73165673  0.80615850  1.0
  H  H11  1  0.45082105  0.90370565  0.79853947  1.0
  H  H12  1  0.70770474  0.19424204  0.09628549  1.0
  H  H13  1  0.57611211  0.18351022  0.26036363  1.0
  H  H14  1  0.70456693  0.01487764  0.27339540  1.0
  H  H15  1  0.63060484  0.06507710  0.48732529  1.0
  H  H16  1  0.51346371  0.84749058  0.57958915  1.0
  H  H17  1  0.41022957  0.89139699  0.32141827  1.0
  H  H18  1  0.54085436  0.74049386  0.46972641  1.0
  H  H19  1  0.41143415  0.69291271  0.33739512  1.0
  H  H20  1  0.40387945  0.25728536  0.96455032  1.0
  H  H21  1  0.55231067  0.38811326  0.82075600  1.0
  H  H22  1  0.40557079  0.27053474  0.76801046  1.0
  H  H23  1  0.72195911  0.66271882  0.29453040  1.0
  H  H24  1  0.60494945  0.52197327  0.24981797  1.0
  H  H25  1  0.72010585  0.67881271  0.09715114  1.0
  H  H26  1  0.65703406  0.40204473  0.48081906  1.0
  H  H27  1  0.49837478  0.50909926  0.58922427  1.0
  H  H28  1  0.51828307  0.50369946  0.92447323  1.0
  H  H29  1  0.63063686  0.41290106  0.14480305  1.0
  H  H30  1  0.19140301  0.00015631  0.89873169  1.0
  H  H31  1  0.99876541  0.81021669  0.07135903  1.0
  H  H32  1  0.95014829  0.08629012  0.99270761  1.0
  H  H33  1  0.17350635  0.95123386  0.17194772  1.0
  H  H34  1  0.08169516  0.77794071  0.98505366  1.0
  H  H35  1  0.00803060  0.83338900  0.24194203  1.0
  H  H36  1  0.99484134  0.97922959  0.22420830  1.0
  H  H37  1  0.09677743  0.91750180  0.84295903  1.0
  H  H38  1  0.04236269  0.11326419  0.80191273  1.0
  H  H39  1  0.08681135  0.18969818  0.89637287  1.0
  H  H40  1  0.07181203  0.15876829  0.05822981  1.0
  H  H41  1  0.97455086  0.84966804  0.94204377  1.0
  H  H42  1  0.85529844  0.92014753  0.94083277  1.0
  H  H43  1  0.31425931  0.05294631  0.05525524  1.0
  H  H44  1  0.12932529  0.06199281  0.18233537  1.0
  H  H45  1  0.12460351  0.13509349  0.80431966  1.0
  H  H46  1  0.85999073  0.86152177  0.01109561  1.0
  H  H47  1  0.07759674  0.72735704  0.20849857  1.0
  H  H48  1  0.16911302  0.76824245  0.99693879  1.0
  H  H49  1  0.04300071  0.15579858  0.99023685  1.0
  H  H50  1  0.04630097  0.91727092  0.22306261  1.0
  H  H51  1  0.32392256  0.98273655  0.11499023  1.0
  C  C52  1  0.74939995  0.11367492  0.74131774  1.0
  C  C53  1  0.72146181  0.06880033  0.71926473  1.0
  C  C54  1  0.67073633  0.09026967  0.66770324  1.0
  C  C55  1  0.64749124  0.15649627  0.63930048  1.0
  C  C56  1  0.67437291  0.20128222  0.66187569  1.0
  C  C57  1  0.72576241  0.17974606  0.71287333  1.0
  C  C58  1  0.44651960  0.81788070  0.89098274  1.0
  C  C59  1  0.46957467  0.75216450  0.92595355  1.0
  C  C60  1  0.51358651  0.72079906  0.89572608  1.0
  C  C61  1  0.53459808  0.75587258  0.83001572  1.0
  C  C62  1  0.51269391  0.82201477  0.79483855  1.0
  C  C63  1  0.46889739  0.85291720  0.82575501  1.0
  C  C64  1  0.71157391  0.10114807  0.18162554  1.0
  C  C65  1  0.68734300  0.16634233  0.14565993  1.0
  C  C66  1  0.63832578  0.19633806  0.17376002  1.0
  C  C67  1  0.61341827  0.16033337  0.23815640  1.0
  C  C68  1  0.63660848  0.09470020  0.27417299  1.0
  C  C69  1  0.68555648  0.06527053  0.24549793  1.0
  C  C70  1  0.59457357  0.98489508  0.57528268  1.0
  C  C71  1  0.56092229  0.92218716  0.60230191  1.0
  C  C72  1  0.53949418  0.89514040  0.55954223  1.0
  C  C73  1  0.54931448  0.92778886  0.49153144  1.0
  C  C74  1  0.58286690  0.99052092  0.46463354  1.0
  C  C75  1  0.60437920  0.01752668  0.50737817  1.0
  C  C76  1  0.40551001  0.79419715  0.32352535  1.0
  C  C77  1  0.42985727  0.84068658  0.34512554  1.0
  C  C78  1  0.47833806  0.82129451  0.39827809  1.0
  C  C79  1  0.50313110  0.75555848  0.42870590  1.0
  C  C80  1  0.47987064  0.70927279  0.40665182  1.0
  C  C81  1  0.43059086  0.72866673  0.35420579  1.0
  C  C82  1  0.39884521  0.25857964  0.86816231  1.0
  C  C83  1  0.42623426  0.27795050  0.91521547  1.0
  C  C84  1  0.48131080  0.32511517  0.89808222  1.0
  C  C85  1  0.50965115  0.35157427  0.83410669  1.0
  C  C86  1  0.48297528  0.33186160  0.78719456  1.0
  C  C87  1  0.42714556  0.28547765  0.80431144  1.0
  C  C88  1  0.72595362  0.67699293  0.19368694  1.0
  C  C89  1  0.70394948  0.64470095  0.25938104  1.0
  C  C90  1  0.66003766  0.58896853  0.27978537  1.0
  C  C91  1  0.63841842  0.56553868  0.23412648  1.0
  C  C92  1  0.65957525  0.59777343  0.16817488  1.0
  C  C93  1  0.70303969  0.65388946  0.14796442  1.0
  C  C94  1  0.60223821  0.38981361  0.57003131  1.0
  C  C95  1  0.55671070  0.42050432  0.60110980  1.0
  C  C96  1  0.53342625  0.48576049  0.56557203  1.0
  C  C97  1  0.55337614  0.52141341  0.50012995  1.0
  C  C98  1  0.59861608  0.49067167  0.46881318  1.0
  C  C99  1  0.62209093  0.42548047  0.50445623  1.0
  C  C100  1  0.56303896  0.52745332  0.99944522  1.0
  C  C101  1  0.59505188  0.50094601  0.06305076  1.0
  C  C102  1  0.60559490  0.43266172  0.09657398  1.0
  C  C103  1  0.58610361  0.38916888  0.06973151  1.0
  C  C104  1  0.55374218  0.41572236  0.00630094  1.0
  C  C105  1  0.54339436  0.48400069  0.97267041  1.0
  C  C106  1  0.28652839  0.89077690  0.96938706  1.0
  C  C107  1  0.24387518  0.11775081  0.92129377  1.0
  C  C108  1  0.25828240  0.84765200  0.17471309  1.0
  C  C109  1  0.86688997  0.82840140  0.15057938  1.0
  C  C110  1  0.87699620  0.02553196  0.11049719  1.0
  C  C111  1  0.90181170  0.05629883  0.88643266  1.0
  C  C112  1  0.77275248  0.73158437  0.17543191  1.0
  C  C113  1  0.81437045  0.77683682  0.16394585  1.0
  C  C114  1  0.63745352  0.57050955  0.12497202  1.0
  C  C115  1  0.61667701  0.54104009  0.09377812  1.0
  C  C116  1  0.61982962  0.52553493  0.40286924  1.0
  C  C117  1  0.63849881  0.55545672  0.34607676  1.0
  C  C118  1  0.34273254  0.21159616  0.88467385  1.0
  C  C119  1  0.29520477  0.17069000  0.89824003  1.0
  C  C120  1  0.50741715  0.34935829  0.94251048  1.0
  C  C121  1  0.53079655  0.37622648  0.97526395  1.0
  C  C122  1  0.51078599  0.36029722  0.72251708  1.0
  C  C123  1  0.53369975  0.38642722  0.66666667  1.0
  C  C124  1  0.31094362  0.82473628  0.22721269  1.0
  C  C125  1  0.35496970  0.81208276  0.27124426  1.0
  C  C126  1  0.52825064  0.58696444  0.46597181  1.0
  C  C127  1  0.50551969  0.64335559  0.43802787  1.0
  C  C128  1  0.52538508  0.89680560  0.45233191  1.0
  C  C129  1  0.50234636  0.86514637  0.42413490  1.0
  C  C130  1  0.81359181  0.04888397  0.13383915  1.0
  C  C131  1  0.76491808  0.07248359  0.15492993  1.0
  C  C132  1  0.59694281  0.02542697  0.39684521  1.0
  C  C133  1  0.61339195  0.05820505  0.33980559  1.0
  C  C134  1  0.60052561  0.32091559  0.10515055  1.0
  C  C135  1  0.61642810  0.26310892  0.13740883  1.0
  C  C136  1  0.35072624  0.86873810  0.94561180  1.0
  C  C137  1  0.39716611  0.84686888  0.92066273  1.0
  C  C138  1  0.54918000  0.59570700  0.96383571  1.0
  C  C139  1  0.53423925  0.65369838  0.93152359  1.0
  C  C140  1  0.53259151  0.85721917  0.72804029  1.0
  C  C141  1  0.54740788  0.88796863  0.67026427  1.0
  C  C142  1  0.80233502  0.09292939  0.79190430  1.0
  C  C143  1  0.84835805  0.07652657  0.83477758  1.0
  C  C144  1  0.64361915  0.04760979  0.64173094  1.0
  C  C145  1  0.61920987  0.01579858  0.61427136  1.0
  C  C146  1  0.64994046  0.26771594  0.63201401  1.0
  C  C147  1  0.62733446  0.32419500  0.60427874  1.0
  O  O148  1  0.28921866  0.01893966  0.09227828  1.0
  O  O149  1  0.29459991  0.93342307  0.99254869  1.0
  O  O150  1  0.27839716  0.89695447  0.12303885  1.0
  O  O151  1  0.18203115  0.12625202  0.89319136  1.0
  O  O152  1  0.19685069  0.81975704  0.18434826  1.0
  O  O153  1  0.26640956  0.06609306  0.96978683  1.0
  O  O154  1  0.22694911  0.86593318  0.96365936  1.0
  O  O155  1  0.14867839  0.89626757  0.05220281  1.0
  O  O156  1  0.16398461  0.99311186  0.93827406  1.0
  O  O157  1  0.14774695  0.95273196  0.13392200  1.0
  O  O158  1  0.12437690  0.03937883  0.02041781  1.0
  O  O159  1  0.04834673  0.15908905  0.91923310  1.0
  O  O160  1  0.12327033  0.77823434  0.01358124  1.0
  O  O161  1  0.02807709  0.96833538  0.96041362  1.0
  O  O162  1  0.01719067  0.85453967  0.05662307  1.0
  O  O163  1  0.01497412  0.94011224  0.10220762  1.0
  O  O164  1  0.98619644  0.05064978  0.00600611  1.0
  O  O165  1  0.06072094  0.76239297  0.16793016  1.0
  O  O166  1  0.90256222  0.83212490  0.19514390  1.0
  O  O167  1  0.87222711  0.86763585  0.08800557  1.0
  O  O168  1  0.11568061  0.08139759  0.13656624  1.0
  O  O169  1  0.86685637  0.99369100  0.07639645  1.0
  O  O170  1  0.05587682  0.85403506  0.23026251  1.0
  O  O171  1  0.04305887  0.97004896  0.21092579  1.0
  O  O172  1  0.03443078  0.14148737  0.03934626  1.0
  O  O173  1  0.93857452  0.04062459  0.12646921  1.0
  O  O174  1  0.88815742  0.88611831  0.97067822  1.0
  O  O175  1  0.09138772  0.09812586  0.82006361  1.0
  O  O176  1  0.88106834  0.01342421  0.94210613  1.0
  O  O177  1  0.96431506  0.08271583  0.87231846  1.0
  O  O178  1  0.12789424  0.93392987  0.86719869  1.0
  O  O179  1  0.02649898  0.84358961  0.93536346  1.0
