# generated using pymatgen
data_Zn3H2C22(ClO3)4
_symmetry_space_group_name_H-M   'P 1'
_cell_length_a   19.96999146
_cell_length_b   19.97000216
_cell_length_c   19.97010484
_cell_angle_alpha   107.20434812
_cell_angle_beta   107.25773328
_cell_angle_gamma   114.05071106
_symmetry_Int_Tables_number   1
_chemical_formula_structural   Zn3H2C22(ClO3)4
_chemical_formula_sum   'Zn6 H4 C44 Cl8 O24'
_cell_volume   6101.16033959
_cell_formula_units_Z   2
loop_
 _symmetry_equiv_pos_site_id
 _symmetry_equiv_pos_as_xyz
  1  'x, y, z'
loop_
 _atom_site_type_symbol
 _atom_site_label
 _atom_site_symmetry_multiplicity
 _atom_site_fract_x
 _atom_site_fract_y
 _atom_site_fract_z
 _atom_site_occupancy
  Zn  Zn0  1  0.50000029  0.94510829  0.44510802  1.0
  Zn  Zn1  1  0.49999782  0.05500373  0.55500222  1.0
  Zn  Zn2  1  0.94492902  0.49965303  0.44458309  1.0
  Zn  Zn3  1  0.05507152  0.49965262  0.55472329  1.0
  Zn  Zn4  1  0.06000720  0.05945282  0.99944390  1.0
  Zn  Zn5  1  0.93999170  0.93943702  0.99944415  1.0
  H  H6  1  0.78972228  0.38558769  0.59585598  1.0
  H  H7  1  0.21027046  0.80613470  0.59585924  1.0
  H  H8  1  0.71065431  0.11280035  0.40216120  1.0
  H  H9  1  0.28935759  0.69150886  0.40215917  1.0
  C  C10  1  0.60945305  0.00042802  0.60988512  1.0
  C  C11  1  0.39054277  0.00042989  0.39097338  1.0
  C  C12  1  0.72180717  0.00010140  0.72191386  1.0
  C  C13  1  0.27818831  0.00010172  0.27829172  1.0
  C  C14  1  0.77862996  0.99965006  0.77828233  1.0
  C  C15  1  0.22136705  0.99964856  0.22101463  1.0
  C  C16  1  0.83033014  0.99921560  0.82954669  1.0
  C  C17  1  0.16966971  0.99921358  0.16887958  1.0
  C  C18  1  0.99999861  0.60916399  0.60916293  1.0
  C  C19  1  0.88159657  0.38112806  0.49953270  1.0
  C  C20  1  0.11840601  0.61793779  0.49953451  1.0
  C  C21  1  0.00000177  0.39010207  0.39010135  1.0
  C  C22  1  0.99999853  0.10859360  0.10859437  1.0
  C  C23  1  0.89091946  0.99916407  0.89008322  1.0
  C  C24  1  0.10908172  0.99916304  0.10824038  1.0
  C  C25  1  0.99999928  0.89038071  0.89038065  1.0
  C  C26  1  0.99999993  0.66977608  0.66977511  1.0
  C  C27  1  0.61852408  0.11773053  0.49920714  1.0
  C  C28  1  0.38147612  0.88068505  0.49920918  1.0
  C  C29  1  0.00000063  0.72143092  0.72143065  1.0
  C  C30  1  0.00000067  0.77818650  0.77818630  1.0
  C  C31  1  0.00000041  0.82984379  0.82984366  1.0
  C  C32  1  0.00000148  0.32941951  0.32941809  1.0
  C  C33  1  0.99999959  0.27772433  0.27772284  1.0
  C  C34  1  0.99999891  0.22088510  0.22088478  1.0
  C  C35  1  0.99999863  0.16919702  0.16919725  1.0
  C  C36  1  0.77597279  0.25618660  0.57324415  1.0
  C  C37  1  0.22402701  0.79726885  0.48021148  1.0
  C  C38  1  0.68294277  0.25618211  0.48020819  1.0
  C  C39  1  0.31705692  0.79727087  0.57324371  1.0
  C  C40  1  0.77159898  0.32447464  0.55287142  1.0
  C  C41  1  0.22839792  0.78127362  0.55287394  1.0
  C  C42  1  0.81308039  0.31109816  0.49802057  1.0
  C  C43  1  0.18692195  0.68494113  0.49802070  1.0
  C  C44  1  0.81688534  0.24167464  0.51818404  1.0
  C  C45  1  0.18311949  0.70129606  0.42479110  1.0
  C  C46  1  0.72349664  0.24167022  0.42478992  1.0
  C  C47  1  0.27650864  0.70129925  0.51818336  1.0
  C  C48  1  0.72827260  0.17352923  0.44526648  1.0
  C  C49  1  0.27173502  0.71699567  0.44526529  1.0
  C  C50  1  0.68692528  0.18581780  0.49889590  1.0
  C  C51  1  0.31307696  0.81197187  0.49889639  1.0
  C  C52  1  0.67010612  0.00049281  0.67060643  1.0
  C  C53  1  0.32988701  0.00049469  0.33038475  1.0
  Cl  Cl54  1  0.80900609  0.26478885  0.66733016  1.0
  Cl  Cl55  1  0.19098812  0.85831451  0.45576906  1.0
  Cl  Cl56  1  0.59745405  0.26477753  0.45576473  1.0
  Cl  Cl57  1  0.40254275  0.85832195  0.66733001  1.0
  Cl  Cl58  1  0.90050914  0.23014027  0.54289855  1.0
  Cl  Cl59  1  0.09949983  0.64238260  0.32963243  1.0
  Cl  Cl60  1  0.68725159  0.23012989  0.32963087  1.0
  Cl  Cl61  1  0.31275773  0.64238806  0.54289457  1.0
  O  O62  1  0.58567695  0.95204316  0.53772177  1.0
  O  O63  1  0.41432231  0.95204652  0.36636801  1.0
  O  O64  1  0.05270829  0.96700114  0.91429233  1.0
  O  O65  1  0.94729029  0.86158311  0.91429188  1.0
  O  O66  1  0.58537426  0.04868448  0.63406079  1.0
  O  O67  1  0.41462054  0.04868532  0.46330660  1.0
  O  O68  1  0.59201271  0.04308719  0.45107493  1.0
  O  O69  1  0.40798800  0.85906570  0.45107731  1.0
  O  O70  1  0.59270557  0.14018548  0.54747778  1.0
  O  O71  1  0.40729227  0.95477406  0.54748135  1.0
  O  O72  1  0.95162313  0.58533731  0.53696081  1.0
  O  O73  1  0.04837367  0.58533623  0.63370992  1.0
  O  O74  1  0.85960612  0.40813636  0.45217591  1.0
  O  O75  1  0.14039493  0.59257012  0.54853255  1.0
  O  O76  1  0.95596181  0.40813684  0.54853003  1.0
  O  O77  1  0.04403949  0.59256980  0.45217735  1.0
  O  O78  1  0.95166635  0.41407809  0.36574348  1.0
  O  O79  1  0.04833621  0.41407736  0.46241186  1.0
  O  O80  1  0.05267730  0.13726069  0.08458119  1.0
  O  O81  1  0.94732026  0.03190221  0.08458193  1.0
  O  O82  1  0.96761679  0.05187425  0.91410246  1.0
  O  O83  1  0.03238482  0.94648490  0.08425306  1.0
  O  O84  1  0.13777181  0.05187488  0.08425477  1.0
  O  O85  1  0.86222891  0.94648584  0.91410232  1.0
