# generated using pymatgen
data_Zn4H25C45N2O17
_symmetry_space_group_name_H-M   'P 1'
_cell_length_a   18.23676735
_cell_length_b   18.28285581
_cell_length_c   18.26304697
_cell_angle_alpha   60.33726598
_cell_angle_beta   60.34852165
_cell_angle_gamma   60.13745110
_symmetry_Int_Tables_number   1
_chemical_formula_structural   Zn4H25C45N2O17
_chemical_formula_sum   'Zn8 H50 C90 N4 O34'
_cell_volume   4332.46833880
_cell_formula_units_Z   2
loop_
 _symmetry_equiv_pos_site_id
 _symmetry_equiv_pos_as_xyz
  1  'x, y, z'
loop_
 _atom_site_type_symbol
 _atom_site_label
 _atom_site_symmetry_multiplicity
 _atom_site_fract_x
 _atom_site_fract_y
 _atom_site_fract_z
 _atom_site_occupancy
  Zn  Zn0  1  0.20260845  0.38060444  0.20569252  1.0
  Zn  Zn1  1  0.79739032  0.61939519  0.79430751  1.0
  Zn  Zn2  1  0.37857668  0.20698255  0.20731665  1.0
  Zn  Zn3  1  0.62142277  0.79301811  0.79268309  1.0
  Zn  Zn4  1  0.20089246  0.20474880  0.21165633  1.0
  Zn  Zn5  1  0.79910967  0.79525222  0.78834026  1.0
  Zn  Zn6  1  0.20260064  0.20824388  0.38341454  1.0
  Zn  Zn7  1  0.79740282  0.79175922  0.61658475  1.0
  H  H8  1  0.85890190  0.59758233  0.46926923  1.0
  H  H9  1  0.14109822  0.40241937  0.53072856  1.0
  H  H10  1  0.96647297  0.40121744  0.65670207  1.0
  H  H11  1  0.03352715  0.59878552  0.34329564  1.0
  H  H12  1  0.85728243  0.47228440  0.07575664  1.0
  H  H13  1  0.14271769  0.52771666  0.92424147  1.0
  H  H14  1  0.92676789  0.52841595  0.14203846  1.0
  H  H15  1  0.07323290  0.47158553  0.85796021  1.0
  H  H16  1  0.97299837  0.65648531  0.97075400  1.0
  H  H17  1  0.02700175  0.34351639  0.02924435  1.0
  H  H18  1  0.06333088  0.87443993  0.61510915  1.0
  H  H19  1  0.93666722  0.12556685  0.38489314  1.0
  H  H20  1  0.99573733  0.05761772  0.59904710  1.0
  H  H21  1  0.00426010  0.94239181  0.40095415  1.0
  H  H22  1  0.84413656  0.07849218  0.57280458  1.0
  H  H23  1  0.15586020  0.92151694  0.42719776  1.0
  H  H24  1  0.60662553  0.88254618  0.15000673  1.0
  H  H25  1  0.39340141  0.11748490  0.84997645  1.0
  H  H26  1  0.45657587  0.89455614  0.26780581  1.0
  H  H27  1  0.54347630  0.10539282  0.73222047  1.0
  H  H28  1  0.41834743  0.93995128  0.39320923  1.0
  H  H29  1  0.58169602  0.05999683  0.60682284  1.0
  H  H30  1  0.67949806  0.96209352  0.28443609  1.0
  H  H31  1  0.32049021  0.03800784  0.71551812  1.0
  H  H32  1  0.71825523  0.91609882  0.15891938  1.0
  H  H33  1  0.28173844  0.08401142  0.84102395  1.0
  H  H34  1  0.64056052  0.87936855  0.45767964  1.0
  H  H35  1  0.35944630  0.12065041  0.54231670  1.0
  H  H36  1  0.07976122  0.97425958  0.23339027  1.0
  H  H37  1  0.92026022  0.02568585  0.76662602  1.0
  H  H38  1  0.20483512  0.86661152  0.29488627  1.0
  H  H39  1  0.79518227  0.13338753  0.70514431  1.0
  H  H40  1  0.35670668  0.88026711  0.21022095  1.0
  H  H41  1  0.64329802  0.11975824  0.78980503  1.0
  H  H42  1  0.25959750  0.10717437  0.00234654  1.0
  H  H43  1  0.74041001  0.89276692  0.99763814  1.0
  H  H44  1  0.10790849  0.09412005  0.08618219  1.0
  H  H45  1  0.89210835  0.90579859  0.91381022  1.0
  H  H46  1  0.44492316  0.90982257  0.98637097  1.0
  H  H47  1  0.55507763  0.09017575  0.01362597  1.0
  H  H48  1  0.05472084  0.72632137  0.15791450  1.0
  H  H49  1  0.94528131  0.27368216  0.84207865  1.0
  H  H50  1  0.27610366  0.60986628  0.96078128  1.0
  H  H51  1  0.72389915  0.39013639  0.03921196  1.0
  H  H52  1  0.31863286  0.59110070  0.18290246  1.0
  H  H53  1  0.68136793  0.40889700  0.81709425  1.0
  H  H54  1  0.15811586  0.67566299  0.24053651  1.0
  H  H55  1  0.84188494  0.32433785  0.75945919  1.0
  H  H56  1  0.43873346  0.66408692  0.96212257  1.0
  H  H57  1  0.56126733  0.33591203  0.03787570  1.0
  C  C58  1  0.38414111  0.10936194  0.39266418  1.0
  C  C59  1  0.61586167  0.89065020  0.60733808  1.0
  C  C60  1  0.11040659  0.38769034  0.10880982  1.0
  C  C61  1  0.88959352  0.61230947  0.89119001  1.0
  C  C62  1  0.38619303  0.38984458  0.11426116  1.0
  C  C63  1  0.61380910  0.61015329  0.88573644  1.0
  C  C64  1  0.10232414  0.11581177  0.39637110  1.0
  C  C65  1  0.89767396  0.88419439  0.60362986  1.0
  C  C66  1  0.38643749  0.10948627  0.11459852  1.0
  C  C67  1  0.61356263  0.89051354  0.88539857  1.0
  C  C68  1  0.11043130  0.39330601  0.38624726  1.0
  C  C69  1  0.88956748  0.60669739  0.61375034  1.0
  C  C70  1  0.95811393  0.44966126  0.51358331  1.0
  C  C71  1  0.04188619  0.55034233  0.48641409  1.0
  C  C72  1  0.92254024  0.55471647  0.48180941  1.0
  C  C73  1  0.07745988  0.44528648  0.51818831  1.0
  C  C74  1  0.94682322  0.54875884  0.55644128  1.0
  C  C75  1  0.05317623  0.45124434  0.44355665  1.0
  C  C76  1  0.98210317  0.44450962  0.58722796  1.0
  C  C77  1  0.01789628  0.55549356  0.41276998  1.0
  C  C78  1  0.95854474  0.51660579  0.07823140  1.0
  C  C79  1  0.04145604  0.48339505  0.92176759  1.0
  C  C80  1  0.92118784  0.48413645  0.04282089  1.0
  C  C81  1  0.07881295  0.51586377  0.95717895  1.0
  C  C82  1  0.94677005  0.55593725  0.94835643  1.0
  C  C83  1  0.05323073  0.44406359  0.05164310  1.0
  C  C84  1  0.98486338  0.58697812  0.98403856  1.0
  C  C85  1  0.01513740  0.41302272  0.01596042  1.0
  C  C86  1  0.99726696  0.03169076  0.55555180  1.0
  C  C87  1  0.00273047  0.96831688  0.44445094  1.0
  C  C88  1  0.03584410  0.93098321  0.56350176  1.0
  C  C89  1  0.96415266  0.06902529  0.43650143  1.0
  C  C90  1  0.95281230  0.94306271  0.54725567  1.0
  C  C91  1  0.04718512  0.05694493  0.45274707  1.0
  C  C92  1  0.91406694  0.04466787  0.53965707  1.0
  C  C93  1  0.08592982  0.95534000  0.46034589  1.0
  C  C94  1  0.50571828  0.90928488  0.27118593  1.0
  C  C95  1  0.49432393  0.09069009  0.72882523  1.0
  C  C96  1  0.48397105  0.93533959  0.34142673  1.0
  C  C97  1  0.51606110  0.06463561  0.65859091  1.0
  C  C98  1  0.54627371  0.95451207  0.34716304  1.0
  C  C99  1  0.45374249  0.04550814  0.65282972  1.0
  C  C100  1  0.63106461  0.94625334  0.28118668  1.0
  C  C101  1  0.36893697  0.05381333  0.71878476  1.0
  C  C102  1  0.65259204  0.92069606  0.21055219  1.0
  C  C103  1  0.34741425  0.07937784  0.78941116  1.0
  C  C104  1  0.59003727  0.90209642  0.20536658  1.0
  C  C105  1  0.40998697  0.09793117  0.79462241  1.0
  C  C106  1  0.57920940  0.93361622  0.47484248  1.0
  C  C107  1  0.42079876  0.06640418  0.52515468  1.0
  C  C108  1  0.55653905  0.95130611  0.55105193  1.0
  C  C109  1  0.44346776  0.04871222  0.44894692  1.0
  C  C110  1  0.47670161  0.01939165  0.57713905  1.0
  C  C111  1  0.52330721  0.98062853  0.42285845  1.0
  C  C112  1  0.21650888  0.91965267  0.23081881  1.0
  C  C113  1  0.78350520  0.08033616  0.76920205  1.0
  C  C114  1  0.30185229  0.92715415  0.18336302  1.0
  C  C115  1  0.69815644  0.07284906  0.81665771  1.0
  C  C116  1  0.31791531  0.99493600  0.10107918  1.0
  C  C117  1  0.68209013  0.00505384  0.89892680  1.0
  C  C118  1  0.24757448  0.05408309  0.06625190  1.0
  C  C119  1  0.75243500  0.94587391  0.93374374  1.0
  C  C120  1  0.16228297  0.04682602  0.11362014  1.0
  C  C121  1  0.83773319  0.95311236  0.88637815  1.0
  C  C122  1  0.14654321  0.97967616  0.19622443  1.0
  C  C123  1  0.85347424  0.02028006  0.80378739  1.0
  C  C124  1  0.46855463  0.94969817  0.99309849  1.0
  C  C125  1  0.53144683  0.05029993  0.00689988  1.0
  C  C126  1  0.55720778  0.94806526  0.94361077  1.0
  C  C127  1  0.44279434  0.05193198  0.05638879  1.0
  C  C128  1  0.59007516  0.99942222  0.95010285  1.0
  C  C129  1  0.40992762  0.00057417  0.04989681  1.0
  C  C130  1  0.16147382  0.67031133  0.05596468  1.0
  C  C131  1  0.83852833  0.32969157  0.94402878  1.0
  C  C132  1  0.25182961  0.62349980  0.02201066  1.0
  C  C133  1  0.74817320  0.37650162  0.97798376  1.0
  C  C134  1  0.30882035  0.59336971  0.06875735  1.0
  C  C135  1  0.69117977  0.40662946  0.93123950  1.0
  C  C136  1  0.27415665  0.61375975  0.14676872  1.0
  C  C137  1  0.72584347  0.38623943  0.85322813  1.0
  C  C138  1  0.18345032  0.66134020  0.17936239  1.0
  C  C139  1  0.81655048  0.33866001  0.82063362  1.0
  C  C140  1  0.12580677  0.68953347  0.13441195  1.0
  C  C141  1  0.87419604  0.31046795  0.86558192  1.0
  C  C142  1  0.46483753  0.59164879  0.97941413  1.0
  C  C143  1  0.53516258  0.40834976  0.02058413  1.0
  C  C144  1  0.55741856  0.55081211  0.94454960  1.0
  C  C145  1  0.44258156  0.44918707  0.05544780  1.0
  C  C146  1  0.59393356  0.45702049  0.96537941  1.0
  C  C147  1  0.40606722  0.54297847  0.03461942  1.0
  N  N148  1  0.90797905  0.39944097  0.52607078  1.0
  N  N149  1  0.09202175  0.60056239  0.47392586  1.0
  N  N150  1  0.10136676  0.70045058  0.00720432  1.0
  N  N151  1  0.89863606  0.29955398  0.99278798  1.0
  O  O152  1  0.24703596  0.25018796  0.25274276  1.0
  O  O153  1  0.75296349  0.74981396  0.74725635  1.0
  O  O154  1  0.29996826  0.12770555  0.43399458  1.0
  O  O155  1  0.70003452  0.87231163  0.56600902  1.0
  O  O156  1  0.13672148  0.42958055  0.12535340  1.0
  O  O157  1  0.86328266  0.57041916  0.87464285  1.0
  O  O158  1  0.42737615  0.30611305  0.12934030  1.0
  O  O159  1  0.57262599  0.69388482  0.87065621  1.0
  O  O160  1  0.12967606  0.13124451  0.31248585  1.0
  O  O161  1  0.87032538  0.86875800  0.68751527  1.0
  O  O162  1  0.42825158  0.13426139  0.13257928  1.0
  O  O163  1  0.57174716  0.86573007  0.86742920  1.0
  O  O164  1  0.14084063  0.31053401  0.42800377  1.0
  O  O165  1  0.85915883  0.68947043  0.57199299  1.0
  O  O166  1  0.30196968  0.12985624  0.14062325  1.0
  O  O167  1  0.69803115  0.87015214  0.85936431  1.0
  O  O168  1  0.12290920  0.43218255  0.30322638  1.0
  O  O169  1  0.87709093  0.56782041  0.69677079  1.0
  O  O170  1  0.30199335  0.42752258  0.14438880  1.0
  O  O171  1  0.69800742  0.57247512  0.85561284  1.0
  O  O172  1  0.11900954  0.14466940  0.43564301  1.0
  O  O173  1  0.88098990  0.85533693  0.56435720  1.0
  O  O174  1  0.42274079  0.13963488  0.30904343  1.0
  O  O175  1  0.57726067  0.86036636  0.69095502  1.0
  O  O176  1  0.12842833  0.30333537  0.13704076  1.0
  O  O177  1  0.87156708  0.69666602  0.86296278  1.0
  O  O178  1  0.84908918  0.38327311  0.59972519  1.0
  O  O179  1  0.92566077  0.37990281  0.46190260  1.0
  O  O180  1  0.15091161  0.61672899  0.40027152  1.0
  O  O181  1  0.07433935  0.62010140  0.53809449  1.0
  O  O182  1  0.02013722  0.73745907  0.04116902  1.0
  O  O183  1  0.13513845  0.68726857  0.93496880  1.0
  O  O184  1  0.86486571  0.31273492  0.06502338  1.0
  O  O185  1  0.97986561  0.26254612  0.95882242  1.0
