# generated using pymatgen
data_Zn4H30C36Cl2O13
_symmetry_space_group_name_H-M   'P 1'
_cell_length_a   17.82335038
_cell_length_b   18.58134669
_cell_length_c   23.42680578
_cell_angle_alpha   66.76954581
_cell_angle_beta   69.19624896
_cell_angle_gamma   89.78088885
_symmetry_Int_Tables_number   1
_chemical_formula_structural   Zn4H30C36Cl2O13
_chemical_formula_sum   'Zn8 H60 C72 Cl4 O26'
_cell_volume   6580.30205127
_cell_formula_units_Z   2
loop_
 _symmetry_equiv_pos_site_id
 _symmetry_equiv_pos_as_xyz
  1  'x, y, z'
loop_
 _atom_site_type_symbol
 _atom_site_label
 _atom_site_symmetry_multiplicity
 _atom_site_fract_x
 _atom_site_fract_y
 _atom_site_fract_z
 _atom_site_occupancy
  Zn  Zn0  1  0.88150145  0.47435947  0.05654518  1.0
  Zn  Zn1  1  0.03020855  0.61028924  0.94711131  1.0
  Zn  Zn2  1  0.02183761  0.43684440  0.95127690  1.0
  Zn  Zn3  1  0.05866292  0.46438958  0.06703759  1.0
  Zn  Zn4  1  0.61455616  0.02775007  0.95191605  1.0
  Zn  Zn5  1  0.47018712  0.05434292  0.06167767  1.0
  Zn  Zn6  1  0.47480474  0.88209398  0.06425179  1.0
  Zn  Zn7  1  0.43449030  0.02154926  0.94825537  1.0
  H  H8  1  0.50824712  0.13374881  0.74171728  1.0
  H  H9  1  0.56583611  0.19676618  0.61609020  1.0
  H  H10  1  0.80677989  0.18240142  0.61796890  1.0
  H  H11  1  0.67834347  0.30735637  0.39371702  1.0
  H  H12  1  0.97725128  0.35929686  0.27236549  1.0
  H  H13  1  0.91827568  0.29667979  0.39795151  1.0
  H  H14  1  0.37853585  0.75709046  0.26882437  1.0
  H  H15  1  0.31095847  0.69116625  0.39419748  1.0
  H  H16  1  0.29203640  0.92176619  0.39622458  1.0
  H  H17  1  0.19882995  0.57878605  0.61040724  1.0
  H  H18  1  0.12406611  0.73477519  0.74621563  1.0
  H  H19  1  0.18316969  0.80535137  0.62076743  1.0
  H  H20  1  0.79903308  0.21197444  0.09102310  1.0
  H  H21  1  0.87032556  0.21586598  0.01423426  1.0
  H  H22  1  0.77975815  0.12142867  0.01840061  1.0
  H  H23  1  0.70810384  0.11982478  0.09416099  1.0
  H  H24  1  0.78264999  0.21899965  0.90672369  1.0
  H  H25  1  0.71092979  0.28469113  0.90231382  1.0
  H  H26  1  0.87073456  0.31533350  0.90326183  1.0
  H  H27  1  0.79692432  0.37899398  0.90174846  1.0
  H  H28  1  0.69423197  0.30548759  0.08877396  1.0
  H  H29  1  0.69453773  0.37478333  0.01154678  1.0
  H  H30  1  0.60624876  0.28257855  0.01115046  1.0
  H  H31  1  0.60393713  0.21419207  0.08935329  1.0
  H  H32  1  0.10931400  0.70655742  0.09413084  1.0
  H  H33  1  0.11459599  0.77374191  0.01377475  1.0
  H  H34  1  0.20419385  0.86572868  0.01331726  1.0
  H  H35  1  0.19946460  0.79745965  0.09316918  1.0
  H  H36  1  0.30771701  0.86579530  0.90784588  1.0
  H  H37  1  0.37897632  0.79958774  0.91146684  1.0
  H  H38  1  0.21953767  0.77194936  0.90868738  1.0
  H  H39  1  0.29037258  0.70546407  0.91441216  1.0
  H  H40  1  0.20945131  0.60895842  0.10299802  1.0
  H  H41  1  0.28254535  0.60739474  0.02989721  1.0
  H  H42  1  0.37351819  0.70051645  0.02650935  1.0
  H  H43  1  0.30109946  0.70085729  0.10035098  1.0
  H  H44  1  0.83864525  0.73284787  0.06208443  1.0
  H  H45  1  0.75513269  0.65524164  0.10261680  1.0
  H  H46  1  0.66631305  0.74783436  0.10575462  1.0
  H  H47  1  0.75040223  0.82500617  0.06445095  1.0
  H  H48  1  0.60783039  0.70542209  0.03855545  1.0
  H  H49  1  0.64935035  0.75310198  0.94970490  1.0
  H  H50  1  0.69754804  0.61344065  0.03449661  1.0
  H  H51  1  0.73916412  0.66249780  0.94569613  1.0
  H  H52  1  0.90005775  0.80273154  0.93398623  1.0
  H  H53  1  0.85970513  0.77365879  0.88657741  1.0
  H  H54  1  0.76986905  0.86531914  0.88959395  1.0
  H  H55  1  0.81058641  0.89466484  0.93662465  1.0
  H  H56  1  0.10061831  0.19829209  0.07084793  1.0
  H  H57  1  0.14625962  0.22909595  0.11507667  1.0
  H  H58  1  0.23026590  0.13237565  0.11349629  1.0
  H  H59  1  0.18696719  0.10485506  0.06635383  1.0
  H  H60  1  0.34995382  0.24209362  0.05455427  1.0
  H  H61  1  0.39489657  0.28924486  0.96580900  1.0
  H  H62  1  0.26506950  0.33884072  0.05321328  1.0
  H  H63  1  0.30846725  0.38343604  0.96436650  1.0
  H  H64  1  0.16161735  0.26202796  0.94268391  1.0
  H  H65  1  0.24443954  0.33948928  0.89862597  1.0
  H  H66  1  0.33484571  0.24819931  0.89738109  1.0
  H  H67  1  0.25174595  0.17118631  0.93822818  1.0
  C  C68  1  0.86088192  0.64023053  0.99533392  1.0
  C  C69  1  0.08935053  0.58285469  0.82463012  1.0
  C  C70  1  0.85312865  0.36431503  0.00088003  1.0
  C  C71  1  0.14028866  0.35726365  0.00909552  1.0
  C  C72  1  0.90510415  0.40460718  0.18653680  1.0
  C  C73  1  0.13868047  0.63173562  0.01092692  1.0
  C  C74  1  0.63639888  0.13991487  0.00483783  1.0
  C  C75  1  0.41712628  0.90811350  0.18682597  1.0
  C  C76  1  0.64402468  0.86227614  0.00184164  1.0
  C  C77  1  0.35803402  0.85494757  0.00732288  1.0
  C  C78  1  0.58282203  0.08930269  0.82614977  1.0
  C  C79  1  0.35284073  0.13027329  0.00725660  1.0
  C  C80  1  0.62340222  0.12401437  0.75097430  1.0
  C  C81  1  0.57373512  0.14541465  0.71357650  1.0
  C  C82  1  0.60558477  0.18033213  0.64384339  1.0
  C  C83  1  0.69061667  0.19484932  0.60826031  1.0
  C  C84  1  0.74115664  0.17253651  0.64476639  1.0
  C  C85  1  0.70843593  0.13761771  0.71491556  1.0
  C  C86  1  0.72583139  0.23073526  0.53712283  1.0
  C  C87  1  0.75797285  0.26159721  0.47577255  1.0
  C  C88  1  0.79385144  0.29725778  0.40465669  1.0
  C  C89  1  0.74410148  0.31832532  0.36743645  1.0
  C  C90  1  0.77755477  0.35322922  0.29724603  1.0
  C  C91  1  0.86286886  0.36821943  0.26172210  1.0
  C  C92  1  0.91165140  0.34715316  0.29998766  1.0
  C  C93  1  0.87903633  0.31244929  0.36970531  1.0
  C  C94  1  0.37513014  0.87528389  0.26169186  1.0
  C  C95  1  0.35959071  0.79217834  0.29782007  1.0
  C  C96  1  0.32204067  0.75553262  0.36724227  1.0
  C  C97  1  0.29769357  0.80219904  0.40377480  1.0
  C  C98  1  0.31147889  0.88524929  0.36860208  1.0
  C  C99  1  0.34966595  0.92156339  0.29862929  1.0
  C  C100  1  0.26024487  0.76628707  0.47472206  1.0
  C  C101  1  0.22908703  0.73448956  0.53605891  1.0
  C  C102  1  0.19455712  0.69662594  0.60706655  1.0
  C  C103  1  0.18198739  0.61335190  0.63996979  1.0
  C  C104  1  0.14873215  0.57443462  0.71001249  1.0
  C  C105  1  0.12688371  0.61823976  0.74938000  1.0
  C  C106  1  0.14054429  0.70161046  0.71542464  1.0
  C  C107  1  0.17327004  0.74083303  0.64592964  1.0
  C  C108  1  0.80700427  0.22107438  0.03974691  1.0
  C  C109  1  0.74702381  0.15912839  0.04186086  1.0
  C  C110  1  0.69287350  0.20174609  0.00400996  1.0
  C  C111  1  0.74870126  0.25588467  0.93052492  1.0
  C  C112  1  0.80694340  0.31874227  0.92921094  1.0
  C  C113  1  0.79259557  0.30599123  0.00180753  1.0
  C  C114  1  0.70429198  0.31395306  0.03735160  1.0
  C  C115  1  0.64517165  0.25288731  0.03775768  1.0
  C  C116  1  0.15152475  0.74369130  0.04230222  1.0
  C  C117  1  0.21136139  0.80473564  0.04162645  1.0
  C  C118  1  0.30002746  0.79342212  0.00883913  1.0
  C  C119  1  0.31543917  0.80513375  0.93634113  1.0
  C  C120  1  0.25639478  0.74303600  0.93758333  1.0
  C  C121  1  0.19908062  0.68977026  0.01083099  1.0
  C  C122  1  0.25009907  0.64715634  0.05104439  1.0
  C  C123  1  0.31038351  0.70849979  0.04925913  1.0
  C  C124  1  0.78233140  0.71294605  0.05953129  1.0
  C  C125  1  0.72339659  0.77414415  0.06139944  1.0
  C  C126  1  0.70400120  0.80424046  0.99727006  1.0
  C  C127  1  0.66501013  0.73223446  0.99439311  1.0
  C  C128  1  0.72453346  0.67151763  0.99191853  1.0
  C  C129  1  0.80394574  0.70158265  0.99379947  1.0
  C  C130  1  0.84296894  0.78183942  0.93327960  1.0
  C  C131  1  0.78355859  0.84269091  0.93519520  1.0
  C  C132  1  0.15923143  0.21858748  0.06975913  1.0
  C  C133  1  0.21622619  0.15556193  0.06810000  1.0
  C  C134  1  0.29666704  0.19238531  0.00552698  1.0
  C  C135  1  0.33640740  0.26368406  0.00894764  1.0
  C  C136  1  0.27922258  0.32685487  0.00851667  1.0
  C  C137  1  0.19936997  0.29785445  0.00685586  1.0
  C  C138  1  0.21863985  0.28290065  0.94340874  1.0
  C  C139  1  0.27775893  0.22197388  0.94181799  1.0
  Cl  Cl140  1  0.77780655  0.11047615  0.75279980  1.0
  Cl  Cl141  1  0.70795707  0.37664320  0.25933463  1.0
  Cl  Cl142  1  0.36033641  0.02391113  0.26205898  1.0
  Cl  Cl143  1  0.13919198  0.47212112  0.74346047  1.0
  O  O144  1  0.99950401  0.49671277  0.00654808  1.0
  O  O145  1  0.83140178  0.57045150  0.04208317  1.0
  O  O146  1  0.08961650  0.63027964  0.85203169  1.0
  O  O147  1  0.92822722  0.36516892  0.96883895  1.0
  O  O148  1  0.93339828  0.66267832  0.95133382  1.0
  O  O149  1  0.82521185  0.40689584  0.03261246  1.0
  O  O150  1  0.05918545  0.50962179  0.85540542  1.0
  O  O151  1  0.10646810  0.37416730  0.96676896  1.0
  O  O152  1  0.98270687  0.42143836  0.16270083  1.0
  O  O153  1  0.12797823  0.38449594  0.05344090  1.0
  O  O154  1  0.86110825  0.41530155  0.15234140  1.0
  O  O155  1  0.10025175  0.66219978  0.97247880  1.0
  O  O156  1  0.13047666  0.55834869  0.04896921  1.0
  O  O157  1  0.49751997  0.99555572  0.00559539  1.0
  O  O158  1  0.66967231  0.09540411  0.97625771  1.0
  O  O159  1  0.44892564  0.98096783  0.15517302  1.0
  O  O160  1  0.57450444  0.83435931  0.05024807  1.0
  O  O161  1  0.56018886  0.13671148  0.03396147  1.0
  O  O162  1  0.66753138  0.93391801  0.95775566  1.0
  O  O163  1  0.41867725  0.85931534  0.16037521  1.0
  O  O164  1  0.40025691  0.82906853  0.04298431  1.0
  O  O165  1  0.50710413  0.06103635  0.85175659  1.0
  O  O166  1  0.35974454  0.92776531  0.97050570  1.0
  O  O167  1  0.62607126  0.09197882  0.85852240  1.0
  O  O168  1  0.37603998  0.10647312  0.05653760  1.0
  O  O169  1  0.37228467  0.10641752  0.96052827  1.0
