# generated using pymatgen
data_Fe3H33C57N3O13
_symmetry_space_group_name_H-M   'P 1'
_cell_length_a   18.94471936
_cell_length_b   18.94458326
_cell_length_c   18.94480830
_cell_angle_alpha   61.31934836
_cell_angle_beta   61.31948152
_cell_angle_gamma   61.31949286
_symmetry_Int_Tables_number   1
_chemical_formula_structural   Fe3H33C57N3O13
_chemical_formula_sum   'Fe6 H66 C114 N6 O26'
_cell_volume   4950.40034292
_cell_formula_units_Z   2
loop_
 _symmetry_equiv_pos_site_id
 _symmetry_equiv_pos_as_xyz
  1  'x, y, z'
loop_
 _atom_site_type_symbol
 _atom_site_label
 _atom_site_symmetry_multiplicity
 _atom_site_fract_x
 _atom_site_fract_y
 _atom_site_fract_z
 _atom_site_occupancy
  Fe  Fe0  1  0.85011977  0.64987572  0.75000376  1.0
  Fe  Fe1  1  0.64988165  0.74999718  0.85012340  1.0
  Fe  Fe2  1  0.74999950  0.85011769  0.64988087  1.0
  Fe  Fe3  1  0.14988043  0.35012361  0.24999683  1.0
  Fe  Fe4  1  0.35011775  0.25000279  0.14987674  1.0
  Fe  Fe5  1  0.25000070  0.14988164  0.35011920  1.0
  H  H6  1  0.96656388  0.52632667  0.64503432  1.0
  H  H7  1  0.07784031  0.51124046  0.52394475  1.0
  H  H8  1  0.11618271  0.45262937  0.41346908  1.0
  H  H9  1  0.17936252  0.19854986  0.58638565  1.0
  H  H10  1  0.13860511  0.25625274  0.69917483  1.0
  H  H11  1  0.52632607  0.64503233  0.96656728  1.0
  H  H12  1  0.51123715  0.52393977  0.07784114  1.0
  H  H13  1  0.45261544  0.41346803  0.11618771  1.0
  H  H14  1  0.19854254  0.58639943  0.17936386  1.0
  H  H15  1  0.25625773  0.69918190  0.13860294  1.0
  H  H16  1  0.64503070  0.96656138  0.52633282  1.0
  H  H17  1  0.52394110  0.07783826  0.51123199  1.0
  H  H18  1  0.41346824  0.11619337  0.45261170  1.0
  H  H19  1  0.58639675  0.17937028  0.19853876  1.0
  H  H20  1  0.69918150  0.13860279  0.25625281  1.0
  H  H21  1  0.97367147  0.53343077  0.85497270  1.0
  H  H22  1  0.98876009  0.42215699  0.97605745  1.0
  H  H23  1  0.04737709  0.38381514  0.08652912  1.0
  H  H24  1  0.30145239  0.32063721  0.91360722  1.0
  H  H25  1  0.24374204  0.36139522  0.80081981  1.0
  H  H26  1  0.85496996  0.97366760  0.53343440  1.0
  H  H27  1  0.97606002  0.98876910  0.42215553  1.0
  H  H28  1  0.08652732  0.04739158  0.38380958  1.0
  H  H29  1  0.91360180  0.30146422  0.32062913  1.0
  H  H30  1  0.80081962  0.24375100  0.36138795  1.0
  H  H31  1  0.53343894  0.85496688  0.97367440  1.0
  H  H32  1  0.42216402  0.97605822  0.98875953  1.0
  H  H33  1  0.38381198  0.08653514  0.04737443  1.0
  H  H34  1  0.32063619  0.91361421  0.30144985  1.0
  H  H35  1  0.36139867  0.80082230  0.24374627  1.0
  H  H36  1  0.03343832  0.47367393  0.35496523  1.0
  H  H37  1  0.92216031  0.48875760  0.47605573  1.0
  H  H38  1  0.88381790  0.54736869  0.58653139  1.0
  H  H39  1  0.82063750  0.80144820  0.41361512  1.0
  H  H40  1  0.86139551  0.74374532  0.30082459  1.0
  H  H41  1  0.47367271  0.35496955  0.03343436  1.0
  H  H42  1  0.48876325  0.47606084  0.92215664  1.0
  H  H43  1  0.54738456  0.58653194  0.88381215  1.0
  H  H44  1  0.80145605  0.41360117  0.82063690  1.0
  H  H45  1  0.74374206  0.30081871  0.86139671  1.0
  H  H46  1  0.35496830  0.03343795  0.47366676  1.0
  H  H47  1  0.47606050  0.92216235  0.48876469  1.0
  H  H48  1  0.58653257  0.88380596  0.54738596  1.0
  H  H49  1  0.41360364  0.82063033  0.80145849  1.0
  H  H50  1  0.30081991  0.86139654  0.74374457  1.0
  H  H51  1  0.02632794  0.46656729  0.14502888  1.0
  H  H52  1  0.01123812  0.57784107  0.02394312  1.0
  H  H53  1  0.95261991  0.61618293  0.91347256  1.0
  H  H54  1  0.69854520  0.67936276  0.08639643  1.0
  H  H55  1  0.75625655  0.63860539  0.19918200  1.0
  H  H56  1  0.14503087  0.02632982  0.46656417  1.0
  H  H57  1  0.02394196  0.01123405  0.57784080  1.0
  H  H58  1  0.91347043  0.95261347  0.61618998  1.0
  H  H59  1  0.08639375  0.69854021  0.67936914  1.0
  H  H60  1  0.19917817  0.75625025  0.63860919  1.0
  H  H61  1  0.46656185  0.14503436  0.02632605  1.0
  H  H62  1  0.57783701  0.02393857  0.01124453  1.0
  H  H63  1  0.61618783  0.91346355  0.95262771  1.0
  H  H64  1  0.67936299  0.08638830  0.69855236  1.0
  H  H65  1  0.63860053  0.19917640  0.75625934  1.0
  H  H66  1  0.16693640  0.33306490  0.75000003  1.0
  H  H67  1  0.33306398  0.75000149  0.16693560  1.0
  H  H68  1  0.74999887  0.16693308  0.33306668  1.0
  H  H69  1  0.83306341  0.66693379  0.25000158  1.0
  H  H70  1  0.66693580  0.25000102  0.83306473  1.0
  H  H71  1  0.25000052  0.83306689  0.66693452  1.0
  C  C72  1  0.99988061  0.49670874  0.69083864  1.0
  C  C73  1  0.07266068  0.42433305  0.68741958  1.0
  C  C74  1  0.16339802  0.28851666  0.42839514  1.0
  C  C75  1  0.10375139  0.38798932  0.62015603  1.0
  C  C76  1  0.09881104  0.44261791  0.53856664  1.0
  C  C77  1  0.12006457  0.41003419  0.47651791  1.0
  C  C78  1  0.14736532  0.32201887  0.49391937  1.0
  C  C79  1  0.15673830  0.26701077  0.57359314  1.0
  C  C80  1  0.13473718  0.29964497  0.63613247  1.0
  C  C81  1  0.49671589  0.69083565  0.99987735  1.0
  C  C82  1  0.42432873  0.68742266  0.07266604  1.0
  C  C83  1  0.28850414  0.42840336  0.16339662  1.0
  C  C84  1  0.38799338  0.62015508  0.10374802  1.0
  C  C85  1  0.44260682  0.53856724  0.09881302  1.0
  C  C86  1  0.41002468  0.47652183  0.12006502  1.0
  C  C87  1  0.32200716  0.49392890  0.14736468  1.0
  C  C88  1  0.26700588  0.57359935  0.15673697  1.0
  C  C89  1  0.29964171  0.63614062  0.13473619  1.0
  C  C90  1  0.69083527  0.99987400  0.49671460  1.0
  C  C91  1  0.68742243  0.07265913  0.42432955  1.0
  C  C92  1  0.42839872  0.16340159  0.28850495  1.0
  C  C93  1  0.62015747  0.10374496  0.38798957  1.0
  C  C94  1  0.53856799  0.09881205  0.44260265  1.0
  C  C95  1  0.47652112  0.12006825  0.41002185  1.0
  C  C96  1  0.49392702  0.14737084  0.32200205  1.0
  C  C97  1  0.57359946  0.15674152  0.26700266  1.0
  C  C98  1  0.63614035  0.13473662  0.29963732  1.0
  C  C99  1  0.00328863  0.50011484  0.80916600  1.0
  C  C100  1  0.07566371  0.42733615  0.81258281  1.0
  C  C101  1  0.21148606  0.33660646  0.07159889  1.0
  C  C102  1  0.11200766  0.39624774  0.87984353  1.0
  C  C103  1  0.05738552  0.40118624  0.96143445  1.0
  C  C104  1  0.08996820  0.37993591  0.02347989  1.0
  C  C105  1  0.17798648  0.35263471  0.00607451  1.0
  C  C106  1  0.23298924  0.34326335  0.92639994  1.0
  C  C107  1  0.20035470  0.36526191  0.86386626  1.0
  C  C108  1  0.80916458  0.00328425  0.50012347  1.0
  C  C109  1  0.81257861  0.07566999  0.42733754  1.0
  C  C110  1  0.07159966  0.21149796  0.33659948  1.0
  C  C111  1  0.87984268  0.11201381  0.39625106  1.0
  C  C112  1  0.96142834  0.05739738  0.40118738  1.0
  C  C113  1  0.02347854  0.08998160  0.37993292  1.0
  C  C114  1  0.00606901  0.17799886  0.35263253  1.0
  C  C115  1  0.92640222  0.23300328  0.34325676  1.0
  C  C116  1  0.86385627  0.20036392  0.36526044  1.0
  C  C117  1  0.50012551  0.80916303  0.00328675  1.0
  C  C118  1  0.42733791  0.81257923  0.07567105  1.0
  C  C119  1  0.33659998  0.07160595  0.21148715  1.0
  C  C120  1  0.39625497  0.87984612  0.11200668  1.0
  C  C121  1  0.40118984  0.96143275  0.05738880  1.0
  C  C122  1  0.37993333  0.02348574  0.08996649  1.0
  C  C123  1  0.35263119  0.00608110  0.17798443  1.0
  C  C124  1  0.34326140  0.92640739  0.23298803  1.0
  C  C125  1  0.36526537  0.86386553  0.20035633  1.0
  C  C126  1  0.00012140  0.50329059  0.30916056  1.0
  C  C127  1  0.92733992  0.57566692  0.31257999  1.0
  C  C128  1  0.83660218  0.71148267  0.57160440  1.0
  C  C129  1  0.89624962  0.61200938  0.37984343  1.0
  C  C130  1  0.90118898  0.55738015  0.46143413  1.0
  C  C131  1  0.87993442  0.58996705  0.52348077  1.0
  C  C132  1  0.85263471  0.67797729  0.50608178  1.0
  C  C133  1  0.84326110  0.73298920  0.42640648  1.0
  C  C134  1  0.86526344  0.70035309  0.36386747  1.0
  C  C135  1  0.50328409  0.30916622  0.00012266  1.0
  C  C136  1  0.57566984  0.31257985  0.92733487  1.0
  C  C137  1  0.71149586  0.57159661  0.83660536  1.0
  C  C138  1  0.61200701  0.37984553  0.89625187  1.0
  C  C139  1  0.55739397  0.46143400  0.90118690  1.0
  C  C140  1  0.58997412  0.52347814  0.87993647  1.0
  C  C141  1  0.67799263  0.50607171  0.85263708  1.0
  C  C142  1  0.73299593  0.42640062  0.84326255  1.0
  C  C143  1  0.70035808  0.36385998  0.86526399  1.0
  C  C144  1  0.30916453  0.00012661  0.50328347  1.0
  C  C145  1  0.31257738  0.92733957  0.57566995  1.0
  C  C146  1  0.57160048  0.83659711  0.71149378  1.0
  C  C147  1  0.37984293  0.89625564  0.61200821  1.0
  C  C148  1  0.46143259  0.90118983  0.55739390  1.0
  C  C149  1  0.52347927  0.87993235  0.58997540  1.0
  C  C150  1  0.50607398  0.85262977  0.67799439  1.0
  C  C151  1  0.42640154  0.84325909  0.73299483  1.0
  C  C152  1  0.36386065  0.86526399  0.70036017  1.0
  C  C153  1  0.99671098  0.49988259  0.19083578  1.0
  C  C154  1  0.92433529  0.57266319  0.18741836  1.0
  C  C155  1  0.78851213  0.66339351  0.92840184  1.0
  C  C156  1  0.88799116  0.60375032  0.12015781  1.0
  C  C157  1  0.94261209  0.59881182  0.03856747  1.0
  C  C158  1  0.91002920  0.62006279  0.97652182  1.0
  C  C159  1  0.82201092  0.64736399  0.99392825  1.0
  C  C160  1  0.76700856  0.65673598  0.07360233  1.0
  C  C161  1  0.79964391  0.63473678  0.13613594  1.0
  C  C162  1  0.19083623  0.99671508  0.49987577  1.0
  C  C163  1  0.18742159  0.92432934  0.57266305  1.0
  C  C164  1  0.92839993  0.78850328  0.66340103  1.0
  C  C165  1  0.12015691  0.88798743  0.60374839  1.0
  C  C166  1  0.03856963  0.94260513  0.59881170  1.0
  C  C167  1  0.97652122  0.91002281  0.62006597  1.0
  C  C168  1  0.99392634  0.82200620  0.64736712  1.0
  C  C169  1  0.07359737  0.76699796  0.65674216  1.0
  C  C170  1  0.13614050  0.79963860  0.63473816  1.0
  C  C171  1  0.49987549  0.19083757  0.99671338  1.0
  C  C172  1  0.57266308  0.18742137  0.92433120  1.0
  C  C173  1  0.66340342  0.92839465  0.78851183  1.0
  C  C174  1  0.60374765  0.12015130  0.88799789  1.0
  C  C175  1  0.59881239  0.03856403  0.94261363  1.0
  C  C176  1  0.62006806  0.97651549  0.91003526  1.0
  C  C177  1  0.64737102  0.99391759  0.82201709  1.0
  C  C178  1  0.65673920  0.07359257  0.76701524  1.0
  C  C179  1  0.63473585  0.13613252  0.79964650  1.0
  C  C180  1  0.11045114  0.38954669  0.75000067  1.0
  C  C181  1  0.38955544  0.75000028  0.11044598  1.0
  C  C182  1  0.75000018  0.11044232  0.38955536  1.0
  C  C183  1  0.88955089  0.61045073  0.24999890  1.0
  C  C184  1  0.61044475  0.25000096  0.88955476  1.0
  C  C185  1  0.25000042  0.88955765  0.61044421  1.0
  N  N186  1  0.96635807  0.53363786  0.75000242  1.0
  N  N187  1  0.53364097  0.75000088  0.96636179  1.0
  N  N188  1  0.75000183  0.96635758  0.53364005  1.0
  N  N189  1  0.03364213  0.46636148  0.24999765  1.0
  N  N190  1  0.46635859  0.25000227  0.03363833  1.0
  N  N191  1  0.24999817  0.03364239  0.46635822  1.0
  O  O192  1  0.12861048  0.34060473  0.37095221  1.0
  O  O193  1  0.20900800  0.21116229  0.43537501  1.0
  O  O194  1  0.34059626  0.37095865  0.12860389  1.0
  O  O195  1  0.21115622  0.43538127  0.20900414  1.0
  O  O196  1  0.37095421  0.12861466  0.34059774  1.0
  O  O197  1  0.43537640  0.20900746  0.21115329  1.0
  O  O198  1  0.15940229  0.37139455  0.12903850  1.0
  O  O199  1  0.28884281  0.29099496  0.06461746  1.0
  O  O200  1  0.12904415  0.15940037  0.37138903  1.0
  O  O201  1  0.06462403  0.28884410  0.29099283  1.0
  O  O202  1  0.37138971  0.12905075  0.15939554  1.0
  O  O203  1  0.29099430  0.06462664  0.28883689  1.0
  O  O204  1  0.87139134  0.65939332  0.62904822  1.0
  O  O205  1  0.79099282  0.78883514  0.56462514  1.0
  O  O206  1  0.65940373  0.62904132  0.87139649  1.0
  O  O207  1  0.78884438  0.56461870  0.79099808  1.0
  O  O208  1  0.62904739  0.87138595  0.65939735  1.0
  O  O209  1  0.56462420  0.79099252  0.78884310  1.0
  O  O210  1  0.84059731  0.62860478  0.87096185  1.0
  O  O211  1  0.71115658  0.70900500  0.93538216  1.0
  O  O212  1  0.87095444  0.84060023  0.62861067  1.0
  O  O213  1  0.93537556  0.71115714  0.70900662  1.0
  O  O214  1  0.62861210  0.87094921  0.84060398  1.0
  O  O215  1  0.70900769  0.93537460  0.71116352  1.0
  O  O216  1  0.75000178  0.74999729  0.75000107  1.0
  O  O217  1  0.24999924  0.25000141  0.24999944  1.0
