# generated using pymatgen
data_Al6H21C63NO30
_symmetry_space_group_name_H-M   'P 1'
_cell_length_a   12.26912654
_cell_length_b   12.47346522
_cell_length_c   27.03314251
_cell_angle_alpha   90.49905483
_cell_angle_beta   97.65546285
_cell_angle_gamma   119.11491434
_symmetry_Int_Tables_number   1
_chemical_formula_structural   Al6H21C63NO30
_chemical_formula_sum   'Al6 H21 C63 N1 O30'
_cell_volume   3569.21590352
_cell_formula_units_Z   1
loop_
 _symmetry_equiv_pos_site_id
 _symmetry_equiv_pos_as_xyz
  1  'x, y, z'
loop_
 _atom_site_type_symbol
 _atom_site_label
 _atom_site_symmetry_multiplicity
 _atom_site_fract_x
 _atom_site_fract_y
 _atom_site_fract_z
 _atom_site_occupancy
  Al  Al0  1  0.18745438  0.58952109  0.51153422  1.0
  Al  Al1  1  0.92281350  0.33719567  0.49709780  1.0
  Al  Al2  1  0.91767324  0.57621564  0.49579646  1.0
  Al  Al3  1  0.15033007  0.07731508  0.97908729  1.0
  Al  Al4  1  0.41650572  0.08109938  0.99372229  1.0
  Al  Al5  1  0.42045939  0.32443352  0.99622615  1.0
  H  H6  1  0.62454001  0.14729239  0.69235504  1.0
  H  H7  1  0.02241306  0.15317082  0.19016412  1.0
  H  H8  1  0.37069148  0.43612376  0.32390110  1.0
  H  H9  1  0.72766318  0.52156749  0.79970181  1.0
  H  H10  1  0.75176718  0.53715691  0.70948556  1.0
  H  H11  1  0.14358457  0.64175416  0.27993466  1.0
  H  H12  1  0.16411228  0.01490733  0.20710166  1.0
  H  H13  1  0.13028329  0.97955063  0.29591674  1.0
  H  H14  1  0.98490327  0.15015863  0.27904167  1.0
  H  H15  1  0.55419015  0.47938343  0.29602115  1.0
  H  H16  1  0.51248623  0.59756402  0.28396352  1.0
  H  H17  1  0.61361041  0.57783805  0.24688469  1.0
  H  H18  1  0.45238215  0.99531739  0.72836382  1.0
  H  H19  1  0.39952454  0.04456003  0.77839174  1.0
  H  H20  1  0.45321118  0.93476443  0.78836799  1.0
  H  H21  1  0.18836465  0.67812832  0.14755595  1.0
  H  H22  1  0.17457640  0.49470577  0.16765759  1.0
  H  H23  1  0.07027399  0.48289430  0.20994315  1.0
  H  H24  1  0.23635724  0.55729459  0.23087539  1.0
  H  H25  1  0.39300896  0.68002190  0.49288366  1.0
  H  H26  1  0.94439130  0.96776849  0.99685072  1.0
  C  C27  1  0.10547064  0.38580298  0.58036489  1.0
  C  C28  1  0.70539835  0.44040472  0.77588955  1.0
  C  C29  1  0.71839244  0.44908637  0.72572358  1.0
  C  C30  1  0.68860031  0.34295317  0.69503844  1.0
  C  C31  1  0.66136805  0.32611695  0.79704812  1.0
  C  C32  1  0.64058637  0.31404505  0.84734267  1.0
  C  C33  1  0.70573886  0.35200196  0.64414874  1.0
  C  C34  1  0.61735099  0.30042653  0.89011081  1.0
  C  C35  1  0.20523850  0.88561744  0.86289210  1.0
  C  C36  1  0.18231560  0.85474554  0.81786907  1.0
  C  C37  1  0.16157970  0.82694895  0.76834012  1.0
  C  C38  1  0.77060703  0.38186958  0.55405259  1.0
  C  C39  1  0.14735180  0.80821777  0.72243780  1.0
  C  C40  1  0.13276118  0.78738063  0.67268745  1.0
  C  C41  1  0.11922145  0.76694863  0.62718030  1.0
  C  C42  1  0.21609610  0.32386227  0.86643412  1.0
  C  C43  1  0.19866649  0.33281356  0.82126001  1.0
  C  C44  1  0.18016763  0.34013259  0.77172359  1.0
  C  C45  1  0.16366751  0.34442154  0.72591094  1.0
  C  C46  1  0.14554154  0.35142767  0.67634065  1.0
  C  C47  1  0.12871844  0.35957037  0.63108688  1.0
  C  C48  1  0.61747654  0.29474679  0.12544168  1.0
  C  C49  1  0.09563066  0.71855551  0.57611278  1.0
  C  C50  1  0.63959852  0.30853956  0.17140108  1.0
  C  C51  1  0.66218597  0.32234371  0.22163998  1.0
  C  C52  1  0.68109007  0.33376853  0.26789745  1.0
  C  C53  1  0.70426175  0.34745550  0.31813888  1.0
  C  C54  1  0.72742689  0.36070020  0.36410455  1.0
  C  C55  1  0.10811364  0.75995577  0.38645223  1.0
  C  C56  1  0.14777014  0.72247831  0.26323039  1.0
  C  C57  1  0.16563389  0.74054418  0.21304158  1.0
  C  C58  1  0.15891803  0.93325215  0.22338034  1.0
  C  C59  1  0.14008780  0.91395515  0.27269755  1.0
  C  C60  1  0.10330159  0.35999416  0.44137160  1.0
  C  C61  1  0.13560979  0.80813217  0.29285503  1.0
  C  C62  1  0.17319455  0.84969796  0.19322741  1.0
  C  C63  1  0.19549520  0.87332353  0.14366509  1.0
  C  C64  1  0.11970023  0.78518872  0.34332298  1.0
  C  C65  1  0.21587535  0.89431814  0.10079860  1.0
  C  C66  1  0.13281420  0.32181419  0.39716074  1.0
  C  C67  1  0.07721283  0.21185496  0.26908363  1.0
  C  C68  1  0.09818468  0.21358053  0.21989570  1.0
  C  C69  1  0.31775441  0.37414493  0.24482188  1.0
  C  C70  1  0.29646610  0.37379205  0.29425948  1.0
  C  C71  1  0.77746626  0.38673398  0.41672131  1.0
  C  C72  1  0.17589557  0.29437706  0.30646146  1.0
  C  C73  1  0.21668668  0.29526776  0.20654314  1.0
  C  C74  1  0.23267827  0.30126377  0.15582340  1.0
  C  C75  1  0.15290812  0.30477537  0.35567156  1.0
  C  C76  1  0.23994981  0.30453856  0.11124240  1.0
  C  C77  1  0.23427316  0.94351795  0.91269811  1.0
  C  C78  1  0.56528583  0.27498313  0.93560168  1.0
  C  C79  1  0.23862206  0.29284445  0.91638359  1.0
  C  C80  1  0.23812771  0.94335136  0.05303034  1.0
  C  C81  1  0.56696045  0.26993663  0.07287054  1.0
  C  C82  1  0.09241859  0.71032896  0.43430251  1.0
  C  C83  1  0.25080040  0.28654296  0.06002041  1.0
  C  C84  1  0.72329655  0.36010215  0.60060475  1.0
  C  C85  1  0.64542873  0.22864497  0.71571617  1.0
  C  C86  1  0.63184751  0.21981769  0.76613932  1.0
  C  C87  1  0.53301286  0.53033627  0.26679650  1.0
  C  C88  1  0.46691553  0.01615359  0.76911345  1.0
  C  C89  1  0.16343365  0.54299172  0.19892192  1.0
  N  N90  1  0.17535026  0.65804427  0.18326859  1.0
  O  O91  1  0.17934820  0.70160718  0.56100029  1.0
  O  O92  1  0.80249910  0.30856031  0.43779631  1.0
  O  O93  1  0.79826174  0.48920634  0.43706584  1.0
  O  O94  1  0.99632633  0.69795806  0.45362964  1.0
  O  O95  1  0.00685988  0.49954133  0.50135636  1.0
  O  O96  1  0.15831033  0.18876838  0.92758948  1.0
  O  O97  1  0.15653344  0.97295659  0.92534125  1.0
  O  O98  1  0.33953977  0.96433241  0.93887120  1.0
  O  O99  1  0.54070387  0.17217601  0.95363423  1.0
  O  O100  1  0.54104306  0.35477939  0.95413359  1.0
  O  O101  1  0.34155380  0.37187004  0.94454200  1.0
  O  O102  1  0.18350395  0.48960068  0.56796944  1.0
  O  O103  1  0.16428331  0.18912442  0.03519247  1.0
  O  O104  1  0.15873575  0.97155174  0.03155740  1.0
  O  O105  1  0.33911739  0.95977960  0.03675689  1.0
  O  O106  1  0.53926309  0.16543214  0.05226041  1.0
  O  O107  1  0.54795917  0.35204215  0.05210756  1.0
  O  O108  1  0.35095782  0.36888534  0.04401847  1.0
  O  O109  1  0.33155839  0.16201382  0.99015778  1.0
  O  O110  1  0.00430927  0.30248805  0.55271964  1.0
  O  O111  1  0.79525279  0.30195168  0.53585862  1.0
  O  O112  1  0.79124919  0.48228245  0.53481343  1.0
  O  O113  1  0.98701999  0.69129762  0.55108047  1.0
  O  O114  1  0.17100141  0.67816883  0.45304645  1.0
  O  O115  1  0.18098343  0.46603908  0.46228335  1.0
  O  O116  1  0.99631917  0.28398078  0.45470269  1.0
  O  O117  1  0.42956642  0.44787652  0.22951283  1.0
  O  O118  1  0.59382461  0.11155698  0.78778478  1.0
  O  O119  1  0.35221374  0.67376051  0.52176782  1.0
  O  O120  1  0.98547076  0.00034812  0.96810360  1.0
