# generated using pymatgen
data_Al2H11C20IO10
_symmetry_space_group_name_H-M   'P 1'
_cell_length_a   6.65104704
_cell_length_b   14.58452017
_cell_length_c   18.45112413
_cell_angle_alpha   78.75881916
_cell_angle_beta   89.01516509
_cell_angle_gamma   89.97803287
_symmetry_Int_Tables_number   1
_chemical_formula_structural   Al2H11C20IO10
_chemical_formula_sum   'Al4 H22 C40 I2 O20'
_cell_volume   1755.19785493
_cell_formula_units_Z   2
loop_
 _symmetry_equiv_pos_site_id
 _symmetry_equiv_pos_as_xyz
  1  'x, y, z'
loop_
 _atom_site_type_symbol
 _atom_site_label
 _atom_site_symmetry_multiplicity
 _atom_site_fract_x
 _atom_site_fract_y
 _atom_site_fract_z
 _atom_site_occupancy
  Al  Al0  1  0.08681081  0.50002215  0.49677458  1.0
  Al  Al1  1  0.58727179  0.49938768  0.50138728  1.0
  Al  Al2  1  0.64843559  0.00004607  0.00318563  1.0
  Al  Al3  1  0.14790513  0.00071883  0.99861810  1.0
  H  H4  1  0.53697707  0.26988068  0.68727407  1.0
  H  H5  1  0.57069090  0.15966177  0.80924582  1.0
  H  H6  1  0.19779464  0.22972896  0.81257430  1.0
  H  H7  1  0.16391491  0.33989485  0.69064453  1.0
  H  H8  1  0.12582537  0.30176832  0.35315036  1.0
  H  H9  1  0.51539117  0.39762189  0.32391705  1.0
  H  H10  1  0.26167184  0.19008907  0.27830699  1.0
  H  H11  1  0.47277154  0.30928673  0.22230450  1.0
  H  H12  1  0.21946372  0.10180498  0.17659882  1.0
  H  H13  1  0.60916680  0.19781455  0.14714893  1.0
  H  H14  1  0.58599044  0.72214465  0.62523976  1.0
  H  H15  1  0.04197082  0.57344961  0.70233787  1.0
  H  H16  1  0.69320192  0.92722300  0.79728073  1.0
  H  H17  1  0.14934043  0.77828917  0.87436417  1.0
  H  H18  1  0.04621701  0.72493147  0.32245011  1.0
  H  H19  1  0.06284992  0.83787850  0.20044983  1.0
  H  H20  1  0.68953333  0.77514241  0.17752474  1.0
  H  H21  1  0.67272203  0.66215251  0.29950245  1.0
  H  H22  1  0.33172830  0.37828148  0.53151251  1.0
  H  H23  1  0.83843267  0.61140157  0.52056853  1.0
  H  H24  1  0.40347931  0.12182241  0.96863312  1.0
  H  H25  1  0.89685410  0.88874839  0.97929062  1.0
  C  C26  1  0.32490702  0.59420747  0.59448295  1.0
  C  C27  1  0.35016899  0.61983681  0.38958627  1.0
  C  C28  1  0.84226679  0.40612826  0.40548443  1.0
  C  C29  1  0.83261148  0.37696030  0.60948606  1.0
  C  C30  1  0.68057280  0.26103551  0.71539118  1.0
  C  C31  1  0.69933366  0.19990627  0.78290640  1.0
  C  C32  1  0.88603734  0.18851901  0.81790101  1.0
  C  C33  1  0.05410381  0.23859966  0.78455070  1.0
  C  C34  1  0.03528078  0.29969617  0.71704255  1.0
  C  C35  1  0.84864997  0.31120430  0.68207723  1.0
  C  C36  1  0.82420394  0.35400796  0.34411155  1.0
  C  C37  1  0.91070310  0.14551589  0.15630257  1.0
  C  C38  1  0.12027054  0.19275481  0.24886773  1.0
  C  C39  1  0.09711866  0.14347178  0.19314839  1.0
  C  C40  1  0.75141475  0.19723754  0.17585948  1.0
  C  C41  1  0.77315217  0.25082540  0.23151857  1.0
  C  C42  1  0.96149556  0.24864500  0.26890302  1.0
  C  C43  1  0.98342204  0.30228840  0.32450506  1.0
  C  C44  1  0.63764175  0.35592347  0.30735489  1.0
  C  C45  1  0.61432495  0.30662779  0.25166007  1.0
  C  C46  1  0.31636309  0.64409171  0.65788999  1.0
  C  C47  1  0.41903744  0.85639654  0.84179003  1.0
  C  C48  1  0.59161365  0.83029725  0.73137437  1.0
  C  C49  1  0.58064968  0.87576618  0.79004280  1.0
  C  C50  1  0.27379270  0.79132249  0.83451321  1.0
  C  C51  1  0.28639123  0.74051435  0.77682310  1.0
  C  C52  1  0.44908918  0.76005396  0.72278947  1.0
  C  C53  1  0.46164234  0.70918618  0.66513360  1.0
  C  C54  1  0.15458310  0.62486273  0.70960891  1.0
  C  C55  1  0.14368503  0.67034157  0.76824691  1.0
  C  C56  1  0.18578431  0.73633826  0.29005099  1.0
  C  C57  1  0.19514021  0.79882612  0.22271119  1.0
  C  C58  1  0.37718835  0.81271793  0.18232896  1.0
  C  C59  1  0.54988787  0.76371537  0.20987958  1.0
  C  C60  1  0.54045919  0.70119694  0.27722936  1.0
  C  C61  1  0.35841346  0.68729560  0.31758605  1.0
  C  C62  1  0.38531907  0.88016330  0.11031265  1.0
  C  C63  1  0.41054102  0.90610497  0.90533536  1.0
  C  C64  1  0.90240858  0.12300135  0.89056648  1.0
  C  C65  1  0.89283407  0.09367278  0.09471321  1.0
  I  I66  1  0.82983378  0.86777240  0.65409562  1.0
  I  I67  1  0.90559479  0.63291893  0.84562300  1.0
  O  O68  1  0.51720859  0.58696225  0.41512522  1.0
  O  O69  1  0.15652254  0.56761739  0.57394937  1.0
  O  O70  1  0.99712941  0.39783187  0.57363807  1.0
  O  O71  1  0.17865402  0.59996833  0.42067502  1.0
  O  O72  1  0.01560708  0.43274708  0.42148156  1.0
  O  O73  1  0.49662211  0.58275988  0.56578577  1.0
  O  O74  1  0.33676807  0.44263278  0.50535512  1.0
  O  O75  1  0.67834851  0.41944498  0.43845221  1.0
  O  O76  1  0.65862544  0.40722390  0.58884976  1.0
  O  O77  1  0.83707427  0.55691094  0.49774412  1.0
  O  O78  1  0.23888365  0.91743602  0.93411176  1.0
  O  O79  1  0.55678311  0.90003107  0.07921866  1.0
  O  O80  1  0.71952438  0.06717588  0.07858503  1.0
  O  O81  1  0.57897175  0.93262405  0.92590330  1.0
  O  O82  1  0.73797264  0.10223752  0.92649317  1.0
  O  O83  1  0.21829858  0.91304856  0.08478710  1.0
  O  O84  1  0.39841587  0.05742396  0.99469258  1.0
  O  O85  1  0.07642950  0.09284274  0.91119213  1.0
  O  O86  1  0.05678765  0.08058543  0.06166992  1.0
  O  O87  1  0.89822094  0.94313280  0.00223665  1.0
