# generated using pymatgen
data_CuH10C6(NO2)4
_symmetry_space_group_name_H-M   'P 1'
_cell_length_a   6.24134674
_cell_length_b   14.48085259
_cell_length_c   14.48129884
_cell_angle_alpha   90.00021859
_cell_angle_beta   90.00119845
_cell_angle_gamma   89.99872024
_symmetry_Int_Tables_number   1
_chemical_formula_structural   CuH10C6(NO2)4
_chemical_formula_sum   'Cu4 H40 C24 N16 O32'
_cell_volume   1308.82010865
_cell_formula_units_Z   4
loop_
 _symmetry_equiv_pos_site_id
 _symmetry_equiv_pos_as_xyz
  1  'x, y, z'
loop_
 _atom_site_type_symbol
 _atom_site_label
 _atom_site_symmetry_multiplicity
 _atom_site_fract_x
 _atom_site_fract_y
 _atom_site_fract_z
 _atom_site_occupancy
  Cu  Cu0  1  0.99999066  0.13378440  0.13378230  1.0
  Cu  Cu1  1  0.50001066  0.86620923  0.86621911  1.0
  Cu  Cu2  1  0.24998028  0.63378535  0.36621262  1.0
  Cu  Cu3  1  0.75000875  0.36621489  0.63378438  1.0
  H  H4  1  0.36230872  0.32511972  0.24367797  1.0
  H  H5  1  0.86235458  0.67487664  0.75632353  1.0
  H  H6  1  0.88765418  0.82511672  0.25632873  1.0
  H  H7  1  0.38770492  0.17488976  0.74367715  1.0
  H  H8  1  0.13769934  0.75631864  0.67488768  1.0
  H  H9  1  0.63766831  0.24368132  0.32511655  1.0
  H  H10  1  0.61229389  0.74367728  0.17488984  1.0
  H  H11  1  0.11234432  0.25633192  0.82511554  1.0
  H  H12  1  0.96700286  0.82850182  0.07203279  1.0
  H  H13  1  0.46702872  0.17149696  0.92796762  1.0
  H  H14  1  0.28298070  0.32850010  0.42796494  1.0
  H  H15  1  0.78297968  0.67149636  0.57203305  1.0
  H  H16  1  0.53296013  0.92797068  0.17149372  1.0
  H  H17  1  0.03297836  0.07203516  0.82850678  1.0
  H  H18  1  0.21702813  0.57202661  0.67148538  1.0
  H  H19  1  0.71701681  0.42796981  0.32850993  1.0
  H  H20  1  0.92256603  0.85682043  0.95657001  1.0
  H  H21  1  0.42256326  0.14317810  0.04342653  1.0
  H  H22  1  0.32743622  0.35682233  0.54342722  1.0
  H  H23  1  0.82742964  0.64317714  0.45657119  1.0
  H  H24  1  0.57742250  0.04342925  0.14317226  1.0
  H  H25  1  0.07743109  0.95656924  0.85682864  1.0
  H  H26  1  0.17255760  0.45656396  0.64316774  1.0
  H  H27  1  0.67255620  0.54343359  0.35682922  1.0
  H  H28  1  0.18873392  0.95082681  0.22962713  1.0
  H  H29  1  0.68873028  0.04915539  0.77037137  1.0
  H  H30  1  0.06123814  0.45082795  0.27036571  1.0
  H  H31  1  0.56124423  0.54918520  0.72962055  1.0
  H  H32  1  0.31125589  0.77036342  0.04915183  1.0
  H  H33  1  0.81124036  0.22963276  0.95082364  1.0
  H  H34  1  0.43872666  0.72963133  0.54915446  1.0
  H  H35  1  0.93874501  0.27036497  0.45083325  1.0
  H  H36  1  0.22395703  0.27434622  0.11446161  1.0
  H  H37  1  0.72399516  0.72564944  0.88553998  1.0
  H  H38  1  0.02601591  0.77434313  0.38553953  1.0
  H  H39  1  0.52603455  0.22565932  0.61446366  1.0
  H  H40  1  0.27604721  0.88553835  0.72566096  1.0
  H  H41  1  0.77603475  0.11446301  0.27434112  1.0
  H  H42  1  0.47395159  0.61446191  0.22566478  1.0
  H  H43  1  0.97397122  0.38554440  0.77433501  1.0
  C  C44  1  0.00583906  0.96678981  0.03946587  1.0
  C  C45  1  0.50586273  0.03321008  0.96053437  1.0
  C  C46  1  0.24413219  0.46678227  0.46053186  1.0
  C  C47  1  0.74413342  0.53321457  0.53946509  1.0
  C  C48  1  0.49413113  0.96053222  0.03320904  1.0
  C  C49  1  0.99414035  0.03946698  0.96679232  1.0
  C  C50  1  0.25584747  0.53946039  0.53320854  1.0
  C  C51  1  0.75586500  0.46053772  0.46678713  1.0
  C  C52  1  0.22712270  0.20013752  0.29533821  1.0
  C  C53  1  0.72715505  0.79986018  0.70466272  1.0
  C  C54  1  0.02285238  0.70014483  0.20464952  1.0
  C  C55  1  0.52291257  0.29986249  0.79534880  1.0
  C  C56  1  0.27292597  0.70465413  0.79986181  1.0
  C  C57  1  0.77286408  0.29534657  0.20014231  1.0
  C  C58  1  0.47709391  0.79535470  0.29986014  1.0
  C  C59  1  0.97714965  0.20464951  0.70014451  1.0
  C  C60  1  0.38319035  0.25119991  0.22892442  1.0
  C  C61  1  0.88323157  0.74879694  0.77108004  1.0
  C  C62  1  0.86678589  0.75119648  0.27107786  1.0
  C  C63  1  0.36682740  0.24880951  0.72892645  1.0
  C  C64  1  0.11683660  0.77106871  0.74880778  1.0
  C  C65  1  0.61679646  0.22892732  0.25119764  1.0
  C  C66  1  0.63317129  0.72892818  0.24880938  1.0
  C  C67  1  0.13321592  0.27108150  0.75119757  1.0
  N  N68  1  0.06568088  0.00186167  0.11959248  1.0
  N  N69  1  0.56568419  0.99813348  0.88040900  1.0
  N  N70  1  0.18430100  0.50186322  0.38040002  1.0
  N  N71  1  0.68431415  0.49813491  0.61959360  1.0
  N  N72  1  0.43430480  0.88040510  0.99813517  1.0
  N  N73  1  0.93430179  0.11959539  0.00186286  1.0
  N  N74  1  0.31567467  0.61959205  0.49812994  1.0
  N  N75  1  0.81568345  0.38040339  0.50186768  1.0
  N  N76  1  0.95736626  0.87945319  0.02174868  1.0
  N  N77  1  0.45736660  0.12054776  0.97824819  1.0
  N  N78  1  0.29262594  0.37945364  0.47824442  1.0
  N  N79  1  0.79261393  0.62054686  0.52174884  1.0
  N  N80  1  0.54261584  0.97825141  0.12054470  1.0
  N  N81  1  0.04261816  0.02174950  0.87945727  1.0
  N  N82  1  0.20736843  0.52174637  0.62053539  1.0
  N  N83  1  0.70736817  0.47824945  0.37946052  1.0
  O  O84  1  0.05979165  0.93812784  0.19233634  1.0
  O  O85  1  0.55980032  0.06186737  0.80766303  1.0
  O  O86  1  0.19018425  0.43813131  0.30765852  1.0
  O  O87  1  0.69020079  0.56186952  0.69233516  1.0
  O  O88  1  0.44018095  0.80765757  0.06186960  1.0
  O  O89  1  0.94018913  0.19234217  0.93813194  1.0
  O  O90  1  0.30980219  0.69233447  0.56186535  1.0
  O  O91  1  0.80980366  0.30765828  0.43813497  1.0
  O  O92  1  0.09649944  0.13898977  0.26335417  1.0
  O  O93  1  0.59652860  0.86101060  0.73665106  1.0
  O  O94  1  0.15348994  0.63898969  0.23663679  1.0
  O  O95  1  0.65352793  0.36101702  0.76336138  1.0
  O  O96  1  0.40353462  0.73663376  0.86101584  1.0
  O  O97  1  0.90348430  0.26336013  0.13899295  1.0
  O  O98  1  0.34648010  0.76336632  0.36101627  1.0
  O  O99  1  0.84651375  0.23663780  0.63898922  1.0
  O  O100  1  0.23249953  0.22249752  0.37884598  1.0
  O  O101  1  0.73253391  0.77750772  0.62116121  1.0
  O  O102  1  0.01746481  0.72249697  0.12115634  1.0
  O  O103  1  0.51755727  0.27749935  0.87884539  1.0
  O  O104  1  0.26757775  0.62114522  0.77748795  1.0
  O  O105  1  0.76748705  0.37885209  0.22250300  1.0
  O  O106  1  0.48244910  0.87885178  0.27749907  1.0
  O  O107  1  0.98252612  0.12115790  0.72250494  1.0
  O  O108  1  0.34312186  0.23409113  0.13287964  1.0
  O  O109  1  0.84316671  0.76590059  0.86712583  1.0
  O  O110  1  0.90685523  0.73408697  0.36712465  1.0
  O  O111  1  0.40687538  0.26591655  0.63287934  1.0
  O  O112  1  0.15689645  0.86711814  0.76591780  1.0
  O  O113  1  0.65686355  0.13287957  0.23408937  1.0
  O  O114  1  0.59312346  0.63287606  0.26591590  1.0
  O  O115  1  0.09314322  0.36712780  0.73408653  1.0
