# generated using pymatgen
data_Zn3H15C31N5O18
_symmetry_space_group_name_H-M   'P 1'
_cell_length_a   21.80974262
_cell_length_b   21.82461329
_cell_length_c   21.87118142
_cell_angle_alpha   92.58986682
_cell_angle_beta   118.87819216
_cell_angle_gamma   117.93539317
_symmetry_Int_Tables_number   1
_chemical_formula_structural   Zn3H15C31N5O18
_chemical_formula_sum   'Zn6 H30 C62 N10 O36'
_cell_volume   7541.66302169
_cell_formula_units_Z   2
loop_
 _symmetry_equiv_pos_site_id
 _symmetry_equiv_pos_as_xyz
  1  'x, y, z'
loop_
 _atom_site_type_symbol
 _atom_site_label
 _atom_site_symmetry_multiplicity
 _atom_site_fract_x
 _atom_site_fract_y
 _atom_site_fract_z
 _atom_site_occupancy
  Zn  Zn0  1  0.07300461  0.06435705  0.56953855  1.0
  Zn  Zn1  1  0.94285072  0.94383914  0.43938493  1.0
  Zn  Zn2  1  0.93447350  0.50138636  0.99488755  1.0
  Zn  Zn3  1  0.06368522  0.49856413  0.00207214  1.0
  Zn  Zn4  1  0.50159802  0.04277678  0.46170175  1.0
  Zn  Zn5  1  0.51343644  0.96183257  0.55169554  1.0
  H  H6  1  0.02805639  0.37039518  0.29848892  1.0
  H  H7  1  0.86526217  0.60554934  0.69248971  1.0
  H  H8  1  0.06236063  0.28006530  0.18489492  1.0
  H  H9  1  0.96514192  0.77492376  0.83718146  1.0
  H  H10  1  0.73532738  0.98455907  0.57130556  1.0
  H  H11  1  0.30960710  0.01353516  0.50032657  1.0
  H  H12  1  0.77689561  0.98658349  0.43142400  1.0
  H  H13  1  0.28860194  0.04895261  0.64664757  1.0
  H  H14  1  0.38144587  0.77402283  0.35642726  1.0
  H  H15  1  0.66451884  0.27452856  0.63726273  1.0
  H  H16  1  0.28555671  0.83834217  0.26004165  1.0
  H  H17  1  0.75398752  0.19479366  0.70074545  1.0
  H  H18  1  0.94638821  0.24794061  0.33519193  1.0
  H  H19  1  0.92645465  0.66969461  0.60763116  1.0
  H  H20  1  0.91450637  0.18087097  0.11819274  1.0
  H  H21  1  0.09802995  0.81287876  0.85081755  1.0
  H  H22  1  0.10811802  0.34437362  0.27146953  1.0
  H  H23  1  0.87059609  0.70068453  0.75467296  1.0
  H  H24  1  0.11537195  0.31139052  0.38939241  1.0
  H  H25  1  0.81723332  0.69263421  0.62217192  1.0
  H  H26  1  0.69072328  0.02883525  0.38301880  1.0
  H  H27  1  0.36347910  0.99432799  0.69884463  1.0
  H  H28  1  0.10042118  0.68483189  0.14913027  1.0
  H  H29  1  0.94644770  0.33028100  0.81968834  1.0
  H  H30  1  0.78310043  0.13165037  0.17625687  1.0
  H  H31  1  0.12318040  0.74820554  0.72372359  1.0
  H  H32  1  0.17758983  0.27879216  0.32974730  1.0
  H  H33  1  0.87666033  0.81908364  0.66178705  1.0
  H  H34  1  0.03305462  0.13247310  0.23478185  1.0
  H  H35  1  0.00110694  0.88569849  0.81221491  1.0
  C  C36  1  0.92984489  0.04224783  0.53838138  1.0
  C  C37  1  0.13695743  0.00649913  0.53127293  1.0
  C  C38  1  0.05476035  0.28892622  0.22989732  1.0
  C  C39  1  0.93790240  0.74251768  0.78051555  1.0
  C  C40  1  0.05443925  0.22989446  0.26610688  1.0
  C  C41  1  0.94867073  0.79413198  0.73558688  1.0
  C  C42  1  0.96507568  0.33013173  0.15261464  1.0
  C  C43  1  0.98655235  0.66573346  0.83729215  1.0
  C  C44  1  0.99065690  0.15444861  0.32669705  1.0
  C  C45  1  0.96691743  0.80915656  0.63323248  1.0
  C  C46  1  0.99280316  0.11356709  0.36231931  1.0
  C  C47  1  0.96153636  0.84384824  0.59127719  1.0
  C  C48  1  0.71477374  0.00898827  0.47389301  1.0
  C  C49  1  0.33512798  0.00208531  0.60264727  1.0
  C  C50  1  0.69501455  0.99342781  0.52390586  1.0
  C  C51  1  0.34716148  0.00230312  0.54719670  1.0
  C  C52  1  0.78703036  0.01320301  0.48211429  1.0
  C  C53  1  0.27288792  0.01528523  0.59621231  1.0
  C  C54  1  0.86695320  0.04792060  0.54459410  1.0
  C  C55  1  0.19559859  0.98826413  0.53274989  1.0
  C  C56  1  0.13345224  0.61109116  0.11929590  1.0
  C  C57  1  0.92017406  0.39913645  0.87457282  1.0
  C  C58  1  0.99370598  0.06668635  0.40668002  1.0
  C  C59  1  0.96611303  0.89293383  0.54926259  1.0
  C  C60  1  0.96453088  0.41491862  0.06955528  1.0
  C  C61  1  0.98617179  0.58733293  0.92622448  1.0
  C  C62  1  0.39056636  0.89934897  0.37772202  1.0
  C  C63  1  0.63082410  0.13807696  0.59557990  1.0
  C  C64  1  0.62168860  0.98554383  0.51839033  1.0
  C  C65  1  0.40904082  0.99618862  0.54240503  1.0
  C  C66  1  0.33220347  0.77298382  0.30622841  1.0
  C  C67  1  0.71487512  0.26881050  0.67700797  1.0
  C  C68  1  0.32905391  0.83329944  0.30888708  1.0
  C  C69  1  0.70786589  0.20454366  0.66098565  1.0
  C  C70  1  0.27690525  0.70612548  0.24067210  1.0
  C  C71  1  0.78060983  0.32914229  0.74896914  1.0
  C  C72  1  0.19525604  0.68137959  0.18512320  1.0
  C  C73  1  0.85954307  0.34333391  0.79792747  1.0
  C  C74  1  0.99386591  0.26937957  0.32264620  1.0
  C  C75  1  0.91133831  0.68456257  0.64447556  1.0
  C  C76  1  0.89481453  0.15622207  0.20534181  1.0
  C  C77  1  0.06502451  0.78906669  0.73721268  1.0
  C  C78  1  0.89831578  0.20124179  0.15130231  1.0
  C  C79  1  0.07270763  0.76462841  0.80607725  1.0
  C  C80  1  0.96111289  0.36829888  0.11409202  1.0
  C  C81  1  0.98673744  0.63184138  0.87970925  1.0
  C  C82  1  0.98461487  0.20116759  0.28217909  1.0
  C  C83  1  0.97293989  0.77068246  0.68583526  1.0
  C  C84  1  0.97401187  0.31210865  0.26750791  1.0
  C  C85  1  0.92760167  0.64565763  0.70400508  1.0
  C  C86  1  0.97165546  0.28472681  0.19867650  1.0
  C  C87  1  0.98239144  0.70330163  0.78404664  1.0
  C  C88  1  0.89867213  0.30993580  0.24728708  1.0
  C  C89  1  0.96131388  0.60375636  0.69721730  1.0
  C  C90  1  0.89473733  0.08999275  0.61485973  1.0
  C  C91  1  0.16221376  0.93851707  0.46379942  1.0
  C  C92  1  0.30958330  0.66298812  0.24007155  1.0
  C  C93  1  0.75711437  0.37473656  0.76653156  1.0
  C  C94  1  0.87057603  0.08198910  0.17048554  1.0
  C  C95  1  0.13184937  0.86828256  0.76385563  1.0
  C  C96  1  0.81488796  0.18615109  0.09958588  1.0
  C  C97  1  0.13361421  0.74455024  0.83372051  1.0
  N  N98  1  0.83923157  0.30889061  0.23291654  1.0
  N  N99  1  0.98596970  0.56853221  0.69030993  1.0
  N  N100  1  0.91834709  0.12414683  0.67313462  1.0
  N  N101  1  0.13290398  0.89791264  0.40635738  1.0
  N  N102  1  0.34161031  0.63108138  0.24583967  1.0
  N  N103  1  0.73093719  0.40891141  0.77296170  1.0
  N  N104  1  0.84738338  0.02223559  0.14130872  1.0
  N  N105  1  0.18917452  0.92853885  0.78438652  1.0
  N  N106  1  0.74547926  0.16879739  0.05877444  1.0
  N  N107  1  0.18543548  0.73219730  0.85404203  1.0
  O  O108  1  0.00849588  0.08767122  0.59160649  1.0
  O  O109  1  0.06088295  0.96628571  0.47496931  1.0
  O  O110  1  0.42044172  0.89095172  0.44050336  1.0
  O  O111  1  0.59240953  0.14385192  0.53140239  1.0
  O  O112  1  0.58527027  0.01284800  0.47666773  1.0
  O  O113  1  0.44102653  0.96243465  0.57897787  1.0
  O  O114  1  0.60046515  0.95178998  0.55897320  1.0
  O  O115  1  0.42535232  0.02508327  0.49839723  1.0
  O  O116  1  0.90052565  0.99302007  0.48086045  1.0
  O  O117  1  0.16704080  0.06074520  0.58622678  1.0
  O  O118  1  0.04803271  0.09805035  0.47672233  1.0
  O  O119  1  0.91455579  0.86378335  0.47761884  1.0
  O  O120  1  0.93774786  0.99667075  0.37051444  1.0
  O  O121  1  0.02139724  0.96131373  0.58702814  1.0
  O  O122  1  0.05645560  0.58880710  0.08969995  1.0
  O  O123  1  0.99763222  0.41835284  0.90759009  1.0
  O  O124  1  0.15942688  0.58039808  0.09591801  1.0
  O  O125  1  0.89302771  0.42206375  0.90295557  1.0
  O  O126  1  0.91469015  0.43698620  0.05037630  1.0
  O  O127  1  0.03792804  0.56848853  0.94628292  1.0
  O  O128  1  0.01756641  0.43060668  0.05348835  1.0
  O  O129  1  0.93199542  0.56988427  0.94242973  1.0
  O  O130  1  0.40961047  0.96183813  0.36733411  1.0
  O  O131  1  0.60738915  0.07820779  0.60912684  1.0
  O  O132  1  0.07360789  0.31672407  0.39059251  1.0
  O  O133  1  0.82580657  0.66036477  0.59922308  1.0
  O  O134  1  0.66419181  0.01499354  0.40984384  1.0
  O  O135  1  0.38349125  0.99558151  0.66724367  1.0
  O  O136  1  0.16161915  0.71879496  0.18850550  1.0
  O  O137  1  0.88648429  0.30630258  0.77908965  1.0
  O  O138  1  0.83737368  0.14864483  0.22249630  1.0
  O  O139  1  0.07230925  0.74787692  0.69215219  1.0
  O  O140  1  0.13219950  0.25939336  0.33715407  1.0
  O  O141  1  0.86978317  0.78613807  0.69044996  1.0
  O  O142  1  0.03949749  0.17346681  0.21604679  1.0
  O  O143  1  0.01445718  0.86888605  0.78103839  1.0
