# generated using pymatgen
data_AlH7C14S6O23
_symmetry_space_group_name_H-M   'P 1'
_cell_length_a   7.24398213
_cell_length_b   18.16974345
_cell_length_c   24.16564956
_cell_angle_alpha   90.00578251
_cell_angle_beta   89.99462945
_cell_angle_gamma   89.86285864
_symmetry_Int_Tables_number   1
_chemical_formula_structural   AlH7C14S6O23
_chemical_formula_sum   'Al4 H28 C56 S24 O92'
_cell_volume   3180.70499285
_cell_formula_units_Z   4
loop_
 _symmetry_equiv_pos_site_id
 _symmetry_equiv_pos_as_xyz
  1  'x, y, z'
loop_
 _atom_site_type_symbol
 _atom_site_label
 _atom_site_symmetry_multiplicity
 _atom_site_fract_x
 _atom_site_fract_y
 _atom_site_fract_z
 _atom_site_occupancy
  Al  Al0  1  0.90177124  0.74902970  0.75093619  1.0
  Al  Al1  1  0.09821865  0.25100491  0.25096237  1.0
  Al  Al2  1  0.40204740  0.74894551  0.74918380  1.0
  Al  Al3  1  0.59795486  0.25107960  0.24927061  1.0
  H  H4  1  0.41416544  0.58088589  0.39125898  1.0
  H  H5  1  0.86435634  0.39734820  0.63373040  1.0
  H  H6  1  0.58628900  0.41779969  0.89109258  1.0
  H  H7  1  0.13654996  0.60273004  0.13303402  1.0
  H  H8  1  0.62028014  0.90080479  0.12995973  1.0
  H  H9  1  0.35764037  0.10437505  0.86702335  1.0
  H  H10  1  0.37815108  0.09953518  0.63033260  1.0
  H  H11  1  0.64101016  0.89601007  0.36732248  1.0
  H  H12  1  0.86016933  0.68228514  0.42938311  1.0
  H  H13  1  0.10840049  0.31600673  0.56829772  1.0
  H  H14  1  0.14014566  0.31671835  0.92953458  1.0
  H  H15  1  0.89167734  0.68375738  0.06734044  1.0
  H  H16  1  0.34424762  0.82056136  0.06473680  1.0
  H  H17  1  0.62288356  0.18308118  0.93099521  1.0
  H  H18  1  0.65386529  0.17993043  0.56510176  1.0
  H  H19  1  0.37697049  0.81720831  0.43139027  1.0
  H  H20  1  0.19508043  0.39142275  0.36051624  1.0
  H  H21  1  0.44977951  0.59918515  0.52273320  1.0
  H  H22  1  0.80494043  0.60728094  0.86000373  1.0
  H  H23  1  0.55072497  0.40013433  0.02261315  1.0
  H  H24  1  0.70695441  0.10526151  0.13774419  1.0
  H  H25  1  0.95237345  0.89973263  0.98212745  1.0
  H  H26  1  0.29212964  0.89521858  0.63805325  1.0
  H  H27  1  0.04633309  0.10076507  0.48244270  1.0
  H  H28  1  0.65391963  0.65760158  0.72536145  1.0
  H  H29  1  0.34630269  0.34258886  0.22571458  1.0
  H  H30  1  0.15157204  0.84030375  0.77490726  1.0
  H  H31  1  0.84853020  0.15957640  0.27468089  1.0
  C  C32  1  0.65412331  0.83154653  0.67596099  1.0
  C  C33  1  0.34971057  0.17572426  0.32742908  1.0
  C  C34  1  0.34591795  0.16877984  0.17581127  1.0
  C  C35  1  0.65008878  0.82409031  0.82749659  1.0
  C  C36  1  0.15556215  0.66640367  0.82418417  1.0
  C  C37  1  0.84763276  0.32622192  0.17286468  1.0
  C  C38  1  0.84449820  0.33316507  0.32455503  1.0
  C  C39  1  0.15242469  0.67400953  0.67269669  1.0
  C  C40  1  0.88067994  0.53531855  0.46432736  1.0
  C  C41  1  0.09148058  0.45960206  0.53976089  1.0
  C  C42  1  0.11995036  0.46382460  0.96403646  1.0
  C  C43  1  0.90921100  0.53988599  0.03932593  1.0
  C  C44  1  0.38293218  0.96596100  0.03639566  1.0
  C  C45  1  0.59074568  0.03966211  0.95943936  1.0
  C  C46  1  0.61580363  0.03446332  0.53669874  1.0
  C  C47  1  0.40804102  0.96064498  0.45978709  1.0
  C  C48  1  0.09200670  0.55031337  0.47631000  1.0
  C  C49  1  0.87969299  0.44462284  0.52741407  1.0
  C  C50  1  0.90866687  0.44885878  0.97609538  1.0
  C  C51  1  0.12095598  0.55481636  0.02688674  1.0
  C  C52  1  0.59276181  0.94921325  0.02268328  1.0
  C  C53  1  0.38077166  0.05662843  0.97331396  1.0
  C  C54  1  0.40592359  0.05122321  0.52297921  1.0
  C  C55  1  0.61805806  0.94375184  0.47362373  1.0
  C  C56  1  0.14124036  0.63076046  0.62310533  1.0
  C  C57  1  0.84381119  0.37029350  0.37696238  1.0
  C  C58  1  0.85903213  0.36919727  0.12315185  1.0
  C  C59  1  0.15640747  0.62890178  0.87643323  1.0
  C  C60  1  0.63817210  0.86799318  0.87678328  1.0
  C  C61  1  0.34903779  0.13102675  0.12355835  1.0
  C  C62  1  0.36135217  0.13203126  0.37682462  1.0
  C  C63  1  0.65068020  0.86939303  0.62378426  1.0
  C  C64  1  0.84006993  0.53027002  0.52864933  1.0
  C  C65  1  0.13199884  0.46437380  0.47561932  1.0
  C  C66  1  0.16059213  0.46917093  0.02833380  1.0
  C  C67  1  0.86860147  0.53477851  0.97521027  1.0
  C  C68  1  0.33691294  0.97120230  0.97241605  1.0
  C  C69  1  0.63689971  0.03463153  0.02319718  1.0
  C  C70  1  0.66171653  0.02921871  0.47270170  1.0
  C  C71  1  0.36195060  0.96577628  0.52354784  1.0
  C  C72  1  0.05186269  0.54502027  0.54059929  1.0
  C  C73  1  0.92118451  0.44976179  0.46350223  1.0
  C  C74  1  0.94879852  0.45443924  0.04037202  1.0
  C  C75  1  0.07933272  0.54936427  0.96299488  1.0
  C  C76  1  0.54743741  0.95469860  0.95888330  1.0
  C  C77  1  0.42739270  0.05106158  0.03694350  1.0
  C  C78  1  0.45123969  0.04563381  0.45916420  1.0
  C  C79  1  0.57147483  0.94934786  0.53724006  1.0
  C  C80  1  0.11146199  0.59281908  0.58292394  1.0
  C  C81  1  0.86412153  0.40343127  0.42000172  1.0
  C  C82  1  0.88905374  0.40683925  0.08282392  1.0
  C  C83  1  0.13594084  0.59558752  0.91938577  1.0
  C  C84  1  0.60517455  0.90635642  0.91655859  1.0
  C  C85  1  0.37323252  0.09767020  0.08074184  1.0
  C  C86  1  0.39364781  0.09384378  0.41673844  1.0
  C  C87  1  0.62573505  0.90274982  0.58101189  1.0
  S  S88  1  0.21218934  0.62878301  0.44667305  1.0
  S  S89  1  0.76800189  0.36309584  0.55482988  1.0
  S  S90  1  0.78841332  0.37029326  0.94662818  1.0
  S  S91  1  0.23275029  0.63651279  0.05401283  1.0
  S  S92  1  0.69881471  0.86702983  0.05053939  1.0
  S  S93  1  0.27319243  0.13970252  0.94657884  1.0
  S  S94  1  0.29966161  0.13337316  0.55090764  1.0
  S  S95  1  0.72607366  0.86074422  0.44683910  1.0
  S  S96  1  0.77609463  0.57709378  0.40364361  1.0
  S  S97  1  0.20628314  0.41799883  0.59913371  1.0
  S  S98  1  0.22435264  0.42168140  0.90345093  1.0
  S  S99  1  0.79419582  0.58191450  0.09854378  1.0
  S  S100  1  0.27287459  0.92538622  0.09723266  1.0
  S  S101  1  0.70551996  0.07967563  0.89952863  1.0
  S  S102  1  0.72569153  0.07508814  0.59756135  1.0
  S  S103  1  0.29334545  0.92049569  0.39994766  1.0
  S  S104  1  0.30661859  0.41152449  0.44182047  1.0
  S  S105  1  0.69004999  0.58344871  0.57163458  1.0
  S  S106  1  0.69366960  0.58735945  0.94130513  1.0
  S  S107  1  0.31043533  0.41613719  0.07146666  1.0
  S  S108  1  0.81476645  0.08613390  0.05641282  1.0
  S  S109  1  0.18480598  0.91729056  0.93070128  1.0
  S  S110  1  0.18418076  0.91437007  0.55680301  1.0
  S  S111  1  0.81381506  0.08324107  0.43102992  1.0
  O  O112  1  0.49355072  0.80766739  0.80704234  1.0
  O  O113  1  0.50784602  0.18132955  0.19514370  1.0
  O  O114  1  0.50629352  0.19199088  0.30692892  1.0
  O  O115  1  0.49218316  0.81894002  0.69533018  1.0
  O  O116  1  0.99613811  0.68925689  0.69389151  1.0
  O  O117  1  0.00787225  0.32020690  0.30620847  1.0
  O  O118  1  0.00389412  0.31108579  0.19414461  1.0
  O  O119  1  0.99213479  0.67949910  0.80593085  1.0
  O  O120  1  0.81092530  0.81687861  0.69645993  1.0
  O  O121  1  0.18933392  0.19211545  0.30964841  1.0
  O  O122  1  0.18916545  0.18342350  0.19636068  1.0
  O  O123  1  0.81053590  0.80772134  0.80974129  1.0
  O  O124  1  0.31094544  0.68032898  0.80261578  1.0
  O  O125  1  0.68710235  0.30924148  0.19011996  1.0
  O  O126  1  0.68909411  0.31945325  0.30292906  1.0
  O  O127  1  0.31291840  0.69102933  0.68992135  1.0
  O  O128  1  0.65230596  0.70290158  0.74691920  1.0
  O  O129  1  0.34774514  0.29717011  0.24714924  1.0
  O  O130  1  0.15088184  0.79495910  0.75339700  1.0
  O  O131  1  0.84909480  0.20502286  0.25330342  1.0
  O  O132  1  0.07700205  0.68622164  0.43927441  1.0
  O  O133  1  0.36525922  0.64864623  0.48210232  1.0
  O  O134  1  0.28157677  0.60346726  0.38987787  1.0
  O  O135  1  0.59342876  0.34870022  0.53069579  1.0
  O  O136  1  0.91109840  0.30716708  0.54653682  1.0
  O  O137  1  0.74114704  0.38027911  0.61715616  1.0
  O  O138  1  0.92351839  0.31279025  0.93936053  1.0
  O  O139  1  0.63528478  0.35061066  0.98209045  1.0
  O  O140  1  0.71901186  0.39535685  0.88977690  1.0
  O  O141  1  0.40725112  0.65078655  0.02979066  1.0
  O  O142  1  0.08966275  0.69240457  0.04566656  1.0
  O  O143  1  0.25982456  0.61957433  0.11637720  1.0
  O  O144  1  0.55663013  0.81164779  0.04528871  1.0
  O  O145  1  0.87175339  0.84978640  0.02419097  1.0
  O  O146  1  0.74290800  0.88557783  0.11145143  1.0
  O  O147  1  0.10263355  0.15760693  0.97215812  1.0
  O  O148  1  0.42229585  0.19314749  0.95262754  1.0
  O  O149  1  0.23677906  0.12169313  0.88470381  1.0
  O  O150  1  0.44164710  0.18883358  0.54562188  1.0
  O  O151  1  0.12663168  0.15055841  0.52460404  1.0
  O  O152  1  0.25559201  0.11480688  0.61181563  1.0
  O  O153  1  0.89689144  0.84308993  0.47234227  1.0
  O  O154  1  0.57744872  0.80709148  0.45295396  1.0
  O  O155  1  0.76200793  0.87877368  0.38494918  1.0
  O  O156  1  0.91680451  0.56895471  0.36246915  1.0
  O  O157  1  0.59666683  0.54648760  0.39160165  1.0
  O  O158  1  0.73707530  0.65814798  0.42109919  1.0
  O  O159  1  0.38141878  0.44937852  0.61022708  1.0
  O  O160  1  0.06455226  0.42556989  0.64191203  1.0
  O  O161  1  0.23266024  0.33639779  0.58212655  1.0
  O  O162  1  0.08344009  0.42953715  0.86231845  1.0
  O  O163  1  0.40372372  0.45220573  0.89122580  1.0
  O  O164  1  0.26335240  0.34075078  0.92117504  1.0
  O  O165  1  0.61916305  0.55048942  0.10971549  1.0
  O  O166  1  0.93576848  0.57486701  0.14138785  1.0
  O  O167  1  0.76747598  0.66339435  0.08117319  1.0
  O  O168  1  0.42184381  0.92709273  0.13813260  1.0
  O  O169  1  0.10467762  0.95981169  0.11254919  1.0
  O  O170  1  0.22802866  0.84534566  0.07885371  1.0
  O  O171  1  0.87636457  0.04491886  0.88742006  1.0
  O  O172  1  0.56053404  0.07582910  0.85757974  1.0
  O  O173  1  0.74365838  0.16033668  0.91699571  1.0
  O  O174  1  0.57668815  0.07316089  0.63846760  1.0
  O  O175  1  0.89410702  0.04083054  0.61288006  1.0
  O  O176  1  0.77011999  0.15519787  0.57925102  1.0
  O  O177  1  0.12227574  0.95512281  0.38792858  1.0
  O  O178  1  0.43813155  0.92444023  0.35793357  1.0
  O  O179  1  0.25590732  0.83980653  0.41746374  1.0
  O  O180  1  0.47622297  0.44578745  0.45685241  1.0
  O  O181  1  0.26424069  0.33579113  0.45227286  1.0
  O  O182  1  0.27265033  0.42964269  0.37820616  1.0
  O  O183  1  0.71476771  0.55570569  0.62660886  1.0
  O  O184  1  0.72867793  0.65890405  0.55783140  1.0
  O  O185  1  0.49703604  0.56074385  0.55018904  1.0
  O  O186  1  0.52436238  0.55294400  0.95648592  1.0
  O  O187  1  0.73553955  0.66320613  0.95153664  1.0
  O  O188  1  0.72747412  0.56903648  0.87771117  1.0
  O  O189  1  0.28554693  0.44410645  0.12637025  1.0
  O  O190  1  0.27182897  0.34063507  0.05781144  1.0
  O  O191  1  0.50355370  0.43867189  0.05002115  1.0
  O  O192  1  0.98418401  0.05276948  0.03998449  1.0
  O  O193  1  0.77079561  0.16224866  0.04764890  1.0
  O  O194  1  0.78125018  0.06614080  0.11990626  1.0
  O  O195  1  0.20397605  0.94498624  0.87555091  1.0
  O  O196  1  0.22898914  0.84221224  0.94444796  1.0
  O  O197  1  0.99119474  0.93780148  0.95338702  1.0
  O  O198  1  0.01491143  0.94782447  0.54035162  1.0
  O  O199  1  0.22792375  0.83822390  0.54809460  1.0
  O  O200  1  0.21779251  0.93437697  0.62030182  1.0
  O  O201  1  0.79467137  0.05566594  0.37584559  1.0
  O  O202  1  0.76950834  0.15828036  0.44486908  1.0
  O  O203  1  0.00743782  0.06273966  0.45367547  1.0
