# generated using pymatgen
data_AlH17(C6O)5
_symmetry_space_group_name_H-M   'P 1'
_cell_length_a   6.94306797
_cell_length_b   18.76535933
_cell_length_c   22.63821006
_cell_angle_alpha   90.00061484
_cell_angle_beta   89.99972421
_cell_angle_gamma   89.99773024
_symmetry_Int_Tables_number   1
_chemical_formula_structural   AlH17(C6O)5
_chemical_formula_sum   'Al4 H68 C120 O20'
_cell_volume   2949.51349030
_cell_formula_units_Z   4
loop_
 _symmetry_equiv_pos_site_id
 _symmetry_equiv_pos_as_xyz
  1  'x, y, z'
loop_
 _atom_site_type_symbol
 _atom_site_label
 _atom_site_symmetry_multiplicity
 _atom_site_fract_x
 _atom_site_fract_y
 _atom_site_fract_z
 _atom_site_occupancy
  Al  Al0  1  0.78401756  0.75109863  0.75327770  1.0
  Al  Al1  1  0.21593220  0.24890848  0.25327384  1.0
  Al  Al2  1  0.28402690  0.74890376  0.74673318  1.0
  Al  Al3  1  0.71594737  0.25110123  0.24673031  1.0
  H  H4  1  0.76188565  0.57904598  0.36694033  1.0
  H  H5  1  0.98430364  0.41583317  0.64268864  1.0
  H  H6  1  0.23794406  0.42095984  0.86692247  1.0
  H  H7  1  0.01560486  0.58416190  0.14268596  1.0
  H  H8  1  0.26199471  0.92096838  0.13308298  1.0
  H  H9  1  0.48432920  0.08416504  0.85732012  1.0
  H  H10  1  0.73787206  0.07903843  0.63308515  1.0
  H  H11  1  0.51553224  0.91583121  0.35732252  1.0
  H  H12  1  0.86062485  0.45872302  0.32954608  1.0
  H  H13  1  0.03739443  0.54235760  0.67051127  1.0
  H  H14  1  0.13930584  0.54128394  0.82954623  1.0
  H  H15  1  0.96257587  0.45764061  0.17050598  1.0
  H  H16  1  0.36064408  0.04129458  0.17046212  1.0
  H  H17  1  0.53734938  0.95763847  0.82949626  1.0
  H  H18  1  0.63929309  0.95872229  0.67045839  1.0
  H  H19  1  0.46258708  0.04235783  0.32949136  1.0
  H  H20  1  0.77098935  0.66762874  0.44575216  1.0
  H  H21  1  0.93822789  0.32572021  0.56633772  1.0
  H  H22  1  0.22892642  0.33237267  0.94573308  1.0
  H  H23  1  0.06169247  0.67427980  0.06634194  1.0
  H  H24  1  0.27106598  0.83237696  0.05427422  1.0
  H  H25  1  0.43825980  0.17428137  0.93366807  1.0
  H  H26  1  0.72885588  0.16762308  0.55427015  1.0
  H  H27  1  0.56160993  0.82571740  0.43366774  1.0
  H  H28  1  0.86309187  0.23329003  0.37561514  1.0
  H  H29  1  0.92910933  0.10874673  0.38838387  1.0
  H  H30  1  0.08856367  0.06396421  0.48067537  1.0
  H  H31  1  0.19260812  0.15224888  0.55654560  1.0
  H  H32  1  0.15625179  0.27935359  0.53883389  1.0
  H  H33  1  0.98506177  0.77481484  0.62675309  1.0
  H  H34  1  0.02772814  0.89664726  0.60129630  1.0
  H  H35  1  0.02998328  0.93639398  0.49547559  1.0
  H  H36  1  0.00825283  0.84353163  0.41649366  1.0
  H  H37  1  0.99836752  0.71852237  0.44179357  1.0
  H  H38  1  0.13687462  0.76671951  0.87562756  1.0
  H  H39  1  0.07084991  0.89126439  0.88840370  1.0
  H  H40  1  0.91137355  0.93603660  0.98069084  1.0
  H  H41  1  0.80732237  0.84775382  0.05655743  1.0
  H  H42  1  0.84366726  0.72064701  0.03884055  1.0
  H  H43  1  0.01497642  0.22516853  0.12672941  1.0
  H  H44  1  0.97227849  0.10334150  0.10125285  1.0
  H  H45  1  0.96995819  0.06361799  0.99542652  1.0
  H  H46  1  0.99162563  0.15649808  0.91645957  1.0
  H  H47  1  0.00147625  0.28150197  0.94177983  1.0
  H  H48  1  0.36308268  0.26672168  0.12437936  1.0
  H  H49  1  0.42910339  0.39126609  0.11160560  1.0
  H  H50  1  0.58860574  0.43603308  0.01931982  1.0
  H  H51  1  0.69267453  0.34774317  0.94345419  1.0
  H  H52  1  0.65631517  0.22063742  0.96117306  1.0
  H  H53  1  0.48499806  0.72517379  0.87327318  1.0
  H  H54  1  0.52768704  0.60334684  0.89874218  1.0
  H  H55  1  0.53002865  0.56361383  0.00456598  1.0
  H  H56  1  0.50837915  0.65649411  0.08353912  1.0
  H  H57  1  0.49850835  0.78149794  0.05822296  1.0
  H  H58  1  0.63687487  0.73327982  0.62437265  1.0
  H  H59  1  0.57087726  0.60873384  0.61159403  1.0
  H  H60  1  0.41134075  0.56396703  0.51931442  1.0
  H  H61  1  0.30722973  0.65225665  0.44345781  1.0
  H  H62  1  0.34357605  0.77936183  0.46117858  1.0
  H  H63  1  0.51500158  0.27483735  0.37326995  1.0
  H  H64  1  0.47231680  0.39666532  0.39874623  1.0
  H  H65  1  0.46993231  0.43638630  0.50457566  1.0
  H  H66  1  0.49153105  0.34349575  0.58354123  1.0
  H  H67  1  0.50138036  0.21849463  0.55821249  1.0
  H  H68  1  0.53880519  0.65560489  0.74249356  1.0
  H  H69  1  0.46117199  0.34440650  0.24251255  1.0
  H  H70  1  0.03877454  0.84440555  0.75748393  1.0
  H  H71  1  0.96119249  0.15560049  0.25748612  1.0
  C  C72  1  0.53722806  0.82951212  0.66873277  1.0
  C  C73  1  0.47179674  0.17460036  0.33446871  1.0
  C  C74  1  0.46274657  0.17049089  0.16872899  1.0
  C  C75  1  0.52816850  0.82539966  0.83446978  1.0
  C  C76  1  0.03722337  0.67049302  0.83127874  1.0
  C  C77  1  0.97179466  0.32539794  0.16553479  1.0
  C  C78  1  0.96273756  0.32951501  0.33127497  1.0
  C  C79  1  0.02816558  0.67459495  0.66554396  1.0
  C  C80  1  0.97111456  0.34708284  0.44509420  1.0
  C  C81  1  0.96714798  0.65516800  0.55249433  1.0
  C  C82  1  0.02881274  0.65292017  0.94509809  1.0
  C  C83  1  0.03279549  0.34483098  0.05248526  1.0
  C  C84  1  0.47114458  0.15292133  0.05490753  1.0
  C  C85  1  0.46715965  0.84483157  0.94751918  1.0
  C  C86  1  0.52879311  0.84707924  0.55490990  1.0
  C  C87  1  0.53276476  0.15517250  0.44751449  1.0
  C  C88  1  0.94488002  0.37283641  0.38665258  1.0
  C  C89  1  0.00689205  0.63031997  0.61060150  1.0
  C  C90  1  0.05505330  0.62717311  0.88665459  1.0
  C  C91  1  0.99306555  0.36967409  0.11059444  1.0
  C  C92  1  0.44491240  0.12717617  0.11334966  1.0
  C  C93  1  0.50688015  0.86967391  0.88941097  1.0
  C  C94  1  0.55504232  0.87282536  0.61335378  1.0
  C  C95  1  0.49305748  0.13032335  0.38940812  1.0
  C  C96  1  0.89393934  0.44318025  0.37489179  1.0
  C  C97  1  0.01238893  0.55813585  0.62469246  1.0
  C  C98  1  0.10596955  0.55682982  0.87488967  1.0
  C  C99  1  0.98757869  0.44186032  0.12468725  1.0
  C  C100  1  0.39397304  0.05683843  0.12511809  1.0
  C  C101  1  0.51237409  0.94186008  0.87531690  1.0
  C  C102  1  0.60595713  0.94316786  0.62511592  1.0
  C  C103  1  0.48755640  0.05813720  0.37531268  1.0
  C  C104  1  0.88816254  0.49440123  0.41952302  1.0
  C  C105  1  0.98681253  0.50531297  0.58199433  1.0
  C  C106  1  0.11173031  0.50560503  0.91951726  1.0
  C  C107  1  0.01313944  0.49468754  0.08199214  1.0
  C  C108  1  0.38820884  0.00561275  0.08048953  1.0
  C  C109  1  0.48682497  0.99469109  0.91801251  1.0
  C  C110  1  0.61168985  0.99439470  0.58048655  1.0
  C  C111  1  0.51308517  0.00531037  0.41801075  1.0
  C  C112  1  0.93347055  0.47315103  0.47819348  1.0
  C  C113  1  0.94862096  0.52681838  0.52292807  1.0
  C  C114  1  0.06644940  0.52685245  0.97819133  1.0
  C  C115  1  0.05131111  0.47318758  0.02292273  1.0
  C  C116  1  0.43350487  0.02685799  0.02181586  1.0
  C  C117  1  0.44864828  0.97319161  0.97708239  1.0
  C  C118  1  0.56641137  0.97314584  0.52181304  1.0
  C  C119  1  0.55125871  0.02681241  0.47707962  1.0
  C  C120  1  0.95733550  0.39877443  0.49163417  1.0
  C  C121  1  0.92231473  0.60110121  0.50958677  1.0
  C  C122  1  0.04258727  0.60122689  0.99163571  1.0
  C  C123  1  0.07762029  0.39890371  0.00957774  1.0
  C  C124  1  0.45737818  0.10123049  0.00837246  1.0
  C  C125  1  0.42233944  0.89890705  0.99042774  1.0
  C  C126  1  0.54253524  0.89876963  0.50837004  1.0
  C  C127  1  0.57757613  0.10109587  0.49042102  1.0
  C  C128  1  0.82611144  0.56582002  0.40958660  1.0
  C  C129  1  0.97966236  0.43132296  0.59619572  1.0
  C  C130  1  0.17376993  0.43418786  0.90957402  1.0
  C  C131  1  0.02026651  0.56867593  0.09619494  1.0
  C  C132  1  0.32617614  0.93419496  0.09043125  1.0
  C  C133  1  0.47969216  0.06868065  0.90381129  1.0
  C  C134  1  0.67371675  0.06581407  0.59042802  1.0
  C  C135  1  0.52019355  0.93132031  0.40381087  1.0
  C  C136  1  0.83723644  0.61606140  0.45303662  1.0
  C  C137  1  0.95895227  0.38077523  0.55331113  1.0
  C  C138  1  0.16267786  0.38394320  0.95302177  1.0
  C  C139  1  0.04096959  0.61922534  0.05331259  1.0
  C  C140  1  0.33728627  0.88394754  0.04698297  1.0
  C  C141  1  0.45899116  0.11922923  0.94669726  1.0
  C  C142  1  0.66261690  0.11605571  0.54697765  1.0
  C  C143  1  0.54089724  0.88077112  0.44669450  1.0
  C  C144  1  0.00372479  0.26973712  0.45594757  1.0
  C  C145  1  0.94484459  0.21823769  0.41442229  1.0
  C  C146  1  0.97778614  0.14573682  0.42235328  1.0
  C  C147  1  0.06459877  0.12077013  0.47379024  1.0
  C  C148  1  0.12068953  0.17017186  0.51635761  1.0
  C  C149  1  0.09430991  0.24291408  0.50705283  1.0
  C  C150  1  0.97783246  0.73234897  0.53685601  1.0
  C  C151  1  0.99225408  0.78631261  0.57997167  1.0
  C  C152  1  0.01457749  0.85802623  0.56558641  1.0
  C  C153  1  0.01653096  0.88018412  0.50689426  1.0
  C  C154  1  0.00213516  0.82837764  0.46299632  1.0
  C  C155  1  0.98834113  0.75652062  0.47771375  1.0
  C  C156  1  0.99620678  0.73026746  0.95595271  1.0
  C  C157  1  0.05510588  0.78177071  0.91443344  1.0
  C  C158  1  0.02216286  0.85427210  0.92236899  1.0
  C  C159  1  0.93534136  0.87923229  0.97380456  1.0
  C  C160  1  0.87923826  0.82982932  0.01636981  1.0
  C  C161  1  0.90561360  0.75708818  0.00706004  1.0
  C  C162  1  0.02210676  0.26765110  0.03683931  1.0
  C  C163  1  0.00774111  0.21367885  0.07994690  1.0
  C  C164  1  0.98541057  0.14196739  0.06554896  1.0
  C  C165  1  0.98341703  0.11982454  0.00685551  1.0
  C  C166  1  0.99777045  0.17163919  0.96296471  1.0
  C  C167  1  0.01155434  0.24349406  0.97769219  1.0
  C  C168  1  0.50376027  0.23026360  0.04405667  1.0
  C  C169  1  0.44484989  0.28176796  0.08557333  1.0
  C  C170  1  0.47779420  0.35426939  0.07764093  1.0
  C  C171  1  0.56462930  0.37922646  0.02620457  1.0
  C  C172  1  0.62074173  0.32981970  0.98364059  1.0
  C  C173  1  0.59435649  0.25707895  0.99295073  1.0
  C  C174  1  0.47785477  0.76765203  0.96316277  1.0
  C  C175  1  0.49221725  0.71368231  0.92005371  1.0
  C  C176  1  0.51455536  0.64197126  0.93444636  1.0
  C  C177  1  0.51655403  0.61982347  0.99313850  1.0
  C  C178  1  0.50221407  0.67163806  0.03703295  1.0
  C  C179  1  0.48841396  0.74349399  0.02230899  1.0
  C  C180  1  0.49617747  0.76973699  0.54405808  1.0
  C  C181  1  0.55510639  0.71823149  0.58556963  1.0
  C  C182  1  0.52216932  0.64572954  0.57763416  1.0
  C  C183  1  0.43531861  0.62077097  0.52620373  1.0
  C  C184  1  0.37917387  0.67017844  0.48364393  1.0
  C  C185  1  0.40555619  0.74292184  0.49295452  1.0
  C  C186  1  0.52207533  0.23234721  0.46315782  1.0
  C  C187  1  0.50774041  0.28631915  0.42005159  1.0
  C  C188  1  0.48541519  0.35803070  0.43444743  1.0
  C  C189  1  0.48338890  0.38017359  0.49314354  1.0
  C  C190  1  0.49770642  0.32835348  0.53703475  1.0
  C  C191  1  0.51148643  0.25649812  0.52230276  1.0
  O  O192  1  0.36981994  0.81185361  0.80783966  1.0
  O  O193  1  0.63070744  0.18746234  0.18604082  1.0
  O  O194  1  0.63013534  0.18815180  0.30783933  1.0
  O  O195  1  0.36925127  0.81254170  0.68604293  1.0
  O  O196  1  0.86982734  0.68814427  0.69217234  1.0
  O  O197  1  0.13071146  0.31255188  0.31396442  1.0
  O  O198  1  0.13014142  0.31185390  0.19216415  1.0
  O  O199  1  0.86926827  0.68745885  0.81396332  1.0
  O  O200  1  0.69502766  0.81876661  0.69649835  1.0
  O  O201  1  0.30347712  0.18852627  0.31591724  1.0
  O  O202  1  0.30494541  0.18123741  0.19649518  1.0
  O  O203  1  0.69649397  0.81147912  0.81592380  1.0
  O  O204  1  0.19504073  0.68124142  0.80351806  1.0
  O  O205  1  0.80346196  0.31148102  0.18408315  1.0
  O  O206  1  0.80492753  0.31877572  0.30350653  1.0
  O  O207  1  0.19650540  0.68851290  0.68409570  1.0
  O  O208  1  0.53505497  0.70651628  0.74946147  1.0
  O  O209  1  0.46489770  0.29349031  0.24945960  1.0
  O  O210  1  0.03505544  0.79348783  0.75054518  1.0
  O  O211  1  0.96490441  0.20651663  0.25054259  1.0
