# generated using pymatgen
data_Zn4H32C36S4O25
_symmetry_space_group_name_H-M   'P 1'
_cell_length_a   17.76929911
_cell_length_b   18.65007207
_cell_length_c   23.31256909
_cell_angle_alpha   113.54596727
_cell_angle_beta   110.25142477
_cell_angle_gamma   90.03074770
_symmetry_Int_Tables_number   1
_chemical_formula_structural   Zn4H32C36S4O25
_chemical_formula_sum   'Zn8 H64 C72 S8 O50'
_cell_volume   6557.56959252
_cell_formula_units_Z   2
loop_
 _symmetry_equiv_pos_site_id
 _symmetry_equiv_pos_as_xyz
  1  'x, y, z'
loop_
 _atom_site_type_symbol
 _atom_site_label
 _atom_site_symmetry_multiplicity
 _atom_site_fract_x
 _atom_site_fract_y
 _atom_site_fract_z
 _atom_site_occupancy
  Zn  Zn0  1  0.11916164  0.52190532  0.05586818  1.0
  Zn  Zn1  1  0.97801912  0.38980579  0.95144149  1.0
  Zn  Zn2  1  0.97488818  0.56378282  0.95160162  1.0
  Zn  Zn3  1  0.93475852  0.53823124  0.06080347  1.0
  Zn  Zn4  1  0.38487703  0.97000145  0.95139868  1.0
  Zn  Zn5  1  0.52410214  0.94476683  0.05994241  1.0
  Zn  Zn6  1  0.52750650  0.11808680  0.06184467  1.0
  Zn  Zn7  1  0.57105767  0.98405185  0.95283392  1.0
  H  H8  1  0.43460804  0.79088783  0.61105817  1.0
  H  H9  1  0.19834567  0.82492180  0.62278707  1.0
  H  H10  1  0.31512699  0.70884300  0.38557940  1.0
  H  H11  1  0.08050127  0.68693660  0.40019430  1.0
  H  H12  1  0.68202050  0.31237135  0.39348055  1.0
  H  H13  1  0.70903532  0.08243631  0.39527367  1.0
  H  H14  1  0.82227411  0.42547174  0.61730450  1.0
  H  H15  1  0.79341964  0.19545742  0.61837174  1.0
  H  H16  1  0.19540378  0.78378274  0.08859895  1.0
  H  H17  1  0.12420720  0.77739685  0.01073426  1.0
  H  H18  1  0.21288708  0.87287291  0.01449687  1.0
  H  H19  1  0.28490054  0.87672796  0.09112868  1.0
  H  H20  1  0.21212193  0.77411584  0.90276773  1.0
  H  H21  1  0.28612318  0.71114145  0.89928644  1.0
  H  H22  1  0.12685219  0.67580199  0.89960199  1.0
  H  H23  1  0.20307454  0.61554693  0.90013199  1.0
  H  H24  1  0.30251123  0.69462912  0.08870560  1.0
  H  H25  1  0.30479718  0.62408526  0.01212772  1.0
  H  H26  1  0.39103528  0.71668904  0.01006952  1.0
  H  H27  1  0.39127400  0.78599236  0.08798024  1.0
  H  H28  1  0.89097663  0.29844844  0.09037004  1.0
  H  H29  1  0.88378693  0.23121918  0.00860218  1.0
  H  H30  1  0.79634197  0.13935333  0.01035180  1.0
  H  H31  1  0.80206891  0.20810068  0.09122423  1.0
  H  H32  1  0.69187161  0.13916101  0.90536488  1.0
  H  H33  1  0.61952878  0.20392918  0.91041408  1.0
  H  H34  1  0.77641323  0.23435856  0.90422452  1.0
  H  H35  1  0.70576335  0.30008290  0.91332695  1.0
  H  H36  1  0.79121091  0.39514380  0.10279282  1.0
  H  H37  1  0.71685736  0.39757324  0.03078720  1.0
  H  H38  1  0.62667747  0.30362712  0.02741491  1.0
  H  H39  1  0.69998569  0.30347211  0.10075942  1.0
  H  H40  1  0.16663099  0.26854549  0.06702739  1.0
  H  H41  1  0.25092948  0.34559715  0.10661102  1.0
  H  H42  1  0.33893688  0.25326094  0.10969441  1.0
  H  H43  1  0.25431891  0.17669812  0.07012938  1.0
  H  H44  1  0.39714256  0.29111535  0.03940351  1.0
  H  H45  1  0.35375244  0.24186884  0.95017125  1.0
  H  H46  1  0.30915969  0.38390338  0.03698596  1.0
  H  H47  1  0.26671473  0.33445221  0.94776066  1.0
  H  H48  1  0.10401288  0.19678970  0.93748596  1.0
  H  H49  1  0.14602592  0.22342392  0.88944652  1.0
  H  H50  1  0.23263504  0.12971361  0.89261565  1.0
  H  H51  1  0.19186120  0.10464723  0.94191147  1.0
  H  H52  1  0.89223844  0.80415604  0.06645700  1.0
  H  H53  1  0.84662159  0.77173296  0.11042570  1.0
  H  H54  1  0.75974148  0.86514289  0.10870786  1.0
  H  H55  1  0.80400720  0.89546434  0.06290523  1.0
  H  H56  1  0.64081315  0.75337582  0.04637164  1.0
  H  H57  1  0.59946332  0.70660893  0.95711263  1.0
  H  H58  1  0.72870919  0.66034777  0.04702788  1.0
  H  H59  1  0.68780359  0.61479384  0.95772274  1.0
  H  H60  1  0.83384614  0.73839791  0.93680820  1.0
  H  H61  1  0.75082158  0.66090839  0.89272291  1.0
  H  H62  1  0.66171582  0.75255987  0.89093413  1.0
  H  H63  1  0.74477435  0.82975053  0.93475501  1.0
  H  H64  1  0.55019998  0.96249116  0.81397124  1.0
  H  H65  1  0.28700152  0.84406477  0.82217095  1.0
  H  H66  1  0.22269539  0.53056676  0.18589008  1.0
  H  H67  1  0.96226237  0.65955075  0.19871433  1.0
  H  H68  1  0.66087305  0.21870986  0.18918233  1.0
  H  H69  1  0.53155042  0.96890840  0.19603483  1.0
  H  H70  1  0.84610649  0.54037966  0.82236545  1.0
  H  H71  1  0.97277723  0.28207140  0.81671280  1.0
  C  C72  1  0.14488255  0.35797041  0.99866445  1.0
  C  C73  1  0.91339622  0.41509460  0.82747229  1.0
  C  C74  1  0.14486984  0.63124237  0.99961739  1.0
  C  C75  1  0.85578448  0.64575984  0.00493733  1.0
  C  C76  1  0.08736546  0.59104178  0.18311228  1.0
  C  C77  1  0.85916495  0.37277396  0.00807164  1.0
  C  C78  1  0.35767786  0.85800645  0.00286532  1.0
  C  C79  1  0.59051934  0.09003529  0.18468069  1.0
  C  C80  1  0.35873281  0.13588913  0.00513967  1.0
  C  C81  1  0.64397616  0.14958464  0.00716982  1.0
  C  C82  1  0.42353409  0.90994553  0.82692259  1.0
  C  C83  1  0.64054285  0.86737382  0.00226564  1.0
  C  C84  1  0.38519902  0.87295221  0.75096476  1.0
  C  C85  1  0.43170717  0.84553754  0.71017607  1.0
  C  C86  1  0.39601697  0.81154017  0.63998134  1.0
  C  C87  1  0.31134774  0.80320087  0.60695963  1.0
  C  C88  1  0.26394836  0.82997919  0.64657363  1.0
  C  C89  1  0.30015490  0.86384238  0.71669880  1.0
  C  C90  1  0.27417261  0.76839697  0.53562060  1.0
  C  C91  1  0.24109225  0.73817311  0.47411851  1.0
  C  C92  1  0.20312339  0.70270898  0.40281905  1.0
  C  C93  1  0.24949738  0.69034584  0.36242704  1.0
  C  C94  1  0.21219086  0.65481459  0.29235367  1.0
  C  C95  1  0.12703970  0.62995307  0.25894524  1.0
  C  C96  1  0.08149860  0.64317440  0.30047383  1.0
  C  C97  1  0.11829470  0.67866666  0.37061293  1.0
  C  C98  1  0.62850994  0.12862979  0.26032190  1.0
  C  C99  1  0.64013497  0.21192620  0.29717466  1.0
  C  C100  1  0.67495743  0.24814268  0.36734046  1.0
  C  C101  1  0.70016095  0.20234395  0.40403248  1.0
  C  C102  1  0.68935350  0.11941681  0.36834318  1.0
  C  C103  1  0.65436575  0.08367652  0.29819303  1.0
  C  C104  1  0.73597885  0.23878358  0.47531775  1.0
  C  C105  1  0.76711294  0.26991840  0.53687667  1.0
  C  C106  1  0.80301659  0.30563298  0.60817999  1.0
  C  C107  1  0.82890954  0.38809140  0.64406461  1.0
  C  C108  1  0.86405296  0.42288412  0.71422035  1.0
  C  C109  1  0.87523458  0.37735453  0.75182591  1.0
  C  C110  1  0.84878910  0.29457522  0.71477050  1.0
  C  C111  1  0.81345723  0.25929430  0.64463399  1.0
  C  C112  1  0.18772425  0.77391041  0.03697338  1.0
  C  C113  1  0.24670645  0.83658082  0.03867050  1.0
  C  C114  1  0.30208340  0.79463183  0.00094265  1.0
  C  C115  1  0.24751927  0.73903048  0.92741779  1.0
  C  C116  1  0.19092415  0.67519549  0.92665205  1.0
  C  C117  1  0.20455025  0.68955092  0.99975934  1.0
  C  C118  1  0.29313199  0.68446644  0.03681098  1.0
  C  C119  1  0.35112338  0.74589499  0.03632882  1.0
  C  C120  1  0.84801971  0.26120087  0.03872353  1.0
  C  C121  1  0.78924273  0.20023087  0.03921466  1.0
  C  C122  1  0.70028914  0.21126005  0.00764239  1.0
  C  C123  1  0.68344759  0.19935132  0.93453271  1.0
  C  C124  1  0.74089529  0.26231299  0.93508764  1.0
  C  C125  1  0.79919776  0.31501416  0.00839955  1.0
  C  C126  1  0.74973059  0.35752940  0.05081249  1.0
  C  C127  1  0.68995923  0.29587403  0.04934663  1.0
  C  C128  1  0.22301050  0.28758764  0.06374371  1.0
  C  C129  1  0.28152407  0.22637805  0.06582401  1.0
  C  C130  1  0.29968300  0.19404193  0.00042729  1.0
  C  C131  1  0.33941281  0.26442955  0.99595797  1.0
  C  C132  1  0.28114922  0.32596014  0.99424747  1.0
  C  C133  1  0.20160459  0.29709347  0.99702504  1.0
  C  C134  1  0.16168327  0.21640931  0.93666091  1.0
  C  C135  1  0.21974416  0.15494534  0.93894946  1.0
  C  C136  1  0.83384415  0.78232440  0.06509324  1.0
  C  C137  1  0.77532231  0.84371893  0.06362431  1.0
  C  C138  1  0.69629614  0.80546636  0.99962473  1.0
  C  C139  1  0.65661341  0.73312699  0.00150693  1.0
  C  C140  1  0.71530548  0.67179539  0.00212025  1.0
  C  C141  1  0.79531243  0.70286233  0.00145220  1.0
  C  C142  1  0.77680032  0.71750922  0.93781277  1.0
  C  C143  1  0.71765574  0.77816611  0.93650985  1.0
  S  S144  1  0.54002975  0.84626088  0.74435860  1.0
  S  S145  1  0.23044528  0.89844360  0.75913218  1.0
  S  S146  1  0.28040483  0.64747497  0.24861904  1.0
  S  S147  1  0.97291289  0.61132805  0.26741143  1.0
  S  S148  1  0.60782069  0.27914458  0.25826808  1.0
  S  S149  1  0.65050065  0.97743706  0.26029104  1.0
  S  S150  1  0.89829832  0.52859234  0.75204190  1.0
  S  S151  1  0.85305156  0.22729609  0.75376397  1.0
  O  O152  1  0.00176234  0.50424276  0.00637863  1.0
  O  O153  1  0.17502491  0.42985064  0.04118727  1.0
  O  O154  1  0.96299821  0.37960777  0.85695655  1.0
  O  O155  1  0.07066189  0.62273946  0.96120839  1.0
  O  O156  1  0.07049634  0.33326704  0.95890532  1.0
  O  O157  1  0.17253681  0.59682741  0.03839346  1.0
  O  O158  1  0.89509878  0.48144842  0.85982343  1.0
  O  O159  1  0.89550848  0.63321865  0.96647661  1.0
  O  O160  1  0.01987601  0.60972131  0.15463569  1.0
  O  O161  1  0.86445182  0.61551784  0.04694806  1.0
  O  O162  1  0.12305045  0.54083097  0.15015622  1.0
  O  O163  1  0.89663790  0.34226878  0.96823370  1.0
  O  O164  1  0.86830009  0.44600310  0.04736447  1.0
  O  O165  1  0.50134724  0.00416060  0.00494799  1.0
  O  O166  1  0.32760608  0.88957804  0.96195430  1.0
  O  O167  1  0.54055158  0.02522505  0.15544126  1.0
  O  O168  1  0.43016007  0.16522442  0.05050015  1.0
  O  O169  1  0.43047218  0.87667915  0.04609674  1.0
  O  O170  1  0.33265309  0.06298214  0.96456008  1.0
  O  O171  1  0.60902552  0.12322405  0.15183227  1.0
  O  O172  1  0.60555411  0.17442149  0.04674521  1.0
  O  O173  1  0.49067939  0.95786620  0.85626260  1.0
  O  O174  1  0.63923049  0.07697902  0.96759744  1.0
  O  O175  1  0.38698049  0.89243418  0.85921032  1.0
  O  O176  1  0.60678248  0.88150207  0.04513252  1.0
  O  O177  1  0.63306810  0.90156936  0.96326545  1.0
  O  O178  1  0.57435647  0.93846251  0.77876244  1.0
  O  O179  1  0.56651796  0.81124180  0.68918738  1.0
  O  O180  1  0.55549585  0.81608962  0.79470230  1.0
  O  O181  1  0.22959192  0.83674144  0.79044784  1.0
  O  O182  1  0.15065692  0.88397205  0.70899595  1.0
  O  O183  1  0.26602956  0.97694006  0.81186712  1.0
  O  O184  1  0.28065936  0.55442508  0.21649477  1.0
  O  O185  1  0.36070665  0.68266688  0.29792772  1.0
  O  O186  1  0.24356806  0.67385119  0.19642317  1.0
  O  O187  1  0.93928290  0.67077503  0.23459400  1.0
  O  O188  1  0.94767778  0.63094654  0.32318930  1.0
  O  O189  1  0.95528239  0.53126929  0.21592396  1.0
  O  O190  1  0.67130110  0.27522349  0.22322447  1.0
  O  O191  1  0.62533982  0.35781750  0.31079008  1.0
  O  O192  1  0.52683011  0.24627109  0.20805611  1.0
  O  O193  1  0.55544532  0.94649427  0.22980806  1.0
  O  O194  1  0.68547304  0.95278394  0.31334495  1.0
  O  O195  1  0.68099149  0.95881980  0.20706392  1.0
  O  O196  1  0.83622393  0.56226425  0.78796001  1.0
  O  O197  1  0.88088766  0.55367970  0.69886091  1.0
  O  O198  1  0.97960155  0.54472303  0.80147784  1.0
  O  O199  1  0.94804625  0.22604972  0.78314879  1.0
  O  O200  1  0.81697668  0.14946222  0.70139655  1.0
  O  O201  1  0.82396744  0.26300418  0.80776772  1.0
