# generated using pymatgen
data_Zn2H13C27BrN8
_symmetry_space_group_name_H-M   'P 1'
_cell_length_a   18.36790424
_cell_length_b   18.36919316
_cell_length_c   18.40318089
_cell_angle_alpha   111.71666128
_cell_angle_beta   111.80187852
_cell_angle_gamma   97.34037423
_symmetry_Int_Tables_number   1
_chemical_formula_structural   Zn2H13C27BrN8
_chemical_formula_sum   'Zn4 H26 C54 Br2 N16'
_cell_volume   5096.58959953
_cell_formula_units_Z   2
loop_
 _symmetry_equiv_pos_site_id
 _symmetry_equiv_pos_as_xyz
  1  'x, y, z'
loop_
 _atom_site_type_symbol
 _atom_site_label
 _atom_site_symmetry_multiplicity
 _atom_site_fract_x
 _atom_site_fract_y
 _atom_site_fract_z
 _atom_site_occupancy
  Zn  Zn98  1  0.60790493  0.48825603  0.10551586  1.0
  Zn  Zn99  1  0.48819993  0.60799862  0.10538981  1.0
  Zn  Zn100  1  0.37939719  0.49802015  0.88248968  1.0
  Zn  Zn101  1  0.49787995  0.37954709  0.88255921  1.0
  H  H56  1  0.78681807  0.47479073  0.11338519  1.0
  H  H57  1  0.47466969  0.78674081  0.11336149  1.0
  H  H58  1  0.88816238  0.98039659  0.39972705  1.0
  H  H59  1  0.98106114  0.88696337  0.40039454  1.0
  H  H60  1  0.00634997  0.85029239  0.47985486  1.0
  H  H61  1  0.85011408  0.00574401  0.47801485  1.0
  H  H62  1  0.12258763  0.96663004  0.57499607  1.0
  H  H63  1  0.96626642  0.12194893  0.57446466  1.0
  H  H64  1  0.88772982  0.95233638  0.59079521  1.0
  H  H65  1  0.95145200  0.88818037  0.59124885  1.0
  H  H66  1  0.00420531  0.06806194  0.68654122  1.0
  H  H67  1  0.06797265  0.00391289  0.68640641  1.0
  H  H68  1  0.30508886  0.64287462  0.83731395  1.0
  H  H69  1  0.64275034  0.30520968  0.83748663  1.0
  H  H70  1  0.63010658  0.47281442  0.84509029  1.0
  H  H71  1  0.47274519  0.63009811  0.84485522  1.0
  H  H72  1  0.65698462  0.50005473  0.31059259  1.0
  H  H73  1  0.50016244  0.65743264  0.31058770  1.0
  H  H74  1  0.20444755  0.36120593  0.72826259  1.0
  H  H75  1  0.36130434  0.20475164  0.72826467  1.0
  H  H76  1  0.37873906  0.22776958  0.87222931  1.0
  H  H77  1  0.22766955  0.37875210  0.87229413  1.0
  H  H78  1  0.36245377  0.52516793  0.15477843  1.0
  H  H79  1  0.52528455  0.36218778  0.15476508  1.0
  H  H80  1  0.00349407  0.09682808  0.49541354  1.0
  H  H81  1  0.09669134  0.00318988  0.49532748  1.0
  C  C2  1  0.73876858  0.43463052  0.04747423  1.0
  C  C3  1  0.43452940  0.73878166  0.04741240  1.0
  C  C4  1  0.42025367  0.27246956  0.93948434  1.0
  C  C5  1  0.27245795  0.42026659  0.93952131  1.0
  C  C6  1  0.34115135  0.49513682  0.08435068  1.0
  C  C7  1  0.49517629  0.34096177  0.08433671  1.0
  C  C8  1  0.58406941  0.58422239  0.34842614  1.0
  C  C9  1  0.25189729  0.25198520  0.71070678  1.0
  C  C10  1  0.44052279  0.26300495  0.01666937  1.0
  C  C11  1  0.26311743  0.44048822  0.01672426  1.0
  C  C12  1  0.90426938  0.99562420  0.46847419  1.0
  C  C13  1  0.99604561  0.90395285  0.46925829  1.0
  C  C14  1  0.07255338  0.98066605  0.53201765  1.0
  C  C15  1  0.98073367  0.07229608  0.53170072  1.0
  C  C16  1  0.18264055  0.18268591  0.67239661  1.0
  C  C17  1  0.92046865  0.92033413  0.48350886  1.0
  C  C18  1  0.05093055  0.05082040  0.59066812  1.0
  C  C19  1  0.34779261  0.66560797  0.90605480  1.0
  C  C20  1  0.66546873  0.34789442  0.90618743  1.0
  C  C21  1  0.01873602  0.01874426  0.64348594  1.0
  C  C22  1  0.94113077  0.94150106  0.57989822  1.0
  C  C23  1  0.12349238  0.12341814  0.64336391  1.0
  C  C24  1  0.84912648  0.84899699  0.41690913  1.0
  C  C25  1  0.79387677  0.79371291  0.34866750  1.0
  C  C26  1  0.37971196  0.82215222  0.97167628  1.0
  C  C27  1  0.82214717  0.37990762  0.97180022  1.0
  C  C28  1  0.38148407  0.89195205  0.97946286  1.0
  C  C29  1  0.89195632  0.38157632  0.97957810  1.0
  C  C30  1  0.38582411  0.96875713  0.98976613  1.0
  C  C31  1  0.96874906  0.38576562  0.98975122  1.0
  C  C32  1  0.39304377  0.04057955  0.00130319  1.0
  C  C33  1  0.04059990  0.39293837  0.00129567  1.0
  C  C34  1  0.40437390  0.11798233  0.01167212  1.0
  C  C35  1  0.11802892  0.40424817  0.01163775  1.0
  C  C36  1  0.58581713  0.50522667  0.85216172  1.0
  C  C37  1  0.50516837  0.58582819  0.85201996  1.0
  C  C38  1  0.41878375  0.18846529  0.01929581  1.0
  C  C39  1  0.18857107  0.41877847  0.01937987  1.0
  C  C40  1  0.59561282  0.59573855  0.43188125  1.0
  C  C41  1  0.60362603  0.60370068  0.50413294  1.0
  C  C42  1  0.60831165  0.60833816  0.58023462  1.0
  C  C43  1  0.60854860  0.60869702  0.64769266  1.0
  C  C44  1  0.60255285  0.60264878  0.71580872  1.0
  C  C45  1  0.59085071  0.59086062  0.77278870  1.0
  C  C46  1  0.65268797  0.73154211  0.21674165  1.0
  C  C47  1  0.73158371  0.65254843  0.21689558  1.0
  C  C48  1  0.74743323  0.38563226  0.97328795  1.0
  C  C49  1  0.38546426  0.74747291  0.97317100  1.0
  C  C50  1  0.56620223  0.56622220  0.82579623  1.0
  C  C51  1  0.73149372  0.73135296  0.26827177  1.0
  C  C52  1  0.61611073  0.53588051  0.29565178  1.0
  C  C53  1  0.53585221  0.61644084  0.29564453  1.0
  C  C54  1  0.25514706  0.33523730  0.73720062  1.0
  C  C55  1  0.33521533  0.25534631  0.73719798  1.0
  Br  Br0  1  0.60724396  0.81554899  0.25291843  1.0
  Br  Br1  1  0.81543030  0.60686100  0.25315812  1.0
  N  N82  1  0.65912947  0.42677425  0.02652860  1.0
  N  N83  1  0.42676520  0.65918699  0.02646507  1.0
  N  N84  1  0.37241605  0.61354856  0.93841643  1.0
  N  N85  1  0.61340691  0.37241061  0.93849960  1.0
  N  N86  1  0.53836902  0.48897967  0.88849814  1.0
  N  N87  1  0.48889590  0.53840975  0.88840276  1.0
  N  N88  1  0.61037490  0.66060297  0.14189534  1.0
  N  N89  1  0.66059327  0.61034373  0.14199515  1.0
  N  N90  1  0.58897275  0.53930276  0.21888761  1.0
  N  N91  1  0.53918428  0.58928501  0.21888524  1.0
  N  N92  1  0.33376431  0.38395861  0.77838591  1.0
  N  N93  1  0.38386730  0.33395995  0.77837661  1.0
  N  N94  1  0.46146124  0.34864860  0.96004060  1.0
  N  N95  1  0.34861276  0.46151826  0.96001777  1.0
  N  N96  1  0.39086193  0.50736840  0.04873938  1.0
  N  N97  1  0.50735120  0.39077164  0.04877302  1.0
