# generated using pymatgen
data_Cd2H33C40(NO3)3
_symmetry_space_group_name_H-M   'P 1'
_cell_length_a   9.58954447
_cell_length_b   14.51400792
_cell_length_c   19.91063592
_cell_angle_alpha   80.31895267
_cell_angle_beta   77.45710018
_cell_angle_gamma   82.65601420
_symmetry_Int_Tables_number   1
_chemical_formula_structural   Cd2H33C40(NO3)3
_chemical_formula_sum   'Cd4 H66 C80 N6 O18'
_cell_volume   2654.52315107
_cell_formula_units_Z   2
loop_
 _symmetry_equiv_pos_site_id
 _symmetry_equiv_pos_as_xyz
  1  'x, y, z'
loop_
 _atom_site_type_symbol
 _atom_site_label
 _atom_site_symmetry_multiplicity
 _atom_site_fract_x
 _atom_site_fract_y
 _atom_site_fract_z
 _atom_site_occupancy
  Cd  Cd0  1  0.47762712  0.05220292  0.19554598  1.0
  Cd  Cd1  1  0.52236937  0.94780327  0.80444864  1.0
  Cd  Cd2  1  0.17132200  0.22352258  0.25222260  1.0
  Cd  Cd3  1  0.82869381  0.77647105  0.74779510  1.0
  H  H4  1  0.87336235  0.13449791  0.14138510  1.0
  H  H5  1  0.12664746  0.86551187  0.85860715  1.0
  H  H6  1  0.24755213  0.96373670  0.05488773  1.0
  H  H7  1  0.75245901  0.03627801  0.94510126  1.0
  H  H8  1  0.75008058  0.11024631  0.05001902  1.0
  H  H9  1  0.24992905  0.88977119  0.94996929  1.0
  H  H10  1  0.33798125  0.42397158  0.12680518  1.0
  H  H11  1  0.66200108  0.57602961  0.87319207  1.0
  H  H12  1  0.67820973  0.26513875  0.00450088  1.0
  H  H13  1  0.32177505  0.73486737  0.99549801  1.0
  H  H14  1  0.72603492  0.40698868  0.91567506  1.0
  H  H15  1  0.27394613  0.59301391  0.08432316  1.0
  H  H16  1  0.00478418  0.81020360  0.48983369  1.0
  H  H17  1  0.99523572  0.18978304  0.51016333  1.0
  H  H18  1  0.19550416  0.84115557  0.38329033  1.0
  H  H19  1  0.80453040  0.15882693  0.61671718  1.0
  H  H20  1  0.16796268  0.13071969  0.41071645  1.0
  H  H21  1  0.83208481  0.86926218  0.58929077  1.0
  H  H22  1  0.21603729  0.44163939  0.39281814  1.0
  H  H23  1  0.78394183  0.55836950  0.60719256  1.0
  H  H24  1  0.81234705  0.32314277  0.45873008  1.0
  H  H25  1  0.18763144  0.67686963  0.54127373  1.0
  H  H26  1  0.73284195  0.43047963  0.54853156  1.0
  H  H27  1  0.26713168  0.56953627  0.45146833  1.0
  H  H28  1  0.11111665  0.44815930  0.23894740  1.0
  H  H29  1  0.88889130  0.55184906  0.76105025  1.0
  H  H30  1  0.96588172  0.58657318  0.18696577  1.0
  H  H31  1  0.03412752  0.41343378  0.81303241  1.0
  H  H32  1  0.78791819  0.39517461  0.09142209  1.0
  H  H33  1  0.21208243  0.60483300  0.90858045  1.0
  H  H34  1  0.93970316  0.26478582  0.14861736  1.0
  H  H35  1  0.06029351  0.73521966  0.85138486  1.0
  H  H36  1  0.72855672  0.63151793  0.13642436  1.0
  H  H37  1  0.27142726  0.36848678  0.86357981  1.0
  H  H38  1  0.69778024  0.56039718  0.07801811  1.0
  H  H39  1  0.30221306  0.43960266  0.92198516  1.0
  H  H40  1  0.97155441  0.66012622  0.05824240  1.0
  H  H41  1  0.02843655  0.33987501  0.94176296  1.0
  H  H42  1  0.93249976  0.59432995  0.99953307  1.0
  H  H43  1  0.06749237  0.40567058  0.00047175  1.0
  H  H44  1  0.72540897  0.70636891  0.97751851  1.0
  H  H45  1  0.27458856  0.29363798  0.02248395  1.0
  H  H46  1  0.88450357  0.76199913  0.95980828  1.0
  H  H47  1  0.11549805  0.23800216  0.04019393  1.0
  H  H48  1  0.89242806  0.78239495  0.11397008  1.0
  H  H49  1  0.10757357  0.21760634  0.88603363  1.0
  H  H50  1  0.76530578  0.90534956  0.18468636  1.0
  H  H51  1  0.23469812  0.09465104  0.81531970  1.0
  H  H52  1  0.44432929  0.96257976  0.07094942  1.0
  H  H53  1  0.55567679  0.03742718  0.92905363  1.0
  H  H54  1  0.55682665  0.84135578  0.99433362  1.0
  H  H55  1  0.44317645  0.15864974  0.00566992  1.0
  H  H56  1  0.51535134  0.10629162  0.33649954  1.0
  H  H57  1  0.48464490  0.89370123  0.66347514  1.0
  H  H58  1  0.55736067  0.12013056  0.43697686  1.0
  H  H59  1  0.44259920  0.87985646  0.56301196  1.0
  H  H60  1  0.73164473  0.15619955  0.43300858  1.0
  H  H61  1  0.26831820  0.84378888  0.56698728  1.0
  H  H62  1  0.69634030  0.03738996  0.46461982  1.0
  H  H63  1  0.30362584  0.96259147  0.53537404  1.0
  H  H64  1  0.90077590  0.97931434  0.36246395  1.0
  H  H65  1  0.09920514  0.02067490  0.63753791  1.0
  H  H66  1  0.93290661  0.10043894  0.34449999  1.0
  H  H67  1  0.06707216  0.89955801  0.65550368  1.0
  H  H68  1  0.89379320  0.04485517  0.27800367  1.0
  H  H69  1  0.10620199  0.95513906  0.72199456  1.0
  C  C70  1  0.15317726  0.07867307  0.15122555  1.0
  C  C71  1  0.84682878  0.92132052  0.84877762  1.0
  C  C72  1  0.07123996  0.05320066  0.10170029  1.0
  C  C73  1  0.92877326  0.94680140  0.89829907  1.0
  C  C74  1  0.92853273  0.09349338  0.10072162  1.0
  C  C75  1  0.07148571  0.90650942  0.89927609  1.0
  C  C76  1  0.13877248  0.99514571  0.05346419  1.0
  C  C77  1  0.86124565  0.00486551  0.94652700  1.0
  C  C78  1  0.07075451  0.97776620  0.00131606  1.0
  C  C79  1  0.92925658  0.02224218  0.99867572  1.0
  C  C80  1  0.85995418  0.07929627  0.04989275  1.0
  C  C81  1  0.14006726  0.92071427  0.95009816  1.0
  C  C82  1  0.44395265  0.50278496  0.03032100  1.0
  C  C83  1  0.55602903  0.49721411  0.96968461  1.0
  C  C84  1  0.42152349  0.42151369  0.08009188  1.0
  C  C85  1  0.57846124  0.57848610  0.91991030  1.0
  C  C86  1  0.50400200  0.33744135  0.07068222  1.0
  C  C87  1  0.49599233  0.66255850  0.92931792  1.0
  C  C88  1  0.61460567  0.33208936  0.01063863  1.0
  C  C89  1  0.38538563  0.66791609  0.98935965  1.0
  C  C90  1  0.64044547  0.41032116  0.96166668  1.0
  C  C91  1  0.35953730  0.58968424  0.03833352  1.0
  C  C92  1  0.47323930  0.25223450  0.12408154  1.0
  C  C93  1  0.52675544  0.74776957  0.87591805  1.0
  C  C94  1  0.04008440  0.88029640  0.47219246  1.0
  C  C95  1  0.95992584  0.11968386  0.52780738  1.0
  C  C96  1  0.14568364  0.89679171  0.41373723  1.0
  C  C97  1  0.85433783  0.10319213  0.58626499  1.0
  C  C98  1  0.19092013  0.98833292  0.39082245  1.0
  C  C99  1  0.80911441  0.01164958  0.60918306  1.0
  C  C100  1  0.13264272  0.06079168  0.42864144  1.0
  C  C101  1  0.86738679  0.93918868  0.57136236  1.0
  C  C102  1  0.02425174  0.04595463  0.48907117  1.0
  C  C103  1  0.97577800  0.95402433  0.51093378  1.0
  C  C104  1  0.29750389  0.00635243  0.32436718  1.0
  C  C105  1  0.70253627  0.99362167  0.67564127  1.0
  C  C106  1  0.11093376  0.44001699  0.42742063  1.0
  C  C107  1  0.88904079  0.55999329  0.57258336  1.0
  C  C108  1  0.01962773  0.37680719  0.42087891  1.0
  C  C109  1  0.98035063  0.62320592  0.57912232  1.0
  C  C110  1  0.88201164  0.37336113  0.46519218  1.0
  C  C111  1  0.11796605  0.62665619  0.53480911  1.0
  C  C112  1  0.83875958  0.43261541  0.51460988  1.0
  C  C113  1  0.16121073  0.56740117  0.48538978  1.0
  C  C114  1  0.93036254  0.49817559  0.52234207  1.0
  C  C115  1  0.06960294  0.50184447  0.47765767  1.0
  C  C116  1  0.06593988  0.31356721  0.36619440  1.0
  C  C117  1  0.93405585  0.68643756  0.63380902  1.0
  C  C118  1  0.03883965  0.44002022  0.20531887  1.0
  C  C119  1  0.96117140  0.55998885  0.79467987  1.0
  C  C120  1  0.95753301  0.51641239  0.17618598  1.0
  C  C121  1  0.04247495  0.48359597  0.82381318  1.0
  C  C122  1  0.86502385  0.50286927  0.13364710  1.0
  C  C123  1  0.13497192  0.49713550  0.86635982  1.0
  C  C124  1  0.85846073  0.41051012  0.12356241  1.0
  C  C125  1  0.14154343  0.58949540  0.87644000  1.0
  C  C126  1  0.94275901  0.33759364  0.15493021  1.0
  C  C127  1  0.05723899  0.66241044  0.84507555  1.0
  C  C128  1  0.78235248  0.58483291  0.09832467  1.0
  C  C129  1  0.21763566  0.41517252  0.90167847  1.0
  C  C130  1  0.88240351  0.64045058  0.03846247  1.0
  C  C131  1  0.11759053  0.35955137  0.96154096  1.0
  C  C132  1  0.80574534  0.72746756  0.00237389  1.0
  C  C133  1  0.19425595  0.27253584  0.99762910  1.0
  C  C134  1  0.73432521  0.79971029  0.04815849  1.0
  C  C135  1  0.26567703  0.20029381  0.95184330  1.0
  C  C136  1  0.79220282  0.81949231  0.10249498  1.0
  C  C137  1  0.20779904  0.18050757  0.89750938  1.0
  C  C138  1  0.72229780  0.88806734  0.14239154  1.0
  C  C139  1  0.27770721  0.11193959  0.85761162  1.0
  C  C140  1  0.54359840  0.92004605  0.07820060  1.0
  C  C141  1  0.45640171  0.07995804  0.92180242  1.0
  C  C142  1  0.60653778  0.85224281  0.03643800  1.0
  C  C143  1  0.39347032  0.14776484  0.96356324  1.0
  C  C144  1  0.62689149  0.08187585  0.31416274  1.0
  C  C145  1  0.37310423  0.91812823  0.68582920  1.0
  C  C146  1  0.67305260  0.09889614  0.42673644  1.0
  C  C147  1  0.32691640  0.90108741  0.57325535  1.0
  C  C148  1  0.87097613  0.04802419  0.33379264  1.0
  C  C149  1  0.12901524  0.95196721  0.66620735  1.0
  N  N150  1  0.03275380  0.35157504  0.19464171  1.0
  N  N151  1  0.96724919  0.64843117  0.80536175  1.0
  N  N152  1  0.59926991  0.93760602  0.13079257  1.0
  N  N153  1  0.40073532  0.06239951  0.86920974  1.0
  N  N154  1  0.71911926  0.07613859  0.35638304  1.0
  N  N155  1  0.28086246  0.92385206  0.64360300  1.0
  O  O156  1  0.28414093  0.04766830  0.14458028  1.0
  O  O157  1  0.71587098  0.95232181  0.85542119  1.0
  O  O158  1  0.08351569  0.13244022  0.19443629  1.0
  O  O159  1  0.91649583  0.86754567  0.80556625  1.0
  O  O160  1  0.54127497  0.17407092  0.10947152  1.0
  O  O161  1  0.45872851  0.82593179  0.89052629  1.0
  O  O162  1  0.38287871  0.26346378  0.17939697  1.0
  O  O163  1  0.61711419  0.73653817  0.82060006  1.0
  O  O164  1  0.31435379  0.09324934  0.29712885  1.0
  O  O165  1  0.68567218  0.90672609  0.70287091  1.0
  O  O166  1  0.36895399  0.93899761  0.29621299  1.0
  O  O167  1  0.63109037  0.06097018  0.70379478  1.0
  O  O168  1  0.98175437  0.25648429  0.35921592  1.0
  O  O169  1  0.01825902  0.74350371  0.64079268  1.0
  O  O170  1  0.19127556  0.32104402  0.32732678  1.0
  O  O171  1  0.80871625  0.67897830  0.67266636  1.0
  O  O172  1  0.66104983  0.06173759  0.25318452  1.0
  O  O173  1  0.33897865  0.93826106  0.74679002  1.0
