# generated using pymatgen
data_CuH18C18SBr2N6O
_symmetry_space_group_name_H-M   'P 1'
_cell_length_a   8.45775179
_cell_length_b   15.10012844
_cell_length_c   21.02506195
_cell_angle_alpha   90.00045586
_cell_angle_beta   90.00448086
_cell_angle_gamma   89.99887976
_symmetry_Int_Tables_number   1
_chemical_formula_structural   CuH18C18SBr2N6O
_chemical_formula_sum   'Cu4 H72 C72 S4 Br8 N24 O4'
_cell_volume   2685.17663667
_cell_formula_units_Z   4
loop_
 _symmetry_equiv_pos_site_id
 _symmetry_equiv_pos_as_xyz
  1  'x, y, z'
loop_
 _atom_site_type_symbol
 _atom_site_label
 _atom_site_symmetry_multiplicity
 _atom_site_fract_x
 _atom_site_fract_y
 _atom_site_fract_z
 _atom_site_occupancy
  Cu  Cu0  1  0.19528313  0.00321292  0.89896213  1.0
  Cu  Cu1  1  0.80468961  0.99679662  0.39899621  1.0
  Cu  Cu2  1  0.69524556  0.49677453  0.89896294  1.0
  Cu  Cu3  1  0.30470944  0.50322044  0.39897829  1.0
  H  H4  1  0.92679822  0.83273419  0.34348982  1.0
  H  H5  1  0.07317029  0.16724423  0.84345292  1.0
  H  H6  1  0.42681871  0.66728767  0.34347991  1.0
  H  H7  1  0.57314743  0.33273248  0.84344998  1.0
  H  H8  1  0.88689063  0.66950540  0.35864553  1.0
  H  H9  1  0.11307302  0.33049506  0.85860295  1.0
  H  H10  1  0.38688107  0.83051305  0.35863840  1.0
  H  H11  1  0.61308494  0.16948807  0.85861531  1.0
  H  H12  1  0.70149751  0.61821121  0.44519631  1.0
  H  H13  1  0.29841471  0.38179424  0.94516985  1.0
  H  H14  1  0.20148948  0.88180408  0.44519183  1.0
  H  H15  1  0.79845820  0.11820601  0.94517432  1.0
  H  H16  1  0.63198001  0.97773394  0.49543212  1.0
  H  H17  1  0.36793052  0.02227077  0.99540889  1.0
  H  H18  1  0.13202747  0.52228061  0.49540906  1.0
  H  H19  1  0.86793981  0.47772278  0.99539628  1.0
  H  H20  1  0.44972594  0.93150459  0.58214895  1.0
  H  H21  1  0.55023451  0.06847805  0.08212422  1.0
  H  H22  1  0.94973827  0.56848939  0.58212414  1.0
  H  H23  1  0.05021626  0.43151246  0.08211526  1.0
  H  H24  1  0.52593512  0.65691952  0.53263831  1.0
  H  H25  1  0.47405319  0.34308904  0.03263111  1.0
  H  H26  1  0.02594162  0.84308391  0.53264028  1.0
  H  H27  1  0.97407388  0.15689683  0.03262819  1.0
  H  H28  1  0.96350084  0.74353788  0.75988836  1.0
  H  H29  1  0.03647721  0.25644288  0.25992383  1.0
  H  H30  1  0.46352256  0.75646136  0.75987846  1.0
  H  H31  1  0.53648268  0.24356509  0.25992613  1.0
  H  H32  1  0.94333146  0.64730001  0.80863395  1.0
  H  H33  1  0.05668713  0.35267536  0.30864811  1.0
  H  H34  1  0.44337424  0.85269073  0.80863265  1.0
  H  H35  1  0.55669164  0.14733034  0.30865275  1.0
  H  H36  1  0.21318048  0.61665850  0.88124278  1.0
  H  H37  1  0.78677880  0.38335944  0.38122601  1.0
  H  H38  1  0.71321830  0.88332337  0.88123727  1.0
  H  H39  1  0.28677053  0.11665748  0.38123200  1.0
  H  H40  1  0.36081410  0.69608213  0.96690368  1.0
  H  H41  1  0.63919286  0.30395669  0.46689779  1.0
  H  H42  1  0.86081129  0.80388543  0.96691010  1.0
  H  H43  1  0.13918622  0.19608054  0.46689754  1.0
  H  H44  1  0.34675557  0.86234239  0.97111700  1.0
  H  H45  1  0.65329255  0.13771236  0.47115673  1.0
  H  H46  1  0.84670607  0.63762402  0.97111730  1.0
  H  H47  1  0.15332076  0.36232213  0.47115548  1.0
  H  H48  1  0.06319028  0.87181293  0.81033468  1.0
  H  H49  1  0.93677549  0.12819160  0.31035807  1.0
  H  H50  1  0.56318017  0.62817949  0.81032304  1.0
  H  H51  1  0.43679505  0.37181047  0.31035735  1.0
  H  H52  1  0.79931654  0.04147140  0.80552127  1.0
  H  H53  1  0.20076165  0.95852513  0.30554821  1.0
  H  H54  1  0.29926175  0.45842058  0.80539449  1.0
  H  H55  1  0.70076086  0.54149780  0.30554181  1.0
  H  H56  1  0.87294803  0.02836606  0.72657357  1.0
  H  H57  1  0.12705206  0.97164941  0.22661385  1.0
  H  H58  1  0.37304407  0.47159780  0.72647683  1.0
  H  H59  1  0.62705769  0.52837661  0.22660500  1.0
  H  H60  1  0.90376275  0.13081429  0.76874488  1.0
  H  H61  1  0.09621730  0.86920233  0.26878379  1.0
  H  H62  1  0.40388409  0.36912592  0.76862714  1.0
  H  H63  1  0.59620709  0.63081852  0.26877835  1.0
  H  H64  1  0.37604041  0.58224770  0.59072014  1.0
  H  H65  1  0.62395153  0.41774365  0.09069686  1.0
  H  H66  1  0.87602013  0.91775371  0.59071624  1.0
  H  H67  1  0.12398009  0.08226149  0.09070124  1.0
  H  H68  1  0.51739413  0.61189939  0.64278281  1.0
  H  H69  1  0.48260481  0.38810847  0.14275041  1.0
  H  H70  1  0.01739059  0.88809746  0.64277028  1.0
  H  H71  1  0.98261899  0.11189583  0.14274676  1.0
  H  H72  1  0.12930523  0.03062352  0.77289321  1.0
  H  H73  1  0.87071831  0.96939712  0.27297360  1.0
  H  H74  1  0.62930657  0.46938494  0.77288436  1.0
  H  H75  1  0.37071934  0.53062577  0.27296201  1.0
  C  C76  1  0.85005322  0.80783499  0.38097353  1.0
  C  C77  1  0.14992610  0.19217699  0.88094259  1.0
  C  C78  1  0.35007155  0.69218407  0.38095995  1.0
  C  C79  1  0.64991486  0.30780539  0.88094048  1.0
  C  C80  1  0.82518764  0.71644720  0.38932870  1.0
  C  C81  1  0.17480538  0.28357548  0.88929653  1.0
  C  C82  1  0.32518938  0.78356956  0.38932036  1.0
  C  C83  1  0.67480600  0.21641338  0.88929725  1.0
  C  C84  1  0.72583621  0.68836342  0.43717068  1.0
  C  C85  1  0.27413686  0.31166577  0.93714368  1.0
  C  C86  1  0.22583449  0.81165286  0.43715965  1.0
  C  C87  1  0.77415040  0.18833263  0.93713997  1.0
  C  C88  1  0.65198766  0.75192970  0.47688581  1.0
  C  C89  1  0.34798490  0.24809930  0.97684330  1.0
  C  C90  1  0.15198607  0.74808974  0.47687539  1.0
  C  C91  1  0.84799004  0.25190018  0.97683945  1.0
  C  C92  1  0.68324467  0.84352738  0.46557378  1.0
  C  C93  1  0.31674307  0.15650016  0.96554564  1.0
  C  C94  1  0.18325613  0.65649163  0.46555430  1.0
  C  C95  1  0.81673162  0.34350213  0.96554229  1.0
  C  C96  1  0.60831769  0.90782079  0.50425775  1.0
  C  C97  1  0.39167013  0.09219670  0.00423800  1.0
  C  C98  1  0.10833403  0.59219541  0.50423460  1.0
  C  C99  1  0.89166916  0.40780155  0.00423309  1.0
  C  C100  1  0.50790683  0.88251647  0.55218963  1.0
  C  C101  1  0.49210480  0.11747906  0.05217076  1.0
  C  C102  1  0.00790445  0.61749265  0.55216803  1.0
  C  C103  1  0.99210482  0.38252011  0.05216667  1.0
  C  C104  1  0.47607527  0.79118900  0.56417323  1.0
  C  C105  1  0.52396271  0.20878748  0.06415807  1.0
  C  C106  1  0.97606200  0.70881776  0.56415727  1.0
  C  C107  1  0.02397006  0.29121434  0.06415549  1.0
  C  C108  1  0.54810561  0.72737904  0.52658221  1.0
  C  C109  1  0.45188606  0.27260759  0.02655360  1.0
  C  C110  1  0.04809951  0.77262940  0.52657429  1.0
  C  C111  1  0.95191344  0.22739167  0.02655438  1.0
  C  C112  1  0.36492654  0.77195688  0.61500913  1.0
  C  C113  1  0.63510043  0.22803277  0.11499417  1.0
  C  C114  1  0.86492079  0.72803631  0.61499613  1.0
  C  C115  1  0.13509908  0.27196924  0.11499481  1.0
  C  C116  1  0.21992946  0.70784729  0.68846842  1.0
  C  C117  1  0.78006441  0.29215249  0.18846382  1.0
  C  C118  1  0.71994839  0.79215014  0.68846194  1.0
  C  C119  1  0.28006913  0.20785561  0.18846744  1.0
  C  C120  1  0.02781307  0.69457805  0.78818017  1.0
  C  C121  1  0.97220210  0.30540171  0.28819880  1.0
  C  C122  1  0.52784330  0.80541378  0.78817662  1.0
  C  C123  1  0.47220378  0.19460241  0.28819997  1.0
  C  C124  1  0.12447486  0.73783977  0.83918451  1.0
  C  C125  1  0.87550924  0.26214986  0.33919369  1.0
  C  C126  1  0.62449615  0.76214048  0.83917216  1.0
  C  C127  1  0.37551632  0.23786307  0.33919462  1.0
  C  C128  1  0.21029563  0.68882679  0.88391499  1.0
  C  C129  1  0.78966899  0.31117462  0.38391312  1.0
  C  C130  1  0.71031972  0.81114984  0.88391099  1.0
  C  C131  1  0.28966381  0.18884363  0.38391760  1.0
  C  C132  1  0.29211032  0.73299982  0.93189893  1.0
  C  C133  1  0.70786274  0.26700812  0.43190417  1.0
  C  C134  1  0.79211487  0.76697859  0.93189897  1.0
  C  C135  1  0.20786410  0.23301810  0.43190412  1.0
  C  C136  1  0.28603978  0.82500835  0.93408743  1.0
  C  C137  1  0.71396807  0.17501419  0.43411280  1.0
  C  C138  1  0.78601483  0.67496683  0.93408175  1.0
  C  C139  1  0.21398356  0.32501332  0.43411229  1.0
  C  C140  1  0.12624949  0.83008603  0.84416360  1.0
  C  C141  1  0.87373572  0.16991426  0.34419126  1.0
  C  C142  1  0.62624011  0.66990420  0.84415171  1.0
  C  C143  1  0.37375220  0.33009676  0.34419079  1.0
  C  C144  1  0.89687161  0.05810040  0.77333721  1.0
  C  C145  1  0.10315677  0.94191561  0.27337289  1.0
  C  C146  1  0.39690733  0.44184523  0.77323650  1.0
  C  C147  1  0.60315414  0.55810654  0.27336801  1.0
  S  S148  1  0.14278111  0.62436653  0.73523945  1.0
  S  S149  1  0.85725759  0.37563116  0.23523686  1.0
  S  S150  1  0.64279795  0.87562888  0.73523390  1.0
  S  S151  1  0.35725967  0.12437874  0.23524194  1.0
  Br  Br152  1  0.41794309  0.02500525  0.82160983  1.0
  Br  Br153  1  0.58223921  0.97501067  0.32153185  1.0
  Br  Br154  1  0.91788391  0.47498975  0.82160434  1.0
  Br  Br155  1  0.08222390  0.52499968  0.32153782  1.0
  Br  Br156  1  0.00200377  0.98412655  0.98690630  1.0
  Br  Br157  1  0.99783745  0.01588734  0.48698731  1.0
  Br  Br158  1  0.50199807  0.51587912  0.98691641  1.0
  Br  Br159  1  0.49788572  0.48415264  0.48695675  1.0
  N  N160  1  0.78235728  0.86900852  0.41744070  1.0
  N  N161  1  0.21761488  0.13098799  0.91741028  1.0
  N  N162  1  0.28238038  0.63100566  0.41742346  1.0
  N  N163  1  0.71759296  0.36899946  0.91741087  1.0
  N  N164  1  0.27681050  0.83363376  0.64295431  1.0
  N  N165  1  0.72321094  0.16636946  0.14294324  1.0
  N  N166  1  0.77681900  0.66635994  0.64293859  1.0
  N  N167  1  0.22319417  0.33363269  0.14294469  1.0
  N  N168  1  0.18532291  0.79383216  0.68914215  1.0
  N  N169  1  0.81467348  0.20616565  0.18913990  1.0
  N  N170  1  0.68534758  0.70616296  0.68913283  1.0
  N  N171  1  0.31466182  0.29384346  0.18914066  1.0
  N  N172  1  0.33099906  0.69060624  0.64259507  1.0
  N  N173  1  0.66900339  0.30938970  0.14258048  1.0
  N  N174  1  0.83099722  0.80939091  0.64258725  1.0
  N  N175  1  0.16900759  0.19061430  0.14258449  1.0
  N  N176  1  0.39776114  0.60648209  0.63543189  1.0
  N  N177  1  0.60223378  0.39351575  0.13540743  1.0
  N  N178  1  0.89775245  0.89351367  0.63542596  1.0
  N  N179  1  0.10224838  0.10648682  0.13541051  1.0
  N  N180  1  0.20477596  0.87256834  0.89075011  1.0
  N  N181  1  0.79522094  0.12746958  0.39078355  1.0
  N  N182  1  0.70475524  0.62741174  0.89074655  1.0
  N  N183  1  0.29524048  0.37254870  0.39078235  1.0
  O  O184  1  0.03844518  0.02185466  0.80100510  1.0
  O  O185  1  0.96163317  0.97818221  0.30106226  1.0
  O  O186  1  0.53838233  0.47811328  0.80097014  1.0
  O  O187  1  0.46163454  0.52183485  0.30104824  1.0
