# generated using pymatgen
data_Zn2H30C39S2N2O15
_symmetry_space_group_name_H-M   'P 1'
_cell_length_a   14.66819571
_cell_length_b   16.04327138
_cell_length_c   16.11548469
_cell_angle_alpha   90.13201807
_cell_angle_beta   91.46736873
_cell_angle_gamma   90.43669033
_symmetry_Int_Tables_number   1
_chemical_formula_structural   Zn2H30C39S2N2O15
_chemical_formula_sum   'Zn2 H30 C39 S2 N2 O15'
_cell_volume   3791.02444682
_cell_formula_units_Z   1
loop_
 _symmetry_equiv_pos_site_id
 _symmetry_equiv_pos_as_xyz
  1  'x, y, z'
loop_
 _atom_site_type_symbol
 _atom_site_label
 _atom_site_symmetry_multiplicity
 _atom_site_fract_x
 _atom_site_fract_y
 _atom_site_fract_z
 _atom_site_occupancy
  Zn  Zn0  1  0.40285357  0.50211560  0.50141442  1.0
  Zn  Zn1  1  0.59235792  0.50168764  0.50307881  1.0
  H  H2  1  0.59726340  0.38707611  0.05865869  1.0
  H  H3  1  0.61659026  0.07947137  0.58000376  1.0
  H  H4  1  0.61989359  0.93342760  0.58149709  1.0
  H  H5  1  0.64322510  0.93275956  0.47462528  1.0
  H  H6  1  0.39599324  0.07146485  0.39886398  1.0
  H  H7  1  0.50998977  0.07405705  0.36648365  1.0
  H  H8  1  0.39930989  0.92555771  0.40038486  1.0
  H  H9  1  0.36205586  0.07228745  0.55270800  1.0
  H  H10  1  0.36544780  0.92626907  0.55399036  1.0
  H  H11  1  0.51319721  0.92814194  0.36778651  1.0
  H  H12  1  0.08206125  0.36358937  0.48867612  1.0
  H  H13  1  0.44563735  0.36590910  0.94729610  1.0
  H  H14  1  0.91819763  0.43587169  0.61905444  1.0
  H  H15  1  0.07561687  0.43750522  0.62215379  1.0
  H  H16  1  0.07231888  0.54845849  0.62730729  1.0
  H  H17  1  0.91521495  0.57596973  0.38983851  1.0
  H  H18  1  0.91203470  0.62376297  0.48783110  1.0
  H  H19  1  0.07457353  0.58065962  0.39529882  1.0
  H  H20  1  0.08581593  0.41702155  0.39339910  1.0
  H  H21  1  0.66008695  0.52114606  0.95948562  1.0
  H  H22  1  0.07042665  0.63221447  0.49238436  1.0
  H  H23  1  0.55898655  0.63353293  0.05713586  1.0
  H  H24  1  0.40715697  0.61237324  0.94596668  1.0
  H  H25  1  0.34438228  0.47818876  0.04494447  1.0
  H  H26  1  0.45569569  0.92949971  0.62841610  1.0
  H  H27  1  0.45240574  0.07540411  0.62704125  1.0
  H  H28  1  0.63975964  0.07892364  0.47318180  1.0
  H  H29  1  0.94905188  0.25209838  0.38233458  1.0
  H  H30  1  0.82705192  0.56629683  0.63512597  1.0
  H  H31  1  0.01792150  0.44231093  0.25643993  1.0
  C  C32  1  0.48703571  0.33997936  0.49971532  1.0
  C  C33  1  0.49880388  0.49967286  0.08745054  1.0
  C  C34  1  0.44921155  0.56234065  0.97193629  1.0
  C  C35  1  0.50561862  0.49989922  0.91711664  1.0
  C  C36  1  0.53390423  0.57414245  0.03174959  1.0
  C  C37  1  0.59006318  0.51161224  0.97936921  1.0
  C  C38  1  0.49692288  0.50055891  0.17519639  1.0
  C  C39  1  0.50741192  0.49953669  0.82938316  1.0
  C  C40  1  0.43124105  0.04938442  0.56634003  1.0
  C  C41  1  0.59391333  0.05335782  0.51978733  1.0
  C  C42  1  0.59614623  0.95687021  0.52074877  1.0
  C  C43  1  0.49641778  0.50304405  0.34049717  1.0
  C  C44  1  0.49946996  0.75432807  0.50280349  1.0
  C  C45  1  0.49585842  0.08389273  0.49977034  1.0
  C  C46  1  0.43347198  0.95304321  0.56724391  1.0
  C  C47  1  0.49976063  0.92059422  0.50131260  1.0
  C  C48  1  0.46712209  0.95225354  0.41476196  1.0
  C  C49  1  0.46492725  0.04865359  0.41382427  1.0
  C  C50  1  0.50048627  0.83009675  0.50199902  1.0
  C  C51  1  0.49250459  0.17427718  0.49883757  1.0
  C  C52  1  0.48881178  0.24993030  0.49873109  1.0
  C  C53  1  0.95074255  0.41325086  0.44833664  1.0
  C  C54  1  0.49828803  0.66420558  0.50358880  1.0
  C  C55  1  0.94443534  0.49180112  0.58789138  1.0
  C  C56  1  0.04923660  0.49358954  0.59132992  1.0
  C  C57  1  0.90875325  0.48950138  0.49483420  1.0
  C  C58  1  0.05573628  0.41802520  0.45493452  1.0
  C  C59  1  0.08533452  0.49830748  0.50231461  1.0
  C  C60  1  0.04712932  0.57666109  0.45786001  1.0
  C  C61  1  0.94196266  0.57179661  0.45373083  1.0
  C  C62  1  0.18423694  0.50238749  0.50447234  1.0
  C  C63  1  0.80943395  0.48849219  0.49426754  1.0
  C  C64  1  0.50852315  0.50009386  0.66410508  1.0
  C  C65  1  0.47063689  0.42531082  0.97273887  1.0
  C  C66  1  0.55526950  0.43712909  0.03265478  1.0
  C  C67  1  0.49592470  0.50192349  0.25079810  1.0
  C  C68  1  0.50836647  0.49953930  0.75376466  1.0
  C  C69  1  0.41445174  0.48781657  0.02517304  1.0
  C  C70  1  0.90297913  0.56569920  0.63388003  1.0
  S  S71  1  0.91089875  0.31155338  0.49317695  1.0
  S  S72  1  0.90889481  0.41086522  0.33686925  1.0
  N  N73  1  0.26308708  0.50531684  0.50469080  1.0
  N  N74  1  0.73146244  0.49538571  0.50034154  1.0
  O  O75  1  0.40925413  0.37429406  0.50527654  1.0
  O  O76  1  0.56400617  0.37673399  0.49510667  1.0
  O  O77  1  0.41931215  0.49581745  0.37473831  1.0
  O  O78  1  0.57415805  0.51107645  0.37675321  1.0
  O  O79  1  0.42030335  0.62898848  0.49575648  1.0
  O  O80  1  0.57523477  0.62840818  0.51198315  1.0
  O  O81  1  0.43091289  0.50607895  0.62727487  1.0
  O  O82  1  0.58594114  0.49472198  0.63034920  1.0
  O  O83  1  0.94778240  0.30658591  0.57634640  1.0
  O  O84  1  0.81512552  0.30464079  0.47457191  1.0
  O  O85  1  0.96764390  0.24610322  0.44191998  1.0
  O  O86  1  0.94853554  0.61936539  0.66918703  1.0
  O  O87  1  0.92783808  0.32896916  0.30308822  1.0
  O  O88  1  0.82044118  0.44678820  0.33103903  1.0
  O  O89  1  0.97818354  0.47455852  0.29227155  1.0
