# generated using pymatgen
data_ZnH3C15N(ClO2)3
_symmetry_space_group_name_H-M   'P 1'
_cell_length_a   12.11824816
_cell_length_b   13.11049837
_cell_length_c   14.34606556
_cell_angle_alpha   89.50323989
_cell_angle_beta   89.62055945
_cell_angle_gamma   83.57228453
_symmetry_Int_Tables_number   1
_chemical_formula_structural   ZnH3C15N(ClO2)3
_chemical_formula_sum   'Zn2 H6 C30 N2 Cl6 O12'
_cell_volume   2264.80003244
_cell_formula_units_Z   2
loop_
 _symmetry_equiv_pos_site_id
 _symmetry_equiv_pos_as_xyz
  1  'x, y, z'
loop_
 _atom_site_type_symbol
 _atom_site_label
 _atom_site_symmetry_multiplicity
 _atom_site_fract_x
 _atom_site_fract_y
 _atom_site_fract_z
 _atom_site_occupancy
  Zn  Zn0  1  0.62113217  0.48627410  0.50570475  1.0
  Zn  Zn1  1  0.37888332  0.51377350  0.49415560  1.0
  H  H2  1  0.45337754  0.00876542  0.69074614  1.0
  H  H3  1  0.54663979  0.99125002  0.30921420  1.0
  H  H4  1  0.74285537  0.63928443  0.42917905  1.0
  H  H5  1  0.25714005  0.36125924  0.57176987  1.0
  H  H6  1  0.54746693  0.31472006  0.22475545  1.0
  H  H7  1  0.45196015  0.68533801  0.77512575  1.0
  C  C8  1  0.48838150  0.69527644  0.52941911  1.0
  C  C9  1  0.87248772  0.43944889  0.53680153  1.0
  C  C10  1  0.01252812  0.54642481  0.47581278  1.0
  C  C11  1  0.98748604  0.45358238  0.52437780  1.0
  C  C12  1  0.51394646  0.52583797  0.32085959  1.0
  C  C13  1  0.48643105  0.47415526  0.67901643  1.0
  C  C14  1  0.51687072  0.52327088  0.22006055  1.0
  C  C15  1  0.48330729  0.47669804  0.77982325  1.0
  C  C16  1  0.51196674  0.51497396  0.13503176  1.0
  C  C17  1  0.48816046  0.48505998  0.86484629  1.0
  C  C18  1  0.50444418  0.50520916  0.04239219  1.0
  C  C19  1  0.51132709  0.30476506  0.47045696  1.0
  C  C20  1  0.49563527  0.49482998  0.95748067  1.0
  C  C21  1  0.51039082  0.18996982  0.46248492  1.0
  C  C22  1  0.48941118  0.81006671  0.53743988  1.0
  C  C23  1  0.46935002  0.96998545  0.62445284  1.0
  C  C24  1  0.53055757  0.03004362  0.37546953  1.0
  C  C25  1  0.46925632  0.86443809  0.62265390  1.0
  C  C26  1  0.53064056  0.13558346  0.37730296  1.0
  C  C27  1  0.50888423  0.86493428  0.45713829  1.0
  C  C28  1  0.49088936  0.13511103  0.54277734  1.0
  C  C29  1  0.55291467  0.18533101  0.28579681  1.0
  C  C30  1  0.51010905  0.97358491  0.45659134  1.0
  C  C31  1  0.44700310  0.81470792  0.71417751  1.0
  C  C32  1  0.48970048  0.02644230  0.54329852  1.0
  C  C33  1  0.07957360  0.38443671  0.55629807  1.0
  C  C34  1  0.92047408  0.61575806  0.44424117  1.0
  C  C35  1  0.18592470  0.41094091  0.54566198  1.0
  C  C36  1  0.81408856  0.58937697  0.45494722  1.0
  C  C37  1  0.12750410  0.56039898  0.46311096  1.0
  N  N38  1  0.79147034  0.50353433  0.50029055  1.0
  N  N39  1  0.20852134  0.49651375  0.49986877  1.0
  Cl  Cl40  1  0.46822820  0.20029239  0.64696879  1.0
  Cl  Cl41  1  0.53147098  0.79973393  0.35296065  1.0
  Cl  Cl42  1  0.82753527  0.34318655  0.60255022  1.0
  Cl  Cl43  1  0.17238602  0.65607000  0.39659824  1.0
  Cl  Cl44  1  0.07257288  0.26545420  0.60531013  1.0
  Cl  Cl45  1  0.92759908  0.73497698  0.39581216  1.0
  O  O46  1  0.58243378  0.64232333  0.52801785  1.0
  O  O47  1  0.52888377  0.28887683  0.28661399  1.0
  O  O48  1  0.41260314  0.86195469  0.78348473  1.0
  O  O49  1  0.47047212  0.71110547  0.71323552  1.0
  O  O50  1  0.41726731  0.35766083  0.47194057  1.0
  O  O51  1  0.39381313  0.66383896  0.52106701  1.0
  O  O52  1  0.60588425  0.33629382  0.47868498  1.0
  O  O53  1  0.60664276  0.51658030  0.36275005  1.0
  O  O54  1  0.39380888  0.48350852  0.63703188  1.0
  O  O55  1  0.41708871  0.53544300  0.35657188  1.0
  O  O56  1  0.58333298  0.46452827  0.64339117  1.0
  O  O57  1  0.58776938  0.13815523  0.21658541  1.0
