# generated using pymatgen
data_Zn4H6C24S4N2O19
_symmetry_space_group_name_H-M   'P 1'
_cell_length_a   19.63099595
_cell_length_b   19.66185658
_cell_length_c   33.28355986
_cell_angle_alpha   79.30727965
_cell_angle_beta   79.40056493
_cell_angle_gamma   64.07182327
_symmetry_Int_Tables_number   1
_chemical_formula_structural   Zn4H6C24S4N2O19
_chemical_formula_sum   'Zn16 H24 C96 S16 N8 O76'
_cell_volume   11276.01108038
_cell_formula_units_Z   4
loop_
 _symmetry_equiv_pos_site_id
 _symmetry_equiv_pos_as_xyz
  1  'x, y, z'
loop_
 _atom_site_type_symbol
 _atom_site_label
 _atom_site_symmetry_multiplicity
 _atom_site_fract_x
 _atom_site_fract_y
 _atom_site_fract_z
 _atom_site_occupancy
  Zn  Zn0  1  0.05853256  0.40031383  0.47827250  1.0
  Zn  Zn1  1  0.98240525  0.48346807  0.56035431  1.0
  Zn  Zn2  1  0.06036031  0.55987990  0.48195022  1.0
  Zn  Zn3  1  0.89936522  0.55449155  0.48039133  1.0
  Zn  Zn4  1  0.69429223  0.35140897  0.26977589  1.0
  Zn  Zn5  1  0.69096770  0.18857430  0.26772320  1.0
  Zn  Zn6  1  0.76731143  0.26914736  0.18966713  1.0
  Zn  Zn7  1  0.84744422  0.19232967  0.27309335  1.0
  Zn  Zn8  1  0.26601843  0.76844483  0.68974422  1.0
  Zn  Zn9  1  0.34899981  0.69369573  0.77192367  1.0
  Zn  Zn10  1  0.19317988  0.84925571  0.77083701  1.0
  Zn  Zn11  1  0.19317517  0.68585763  0.76777505  1.0
  Zn  Zn12  1  0.56261021  0.05836609  0.98245978  1.0
  Zn  Zn13  1  0.39928950  0.05604580  0.97958541  1.0
  Zn  Zn14  1  0.55760419  0.90249209  0.97746306  1.0
  Zn  Zn15  1  0.47995465  0.98466982  0.06033258  1.0
  H  H16  1  0.74827062  0.45268389  0.35066532  1.0
  H  H17  1  0.00144933  0.29663049  0.39995255  1.0
  H  H18  1  0.20145730  0.70035897  0.59856382  1.0
  H  H19  1  0.05020049  0.54903539  0.65090965  1.0
  H  H20  1  0.46474271  0.23992142  0.34075478  1.0
  H  H21  1  0.47862479  0.70242921  0.60120820  1.0
  H  H22  1  0.20272691  0.98024264  0.60097612  1.0
  H  H23  1  0.94849703  0.96772011  0.34903225  1.0
  H  H24  1  0.65115405  0.15194904  0.04946139  1.0
  H  H25  1  0.59823896  0.09870132  0.20072579  1.0
  H  H26  1  0.54858653  0.77302560  0.14762305  1.0
  H  H27  1  0.15909089  0.14263186  0.04139593  1.0
  H  H28  1  0.29721878  0.00221385  0.89955101  1.0
  H  H29  1  0.45226193  0.74960634  0.85007079  1.0
  H  H30  1  0.30166617  0.27907917  0.90206176  1.0
  H  H31  1  0.79030119  0.00906462  0.90799694  1.0
  H  H32  1  0.32567057  0.54246601  0.39934952  1.0
  H  H33  1  0.75526268  0.54073343  0.68511180  1.0
  H  H34  1  0.04054194  0.25774527  0.68360305  1.0
  H  H35  1  0.74418141  0.81029114  0.38825790  1.0
  H  H36  1  0.70785726  0.49431280  0.06513666  1.0
  H  H37  1  0.14490866  0.07937105  0.22237946  1.0
  H  H38  1  0.50836684  0.43277550  0.86277816  1.0
  H  H39  1  0.92662204  0.70644892  0.84934757  1.0
  C  C40  1  0.06240768  0.31681378  0.56159822  1.0
  C  C41  1  0.07011418  0.56781671  0.56868426  1.0
  C  C42  1  0.18478312  0.43935140  0.43744245  1.0
  C  C43  1  0.93656194  0.68236557  0.43980129  1.0
  C  C44  1  0.93140938  0.42860494  0.43248206  1.0
  C  C45  1  0.81559998  0.56131761  0.56312769  1.0
  C  C46  1  0.56697807  0.31152814  0.31089781  1.0
  C  C47  1  0.67955206  0.18205164  0.18177057  1.0
  C  C48  1  0.68970412  0.43615363  0.18717812  1.0
  C  C49  1  0.93286593  0.18782514  0.19042918  1.0
  C  C50  1  0.81670639  0.31910463  0.31975206  1.0
  C  C51  1  0.81136299  0.06323704  0.31191888  1.0
  C  C52  1  0.43258004  0.69004816  0.68835303  1.0
  C  C53  1  0.31985801  0.81967476  0.81798352  1.0
  C  C54  1  0.18745217  0.93478407  0.68794409  1.0
  C  C55  1  0.06825276  0.80853813  0.81083645  1.0
  C  C56  1  0.18380150  0.67927146  0.68081761  1.0
  C  C57  1  0.31482691  0.56434850  0.81231904  1.0
  C  C58  1  0.43897559  0.18262380  0.93889991  1.0
  C  C59  1  0.43081835  0.93317273  0.93050456  1.0
  C  C60  1  0.68711627  0.93827778  0.93821025  1.0
  C  C61  1  0.56032720  0.81836047  0.06056445  1.0
  C  C62  1  0.56767711  0.07080233  0.06843846  1.0
  C  C63  1  0.31283765  0.06209618  0.06177586  1.0
  C  C64  1  0.90206475  0.40266253  0.40230062  1.0
  C  C65  1  0.84850076  0.34742854  0.34744020  1.0
  C  C66  1  0.83117895  0.44590951  0.38746078  1.0
  C  C67  1  0.92020309  0.30496435  0.36148728  1.0
  C  C68  1  0.80414249  0.41872687  0.36115004  1.0
  C  C69  1  0.94620105  0.33111715  0.38882661  1.0
  C  C70  1  0.09795328  0.59904436  0.59695590  1.0
  C  C71  1  0.15189254  0.65222617  0.65259317  1.0
  C  C72  1  0.13999180  0.64268929  0.58301751  1.0
  C  C73  1  0.10829668  0.61008837  0.66653430  1.0
  C  C74  1  0.16761567  0.66782217  0.61004933  1.0
  C  C75  1  0.08283428  0.58282052  0.63950233  1.0
  C  C76  1  0.30491062  0.45552482  0.40039391  1.0
  C  C77  1  0.44762632  0.29682814  0.34871164  1.0
  C  C78  1  0.25951358  0.41524796  0.41310326  1.0
  C  C79  1  0.49247007  0.33676338  0.33601377  1.0
  C  C80  1  0.37958095  0.33962091  0.37240717  1.0
  C  C81  1  0.37381906  0.41171943  0.37712119  1.0
  C  C82  1  0.72537870  0.57608391  0.63085695  1.0
  C  C83  1  0.52328782  0.67385670  0.62142772  1.0
  C  C84  1  0.74150086  0.58593740  0.58808227  1.0
  C  C85  1  0.50750848  0.66458706  0.66382203  1.0
  C  C86  1  0.60262284  0.64213648  0.60924826  1.0
  C  C87  1  0.64561181  0.60873159  0.64283640  1.0
  C  C88  1  0.07619520  0.22721048  0.62953433  1.0
  C  C89  1  0.17334824  0.02506899  0.62095562  1.0
  C  C90  1  0.08618918  0.24288104  0.58670476  1.0
  C  C91  1  0.16274997  0.00970740  0.66333958  1.0
  C  C92  1  0.14136526  0.10421454  0.60847264  1.0
  C  C93  1  0.10761454  0.14754457  0.64181631  1.0
  C  C94  1  0.84227839  0.79802224  0.39808755  1.0
  C  C95  1  0.90397189  0.94732315  0.35342758  1.0
  C  C96  1  0.91103629  0.75667548  0.41507914  1.0
  C  C97  1  0.83561232  0.98858949  0.33688835  1.0
  C  C98  1  0.90643488  0.87814858  0.37599968  1.0
  C  C99  1  0.83983085  0.86786152  0.37586935  1.0
  C  C100  1  0.65347099  0.15180901  0.15207591  1.0
  C  C101  1  0.59797865  0.09669224  0.09808844  1.0
  C  C102  1  0.66834865  0.16515192  0.10920026  1.0
  C  C103  1  0.58462697  0.08181327  0.14097775  1.0
  C  C104  1  0.64028028  0.13948843  0.08264681  1.0
  C  C105  1  0.61047340  0.10968198  0.16752455  1.0
  C  C106  1  0.67396717  0.52576536  0.11915189  1.0
  C  C107  1  0.57641285  0.72810153  0.12762497  1.0
  C  C108  1  0.66466228  0.51010740  0.16203356  1.0
  C  C109  1  0.58528177  0.74339687  0.08515937  1.0
  C  C110  1  0.60795410  0.64890476  0.14009295  1.0
  C  C111  1  0.64093190  0.60544515  0.10676205  1.0
  C  C112  1  0.07961928  0.12424290  0.17952758  1.0
  C  C113  1  0.16714284  0.12569967  0.07381190  1.0
  C  C114  1  0.00742998  0.16262171  0.16596820  1.0
  C  C115  1  0.23865564  0.08685856  0.08713888  1.0
  C  C116  1  0.10907585  0.13896159  0.10730437  1.0
  C  C117  1  0.13776311  0.11042531  0.14566796  1.0
  C  C118  1  0.34620834  0.84902527  0.84794320  1.0
  C  C119  1  0.40227620  0.90176983  0.90274307  1.0
  C  C120  1  0.30318986  0.91971312  0.86282531  1.0
  C  C121  1  0.44450099  0.83021249  0.88867503  1.0
  C  C122  1  0.33083959  0.94642953  0.88906285  1.0
  C  C123  1  0.41799757  0.80467398  0.86130054  1.0
  C  C124  1  0.40935812  0.44754306  0.85336244  1.0
  C  C125  1  0.34638695  0.29917596  0.89773370  1.0
  C  C126  1  0.34008569  0.49009795  0.83706281  1.0
  C  C127  1  0.41485393  0.25730527  0.91405167  1.0
  C  C128  1  0.34391578  0.36873555  0.87578135  1.0
  C  C129  1  0.41111605  0.37807657  0.87566821  1.0
  C  C130  1  0.94788583  0.79317185  0.84810983  1.0
  C  C131  1  0.80697335  0.95208756  0.90028438  1.0
  C  C132  1  0.99408511  0.83264656  0.83564128  1.0
  C  C133  1  0.76161022  0.91268768  0.91312506  1.0
  C  C134  1  0.87506210  0.90859717  0.87684991  1.0
  C  C135  1  0.87978362  0.83694138  0.87196181  1.0
  S  S136  1  0.30111157  0.32483066  0.39685734  1.0
  S  S137  1  0.45239613  0.42656927  0.35267588  1.0
  S  S138  1  0.65980805  0.63445105  0.56292214  1.0
  S  S139  1  0.58865842  0.61709707  0.68932089  1.0
  S  S140  1  0.13362432  0.16089819  0.56193516  1.0
  S  S141  1  0.11419861  0.09099649  0.68843986  1.0
  S  S142  1  0.97166650  0.80301659  0.40400391  1.0
  S  S143  1  0.77382056  0.94371894  0.34854703  1.0
  S  S144  1  0.61611505  0.59225426  0.18668666  1.0
  S  S145  1  0.63198345  0.66194544  0.06004760  1.0
  S  S146  1  0.01091327  0.18144452  0.11247037  1.0
  S  S147  1  0.23599934  0.06629274  0.14046796  1.0
  S  S148  1  0.27804550  0.44534942  0.84894411  1.0
  S  S149  1  0.47691997  0.30178863  0.90284036  1.0
  S  S150  1  0.95450456  0.92209963  0.85295371  1.0
  S  S151  1  0.80107333  0.82268597  0.89672115  1.0
  N  N152  1  0.78171240  0.52438504  0.39746665  1.0
  N  N153  1  0.97398026  0.23103406  0.34692459  1.0
  N  N154  1  0.15537665  0.66732221  0.53877767  1.0
  N  N155  1  0.08381676  0.59471733  0.71079104  1.0
  N  N156  1  0.71692762  0.20511398  0.08930709  1.0
  N  N157  1  0.54475369  0.03310540  0.16066198  1.0
  N  N158  1  0.22466223  0.96941979  0.85278190  1.0
  N  N159  1  0.51855734  0.77605443  0.90317783  1.0
  O  O160  1  0.00052171  0.49893015  0.50003581  1.0
  O  O161  1  0.07394239  0.31546807  0.52240126  1.0
  O  O162  1  0.02254386  0.54026322  0.58550653  1.0
  O  O163  1  0.15284107  0.50787286  0.44600713  1.0
  O  O164  1  0.03275668  0.37578901  0.58060305  1.0
  O  O165  1  0.15769132  0.38887209  0.44793886  1.0
  O  O166  1  0.09731245  0.57106186  0.53107941  1.0
  O  O167  1  0.99995865  0.65989376  0.45469589  1.0
  O  O168  1  0.88326212  0.48569028  0.45015078  1.0
  O  O169  1  0.89458290  0.64626375  0.44436451  1.0
  O  O170  1  0.00128260  0.39013131  0.43777139  1.0
  O  O171  1  0.87459608  0.52186352  0.58180011  1.0
  O  O172  1  0.81436117  0.58182124  0.52423139  1.0
  O  O173  1  0.74928487  0.25050428  0.25019988  1.0
  O  O174  1  0.59964933  0.35709472  0.30429044  1.0
  O  O175  1  0.67198518  0.15585771  0.21946080  1.0
  O  O176  1  0.73040165  0.37716172  0.16881249  1.0
  O  O177  1  0.59216757  0.24655728  0.29796842  1.0
  O  O178  1  0.66843022  0.43714985  0.22610079  1.0
  O  O179  1  0.70547280  0.23132333  0.16651642  1.0
  O  O180  1  0.87494028  0.21662486  0.16999070  1.0
  O  O181  1  0.85085183  0.24860865  0.31564064  1.0
  O  O182  1  0.93144827  0.17952344  0.22951293  1.0
  O  O183  1  0.75781821  0.36824498  0.30356308  1.0
  O  O184  1  0.74311877  0.09298808  0.30218366  1.0
  O  O185  1  0.86007380  0.09196456  0.30208429  1.0
  O  O186  1  0.25046310  0.74968044  0.74995883  1.0
  O  O187  1  0.37426605  0.72056677  0.66860039  1.0
  O  O188  1  0.35962571  0.75033983  0.81212938  1.0
  O  O189  1  0.16659737  0.93436950  0.72673388  1.0
  O  O190  1  0.43289538  0.67916635  0.72749965  1.0
  O  O191  1  0.22740788  0.87690386  0.66854157  1.0
  O  O192  1  0.26129048  0.86691392  0.80109746  1.0
  O  O193  1  0.10135310  0.85377754  0.80648281  1.0
  O  O194  1  0.18260225  0.65037222  0.71822910  1.0
  O  O195  1  0.09361728  0.74574926  0.79562373  1.0
  O  O196  1  0.21012494  0.72802347  0.66430088  1.0
  O  O197  1  0.36264060  0.59418439  0.80159948  1.0
  O  O198  1  0.24602735  0.59304671  0.80343776  1.0
  O  O199  1  0.49969211  0.00073049  0.99985646  1.0
  O  O200  1  0.50400369  0.15683640  0.95224525  1.0
  O  O201  1  0.38185512  0.99229671  0.94643026  1.0
  O  O202  1  0.65795116  0.88973083  0.94857740  1.0
  O  O203  1  0.39323751  0.15038280  0.94491266  1.0
  O  O204  1  0.65781857  0.00637459  0.94757140  1.0
  O  O205  1  0.50126345  0.89852300  0.93499374  1.0
  O  O206  1  0.57088324  0.81839655  0.02138567  1.0
  O  O207  1  0.51696080  0.04650856  0.08346113  1.0
  O  O208  1  0.53057633  0.87650899  0.08032173  1.0
  O  O209  1  0.59505015  0.07670328  0.03084722  1.0
  O  O210  1  0.31273707  0.08258484  0.02297928  1.0
  O  O211  1  0.37147159  0.02185081  0.08088554  1.0
  O  O212  1  0.80268918  0.57448776  0.38045369  1.0
  O  O213  1  0.72162501  0.53358533  0.42001772  1.0
  O  O214  1  0.00501827  0.23338576  0.31121859  1.0
  O  O215  1  0.98627560  0.17383329  0.37238770  1.0
  O  O216  1  0.10100774  0.71824468  0.52222172  1.0
  O  O217  1  0.22212262  0.63790047  0.52294993  1.0
  O  O218  1  0.03390346  0.64934208  0.72750727  1.0
  O  O219  1  0.11234429  0.52789509  0.72661971  1.0
  O  O220  1  0.78613327  0.16927570  0.09103759  1.0
  O  O221  1  0.68445412  0.26905318  0.07071963  1.0
  O  O222  1  0.58011375  0.96417133  0.15810926  1.0
  O  O223  1  0.48118759  0.06502192  0.17971297  1.0
  O  O224  1  0.17425047  0.94906092  0.87006963  1.0
  O  O225  1  0.21583977  0.02898745  0.82980534  1.0
  O  O226  1  0.51641928  0.74532214  0.93899128  1.0
  O  O227  1  0.57561195  0.76313738  0.87757659  1.0
  O  O228  1  0.28438421  0.52664246  0.40966069  1.0
  O  O229  1  0.77979256  0.54015430  0.65684238  1.0
  O  O230  1  0.04063704  0.28187659  0.65524160  1.0
  O  O231  1  0.78642045  0.77332162  0.40307399  1.0
  O  O232  1  0.70979360  0.47091239  0.09365471  1.0
  O  O233  1  0.09048545  0.10330626  0.21976410  1.0
  O  O234  1  0.46629635  0.47094849  0.84823273  1.0
  O  O235  1  0.96756374  0.72252670  0.83846339  1.0
