# generated using pymatgen
data_ZnH9C16N3O8
_symmetry_space_group_name_H-M   'P 1'
_cell_length_a   9.77227038
_cell_length_b   11.03863695
_cell_length_c   17.21818973
_cell_angle_alpha   86.32620603
_cell_angle_beta   81.09499053
_cell_angle_gamma   86.53710388
_symmetry_Int_Tables_number   1
_chemical_formula_structural   ZnH9C16N3O8
_chemical_formula_sum   'Zn2 H18 C32 N6 O16'
_cell_volume   1828.80878838
_cell_formula_units_Z   2
loop_
 _symmetry_equiv_pos_site_id
 _symmetry_equiv_pos_as_xyz
  1  'x, y, z'
loop_
 _atom_site_type_symbol
 _atom_site_label
 _atom_site_symmetry_multiplicity
 _atom_site_fract_x
 _atom_site_fract_y
 _atom_site_fract_z
 _atom_site_occupancy
  Zn  Zn0  1  0.36453069  0.51064113  0.50411999  1.0
  Zn  Zn1  1  0.65582259  0.49173075  0.49456891  1.0
  H  H2  1  0.37004881  0.68544085  0.26541814  1.0
  H  H3  1  0.76604250  0.48825794  0.23307752  1.0
  H  H4  1  0.67527147  0.59799105  0.97053565  1.0
  H  H5  1  0.28429566  0.69896417  0.87291494  1.0
  H  H6  1  0.28720326  0.63990596  0.73644133  1.0
  H  H7  1  0.35693783  0.62810267  0.00918235  1.0
  H  H8  1  0.63033301  0.44248491  0.89570104  1.0
  H  H9  1  0.71339749  0.87778564  0.43716203  1.0
  H  H10  1  0.71809061  0.10313903  0.43019102  1.0
  H  H11  1  0.25430327  0.12442981  0.63669905  1.0
  H  H12  1  0.17282120  0.13510467  0.54987283  1.0
  H  H13  1  0.16930395  0.90602592  0.55582720  1.0
  H  H14  1  0.92369972  0.43966247  0.38259026  1.0
  H  H15  1  0.17984670  0.45152086  0.38403919  1.0
  H  H16  1  0.08370531  0.50950582  0.68470620  1.0
  H  H17  1  0.07678791  0.66516251  0.64903738  1.0
  H  H18  1  0.82824957  0.50093755  0.68427084  1.0
  H  H19  1  0.81880981  0.65568606  0.64680340  1.0
  C  C20  1  0.50523863  0.73585202  0.50591138  1.0
  C  C21  1  0.46765656  0.48641355  0.65282261  1.0
  C  C22  1  0.51663319  0.26785645  0.49002182  1.0
  C  C23  1  0.54885800  0.54478585  0.34598140  1.0
  C  C24  1  0.45659729  0.50697524  0.73896830  1.0
  C  C25  1  0.55105041  0.45304425  0.78603887  1.0
  C  C26  1  0.55640123  0.48889748  0.86118245  1.0
  C  C27  1  0.46007215  0.57894397  0.89368746  1.0
  C  C28  1  0.36030080  0.62957154  0.84864998  1.0
  C  C29  1  0.36058752  0.59553639  0.77209053  1.0
  C  C30  1  0.47234176  0.67094746  0.14627650  1.0
  C  C31  1  0.45954664  0.64767373  0.22713765  1.0
  C  C32  1  0.68071707  0.53741574  0.20908515  1.0
  C  C33  1  0.68517767  0.55423766  0.12803078  1.0
  C  C34  1  0.57870191  0.61690515  0.09196084  1.0
  C  C35  1  0.45941309  0.61180243  0.97472540  1.0
  C  C36  1  0.57584673  0.61376684  0.00776528  1.0
  C  C37  1  0.56335060  0.57773191  0.25929108  1.0
  C  C38  1  0.39559047  0.94552834  0.53373120  1.0
  C  C39  1  0.50710195  0.87101654  0.50148288  1.0
  C  C40  1  0.62336808  0.93223044  0.46346893  1.0
  C  C41  1  0.62554046  0.05898617  0.45931972  1.0
  C  C42  1  0.51152977  0.13294368  0.49224374  1.0
  C  C43  1  0.39684914  0.07169123  0.52963194  1.0
  C  C44  1  0.25471981  0.08767948  0.57887628  1.0
  C  C45  1  0.25229685  0.94389463  0.58114187  1.0
  C  C46  1  0.91758642  0.52766175  0.55903490  1.0
  C  C47  1  0.96256135  0.46668712  0.43456769  1.0
  C  C48  1  0.10429902  0.47337018  0.43530682  1.0
  C  C49  1  0.05986601  0.53377775  0.55980821  1.0
  C  C50  1  0.04070231  0.57455916  0.64280417  1.0
  C  C51  1  0.87901482  0.56862124  0.64192518  1.0
  N  N52  1  0.86525873  0.49438239  0.49737476  1.0
  N  N53  1  0.15600882  0.50790835  0.49906912  1.0
  N  N54  1  0.64290392  0.34882661  0.75818926  1.0
  N  N55  1  0.80822418  0.49646845  0.08054041  1.0
  N  N56  1  0.24540751  0.88559205  0.66357579  1.0
  N  N57  1  0.36971766  0.76152266  0.11885870  1.0
  O  O58  1  0.38678529  0.69014452  0.52400116  1.0
  O  O59  1  0.62139451  0.67726857  0.49054318  1.0
  O  O60  1  0.35607009  0.47844027  0.62488876  1.0
  O  O61  1  0.58999951  0.48741295  0.61452075  1.0
  O  O62  1  0.40161009  0.32865089  0.48902707  1.0
  O  O63  1  0.63444242  0.31082033  0.49011294  1.0
  O  O64  1  0.42707927  0.55643824  0.38463250  1.0
  O  O65  1  0.65851844  0.50681045  0.37290128  1.0
  O  O66  1  0.76392563  0.34454896  0.77281978  1.0
  O  O67  1  0.59283804  0.27150065  0.72361378  1.0
  O  O68  1  0.79094519  0.43887558  0.02360407  1.0
  O  O69  1  0.92129914  0.50830790  0.10252474  1.0
  O  O70  1  0.13647936  0.83628010  0.69216093  1.0
  O  O71  1  0.34639525  0.89222349  0.69780815  1.0
  O  O72  1  0.24615159  0.75005239  0.14702211  1.0
  O  O73  1  0.41544610  0.84464395  0.07232333  1.0
