# generated using pymatgen
data_ZnH13C17N4Cl
_symmetry_space_group_name_H-M   'P 1'
_cell_length_a   14.82447353
_cell_length_b   14.98268740
_cell_length_c   16.81188339
_cell_angle_alpha   107.38344648
_cell_angle_beta   106.65445115
_cell_angle_gamma   109.25081733
_symmetry_Int_Tables_number   1
_chemical_formula_structural   ZnH13C17N4Cl
_chemical_formula_sum   'Zn4 H52 C68 N16 Cl4'
_cell_volume   3041.47325681
_cell_formula_units_Z   4
loop_
 _symmetry_equiv_pos_site_id
 _symmetry_equiv_pos_as_xyz
  1  'x, y, z'
loop_
 _atom_site_type_symbol
 _atom_site_label
 _atom_site_symmetry_multiplicity
 _atom_site_fract_x
 _atom_site_fract_y
 _atom_site_fract_z
 _atom_site_occupancy
  Zn  Zn0  1  0.37030509  0.99006002  0.87920345  1.0
  Zn  Zn1  1  0.61110380  0.96686137  0.10254794  1.0
  Zn  Zn2  1  0.35266368  0.84351134  0.98900967  1.0
  Zn  Zn3  1  0.62212776  0.12073972  0.99529564  1.0
  H  H4  1  0.12093994  0.95295859  0.79664551  1.0
  H  H5  1  0.64980746  0.79072578  0.17133601  1.0
  H  H6  1  0.31560851  0.62828916  0.82276020  1.0
  H  H7  1  0.67932132  0.00129839  0.83925870  1.0
  H  H8  1  0.64719101  0.79343182  0.97301759  1.0
  H  H9  1  0.38340614  0.84928816  0.70456752  1.0
  H  H10  1  0.30788867  0.63140270  0.03279657  1.0
  H  H11  1  0.30801207  0.33227947  0.07775742  1.0
  H  H12  1  0.31106393  0.49744065  0.08403901  1.0
  H  H13  1  0.73674039  0.69018325  0.25646983  1.0
  H  H14  1  0.71077818  0.47868802  0.13262375  1.0
  H  H15  1  0.73351060  0.52000646  0.25131004  1.0
  H  H16  1  0.29953304  0.50548986  0.69861079  1.0
  H  H17  1  0.16448858  0.58756906  0.37173754  1.0
  H  H18  1  0.02130341  0.42849624  0.23895210  1.0
  H  H19  1  0.03522707  0.25200596  0.39855890  1.0
  H  H20  1  0.60510749  0.21269088  0.41766017  1.0
  H  H21  1  0.29169454  0.98942555  0.12411520  1.0
  H  H22  1  0.69687519  0.27088262  0.58306413  1.0
  H  H23  1  0.25911003  0.06995919  0.42613631  1.0
  H  H24  1  0.69083467  0.25601831  0.72214294  1.0
  H  H25  1  0.34938085  0.10170657  0.58913850  1.0
  H  H26  1  0.89579231  0.70020588  0.86864393  1.0
  H  H27  1  0.79908400  0.01261904  0.76092819  1.0
  H  H28  1  0.87127543  0.08493582  0.88341340  1.0
  H  H29  1  0.96091146  0.00386904  0.74983827  1.0
  H  H30  1  0.64478961  0.31346693  0.16041173  1.0
  H  H31  1  0.03272067  0.07769160  0.87211118  1.0
  H  H32  1  0.30819578  0.16327371  0.98707003  1.0
  H  H33  1  0.85926675  0.32130822  0.14958453  1.0
  H  H34  1  0.09463061  0.76758990  0.95065857  1.0
  H  H35  1  0.34650692  0.03230541  0.69224315  1.0
  H  H36  1  0.72738432  0.33622763  0.01656182  1.0
  H  H37  1  0.78317674  0.24733766  0.99419461  1.0
  H  H38  1  0.84834616  0.37531167  0.00536250  1.0
  H  H39  1  0.75353507  0.24083879  0.84016529  1.0
  H  H40  1  0.71138909  0.33877247  0.86086150  1.0
  H  H41  1  0.32788035  0.34906003  0.66348201  1.0
  H  H42  1  0.23104381  0.35097102  0.70576021  1.0
  H  H43  1  0.22309519  0.22972978  0.63884389  1.0
  H  H44  1  0.09134728  0.26641278  0.54216130  1.0
  H  H45  1  0.18542224  0.25959781  0.50006910  1.0
  H  H46  1  0.11508990  0.97337821  0.30103012  1.0
  H  H47  1  0.15026954  0.10496581  0.31625366  1.0
  H  H48  1  0.06886586  0.99878441  0.20502439  1.0
  H  H49  1  0.24555425  0.08040860  0.21333546  1.0
  H  H50  1  0.21858282  0.95495373  0.20783452  1.0
  H  H51  1  0.80627905  0.27642956  0.38856179  1.0
  H  H52  1  0.72727586  0.25529044  0.27652183  1.0
  H  H53  1  0.69042910  0.29490203  0.36727805  1.0
  H  H54  1  0.66013867  0.11865630  0.37494005  1.0
  H  H55  1  0.69841739  0.08527511  0.28572216  1.0
  C  C56  1  0.13180822  0.91035476  0.83776303  1.0
  C  C57  1  0.91214212  0.24350322  0.23636268  1.0
  C  C58  1  0.45215282  0.07759230  0.24767615  1.0
  C  C59  1  0.47471449  0.28140277  0.09347258  1.0
  C  C60  1  0.42676440  0.08076278  0.74582798  1.0
  C  C61  1  0.56605755  0.76587618  0.13536310  1.0
  C  C62  1  0.33656412  0.69518368  0.80667689  1.0
  C  C63  1  0.66486328  0.95892435  0.88010900  1.0
  C  C64  1  0.64705361  0.85171169  0.94735537  1.0
  C  C65  1  0.36953873  0.80736033  0.74558720  1.0
  C  C66  1  0.59713261  0.18988557  0.83291943  1.0
  C  C67  1  0.84946280  0.14058402  0.22138045  1.0
  C  C68  1  0.39176880  0.68477863  0.06464323  1.0
  C  C69  1  0.51520273  0.15291536  0.74474740  1.0
  C  C70  1  0.47852431  0.67299667  0.11300279  1.0
  C  C71  1  0.33394682  0.69934419  0.72296339  1.0
  C  C72  1  0.68817137  0.87657557  0.88651646  1.0
  C  C73  1  0.56931675  0.47565666  0.15538886  1.0
  C  C74  1  0.47626101  0.38388241  0.12205448  1.0
  C  C75  1  0.38421148  0.39863683  0.10092555  1.0
  C  C76  1  0.38590736  0.49330547  0.10386234  1.0
  C  C77  1  0.47940423  0.58234967  0.12741039  1.0
  C  C78  1  0.37583358  0.01428910  0.15502413  1.0
  C  C79  1  0.57086029  0.56975938  0.15717502  1.0
  C  C80  1  0.68948681  0.62244966  0.18861076  1.0
  C  C81  1  0.68738800  0.51569289  0.18482678  1.0
  C  C82  1  0.28646562  0.60797667  0.63390641  1.0
  C  C83  1  0.01255491  0.32869471  0.31070469  1.0
  C  C84  1  0.13603737  0.51452252  0.37840554  1.0
  C  C85  1  0.05505833  0.42480660  0.30390636  1.0
  C  C86  1  0.06398750  0.32515736  0.39222673  1.0
  C  C87  1  0.14814946  0.41594276  0.47020895  1.0
  C  C88  1  0.18077703  0.51474779  0.46535140  1.0
  C  C89  1  0.56314243  0.26164400  0.11088633  1.0
  C  C90  1  0.25089584  0.60874083  0.54779795  1.0
  C  C91  1  0.26341527  0.50689722  0.63302880  1.0
  C  C92  1  0.19803438  0.41311070  0.55557923  1.0
  C  C93  1  0.43842968  0.11483438  0.33305972  1.0
  C  C94  1  0.51881161  0.17474190  0.66609321  1.0
  C  C95  1  0.62063458  0.23389325  0.58435170  1.0
  C  C96  1  0.61685175  0.22578518  0.66282632  1.0
  C  C97  1  0.42601224  0.13857484  0.58847666  1.0
  C  C98  1  0.42755449  0.14180050  0.50573934  1.0
  C  C99  1  0.52667927  0.18793883  0.50257953  1.0
  C  C100  1  0.54788840  0.08104698  0.24243733  1.0
  C  C101  1  0.52815819  0.17629283  0.41674916  1.0
  C  C102  1  0.33731798  0.08247907  0.33804660  1.0
  C  C103  1  0.33512322  0.09695402  0.42259533  1.0
  C  C104  1  0.92093214  0.91161639  0.82806002  1.0
  C  C105  1  0.95391053  0.83987238  0.84672717  1.0
  C  C106  1  0.88028965  0.76342207  0.85906242  1.0
  C  C107  1  0.78836733  0.76704226  0.86261670  1.0
  C  C108  1  0.76188705  0.84843940  0.85635899  1.0
  C  C109  1  0.83013133  0.91533390  0.83321597  1.0
  C  C110  1  0.85559355  0.01718128  0.82286158  1.0
  C  C111  1  0.39113094  0.18461059  0.02312420  1.0
  C  C112  1  0.95788105  0.01218761  0.81614630  1.0
  C  C113  1  0.84522864  0.25394521  0.16490619  1.0
  C  C114  1  0.11793392  0.81468988  0.91527299  1.0
  C  C115  1  0.05927321  0.85037972  0.86239705  1.0
  C  C116  1  0.71023070  0.27143928  0.87518248  1.0
  C  C117  1  0.76990648  0.30946630  0.97861216  1.0
  C  C118  1  0.17569346  0.30800435  0.55776703  1.0
  C  C119  1  0.24332345  0.31023442  0.64663576  1.0
  C  C120  1  0.23451557  0.03428457  0.25304532  1.0
  C  C121  1  0.13714984  0.02757909  0.27023065  1.0
  C  C122  1  0.65961187  0.12972812  0.31309704  1.0
  C  C123  1  0.72461130  0.24587245  0.33820571  1.0
  N  N124  1  0.22520063  0.90978411  0.87275176  1.0
  N  N125  1  0.53385108  0.82673301  0.10266530  1.0
  N  N126  1  0.36818370  0.79151769  0.87109096  1.0
  N  N127  1  0.61727570  0.98223422  0.93472901  1.0
  N  N128  1  0.60634378  0.91649148  0.97609989  1.0
  N  N129  1  0.38828180  0.86029401  0.83345411  1.0
  N  N130  1  0.55828748  0.14186081  0.88063912  1.0
  N  N131  1  0.42521131  0.77665557  0.05871864  1.0
  N  N132  1  0.75445093  0.09569121  0.14922959  1.0
  N  N133  1  0.42118863  0.98262765  0.10063696  1.0
  N  N134  1  0.53411696  0.16206834  0.05387672  1.0
  N  N135  1  0.52619750  0.02454830  0.15429400  1.0
  N  N136  1  0.42850302  0.11498280  0.99993814  1.0
  N  N137  1  0.75262473  0.16667884  0.11370138  1.0
  N  N138  1  0.21686383  0.85066402  0.92138679  1.0
  N  N139  1  0.45272681  0.07461507  0.82664628  1.0
  Cl  Cl140  1  0.73623807  0.66260119  0.11088470  1.0
  Cl  Cl141  1  0.87681026  0.06911830  0.27905428  1.0
  Cl  Cl142  1  0.28341585  0.72588600  0.53695408  1.0
  Cl  Cl143  1  0.70738798  0.66687342  0.87955653  1.0
