# generated using pymatgen
data_AlH15(C3O2)9
_symmetry_space_group_name_H-M   'P 1'
_cell_length_a   4.09302981
_cell_length_b   15.76427625
_cell_length_c   15.92720814
_cell_angle_alpha   61.72694570
_cell_angle_beta   87.68619449
_cell_angle_gamma   89.48019155
_symmetry_Int_Tables_number   1
_chemical_formula_structural   AlH15(C3O2)9
_chemical_formula_sum   'Al1 H15 C27 O18'
_cell_volume   904.28253859
_cell_formula_units_Z   1
loop_
 _symmetry_equiv_pos_site_id
 _symmetry_equiv_pos_as_xyz
  1  'x, y, z'
loop_
 _atom_site_type_symbol
 _atom_site_label
 _atom_site_symmetry_multiplicity
 _atom_site_fract_x
 _atom_site_fract_y
 _atom_site_fract_z
 _atom_site_occupancy
  Al  Al0  1  0.99299725  0.50150451  0.49742290  1.0
  H  H1  1  0.51593986  0.93143787  0.92680360  1.0
  H  H2  1  0.36924262  0.91910903  0.66658769  1.0
  H  H3  1  0.62753564  0.66357647  0.91915592  1.0
  H  H4  1  0.02277756  0.50666453  0.28307529  1.0
  H  H5  1  0.01592070  0.69597904  0.29585539  1.0
  H  H6  1  0.07615150  0.55367170  0.09103863  1.0
  H  H7  1  0.94525864  0.86488936  0.98849271  1.0
  H  H8  1  0.95362636  0.29756080  0.69657997  1.0
  H  H9  1  0.08626508  0.99350541  0.86889525  1.0
  H  H10  1  0.99201303  0.28476914  0.50543529  1.0
  H  H11  1  0.80026408  0.97538730  0.64205485  1.0
  H  H12  1  0.94860213  0.86233012  0.54794499  1.0
  H  H13  1  0.85478393  0.71015521  0.48313161  1.0
  H  H14  1  0.19118382  0.63588606  0.89065323  1.0
  H  H15  1  0.12041480  0.48858599  0.70585293  1.0
  C  C16  1  0.48410520  0.35288110  0.56936145  1.0
  C  C17  1  0.48291613  0.57815571  0.57166424  1.0
  C  C18  1  0.51340728  0.57320188  0.34828700  1.0
  C  C19  1  0.46865690  0.93951912  0.78787703  1.0
  C  C20  1  0.51032701  0.89035861  0.88758711  1.0
  C  C21  1  0.54408306  0.78929952  0.93691829  1.0
  C  C22  1  0.56298696  0.73937971  0.88361277  1.0
  C  C23  1  0.50094665  0.78517437  0.78640460  1.0
  C  C24  1  0.44012690  0.88433437  0.74055777  1.0
  C  C25  1  0.71888146  0.71238435  0.19694812  1.0
  C  C26  1  0.72404239  0.76517542  0.09696643  1.0
  C  C27  1  0.54862804  0.73340542  0.04223359  1.0
  C  C28  1  0.36765541  0.64642187  0.09041793  1.0
  C  C29  1  0.35168352  0.59498429  0.19008633  1.0
  C  C30  1  0.52881398  0.62776512  0.24248949  1.0
  C  C31  1  0.28354319  0.10244469  0.76343960  1.0
  C  C32  1  0.28384825  0.20297366  0.70999605  1.0
  C  C33  1  0.47666008  0.24623067  0.62517520  1.0
  C  C34  1  0.66329731  0.19288515  0.59157057  1.0
  C  C35  1  0.65246519  0.09187001  0.64388286  1.0
  C  C36  1  0.46557742  0.04592355  0.73132072  1.0
  C  C37  1  0.67075931  0.76584128  0.64439918  1.0
  C  C38  1  0.67501488  0.71519620  0.59295550  1.0
  C  C39  1  0.48546519  0.62908225  0.62642129  1.0
  C  C40  1  0.30160192  0.59407940  0.71480192  1.0
  C  C41  1  0.31860043  0.64310207  0.76890199  1.0
  C  C42  1  0.49679614  0.73025182  0.73291773  1.0
  O  O43  1  0.26735765  0.58871664  0.39120873  1.0
  O  O44  1  0.25764809  0.39451087  0.51092496  1.0
  O  O45  1  0.24906559  0.51665580  0.58686458  1.0
  O  O46  1  0.74520465  0.51517102  0.38934206  1.0
  O  O47  1  0.71717123  0.59466202  0.50739989  1.0
  O  O48  1  0.71872854  0.39715931  0.58362898  1.0
  O  O49  1  0.16854870  0.51063438  0.23068360  1.0
  O  O50  1  0.88846529  0.74737131  0.24672102  1.0
  O  O51  1  0.19113345  0.61137308  0.04177603  1.0
  O  O52  1  0.91627166  0.84606159  0.05623916  1.0
  O  O53  1  0.11075959  0.25677678  0.74357057  1.0
  O  O54  1  0.09084625  0.06295840  0.84528237  1.0
  O  O55  1  0.84114411  0.23643901  0.50623020  1.0
  O  O56  1  0.84164213  0.04498133  0.60710080  1.0
  O  O57  1  0.84610784  0.85075206  0.60912872  1.0
  O  O58  1  0.85375899  0.75635591  0.50864678  1.0
  O  O59  1  0.14239932  0.60309708  0.85345998  1.0
  O  O60  1  0.11926838  0.51258043  0.75285566  1.0
