# generated using pymatgen
data_ZnSiH4C8S4(N2F3)2
_symmetry_space_group_name_H-M   'P 1'
_cell_length_a   7.62855427
_cell_length_b   8.81208617
_cell_length_c   8.81215393
_cell_angle_alpha   91.42732963
_cell_angle_beta   93.45973368
_cell_angle_gamma   93.46056664
_symmetry_Int_Tables_number   1
_chemical_formula_structural   ZnSiH4C8S4(N2F3)2
_chemical_formula_sum   'Zn1 Si1 H4 C8 S4 N4 F6'
_cell_volume   589.98340268
_cell_formula_units_Z   1
loop_
 _symmetry_equiv_pos_site_id
 _symmetry_equiv_pos_as_xyz
  1  'x, y, z'
loop_
 _atom_site_type_symbol
 _atom_site_label
 _atom_site_symmetry_multiplicity
 _atom_site_fract_x
 _atom_site_fract_y
 _atom_site_fract_z
 _atom_site_occupancy
  Zn  Zn0  1  0.49999995  0.50000153  0.49999659  1.0
  Si  Si1  1  0.99999928  0.49999883  0.49999723  1.0
  H  H2  1  0.23303854  0.49106239  0.76907577  1.0
  H  H3  1  0.76696785  0.50894405  0.23092821  1.0
  H  H4  1  0.23302705  0.76906451  0.49105470  1.0
  H  H5  1  0.76696359  0.23092987  0.50894561  1.0
  C  C6  1  0.36421750  0.49536152  0.82608097  1.0
  C  C7  1  0.63579853  0.50464918  0.17392499  1.0
  C  C8  1  0.59189825  0.50383679  0.01575346  1.0
  C  C9  1  0.40811466  0.49616706  0.98424539  1.0
  C  C10  1  0.36420386  0.82606990  0.49535454  1.0
  C  C11  1  0.63577352  0.17392380  0.50464577  1.0
  C  C12  1  0.59188637  0.01575367  0.50383820  1.0
  C  C13  1  0.40809779  0.98424329  0.49616611  1.0
  S  S14  1  0.69586444  0.50933357  0.84881467  1.0
  S  S15  1  0.30414776  0.49067722  0.15118868  1.0
  S  S16  1  0.69585032  0.84881571  0.50932726  1.0
  S  S17  1  0.30413465  0.15117784  0.49067938  1.0
  N  N18  1  0.50449932  0.50201161  0.74351202  1.0
  N  N19  1  0.49550897  0.49799811  0.25648759  1.0
  N  N20  1  0.50448477  0.74351092  0.50200505  1.0
  N  N21  1  0.49550431  0.25648361  0.49800081  1.0
  F  F22  1  0.22503213  0.47326137  0.47327363  1.0
  F  F23  1  0.77496790  0.52673021  0.52671613  1.0
  F  F24  1  0.00000799  0.63444395  0.36555724  1.0
  F  F25  1  0.99997900  0.36555163  0.63443935  1.0
  F  F26  1  0.94115184  0.36399621  0.36399156  1.0
  F  F27  1  0.05886536  0.63599712  0.63600194  1.0
