# generated using pymatgen
data_Al6H64C102O31
_symmetry_space_group_name_H-M   'P 1'
_cell_length_a   12.43058386
_cell_length_b   12.50338143
_cell_length_c   27.85743277
_cell_angle_alpha   89.04213335
_cell_angle_beta   89.60886430
_cell_angle_gamma   61.17467607
_symmetry_Int_Tables_number   1
_chemical_formula_structural   Al6H64C102O31
_chemical_formula_sum   'Al6 H64 C102 O31'
_cell_volume   3792.70894285
_cell_formula_units_Z   1
loop_
 _symmetry_equiv_pos_site_id
 _symmetry_equiv_pos_as_xyz
  1  'x, y, z'
loop_
 _atom_site_type_symbol
 _atom_site_label
 _atom_site_symmetry_multiplicity
 _atom_site_fract_x
 _atom_site_fract_y
 _atom_site_fract_z
 _atom_site_occupancy
  Al  Al0  1  0.59399480  0.58353416  0.49246730  1.0
  Al  Al1  1  0.33503794  0.58915874  0.49639209  1.0
  Al  Al2  1  0.56261386  0.34497404  0.49692148  1.0
  Al  Al3  1  0.08738902  0.05653305  0.98115860  1.0
  Al  Al4  1  0.07970355  0.31681778  0.98170156  1.0
  Al  Al5  1  0.32676200  0.09064327  0.98189938  1.0
  H  H6  1  0.17428390  0.55318629  0.20133284  1.0
  H  H7  1  0.05838414  0.26277476  0.22686969  1.0
  H  H8  1  0.51055213  0.84826415  0.21863983  1.0
  H  H9  1  0.32775803  0.01482901  0.28193940  1.0
  H  H10  1  0.49433741  0.65397585  0.26437989  1.0
  H  H11  1  0.30769677  0.68319121  0.19796566  1.0
  H  H12  1  0.12640870  0.84824899  0.26149094  1.0
  H  H13  1  0.14401895  0.04303334  0.21454876  1.0
  H  H14  1  0.22998204  0.56509969  0.62406899  1.0
  H  H15  1  0.12581313  0.41998921  0.27279664  1.0
  H  H16  1  0.45354325  0.13052089  0.85547034  1.0
  H  H17  1  0.21496077  0.52854810  0.71088255  1.0
  H  H18  1  0.12196714  0.47228555  0.76401538  1.0
  H  H19  1  0.10324075  0.45499492  0.85231372  1.0
  H  H20  1  0.40350005  0.14006268  0.68755195  1.0
  H  H21  1  0.43002196  0.17738629  0.60196091  1.0
  H  H22  1  0.67495746  0.23421370  0.63069518  1.0
  H  H23  1  0.79327008  0.51243245  0.77529718  1.0
  H  H24  1  0.85685904  0.48626475  0.86107547  1.0
  H  H25  1  0.39402131  0.50352873  0.25034255  1.0
  H  H26  1  0.71572611  0.21702452  0.71822908  1.0
  H  H27  1  0.86062042  0.14044543  0.77414539  1.0
  H  H28  1  0.91719678  0.11809118  0.86065933  1.0
  H  H29  1  0.86725808  0.46178031  0.70205352  1.0
  H  H30  1  0.56801030  0.71643045  0.61602986  1.0
  H  H31  1  0.17273993  0.02836976  0.75199146  1.0
  H  H32  1  0.14039860  0.06748025  0.83885559  1.0
  H  H33  1  0.56310704  0.77770119  0.70096260  1.0
  H  H34  1  0.53876242  0.73580823  0.78081784  1.0
  H  H35  1  0.52502840  0.28832751  0.19569381  1.0
  H  H36  1  0.51097729  0.78795005  0.86740873  1.0
  H  H37  1  0.17463971  0.90015454  0.70369815  1.0
  H  H38  1  0.47600677  0.15417672  0.26755790  1.0
  H  H39  1  0.25818841  0.20325828  0.21832012  1.0
  H  H40  1  0.83003634  0.12278400  0.21328670  1.0
  H  H41  1  0.00093662  0.10686135  0.28449663  1.0
  H  H42  1  0.64440031  0.32931691  0.26121067  1.0
  H  H43  1  0.53077212  0.50484484  0.18235767  1.0
  H  H44  1  0.66155464  0.41143470  0.14642212  1.0
  H  H45  1  0.65763083  0.59199268  0.10770480  1.0
  H  H46  1  0.50726772  0.60842756  0.10328777  1.0
  H  H47  1  0.53896449  0.69167390  0.14666298  1.0
  H  H48  1  0.87736930  0.55774415  0.20175706  1.0
  H  H49  1  0.92035134  0.72474782  0.22348662  1.0
  H  H50  1  0.95036376  0.75813593  0.30953533  1.0
  H  H51  1  0.93403122  0.62452956  0.37316802  1.0
  H  H52  1  0.88915525  0.45882769  0.35151437  1.0
  H  H53  1  0.53504542  0.97956469  0.80235008  1.0
  H  H54  1  0.63138001  0.04715352  0.81156437  1.0
  H  H55  1  0.71833042  0.98505584  0.72815476  1.0
  H  H56  1  0.73798392  0.85542750  0.76265273  1.0
  H  H57  1  0.61906300  0.92182692  0.71876701  1.0
  H  H58  1  0.92458688  0.56350268  0.64538866  1.0
  H  H59  1  0.76194943  0.63995605  0.65387706  1.0
  H  H60  1  0.74588742  0.68823594  0.56074706  1.0
  H  H61  1  0.79680404  0.77061012  0.59775585  1.0
  H  H62  1  0.90356281  0.64553900  0.56339950  1.0
  H  H63  1  0.15707816  0.94410637  0.55220733  1.0
  H  H64  1  0.94958790  0.99673374  0.52237802  1.0
  H  H65  1  0.81688188  0.93549482  0.56946620  1.0
  H  H66  1  0.89280340  0.82277675  0.64763698  1.0
  H  H67  1  0.10012961  0.77007915  0.67706982  1.0
  H  H68  1  0.70649081  0.66982125  0.45719007  1.0
  H  H69  1  0.95588492  0.98167531  0.95751698  1.0
  C  C70  1  0.36964280  0.72946787  0.42828149  1.0
  C  C71  1  0.35562151  0.38810354  0.37594713  1.0
  C  C72  1  0.28776851  0.27058912  0.22611099  1.0
  C  C73  1  0.31479441  0.34545623  0.18542393  1.0
  C  C74  1  0.40914763  0.24280992  0.25249604  1.0
  C  C75  1  0.33611514  0.36231227  0.28320335  1.0
  C  C76  1  0.43657364  0.31746951  0.21336078  1.0
  C  C77  1  0.36338910  0.43697614  0.24262256  1.0
  C  C78  1  0.30270016  0.33274742  0.13562915  1.0
  C  C79  1  0.34634137  0.37511154  0.33311860  1.0
  C  C80  1  0.93485020  0.18995213  0.26566056  1.0
  C  C81  1  0.37954957  0.40810820  0.42450208  1.0
  C  C82  1  0.83988329  0.19898155  0.22705068  1.0
  C  C83  1  0.91764561  0.27461737  0.10190047  1.0
  C  C84  1  0.77518772  0.32310490  0.38386489  1.0
  C  C85  1  0.96663038  0.27568227  0.23460571  1.0
  C  C86  1  0.87361468  0.28337454  0.19453131  1.0
  C  C87  1  0.86428644  0.39205294  0.26026249  1.0
  C  C88  1  0.83173050  0.30450350  0.29220171  1.0
  C  C89  1  0.76929386  0.40015490  0.22163848  1.0
  C  C90  1  0.73684393  0.31328487  0.25248129  1.0
  C  C91  1  0.89762561  0.27626659  0.14488240  1.0
  C  C92  1  0.71734062  0.36330087  0.42968569  1.0
  C  C93  1  0.80444919  0.31257922  0.34166700  1.0
  C  C94  1  0.32383954  0.94127997  0.26266427  1.0
  C  C95  1  0.42502739  0.84872938  0.22844716  1.0
  C  C96  1  0.31933069  0.90193177  0.09802640  1.0
  C  C97  1  0.33273986  0.78530647  0.38152744  1.0
  C  C98  1  0.22105775  0.95673943  0.22675384  1.0
  C  C99  1  0.32235823  0.86471251  0.19127907  1.0
  C  C100  1  0.21158709  0.84856606  0.25158593  1.0
  C  C101  1  0.31440987  0.83230811  0.28870297  1.0
  C  C102  1  0.31256213  0.75616389  0.21727386  1.0
  C  C103  1  0.39514288  0.71579387  0.56421304  1.0
  C  C104  1  0.41584886  0.74032494  0.25302504  1.0
  C  C105  1  0.32135985  0.88436133  0.14122964  1.0
  C  C106  1  0.31873824  0.81087154  0.33878357  1.0
  C  C107  1  0.33156961  0.37349040  0.60762360  1.0
  C  C108  1  0.26723803  0.47225379  0.63833944  1.0
  C  C109  1  0.25807596  0.45094461  0.68692483  1.0
  C  C110  1  0.30849290  0.33134313  0.70616181  1.0
  C  C111  1  0.36680579  0.23326703  0.67417566  1.0
  C  C112  1  0.38049997  0.25393430  0.62592495  1.0
  C  C113  1  0.39375785  0.21515421  0.78510801  1.0
  C  C114  1  0.35918291  0.39830475  0.55826912  1.0
  C  C115  1  0.38299014  0.20584221  0.83475035  1.0
  C  C116  1  0.18504548  0.38958156  0.83343549  1.0
  C  C117  1  0.19661655  0.39844485  0.78406783  1.0
  C  C118  1  0.29976364  0.31368374  0.75842660  1.0
  C  C119  1  0.27925974  0.29284112  0.85908066  1.0
  C  C120  1  0.74439923  0.35851029  0.61663133  1.0
  C  C121  1  0.71832759  0.28275508  0.64674465  1.0
  C  C122  1  0.74183275  0.27292441  0.69573790  1.0
  C  C123  1  0.79409672  0.33916033  0.71651667  1.0
  C  C124  1  0.82184435  0.41427693  0.68688457  1.0
  C  C125  1  0.70093461  0.37838990  0.56606229  1.0
  C  C126  1  0.79864279  0.42426806  0.63740613  1.0
  C  C127  1  0.82157200  0.42519929  0.79371789  1.0
  C  C128  1  0.85552383  0.41174154  0.84181414  1.0
  C  C129  1  0.88853119  0.20441183  0.84155099  1.0
  C  C130  1  0.85620704  0.21776247  0.79333998  1.0
  C  C131  1  0.82288498  0.32807142  0.76828858  1.0
  C  C132  1  0.88998170  0.30078395  0.86615651  1.0
  C  C133  1  0.37631959  0.77217970  0.61244633  1.0
  C  C134  1  0.48224798  0.75762616  0.63609489  1.0
  C  C135  1  0.47902496  0.79127130  0.68355656  1.0
  C  C136  1  0.21440860  0.39011495  0.25529246  1.0
  C  C137  1  0.36773876  0.84271377  0.70905042  1.0
  C  C138  1  0.26208300  0.86005556  0.68474961  1.0
  C  C139  1  0.26285348  0.82659712  0.63704012  1.0
  C  C140  1  0.24619562  0.97251427  0.77711283  1.0
  C  C141  1  0.22815265  0.99614680  0.82573955  1.0
  C  C142  1  0.43678095  0.83915189  0.84191303  1.0
  C  C143  1  0.45263137  0.81167676  0.79316125  1.0
  C  C144  1  0.35723760  0.87672784  0.75999754  1.0
  C  C145  1  0.32287797  0.92906055  0.85862790  1.0
  C  C146  1  0.96118377  0.25347180  0.05324534  1.0
  C  C147  1  0.24184392  0.46473202  0.21625795  1.0
  C  C148  1  0.26600075  0.29043454  0.04608580  1.0
  C  C149  1  0.30136557  0.94292848  0.04892900  1.0
  C  C150  1  0.93956729  0.27811311  0.91587306  1.0
  C  C151  1  0.26515828  0.27466947  0.91103632  1.0
  C  C152  1  0.29438278  0.95996197  0.91015378  1.0
  C  C153  1  0.29057608  0.31947221  0.09303192  1.0
  C  C154  1  0.61190633  0.50040877  0.16412050  1.0
  C  C155  1  0.57716040  0.60395954  0.12835826  1.0
  C  C156  1  0.88196211  0.49555028  0.27510983  1.0
  C  C157  1  0.88997997  0.57232931  0.23933334  1.0
  C  C158  1  0.91415998  0.66626167  0.25167081  1.0
  C  C159  1  0.93081484  0.68507321  0.29980227  1.0
  C  C160  1  0.92183325  0.61009958  0.33553821  1.0
  C  C161  1  0.89711865  0.51611597  0.32334255  1.0
  C  C162  1  0.58263109  0.02383769  0.78418863  1.0
  C  C163  1  0.66966966  0.94202913  0.74612579  1.0
  C  C164  1  0.83555112  0.59552968  0.62700042  1.0
  C  C165  1  0.81930059  0.67995554  0.58483272  1.0
  C  C166  1  0.14279941  0.85313249  0.61658789  1.0
  C  C167  1  0.09916041  0.91717880  0.57300026  1.0
  C  C168  1  0.98247514  0.94688846  0.55631266  1.0
  C  C169  1  0.90748205  0.91335761  0.58298182  1.0
  C  C170  1  0.94979249  0.85040386  0.62658380  1.0
  C  C171  1  0.06642348  0.82065695  0.64325967  1.0
  O  O172  1  0.68820888  0.47180859  0.44023511  1.0
  O  O173  1  0.28795374  0.50327532  0.53940583  1.0
  O  O174  1  0.45708297  0.31674966  0.53827890  1.0
  O  O175  1  0.66566543  0.30336077  0.54992045  1.0
  O  O176  1  0.49600908  0.50512073  0.49475102  1.0
  O  O177  1  0.21190212  0.94616633  0.02659182  1.0
  O  O178  1  0.99376496  0.14835799  0.03725080  1.0
  O  O179  1  0.96692391  0.34181532  0.03079295  1.0
  O  O180  1  0.16046827  0.36210006  0.02774027  1.0
  O  O181  1  0.34826047  0.19234125  0.02710617  1.0
  O  O182  1  0.37655721  0.97859795  0.03238928  1.0
  O  O183  1  0.48035129  0.69035737  0.43989347  1.0
  O  O184  1  0.18793328  0.98470028  0.92363333  1.0
  O  O185  1  0.96562648  0.17689302  0.93577596  1.0
  O  O186  1  0.95908723  0.36103948  0.93486103  1.0
  O  O187  1  0.16620010  0.35059329  0.93192136  1.0
  O  O188  1  0.35102847  0.17917694  0.93167879  1.0
  O  O189  1  0.37628307  0.96559765  0.93680000  1.0
  O  O190  1  0.16544011  0.15632330  0.98219632  1.0
  O  O191  1  0.28748320  0.71914453  0.45388488  1.0
  O  O192  1  0.30404101  0.50902361  0.44377585  1.0
  O  O193  1  0.47822151  0.32452831  0.44383564  1.0
  O  O194  1  0.69559381  0.28861675  0.45512200  1.0
  O  O195  1  0.69374655  0.46854109  0.54233160  1.0
  O  O196  1  0.49372517  0.69199501  0.54250302  1.0
  O  O197  1  0.31366342  0.68914080  0.54880588  1.0
  O  O198  1  0.69077418  0.50933011  0.20023871  1.0
  O  O199  1  0.49348039  0.13342964  0.76004560  1.0
  O  O200  1  0.82797057  0.49284092  0.60799075  1.0
  O  O201  1  0.68239783  0.65888701  0.48916693  1.0
  O  O202  1  0.02081099  0.96082694  0.98063664  1.0
