# generated using pymatgen
data_ZnH6C13N(O2F)2
_symmetry_space_group_name_H-M   'P 1'
_cell_length_a   9.59735942
_cell_length_b   11.00846865
_cell_length_c   15.36113635
_cell_angle_alpha   89.69251720
_cell_angle_beta   90.21338753
_cell_angle_gamma   89.97232402
_symmetry_Int_Tables_number   1
_chemical_formula_structural   ZnH6C13N(O2F)2
_chemical_formula_sum   'Zn2 H12 C26 N2 O8 F4'
_cell_volume   1622.90348416
_cell_formula_units_Z   2
loop_
 _symmetry_equiv_pos_site_id
 _symmetry_equiv_pos_as_xyz
  1  'x, y, z'
loop_
 _atom_site_type_symbol
 _atom_site_label
 _atom_site_symmetry_multiplicity
 _atom_site_fract_x
 _atom_site_fract_y
 _atom_site_fract_z
 _atom_site_occupancy
  Zn  Zn0  1  0.64220595  0.50001865  0.50069102  1.0
  Zn  Zn1  1  0.35861910  0.50002877  0.49930496  1.0
  H  H2  1  0.13526930  0.36490180  0.59440879  1.0
  H  H3  1  0.71949427  0.11344258  0.52400270  1.0
  H  H4  1  0.27849424  0.11500602  0.47646008  1.0
  H  H5  1  0.71821352  0.88501287  0.52577717  1.0
  H  H6  1  0.86560612  0.63521425  0.40536248  1.0
  H  H7  1  0.13341557  0.63498368  0.40487954  1.0
  H  H8  1  0.86750565  0.36581643  0.59526233  1.0
  H  H9  1  0.69876079  0.59573415  0.22082041  1.0
  H  H10  1  0.30310878  0.59322526  0.77679218  1.0
  H  H11  1  0.69763352  0.40347904  0.77994399  1.0
  H  H12  1  0.30430901  0.40628714  0.22267912  1.0
  H  H13  1  0.27873419  0.88665755  0.47356129  1.0
  C  C14  1  0.49831639  0.73688902  0.49902775  1.0
  C  C15  1  0.62336858  0.06278126  0.51368110  1.0
  C  C16  1  0.37430860  0.06363380  0.48663838  1.0
  C  C17  1  0.62288343  0.93647462  0.51414422  1.0
  C  C18  1  0.60793648  0.55333799  0.09622542  1.0
  C  C19  1  0.39185211  0.55177879  0.90253455  1.0
  C  C20  1  0.60736200  0.44593209  0.90424002  1.0
  C  C21  1  0.39240710  0.44764625  0.09719769  1.0
  C  C22  1  0.61208006  0.55393833  0.18636870  1.0
  C  C23  1  0.38908891  0.55142617  0.81233688  1.0
  C  C24  1  0.61105398  0.44526766  0.81411440  1.0
  C  C25  1  0.49901567  0.26307158  0.50084337  1.0
  C  C26  1  0.39008649  0.44798046  0.18735572  1.0
  C  C27  1  0.50153537  0.50126189  0.23211393  1.0
  C  C28  1  0.50043094  0.49812645  0.76794762  1.0
  C  C29  1  0.49972184  0.50022165  0.04802348  1.0
  C  C30  1  0.49942611  0.49924735  0.95208213  1.0
  C  C31  1  0.49896482  0.12719901  0.50040358  1.0
  C  C32  1  0.49850153  0.87284883  0.49943426  1.0
  C  C33  1  0.50212555  0.50159069  0.32973442  1.0
  C  C34  1  0.50163387  0.49801973  0.67030906  1.0
  C  C35  1  0.07355427  0.42487970  0.55270612  1.0
  C  C36  1  0.92735834  0.57565178  0.44732839  1.0
  C  C37  1  0.07246427  0.57532675  0.44691808  1.0
  C  C38  1  0.92845846  0.42515954  0.55301435  1.0
  C  C39  1  0.37436807  0.93736486  0.48526882  1.0
  N  N40  1  0.85716231  0.50053928  0.50037054  1.0
  N  N41  1  0.14370122  0.49997594  0.49962750  1.0
  O  O42  1  0.61369440  0.68338042  0.51491871  1.0
  O  O43  1  0.38284987  0.31588495  0.51460814  1.0
  O  O44  1  0.61511115  0.31618131  0.48736150  1.0
  O  O45  1  0.38286731  0.68391302  0.48292551  1.0
  O  O46  1  0.61730199  0.52496327  0.36768234  1.0
  O  O47  1  0.38685977  0.52137191  0.63174011  1.0
  O  O48  1  0.61725666  0.47484577  0.63338322  1.0
  O  O49  1  0.38701208  0.47821588  0.36727147  1.0
  F  F50  1  0.71286758  0.60858643  0.05182553  1.0
  F  F51  1  0.28642722  0.60769046  0.94565619  1.0
  F  F52  1  0.71251083  0.39062831  0.94895138  1.0
  F  F53  1  0.28676111  0.39188017  0.05375150  1.0
