# generated using pymatgen
data_AlH12C24(NO4)3
_symmetry_space_group_name_H-M   'P 1'
_cell_length_a   4.16341554
_cell_length_b   28.59845352
_cell_length_c   28.59865027
_cell_angle_alpha   60.00117667
_cell_angle_beta   89.99872363
_cell_angle_gamma   89.99972758
_symmetry_Int_Tables_number   1
_chemical_formula_structural   AlH12C24(NO4)3
_chemical_formula_sum   'Al2 H24 C48 N6 O24'
_cell_volume   2948.99221149
_cell_formula_units_Z   2
loop_
 _symmetry_equiv_pos_site_id
 _symmetry_equiv_pos_as_xyz
  1  'x, y, z'
loop_
 _atom_site_type_symbol
 _atom_site_label
 _atom_site_symmetry_multiplicity
 _atom_site_fract_x
 _atom_site_fract_y
 _atom_site_fract_z
 _atom_site_occupancy
  Al  Al0  1  0.02452304  0.99999819  0.50000279  1.0
  Al  Al1  1  0.02456159  0.66666321  0.16666442  1.0
  H  H2  1  0.84595686  0.51152953  0.29470479  1.0
  H  H3  1  0.83128691  0.41255531  0.33827731  1.0
  H  H4  1  0.17047807  0.42480773  0.21588178  1.0
  H  H5  1  0.18535215  0.52404843  0.17269423  1.0
  H  H6  1  0.17044628  0.24184862  0.45078539  1.0
  H  H7  1  0.83127588  0.25411236  0.32838171  1.0
  H  H8  1  0.84594482  0.15513815  0.37194718  1.0
  H  H9  1  0.18530500  0.14261075  0.49396623  1.0
  H  H10  1  0.84596712  0.79468715  0.19376762  1.0
  H  H11  1  0.83141133  0.83827015  0.24916107  1.0
  H  H12  1  0.17053645  0.71587791  0.35931102  1.0
  H  H13  1  0.18530125  0.67268776  0.30326763  1.0
  H  H14  1  0.17052694  0.95077866  0.30736553  1.0
  H  H15  1  0.83134814  0.82837836  0.41751458  1.0
  H  H16  1  0.84589133  0.87195671  0.47291375  1.0
  H  H17  1  0.18529586  0.99396376  0.36341764  1.0
  H  H18  1  0.84596595  0.69376401  0.01153217  1.0
  H  H19  1  0.83137875  0.74915932  0.91256293  1.0
  H  H20  1  0.17052674  0.85930881  0.92481423  1.0
  H  H21  1  0.18530609  0.80326143  0.02404411  1.0
  H  H22  1  0.17050320  0.80736878  0.74185565  1.0
  H  H23  1  0.83132566  0.91752232  0.75410349  1.0
  H  H24  1  0.84592132  0.97291698  0.65513203  1.0
  H  H25  1  0.18529582  0.86341551  0.64262635  1.0
  C  C26  1  0.52273100  0.95580677  0.58232944  1.0
  C  C27  1  0.52273815  0.08232329  0.46186318  1.0
  C  C28  1  0.52274541  0.96186181  0.45581084  1.0
  C  C29  1  0.52272794  0.58433551  0.20479603  1.0
  C  C30  1  0.52272548  0.70478972  0.21086669  1.0
  C  C31  1  0.52273028  0.71086252  0.08433956  1.0
  C  C32  1  0.51352292  0.52406481  0.23129352  1.0
  C  C33  1  0.69209919  0.49242685  0.27822488  1.0
  C  C34  1  0.68197432  0.43647112  0.30294852  1.0
  C  C35  1  0.49436363  0.41131797  0.28101756  1.0
  C  C36  1  0.32034858  0.44354218  0.23322416  1.0
  C  C37  1  0.32782175  0.49945755  0.20880009  1.0
  C  C38  1  0.47646386  0.35238128  0.30672569  1.0
  C  C39  1  0.47645321  0.31428029  0.35993893  1.0
  C  C40  1  0.32031045  0.22311959  0.43343492  1.0
  C  C41  1  0.49432456  0.25534483  0.38564359  1.0
  C  C42  1  0.68193704  0.23019555  0.36370904  1.0
  C  C43  1  0.69208159  0.17423781  0.38843225  1.0
  C  C44  1  0.51347515  0.14259761  0.43536321  1.0
  C  C45  1  0.32775771  0.16720666  0.45785669  1.0
  C  C46  1  0.51350886  0.73128380  0.24464524  1.0
  C  C47  1  0.69210755  0.77821432  0.22934916  1.0
  C  C48  1  0.68205050  0.80294231  0.26057911  1.0
  C  C49  1  0.49445127  0.78101377  0.30766474  1.0
  C  C50  1  0.32039906  0.73322268  0.32323379  1.0
  C  C51  1  0.32780206  0.70879669  0.29174480  1.0
  C  C52  1  0.47652792  0.80671889  0.34088843  1.0
  C  C53  1  0.47650898  0.85994048  0.32577595  1.0
  C  C54  1  0.32039660  0.93343489  0.34344108  1.0
  C  C55  1  0.49445762  0.88564481  0.35900522  1.0
  C  C56  1  0.68202152  0.86371045  0.40609280  1.0
  C  C57  1  0.69209698  0.88843401  0.43732668  1.0
  C  C58  1  0.51348441  0.93536651  0.42203433  1.0
  C  C59  1  0.32779396  0.95785644  0.37493541  1.0
  C  C60  1  0.51352075  0.74463872  0.02406762  1.0
  C  C61  1  0.69212430  0.72934738  0.99242956  1.0
  C  C62  1  0.68202579  0.76057995  0.93647326  1.0
  C  C63  1  0.49441896  0.80766208  0.91132208  1.0
  C  C64  1  0.32038363  0.82322703  0.94354823  1.0
  C  C65  1  0.32780886  0.79173807  0.99945930  1.0
  C  C66  1  0.47647372  0.84089040  0.85239232  1.0
  C  C67  1  0.47647689  0.82578151  0.81428046  1.0
  C  C68  1  0.32037378  0.84344630  0.72312469  1.0
  C  C69  1  0.49442046  0.85901186  0.75534893  1.0
  C  C70  1  0.68199116  0.90610110  0.73019464  1.0
  C  C71  1  0.69209242  0.93733044  0.67423887  1.0
  C  C72  1  0.51348453  0.92203743  0.64260078  1.0
  C  C73  1  0.32777532  0.87493769  0.66721064  1.0
  N  N74  1  0.46266368  0.33318427  0.26667971  1.0
  N  N75  1  0.46265586  0.33348212  0.39998394  1.0
  N  N76  1  0.46270606  0.76667589  0.40012921  1.0
  N  N77  1  0.46276213  0.89998347  0.26653661  1.0
  N  N78  1  0.46268745  0.90013482  0.83319468  1.0
  N  N79  1  0.46271606  0.76653828  0.83347860  1.0
  O  O80  1  0.76216183  0.99231636  0.44912062  1.0
  O  O81  1  0.76214935  0.94911465  0.55856502  1.0
  O  O82  1  0.76215742  0.05856574  0.49231807  1.0
  O  O83  1  0.29014558  0.95182623  0.48847042  1.0
  O  O84  1  0.29013460  0.05969783  0.45183168  1.0
  O  O85  1  0.29012991  0.98846454  0.55970413  1.0
  O  O86  1  0.76213995  0.71755051  0.10810422  1.0
  O  O87  1  0.76213668  0.60810102  0.17434268  1.0
  O  O88  1  0.76212987  0.67433384  0.21755365  1.0
  O  O89  1  0.29012439  0.67820325  0.10696148  1.0
  O  O90  1  0.29011111  0.71482379  0.17821107  1.0
  O  O91  1  0.29011729  0.60696149  0.21482662  1.0
  O  O92  1  0.65826523  0.35394164  0.22918357  1.0
  O  O93  1  0.25609301  0.29969343  0.27243473  1.0
  O  O94  1  0.65824034  0.31272621  0.43748012  1.0
  O  O95  1  0.25608736  0.36697432  0.39422751  1.0
  O  O96  1  0.65831162  0.72918216  0.41687002  1.0
  O  O97  1  0.25609943  0.77243015  0.42786546  1.0
  O  O98  1  0.65840024  0.93747543  0.24980864  1.0
  O  O99  1  0.25623681  0.89423783  0.23878239  1.0
  O  O100  1  0.65830142  0.91687196  0.85394937  1.0
  O  O101  1  0.25611398  0.92787546  0.79970343  1.0
  O  O102  1  0.65835298  0.74980543  0.81272008  1.0
  O  O103  1  0.25616479  0.73878851  0.86697508  1.0
