# generated using pymatgen
data_ZnH19C28N3O4
_symmetry_space_group_name_H-M   'P 1'
_cell_length_a   15.71280524
_cell_length_b   18.23876646
_cell_length_c   19.39106004
_cell_angle_alpha   89.40332384
_cell_angle_beta   89.74925274
_cell_angle_gamma   67.00665845
_symmetry_Int_Tables_number   1
_chemical_formula_structural   ZnH19C28N3O4
_chemical_formula_sum   'Zn2 H38 C56 N6 O8'
_cell_volume   5115.34192901
_cell_formula_units_Z   2
loop_
 _symmetry_equiv_pos_site_id
 _symmetry_equiv_pos_as_xyz
  1  'x, y, z'
loop_
 _atom_site_type_symbol
 _atom_site_label
 _atom_site_symmetry_multiplicity
 _atom_site_fract_x
 _atom_site_fract_y
 _atom_site_fract_z
 _atom_site_occupancy
  Zn  Zn0  1  0.48926263  0.57971514  0.50054869  1.0
  Zn  Zn1  1  0.49612461  0.42516629  0.49757592  1.0
  H  H2  1  0.87921191  0.71599870  0.44529516  1.0
  H  H3  1  0.10613723  0.28674783  0.44377515  1.0
  H  H4  1  0.57924228  0.59053157  0.93017158  1.0
  H  H5  1  0.58945687  0.35852040  0.06750405  1.0
  H  H6  1  0.60300222  0.65714053  0.43347419  1.0
  H  H7  1  0.37635774  0.34740461  0.55820623  1.0
  H  H8  1  0.61010731  0.79261968  0.42967608  1.0
  H  H9  1  0.37599708  0.20981745  0.56382499  1.0
  H  H10  1  0.38815101  0.86827652  0.57856620  1.0
  H  H11  1  0.61145705  0.13443952  0.42676603  1.0
  H  H12  1  0.39176763  0.72952870  0.57678153  1.0
  H  H13  1  0.60365474  0.27439480  0.42915646  1.0
  H  H14  1  0.35607475  0.11736128  0.46847483  1.0
  H  H15  1  0.63861370  0.88435748  0.53105513  1.0
  H  H16  1  0.76258120  0.53437497  0.48076504  1.0
  H  H17  1  0.22361859  0.46696464  0.47643932  1.0
  H  H18  1  0.80161449  0.28956204  0.47242545  1.0
  H  H19  1  0.18461496  0.71207670  0.47121324  1.0
  H  H20  1  0.01438668  0.75230442  0.45440318  1.0
  H  H21  1  0.97163725  0.25002197  0.45393508  1.0
  H  H22  1  0.81244089  0.61487287  0.44894491  1.0
  H  H23  1  0.17309188  0.38766038  0.44667294  1.0
  H  H24  1  0.44005055  0.43859165  0.26943905  1.0
  H  H25  1  0.42112174  0.60742520  0.73123314  1.0
  H  H26  1  0.47026497  0.43109493  0.14268533  1.0
  H  H27  1  0.45349454  0.59342864  0.85773360  1.0
  H  H28  1  0.68009248  0.52444431  0.17323710  1.0
  H  H29  1  0.67574846  0.36642545  0.82324234  1.0
  H  H30  1  0.63914299  0.54252987  0.29772484  1.0
  H  H31  1  0.63379810  0.37636434  0.69872769  1.0
  H  H32  1  0.60018546  0.65017843  0.03407410  1.0
  H  H33  1  0.59313423  0.61322019  0.11324233  1.0
  H  H34  1  0.58933951  0.33163414  0.88401592  1.0
  H  H35  1  0.60292451  0.28760225  0.96263507  1.0
  H  H36  1  0.32983067  0.92841108  0.47117481  1.0
  H  H37  1  0.27493129  0.02873837  0.46484290  1.0
  H  H38  1  0.71953989  0.97270729  0.53620996  1.0
  H  H39  1  0.66508810  0.07319793  0.52948883  1.0
  C  C40  1  0.50254748  0.49778717  0.63216555  1.0
  C  C41  1  0.51144582  0.50311455  0.36570257  1.0
  C  C42  1  0.88718466  0.59624872  0.45190196  1.0
  C  C43  1  0.09845042  0.40620596  0.45069367  1.0
  C  C44  1  0.92418940  0.65293339  0.44986067  1.0
  C  C45  1  0.06132948  0.34965129  0.44899229  1.0
  C  C46  1  0.49093278  0.45893936  0.24721723  1.0
  C  C47  1  0.47551409  0.55409172  0.75229110  1.0
  C  C48  1  0.50916611  0.45367004  0.17685893  1.0
  C  C49  1  0.49471626  0.54660472  0.82259101  1.0
  C  C50  1  0.57518659  0.47950942  0.14787412  1.0
  C  C51  1  0.56544695  0.47831848  0.85022114  1.0
  C  C52  1  0.62381143  0.50924650  0.19304398  1.0
  C  C53  1  0.61681015  0.41790691  0.80414339  1.0
  C  C54  1  0.60281223  0.51780963  0.26317583  1.0
  C  C55  1  0.59518694  0.42380735  0.73417303  1.0
  C  C56  1  0.53551455  0.49337472  0.29078672  1.0
  C  C57  1  0.52421999  0.49191575  0.70757872  1.0
  C  C58  1  0.58551036  0.54329252  0.03268565  1.0
  C  C59  1  0.58542343  0.40506485  0.96496716  1.0
  C  C60  1  0.58283633  0.53874528  0.96072776  1.0
  C  C61  1  0.58865761  0.40940419  0.03687232  1.0
  C  C62  1  0.31392204  0.56037047  0.48972306  1.0
  C  C63  1  0.67281102  0.43995311  0.49237248  1.0
  C  C64  1  0.58117761  0.47251544  0.92569395  1.0
  C  C65  1  0.58712683  0.47669186  0.07203067  1.0
  C  C66  1  0.55748197  0.70605006  0.46498808  1.0
  C  C67  1  0.42737877  0.29777247  0.53047056  1.0
  C  C68  1  0.56071931  0.78116191  0.46316333  1.0
  C  C69  1  0.42735929  0.22158329  0.53283506  1.0
  C  C70  1  0.49798045  0.84265662  0.50283755  1.0
  C  C71  1  0.49533491  0.15957069  0.49687992  1.0
  C  C72  1  0.43618162  0.82362010  0.54480507  1.0
  C  C73  1  0.55949062  0.17917367  0.45814980  1.0
  C  C74  1  0.43785668  0.74693723  0.54446058  1.0
  C  C75  1  0.55511387  0.25669183  0.45825602  1.0
  C  C76  1  0.41427655  0.99017481  0.48336458  1.0
  C  C77  1  0.58031830  0.01169623  0.51640727  1.0
  C  C78  1  0.41763080  0.06576561  0.48362164  1.0
  C  C79  1  0.57703284  0.93598583  0.51600714  1.0
  C  C80  1  0.49819811  0.07775501  0.49893125  1.0
  C  C81  1  0.49641485  0.92414811  0.50076909  1.0
  C  C82  1  0.21251239  0.58639758  0.47566065  1.0
  C  C83  1  0.77393724  0.41498783  0.47797947  1.0
  C  C84  1  0.06048488  0.68947126  0.45865905  1.0
  C  C85  1  0.92553848  0.31264023  0.45896114  1.0
  C  C86  1  0.15421360  0.66777184  0.46823864  1.0
  C  C87  1  0.83204019  0.33391671  0.46938491  1.0
  C  C88  1  0.17588516  0.52871892  0.47018777  1.0
  C  C89  1  0.81017799  0.47301437  0.47274726  1.0
  C  C90  1  0.08076689  0.54876434  0.45934226  1.0
  C  C91  1  0.90497126  0.45345195  0.46049243  1.0
  C  C92  1  0.02141431  0.63140502  0.45539797  1.0
  C  C93  1  0.96427349  0.37097056  0.45560514  1.0
  C  C94  1  0.04153135  0.48909502  0.45539024  1.0
  C  C95  1  0.94416230  0.51321046  0.45601417  1.0
  N  N96  1  0.49656044  0.68942542  0.50442008  1.0
  N  N97  1  0.49082837  0.31482693  0.49445859  1.0
  N  N98  1  0.57630139  0.61542275  0.06271670  1.0
  N  N99  1  0.57604819  0.33912018  0.93515734  1.0
  N  N100  1  0.33532675  0.98081932  0.46024449  1.0
  N  N101  1  0.65920904  0.02084076  0.53976662  1.0
  O  O102  1  0.46961749  0.56715194  0.60465796  1.0
  O  O103  1  0.48104878  0.45419232  0.39301513  1.0
  O  O104  1  0.51987357  0.43242745  0.60079795  1.0
  O  O105  1  0.52332110  0.55960921  0.39699755  1.0
  O  O106  1  0.34999934  0.61148820  0.48133207  1.0
  O  O107  1  0.63729911  0.38924496  0.48048468  1.0
  O  O108  1  0.35655007  0.48809277  0.50885114  1.0
  O  O109  1  0.62977472  0.51034674  0.51453075  1.0
