# generated using pymatgen
data_CuH6C10(NO)4
_symmetry_space_group_name_H-M   'P 1'
_cell_length_a   7.91483967
_cell_length_b   12.59094607
_cell_length_c   12.59265454
_cell_angle_alpha   115.72179540
_cell_angle_beta   102.07654488
_cell_angle_gamma   102.12324113
_symmetry_Int_Tables_number   1
_chemical_formula_structural   CuH6C10(NO)4
_chemical_formula_sum   'Cu3 H18 C30 N12 O12'
_cell_volume   1039.10862946
_cell_formula_units_Z   3
loop_
 _symmetry_equiv_pos_site_id
 _symmetry_equiv_pos_as_xyz
  1  'x, y, z'
loop_
 _atom_site_type_symbol
 _atom_site_label
 _atom_site_symmetry_multiplicity
 _atom_site_fract_x
 _atom_site_fract_y
 _atom_site_fract_z
 _atom_site_occupancy
  Cu  Cu0  1  0.50000088  0.99999896  0.50000228  1.0
  Cu  Cu1  1  0.99999794  0.49999707  0.49999611  1.0
  Cu  Cu2  1  0.49999934  0.50000009  0.99999577  1.0
  H  H3  1  0.92313943  0.98801295  0.37869561  1.0
  H  H4  1  0.68373549  0.25967871  0.41297929  1.0
  H  H5  1  0.25410758  0.37147195  0.52212607  1.0
  H  H6  1  0.54419459  0.62151619  0.60949751  1.0
  H  H7  1  0.27024256  0.58695434  0.84668562  1.0
  H  H8  1  0.73160951  0.47808254  0.84941060  1.0
  H  H9  1  0.93461707  0.39053272  0.01191012  1.0
  H  H10  1  0.42346155  0.15344533  0.74007435  1.0
  H  H11  1  0.88223124  0.15112107  0.62847379  1.0
  H  H12  1  0.07686362  0.01198716  0.62131356  1.0
  H  H13  1  0.31626440  0.74032094  0.58702613  1.0
  H  H14  1  0.74588952  0.62852728  0.47787372  1.0
  H  H15  1  0.45580841  0.37848455  0.39049852  1.0
  H  H16  1  0.72976397  0.41304846  0.15331229  1.0
  H  H17  1  0.26839219  0.52191724  0.15058544  1.0
  H  H18  1  0.06538532  0.60946921  0.98809248  1.0
  H  H19  1  0.57653751  0.84655304  0.25993201  1.0
  H  H20  1  0.11776197  0.84887606  0.37152600  1.0
  C  C21  1  0.29568543  0.15204883  0.47781974  1.0
  C  C22  1  0.11660870  0.17643627  0.45719994  1.0
  C  C23  1  0.94169207  0.08614339  0.40705905  1.0
  C  C24  1  0.80702058  0.23421586  0.42268339  1.0
  C  C25  1  0.12328826  0.29726325  0.48601683  1.0
  C  C26  1  0.81747962  0.52211595  0.67421439  1.0
  C  C27  1  0.65892867  0.54272858  0.71915034  1.0
  C  C28  1  0.53433121  0.59299523  0.67914748  1.0
  C  C29  1  0.38389225  0.57730237  0.81156753  1.0
  C  C30  1  0.63677871  0.51402222  0.81123471  1.0
  C  C31  1  0.14328116  0.32591945  0.84788060  1.0
  C  C32  1  0.93975227  0.28100264  0.82347448  1.0
  C  C33  1  0.85510512  0.32094799  0.91375320  1.0
  C  C34  1  0.57224327  0.18866020  0.76555580  1.0
  C  C35  1  0.82554911  0.18913238  0.70262329  1.0
  C  C36  1  0.70431930  0.84795465  0.52218755  1.0
  C  C37  1  0.88339990  0.82356771  0.54280735  1.0
  C  C38  1  0.05831018  0.91385941  0.59295105  1.0
  C  C39  1  0.19297790  0.76578080  0.57731921  1.0
  C  C40  1  0.87670672  0.70273611  0.51398389  1.0
  C  C41  1  0.18251492  0.47788084  0.32577509  1.0
  C  C42  1  0.34106952  0.45727072  0.28084382  1.0
  C  C43  1  0.46566790  0.40700421  0.32084856  1.0
  C  C44  1  0.61610688  0.42269866  0.18842851  1.0
  C  C45  1  0.36322429  0.48597931  0.18876133  1.0
  C  C46  1  0.85671455  0.67407996  0.15211637  1.0
  C  C47  1  0.06024697  0.71899963  0.17652437  1.0
  C  C48  1  0.14489681  0.67905427  0.08624846  1.0
  C  C49  1  0.42775836  0.81133770  0.23445055  1.0
  C  C50  1  0.17444716  0.81086636  0.29737744  1.0
  N  N51  1  0.97006888  0.32628235  0.46828733  1.0
  N  N52  1  0.78780825  0.11538280  0.39060764  1.0
  N  N53  1  0.50140031  0.53182903  0.85807806  1.0
  N  N54  1  0.39686122  0.60940184  0.72485532  1.0
  N  N55  1  0.64329845  0.14226939  0.67356401  1.0
  N  N56  1  0.67189168  0.27529409  0.88439209  1.0
  N  N57  1  0.02992996  0.67371513  0.53171340  1.0
  N  N58  1  0.21219257  0.88461700  0.60939965  1.0
  N  N59  1  0.49859965  0.46817250  0.14191704  1.0
  N  N60  1  0.60313886  0.39060172  0.27514259  1.0
  N  N61  1  0.35669791  0.85772740  0.32643953  1.0
  N  N62  1  0.32811339  0.72470782  0.11561332  1.0
  O  O63  1  0.28648057  0.05589134  0.49302755  1.0
  O  O64  1  0.43327835  0.22258654  0.47900695  1.0
  O  O65  1  0.79313227  0.50652653  0.56273750  1.0
  O  O66  1  0.95396073  0.52135021  0.74380027  1.0
  O  O67  1  0.23045586  0.43726590  0.94399083  1.0
  O  O68  1  0.21019302  0.25646847  0.77736173  1.0
  O  O69  1  0.71352358  0.94411123  0.50697599  1.0
  O  O70  1  0.56673258  0.77741740  0.52100503  1.0
  O  O71  1  0.20685569  0.49346660  0.43724916  1.0
  O  O72  1  0.04603905  0.47865360  0.25618920  1.0
  O  O73  1  0.76954500  0.56273259  0.05600614  1.0
  O  O74  1  0.78979906  0.74352923  0.22263056  1.0
