# generated using pymatgen
data_Zn6H82C73O35
_symmetry_space_group_name_H-M   'P 1'
_cell_length_a   18.57619225
_cell_length_b   18.74649732
_cell_length_c   18.89362277
_cell_angle_alpha   109.06379668
_cell_angle_beta   109.51574304
_cell_angle_gamma   109.16796199
_symmetry_Int_Tables_number   1
_chemical_formula_structural   Zn6H82C73O35
_chemical_formula_sum   'Zn6 H82 C73 O35'
_cell_volume   5106.04184590
_cell_formula_units_Z   1
loop_
 _symmetry_equiv_pos_site_id
 _symmetry_equiv_pos_as_xyz
  1  'x, y, z'
loop_
 _atom_site_type_symbol
 _atom_site_label
 _atom_site_symmetry_multiplicity
 _atom_site_fract_x
 _atom_site_fract_y
 _atom_site_fract_z
 _atom_site_occupancy
  Zn  Zn0  1  0.00221387  0.06481727  0.56522117  1.0
  Zn  Zn1  1  0.00412652  0.93936740  0.44536271  1.0
  Zn  Zn2  1  0.43835080  0.93505493  0.99882064  1.0
  Zn  Zn3  1  0.56442088  0.06711982  0.00992370  1.0
  Zn  Zn4  1  0.41838123  0.48938830  0.42745234  1.0
  Zn  Zn5  1  0.54885475  0.49460996  0.55115242  1.0
  H  H6  1  0.74848002  0.68017075  0.53595014  1.0
  H  H7  1  0.55233228  0.32172543  0.35030480  1.0
  H  H8  1  0.36179767  0.24611848  0.21178979  1.0
  H  H9  1  0.56039733  0.23033518  0.22480764  1.0
  H  H10  1  0.37806974  0.09641447  0.17709015  1.0
  H  H11  1  0.59423375  0.77486962  0.70629628  1.0
  H  H12  1  0.56278021  0.89020079  0.79150653  1.0
  H  H13  1  0.61087622  0.09178716  0.23083433  1.0
  H  H14  1  0.58730569  0.11079147  0.35414236  1.0
  H  H15  1  0.56379067  0.03023657  0.50221981  1.0
  H  H16  1  0.53029516  0.03683632  0.40580154  1.0
  H  H17  1  0.75890831  0.71582961  0.35994876  1.0
  H  H18  1  0.65459362  0.19067912  0.58997428  1.0
  H  H19  1  0.62208510  0.20071971  0.49625512  1.0
  H  H20  1  0.46382170  0.13058301  0.46153650  1.0
  H  H21  1  0.53100528  0.22429929  0.56525748  1.0
  H  H22  1  0.49577188  0.11961953  0.55534776  1.0
  H  H23  1  0.89138687  0.90036049  0.69607982  1.0
  H  H24  1  0.95513009  0.91167646  0.64415223  1.0
  H  H25  1  0.87388021  0.75424032  0.66666667  1.0
  H  H26  1  0.93148761  0.76025248  0.60880463  1.0
  H  H27  1  0.06786025  0.88753349  0.74390368  1.0
  H  H28  1  0.36080842  0.07650128  0.80486935  1.0
  H  H29  1  0.03006739  0.79726318  0.76003756  1.0
  H  H30  1  0.01009637  0.88361943  0.80237006  1.0
  H  H31  1  0.15096649  0.00624634  0.88945946  1.0
  H  H32  1  0.19783039  0.12088380  0.95656544  1.0
  H  H33  1  0.21840276  0.05597568  0.00373931  1.0
  H  H34  1  0.09728729  0.18663259  0.43214859  1.0
  H  H35  1  0.00246752  0.18186313  0.36048835  1.0
  H  H36  1  0.13888555  0.14940334  0.31840631  1.0
  H  H37  1  0.04084484  0.13414556  0.24222838  1.0
  H  H38  1  0.08724707  0.29197652  0.32678069  1.0
  H  H39  1  0.19134467  0.11908204  0.82946366  1.0
  H  H40  1  0.16468892  0.27907035  0.29597890  1.0
  H  H41  1  0.18773619  0.30993498  0.40305363  1.0
  H  H42  1  0.32548655  0.58217000  0.67950487  1.0
  H  H43  1  0.35107233  0.53219007  0.60049437  1.0
  H  H44  1  0.21389354  0.59112922  0.56422290  1.0
  H  H45  1  0.23549592  0.53071045  0.48807444  1.0
  H  H46  1  0.18838517  0.40791561  0.52314280  1.0
  H  H47  1  0.10253794  0.43032426  0.48269371  1.0
  H  H48  1  0.16249571  0.46869085  0.59489886  1.0
  H  H49  1  0.57164055  0.73995475  0.91146623  1.0
  H  H50  1  0.20404163  0.98208850  0.69725857  1.0
  H  H51  1  0.46736800  0.65086079  0.87422050  1.0
  H  H52  1  0.49695950  0.75926951  0.94540380  1.0
  H  H53  1  0.02033874  0.87302540  0.14682674  1.0
  H  H54  1  0.90455298  0.83168684  0.10000856  1.0
  H  H55  1  0.03380405  0.90461136  0.29032341  1.0
  H  H56  1  0.92015294  0.86876334  0.24720652  1.0
  H  H57  1  0.88507043  0.71775397  0.15038575  1.0
  H  H58  1  0.95104621  0.75126561  0.26014016  1.0
  H  H59  1  0.99886127  0.75241733  0.19320416  1.0
  H  H60  1  0.95430421  0.91996235  0.03219137  1.0
  H  H61  1  0.40155288  0.22297289  0.49683538  1.0
  H  H62  1  0.93980379  0.01202536  0.04353373  1.0
  H  H63  1  0.87636174  0.91502357  0.94072979  1.0
  H  H64  1  0.68302400  0.99912952  0.94790893  1.0
  H  H65  1  0.75914288  0.96095872  0.94770687  1.0
  H  H66  1  0.79999627  0.13015216  0.09172897  1.0
  H  H67  1  0.87664417  0.09486964  0.08917813  1.0
  H  H68  1  0.85681374  0.10246442  0.95281579  1.0
  H  H69  1  0.89301230  0.20418923  0.03938789  1.0
  H  H70  1  0.78152231  0.14030866  0.95684358  1.0
  H  H71  1  0.72688183  0.88718251  0.42187130  1.0
  H  H72  1  0.27818206  0.29803292  0.50586566  1.0
  H  H73  1  0.64686577  0.92168172  0.40952846  1.0
  H  H74  1  0.79566789  0.96792389  0.57972498  1.0
  H  H75  1  0.72432458  0.01248871  0.57166824  1.0
  H  H76  1  0.59417178  0.86179326  0.49622012  1.0
  H  H77  1  0.67159645  0.88683326  0.59884588  1.0
  H  H78  1  0.66582544  0.81741462  0.50499775  1.0
  H  H79  1  0.53545560  0.55505218  0.20592493  1.0
  H  H80  1  0.64967146  0.61837803  0.24858134  1.0
  H  H81  1  0.52789564  0.68859515  0.27742233  1.0
  H  H82  1  0.64100172  0.75324677  0.31806345  1.0
  H  H83  1  0.25731301  0.08316836  0.43351704  1.0
  H  H84  1  0.61684580  0.70111014  0.16609791  1.0
  H  H85  1  0.55375722  0.75138198  0.18273617  1.0
  H  H86  1  0.50275232  0.63664063  0.12471985  1.0
  H  H87  1  0.23941440  0.21557452  0.56479931  1.0
  C  C88  1  0.88736471  0.86432974  0.48581353  1.0
  C  C89  1  0.73886810  0.04318311  0.40276586  1.0
  C  C90  1  0.67973076  0.65705285  0.41043415  1.0
  C  C91  1  0.89918018  0.03250370  0.40900342  1.0
  C  C92  1  0.68465191  0.64393818  0.47864580  1.0
  C  C93  1  0.75501747  0.72282083  0.41781905  1.0
  C  C94  1  0.82082013  0.79742225  0.49117587  1.0
  C  C95  1  0.28624493  0.07319990  0.86838892  1.0
  C  C96  1  0.35191500  0.06628802  0.85548518  1.0
  C  C97  1  0.21699134  0.07717134  0.80646490  1.0
  C  C98  1  0.18233951  0.02759975  0.72115039  1.0
  C  C99  1  0.84676033  0.02304925  0.26417011  1.0
  C  C100  1  0.34383609  0.22481843  0.49807285  1.0
  C  C101  1  0.33905666  0.29814337  0.51337044  1.0
  C  C102  1  0.27140390  0.14657645  0.47877886  1.0
  C  C103  1  0.14119336  0.08240851  0.49825569  1.0
  C  C104  1  0.22176265  0.15225434  0.51622922  1.0
  C  C105  1  0.45430404  0.06712174  0.11536500  1.0
  C  C106  1  0.64500271  0.02541979  0.12009319  1.0
  C  C107  1  0.48920029  0.87273992  0.88707475  1.0
  C  C108  1  0.41610121  0.05043796  0.90969955  1.0
  C  C109  1  0.42875240  0.35747400  0.34302845  1.0
  C  C110  1  0.71453115  0.03010268  0.19393028  1.0
  C  C111  1  0.61566016  0.58576848  0.48450222  1.0
  C  C112  1  0.46826418  0.61438536  0.58254913  1.0
  C  C113  1  0.40553718  0.37789477  0.52609371  1.0
  C  C114  1  0.49278637  0.27414533  0.28815323  1.0
  C  C115  1  0.11303847  0.02646069  0.65276837  1.0
  C  C116  1  0.42197681  0.28495117  0.27397886  1.0
  C  C117  1  0.49919568  0.20947357  0.22707880  1.0
  C  C118  1  0.43837486  0.12501403  0.17515079  1.0
  C  C119  1  0.53437447  0.75855967  0.71074365  1.0
  C  C120  1  0.46309168  0.68040002  0.64898759  1.0
  C  C121  1  0.71000816  0.05404527  0.27077012  1.0
  C  C122  1  0.53278794  0.82292300  0.77739520  1.0
  C  C123  1  0.49674600  0.80564326  0.82561651  1.0
  C  C124  1  0.92275358  0.02175865  0.26199730  1.0
  C  C125  1  0.91765342  0.97855665  0.18384615  1.0
  C  C126  1  0.84348188  0.95126819  0.10500386  1.0
  C  C127  1  0.77882551  0.97212463  0.10740792  1.0
  C  C128  1  0.77784038  0.00737860  0.18661656  1.0
  C  C129  1  0.58349746  0.06963646  0.47285148  1.0
  C  C130  1  0.60021272  0.16065530  0.52424964  1.0
  C  C131  1  0.51823852  0.15872835  0.52678051  1.0
  C  C132  1  0.76454451  0.04576142  0.33954319  1.0
  C  C133  1  0.90304114  0.86438756  0.64616797  1.0
  C  C134  1  0.92693771  0.79921148  0.66347818  1.0
  C  C135  1  0.01357399  0.84440305  0.74702534  1.0
  C  C136  1  0.20842726  0.06483685  0.94735274  1.0
  C  C137  1  0.04831034  0.15598225  0.36397296  1.0
  C  C138  1  0.09118659  0.17285927  0.31083123  1.0
  C  C139  1  0.13494922  0.26854147  0.33562449  1.0
  C  C140  1  0.32499624  0.57578270  0.61927416  1.0
  C  C141  1  0.23353297  0.54125327  0.54804884  1.0
  C  C142  1  0.16813970  0.45753038  0.53657952  1.0
  C  C143  1  0.83668639  0.03641002  0.33770517  1.0
  C  C144  1  0.50213318  0.71917052  0.89201842  1.0
  C  C145  1  0.96814387  0.87759495  0.15993551  1.0
  C  C146  1  0.96939799  0.85795481  0.23225613  1.0
  C  C147  1  0.95009863  0.76485656  0.20759713  1.0
  C  C148  1  0.90626585  0.94082375  0.01069767  1.0
  C  C149  1  0.74234811  0.00114518  0.98919317  1.0
  C  C150  1  0.81769370  0.09396054  0.04816914  1.0
  C  C151  1  0.83831378  0.13748729  0.99642044  1.0
  C  C152  1  0.71461447  0.93975512  0.45209889  1.0
  C  C153  1  0.72886928  0.95452082  0.54070097  1.0
  C  C154  1  0.64790206  0.07976367  0.27952026  1.0
  C  C155  1  0.66145969  0.87582008  0.53465542  1.0
  C  C156  1  0.59439007  0.61572471  0.25959893  1.0
  C  C157  1  0.58189904  0.69298526  0.26381506  1.0
  C  C158  1  0.56272675  0.69564204  0.17974666  1.0
  C  C159  1  0.63370422  0.08916364  0.34796620  1.0
  C  C160  1  0.67685300  0.06772513  0.40860094  1.0
  O  O161  1  0.90968865  0.94244332  0.53279124  1.0
  O  O162  1  0.48947014  0.39051255  0.41934153  1.0
  O  O163  1  0.53509528  0.56137144  0.43774829  1.0
  O  O164  1  0.91504768  0.83745054  0.43424823  1.0
  O  O165  1  0.64380971  0.56442266  0.54333707  1.0
  O  O166  1  0.40937455  0.58039539  0.50350053  1.0
  O  O167  1  0.52826369  0.59584299  0.60895784  1.0
  O  O168  1  0.37608642  0.41606123  0.48959591  1.0
  O  O169  1  0.48784335  0.40370105  0.57111736  1.0
  O  O170  1  0.93794556  0.09480104  0.48658380  1.0
  O  O171  1  0.90932795  0.96596651  0.38796621  1.0
  O  O172  1  0.51664411  0.10020605  0.10212744  1.0
  O  O173  1  0.10406043  0.10842924  0.53842950  1.0
  O  O174  1  0.11123248  0.00227436  0.44498877  1.0
  O  O175  1  0.08439073  0.08006898  0.67343924  1.0
  O  O176  1  0.08560502  0.97041192  0.57638734  1.0
  O  O177  1  0.40314341  0.98437662  0.07951665  1.0
  O  O178  1  0.66107464  0.06854444  0.47450326  1.0
  O  O179  1  0.82061600  0.82074334  0.56687372  1.0
  O  O180  1  0.28713438  0.07960642  0.94278120  1.0
  O  O181  1  0.00120928  0.06437691  0.33757917  1.0
  O  O182  1  0.38220631  0.66206339  0.63857620  1.0
  O  O183  1  0.56751140  0.96437146  0.08405835  1.0
  O  O184  1  0.46048798  0.72410243  0.81556875  1.0
  O  O185  1  0.98596827  0.96573255  0.18163871  1.0
  O  O186  1  0.83470250  0.90657665  0.02593363  1.0
  O  O187  1  0.71390760  0.95936241  0.03521213  1.0
  O  O188  1  0.77551064  0.01652376  0.45771094  1.0
  O  O189  1  0.60393265  0.60477182  0.33371138  1.0
  O  O190  1  0.66758165  0.08801534  0.10305413  1.0
  O  O191  1  0.43285532  0.84335824  0.91008696  1.0
  O  O192  1  0.53589784  0.95237037  0.91190302  1.0
  O  O193  1  0.38798526  0.98728747  0.92284371  1.0
  O  O194  1  0.49826010  0.10132626  0.93871174  1.0
  O  O195  1  0.37311410  0.38434544  0.32145569  1.0
