# generated using pymatgen
data_Zn2H29C33N3O10
_symmetry_space_group_name_H-M   'P 1'
_cell_length_a   9.71057028
_cell_length_b   11.03602467
_cell_length_c   16.09581460
_cell_angle_alpha   89.84720651
_cell_angle_beta   89.83642992
_cell_angle_gamma   89.74681159
_symmetry_Int_Tables_number   1
_chemical_formula_structural   Zn2H29C33N3O10
_chemical_formula_sum   'Zn2 H29 C33 N3 O10'
_cell_volume   1724.89562081
_cell_formula_units_Z   1
loop_
 _symmetry_equiv_pos_site_id
 _symmetry_equiv_pos_as_xyz
  1  'x, y, z'
loop_
 _atom_site_type_symbol
 _atom_site_label
 _atom_site_symmetry_multiplicity
 _atom_site_fract_x
 _atom_site_fract_y
 _atom_site_fract_z
 _atom_site_occupancy
  Zn  Zn0  1  0.63618681  0.50849099  0.49851063  1.0
  Zn  Zn1  1  0.35280832  0.50901552  0.50564979  1.0
  H  H2  1  0.66435298  0.63058895  0.93036389  1.0
  H  H3  1  0.28415181  0.51598437  0.06874227  1.0
  H  H4  1  0.38143333  0.64852847  0.07824529  1.0
  H  H5  1  0.40635640  0.66406892  0.93382055  1.0
  H  H6  1  0.29336055  0.54011862  0.92388553  1.0
  H  H7  1  0.56904293  0.30094670  0.92599795  1.0
  H  H8  1  0.72632146  0.48981590  0.07758003  1.0
  H  H9  1  0.73124673  0.48115182  0.93488692  1.0
  H  H10  1  0.38876498  0.32649809  0.93014565  1.0
  H  H11  1  0.28111925  0.89932231  0.55250628  1.0
  H  H12  1  0.28646912  0.12465755  0.55422854  1.0
  H  H13  1  0.75990156  0.11363182  0.38818350  1.0
  H  H14  1  0.75957771  0.88898154  0.39035828  1.0
  H  H15  1  0.82487655  0.88822266  0.49419109  1.0
  H  H16  1  0.11901291  0.43690222  0.62294345  1.0
  H  H17  1  0.85852037  0.43907306  0.61904071  1.0
  H  H18  1  0.87323105  0.54378317  0.30351192  1.0
  H  H19  1  0.87195202  0.69224330  0.34687962  1.0
  H  H20  1  0.13609319  0.54219314  0.30831408  1.0
  H  H21  1  0.13340484  0.69095233  0.35158127  1.0
  H  H22  1  0.96828613  0.11780176  0.47996064  1.0
  H  H23  1  0.84674224  0.23129400  0.51049863  1.0
  H  H24  1  0.86196475  0.09501103  0.56905051  1.0
  H  H25  1  0.76216351  0.70744210  0.06583323  1.0
  H  H26  1  0.58332042  0.73670395  0.05898246  1.0
  H  H27  1  0.65390107  0.67730388  0.15281920  1.0
  H  H28  1  0.37237988  0.18906897  0.05974703  1.0
  H  H29  1  0.37202766  0.28042037  0.15115509  1.0
  H  H30  1  0.27386992  0.32441314  0.06223550  1.0
  C  C31  1  0.48678499  0.74350608  0.50467970  1.0
  C  C32  1  0.49439052  0.50440895  0.33877371  1.0
  C  C33  1  0.49216229  0.27412807  0.50520836  1.0
  C  C34  1  0.50425535  0.50286319  0.66523759  1.0
  C  C35  1  0.64134199  0.54469560  0.05239380  1.0
  C  C36  1  0.38029192  0.55908409  0.04870160  1.0
  C  C37  1  0.38936148  0.56979331  0.95335079  1.0
  C  C38  1  0.50902920  0.49666489  0.75496725  1.0
  C  C39  1  0.50435417  0.48544241  0.08373012  1.0
  C  C40  1  0.64650578  0.53958855  0.95609340  1.0
  C  C41  1  0.50983349  0.49080538  0.92058955  1.0
  C  C42  1  0.48871958  0.35970466  0.95210739  1.0
  C  C43  1  0.49222841  0.35278716  0.04771329  1.0
  C  C44  1  0.51152643  0.49270000  0.83039562  1.0
  C  C45  1  0.49776358  0.48662579  0.17383951  1.0
  C  C46  1  0.49268972  0.49541423  0.24902110  1.0
  C  C47  1  0.60582501  0.94380454  0.48523024  1.0
  C  C48  1  0.48941813  0.87826551  0.50792965  1.0
  C  C49  1  0.37401901  0.94710423  0.53327715  1.0
  C  C50  1  0.37688303  0.07349874  0.53414304  1.0
  C  C51  1  0.49418718  0.13921503  0.50860735  1.0
  C  C52  1  0.60847255  0.07023908  0.48504069  1.0
  C  C53  1  0.75546746  0.07552807  0.45144098  1.0
  C  C54  1  0.75106315  0.93180918  0.45180315  1.0
  C  C55  1  0.06943392  0.54813028  0.43912214  1.0
  C  C56  1  0.06334679  0.46914110  0.56846896  1.0
  C  C57  1  0.91984018  0.46995710  0.56634361  1.0
  C  C58  1  0.92588131  0.54868685  0.43676403  1.0
  C  C59  1  0.92041223  0.60236149  0.35031049  1.0
  C  C60  1  0.08420069  0.60163442  0.35315729  1.0
  C  C61  1  0.86475645  0.13334766  0.50588285  1.0
  C  C62  1  0.66037823  0.67379067  0.08472790  1.0
  C  C63  1  0.37039821  0.28247776  0.08316670  1.0
  N  N64  1  0.14142726  0.50882919  0.50382222  1.0
  N  N65  1  0.84787267  0.51020074  0.49924717  1.0
  N  N66  1  0.62501460  0.28356199  0.07651046  1.0
  O  O67  1  0.60258874  0.68962096  0.51208761  1.0
  O  O68  1  0.37065209  0.69231923  0.49418355  1.0
  O  O69  1  0.61073905  0.52827318  0.37104278  1.0
  O  O70  1  0.38090437  0.48804999  0.37688411  1.0
  O  O71  1  0.60449264  0.32662295  0.48539763  1.0
  O  O72  1  0.37847558  0.32745064  0.52144038  1.0
  O  O73  1  0.61730107  0.48466707  0.62667133  1.0
  O  O74  1  0.38741427  0.52609654  0.63302281  1.0
  O  O75  1  0.72320360  0.27451082  0.02756574  1.0
  O  O76  1  0.62512898  0.24480427  0.14849487  1.0
