# generated using pymatgen
data_Hf3H8C20(N3O8)2
_symmetry_space_group_name_H-M   'P 1'
_cell_length_a   16.44567833
_cell_length_b   17.11710639
_cell_length_c   17.14095873
_cell_angle_alpha   71.30564834
_cell_angle_beta   89.97523177
_cell_angle_gamma   89.80679083
_symmetry_Int_Tables_number   1
_chemical_formula_structural   Hf3H8C20(N3O8)2
_chemical_formula_sum   'Hf6 H16 C40 N12 O32'
_cell_volume   4570.62478820
_cell_formula_units_Z   2
loop_
 _symmetry_equiv_pos_site_id
 _symmetry_equiv_pos_as_xyz
  1  'x, y, z'
loop_
 _atom_site_type_symbol
 _atom_site_label
 _atom_site_symmetry_multiplicity
 _atom_site_fract_x
 _atom_site_fract_y
 _atom_site_fract_z
 _atom_site_occupancy
  Hf  Hf0  1  0.10261053  0.90013749  0.10578390  1.0
  Hf  Hf1  1  0.88813841  0.90841386  0.09842268  1.0
  Hf  Hf2  1  0.11212171  0.07676231  0.92997773  1.0
  Hf  Hf3  1  0.89817411  0.08409240  0.92142717  1.0
  Hf  Hf4  1  0.00062275  0.90269365  0.92550515  1.0
  Hf  Hf5  1  0.99984714  0.08135738  0.10293724  1.0
  H  H6  1  0.99910633  0.92064774  0.22415202  1.0
  H  H7  1  0.82899104  0.92790331  0.94054991  1.0
  H  H8  1  0.00228179  0.20352551  0.94054428  1.0
  H  H9  1  0.17315205  0.91910843  0.94903245  1.0
  H  H10  1  0.72500742  0.89315721  0.07572026  1.0
  H  H11  1  0.75763031  0.00852527  0.00105094  1.0
  H  H12  1  0.90213175  0.19308587  0.77022079  1.0
  H  H13  1  0.01725742  0.19088685  0.81337947  1.0
  H  H14  1  0.27033484  0.09432273  0.95400585  1.0
  H  H15  1  0.24280367  0.97875907  0.02908577  1.0
  H  H16  1  0.09630794  0.74860298  0.21354188  1.0
  H  H17  1  0.98363932  0.79188671  0.21276457  1.0
  H  H18  1  0.10269293  0.17443329  0.77038717  1.0
  H  H19  1  0.26034648  0.93701352  0.12867855  1.0
  H  H20  1  0.89494957  0.79508200  0.25843860  1.0
  H  H21  1  0.74054928  0.10809741  0.95802143  1.0
  C  C22  1  0.12745702  0.75980988  0.01835751  1.0
  C  C23  1  0.86125485  0.99881394  0.23636797  1.0
  C  C24  1  0.86628597  0.76718827  0.01015382  1.0
  C  C25  1  0.13730965  0.00022904  0.23705761  1.0
  C  C26  1  0.14145479  0.21153714  0.02334434  1.0
  C  C27  1  0.87400517  0.99470211  0.78226217  1.0
  C  C28  1  0.86322698  0.21593828  0.02159681  1.0
  C  C29  1  0.13197776  0.98803573  0.78664935  1.0
  C  C30  1  0.25953470  0.99731140  0.44551037  1.0
  C  C31  1  0.37706617  0.99231291  0.51541200  1.0
  C  C32  1  0.25645134  0.98971247  0.57962203  1.0
  C  C33  1  0.74172952  0.99678838  0.44598530  1.0
  C  C34  1  0.74522278  0.99295055  0.57898834  1.0
  C  C35  1  0.62444489  0.99310002  0.51595420  1.0
  C  C36  1  0.25975533  0.42064176  0.02445628  1.0
  C  C37  1  0.25490889  0.55369258  0.02096020  1.0
  C  C38  1  0.37633641  0.49067077  0.02321162  1.0
  C  C39  1  0.74160414  0.42350078  0.02454744  1.0
  C  C40  1  0.74371689  0.55766448  0.01745783  1.0
  C  C41  1  0.62360111  0.49224631  0.02271824  1.0
  C  C42  1  0.46302928  0.49271267  0.02347182  1.0
  C  C43  1  0.53686925  0.49312201  0.02343060  1.0
  C  C44  1  0.53768118  0.99222372  0.51762660  1.0
  C  C45  1  0.46382841  0.99197324  0.51709302  1.0
  C  C46  1  0.83013902  0.99355879  0.70955197  1.0
  C  C47  1  0.79079573  0.99266046  0.64983737  1.0
  C  C48  1  0.78317348  0.99893371  0.37226784  1.0
  C  C49  1  0.81842241  0.00002939  0.30960759  1.0
  C  C50  1  0.17402668  0.98735447  0.71270924  1.0
  C  C51  1  0.21157821  0.98754614  0.65153976  1.0
  C  C52  1  0.21768599  0.00075021  0.37159567  1.0
  C  C53  1  0.18163081  0.00222455  0.30924935  1.0
  C  C54  1  0.81900789  0.28791300  0.02499609  1.0
  C  C55  1  0.78362347  0.35006608  0.02590427  1.0
  C  C56  1  0.82477015  0.69245909  0.01134383  1.0
  C  C57  1  0.78794169  0.63031949  0.01365523  1.0
  C  C58  1  0.21917518  0.34688269  0.02537386  1.0
  C  C59  1  0.18475646  0.28421302  0.02528150  1.0
  C  C60  1  0.17035002  0.68579364  0.01892827  1.0
  C  C61  1  0.20903463  0.62498642  0.01950783  1.0
  N  N62  1  0.34146746  0.99698180  0.44319481  1.0
  N  N63  1  0.33822296  0.98823557  0.58585005  1.0
  N  N64  1  0.21339124  0.99403243  0.51149298  1.0
  N  N65  1  0.78806519  0.99550653  0.51119992  1.0
  N  N66  1  0.66347020  0.99142191  0.58562150  1.0
  N  N67  1  0.65982577  0.99577423  0.44419096  1.0
  N  N68  1  0.21273860  0.48584591  0.02257743  1.0
  N  N69  1  0.33660878  0.56030877  0.02107980  1.0
  N  N70  1  0.34169157  0.41885167  0.02498328  1.0
  N  N71  1  0.78726144  0.48993578  0.02044842  1.0
  N  N72  1  0.66187625  0.56307609  0.01809189  1.0
  N  N73  1  0.65971227  0.42035352  0.02633165  1.0
  O  O74  1  0.14338950  0.78685340  0.07781348  1.0
  O  O75  1  0.07931539  0.79115303  0.95831063  1.0
  O  O76  1  0.84439598  0.93909659  0.21001377  1.0
  O  O77  1  0.91231392  0.05640920  0.20661582  1.0
  O  O78  1  0.84603995  0.79722591  0.06630343  1.0
  O  O79  1  0.91781256  0.79602783  0.95258048  1.0
  O  O80  1  0.15774868  0.94361575  0.20744736  1.0
  O  O81  1  0.08149659  0.05410243  0.21125623  1.0
  O  O82  1  0.07081492  0.80070061  0.21091080  1.0
  O  O83  1  0.23579411  0.92531767  0.08191129  1.0
  O  O84  1  0.91860388  0.79657706  0.20599578  1.0
  O  O85  1  0.76447911  0.93585639  0.07323920  1.0
  O  O86  1  0.99675520  0.88082276  0.05002815  1.0
  O  O87  1  0.99848077  0.94259712  0.16447171  1.0
  O  O88  1  0.16153389  0.18221394  0.96646782  1.0
  O  O89  1  0.08683586  0.18497484  0.07796709  1.0
  O  O90  1  0.85808186  0.05496744  0.80826049  1.0
  O  O91  1  0.92295523  0.93507490  0.81344096  1.0
  O  O92  1  0.84313474  0.18689149  0.96470740  1.0
  O  O93  1  0.91903907  0.18963823  0.07523776  1.0
  O  O94  1  0.14766729  0.04838355  0.81232203  1.0
  O  O95  1  0.08438837  0.92786412  0.81925132  1.0
  O  O96  1  0.08188131  0.18516098  0.81923545  1.0
  O  O97  1  0.23590488  0.04866292  0.95292549  1.0
  O  O98  1  0.92877052  0.18883598  0.82200803  1.0
  O  O99  1  0.76503451  0.06083883  0.94686762  1.0
  O  O100  1  0.00335543  0.14367400  0.96239104  1.0
  O  O101  1  0.00373717  0.02690966  0.90402624  1.0
  O  O102  1  0.08827961  0.02784103  0.05348000  1.0
  O  O103  1  0.87866056  0.94686168  0.95908463  1.0
  O  O104  1  0.12365893  0.93858299  0.96781598  1.0
  O  O105  1  0.91061562  0.03211672  0.04980106  1.0
