# generated using pymatgen
data_Zn4H30(C2O)17
_symmetry_space_group_name_H-M   'P 1'
_cell_length_a   17.92692843
_cell_length_b   18.52557523
_cell_length_c   19.70049086
_cell_angle_alpha   63.39632626
_cell_angle_beta   63.06772150
_cell_angle_gamma   89.91549976
_symmetry_Int_Tables_number   1
_chemical_formula_structural   Zn4H30(C2O)17
_chemical_formula_sum   'Zn8 H60 C68 O34'
_cell_volume   5046.36075068
_cell_formula_units_Z   2
loop_
 _symmetry_equiv_pos_site_id
 _symmetry_equiv_pos_as_xyz
  1  'x, y, z'
loop_
 _atom_site_type_symbol
 _atom_site_label
 _atom_site_symmetry_multiplicity
 _atom_site_fract_x
 _atom_site_fract_y
 _atom_site_fract_z
 _atom_site_occupancy
  Zn  Zn0  1  0.94408099  0.53267467  0.92609998  1.0
  Zn  Zn1  1  0.96871235  0.38239980  0.06931667  1.0
  Zn  Zn2  1  0.96750385  0.55912997  0.06159503  1.0
  Zn  Zn3  1  0.13239754  0.54455660  0.91299803  1.0
  Zn  Zn4  1  0.56109617  0.96955651  0.06003327  1.0
  Zn  Zn5  1  0.53489555  0.95139313  0.92127594  1.0
  Zn  Zn6  1  0.54541689  0.12713947  0.91457094  1.0
  Zn  Zn7  1  0.37519847  0.97074086  0.06919927  1.0
  H  H8  1  0.22023637  0.82934464  0.35107430  1.0
  H  H9  1  0.47368420  0.84415918  0.31886103  1.0
  H  H10  1  0.28063855  0.68637478  0.63387588  1.0
  H  H11  1  0.02708664  0.67308839  0.66641875  1.0
  H  H12  1  0.68336820  0.27641388  0.63873278  1.0
  H  H13  1  0.67445608  0.03639755  0.65841793  1.0
  H  H14  1  0.82861094  0.23276718  0.34520451  1.0
  H  H15  1  0.83203730  0.47250802  0.32591535  1.0
  H  H16  1  0.89880347  0.80160891  0.88180208  1.0
  H  H17  1  0.88268899  0.78670572  0.98313893  1.0
  H  H18  1  0.79514491  0.88052986  0.97882919  1.0
  H  H19  1  0.80979272  0.89294469  0.87877954  1.0
  H  H20  1  0.67369524  0.76654416  0.12381810  1.0
  H  H21  1  0.59995696  0.70014208  0.12708784  1.0
  H  H22  1  0.76028336  0.67171919  0.12674504  1.0
  H  H23  1  0.68731928  0.60724590  0.12720833  1.0
  H  H24  1  0.79484395  0.70756579  0.88208281  1.0
  H  H25  1  0.70967601  0.62729249  0.98213095  1.0
  H  H26  1  0.61955172  0.71854739  0.98309356  1.0
  H  H27  1  0.70422538  0.79809095  0.88200874  1.0
  H  H28  1  0.21505419  0.30750924  0.87873032  1.0
  H  H29  1  0.13062953  0.22906423  0.98296327  1.0
  H  H30  1  0.21995517  0.13714437  0.98276755  1.0
  H  H31  1  0.30429933  0.21648695  0.87914359  1.0
  H  H32  1  0.20415590  0.12165474  0.12217095  1.0
  H  H33  1  0.27809326  0.18783978  0.11875305  1.0
  H  H34  1  0.11650800  0.21533076  0.12197400  1.0
  H  H35  1  0.19220175  0.28218000  0.11594895  1.0
  H  H36  1  0.32268088  0.40515214  0.86952995  1.0
  H  H37  1  0.31311986  0.39623001  0.96587867  1.0
  H  H38  1  0.40079488  0.30274950  0.96916405  1.0
  H  H39  1  0.41159705  0.31311742  0.87191397  1.0
  H  H40  1  0.90821178  0.27442673  0.91528963  1.0
  H  H41  1  0.87186936  0.35903771  0.86173469  1.0
  H  H42  1  0.78587411  0.26906237  0.85667505  1.0
  H  H43  1  0.82203221  0.18470905  0.91111441  1.0
  H  H44  1  0.65465050  0.30545876  0.94344102  1.0
  H  H45  1  0.59577347  0.24643632  0.05953816  1.0
  H  H46  1  0.73965629  0.39466717  0.95062808  1.0
  H  H47  1  0.68163983  0.33367626  0.06665059  1.0
  H  H48  1  0.82570150  0.18821195  0.08286044  1.0
  H  H49  1  0.73366566  0.21300849  0.14423597  1.0
  H  H50  1  0.64671316  0.12389460  0.13937093  1.0
  H  H51  1  0.73862930  0.09878665  0.07842933  1.0
  H  H52  1  0.17887606  0.81065772  0.90837984  1.0
  H  H53  1  0.27396960  0.78458657  0.85197905  1.0
  H  H54  1  0.35385301  0.88109905  0.85536024  1.0
  H  H55  1  0.25774715  0.90241791  0.91708327  1.0
  H  H56  1  0.40648779  0.76206713  0.93262682  1.0
  H  H57  1  0.35225912  0.70367686  0.04864615  1.0
  H  H58  1  0.32091882  0.66533514  0.93422703  1.0
  H  H59  1  0.26426671  0.60979990  0.05043951  1.0
  H  H60  1  0.09542222  0.73149414  0.07626075  1.0
  H  H61  1  0.12700506  0.64693166  0.13490939  1.0
  H  H62  1  0.21617742  0.73596902  0.13784927  1.0
  H  H63  1  0.17938307  0.81944112  0.08499995  1.0
  H  H64  1  0.12661010  0.70379286  0.42826355  1.0
  H  H65  1  0.37693932  0.64085109  0.55158589  1.0
  H  H66  1  0.81241162  0.37224671  0.55795226  1.0
  H  H67  1  0.87963837  0.13878771  0.42027405  1.0
  C  C68  1  0.85768942  0.35929786  0.00237575  1.0
  C  C69  1  0.88508449  0.39664228  0.22901038  1.0
  C  C70  1  0.85402279  0.63698184  0.99785222  1.0
  C  C71  1  0.14841318  0.64361846  0.98982947  1.0
  C  C72  1  0.11136563  0.62433057  0.75673034  1.0
  C  C73  1  0.14945432  0.36986357  0.98859772  1.0
  C  C74  1  0.63876866  0.85944901  0.99482480  1.0
  C  C75  1  0.62805244  0.11260815  0.75499692  1.0
  C  C76  1  0.64687973  0.14213239  0.99245814  1.0
  C  C77  1  0.36549374  0.14627671  0.99090104  1.0
  C  C78  1  0.39035953  0.88875604  0.22808509  1.0
  C  C79  1  0.35705396  0.86830317  0.99432799  1.0
  C  C80  1  0.26055837  0.81193953  0.38096873  1.0
  C  C81  1  0.40396964  0.82096008  0.36275359  1.0
  C  C82  1  0.36998982  0.77417391  0.45254951  1.0
  C  C83  1  0.27824394  0.74461465  0.51103741  1.0
  C  C84  1  0.24032951  0.69991363  0.60385726  1.0
  C  C85  1  0.09688212  0.69290572  0.62236719  1.0
  C  C86  1  0.13091107  0.73570400  0.53240323  1.0
  C  C87  1  0.22269931  0.76374648  0.47369945  1.0
  C  C88  1  0.34947162  0.83946443  0.32640978  1.0
  C  C89  1  0.15145620  0.67391360  0.65856794  1.0
  C  C90  1  0.70204111  0.24005118  0.60558989  1.0
  C  C91  1  0.69638375  0.10400845  0.61687218  1.0
  C  C92  1  0.74209957  0.14013779  0.52643863  1.0
  C  C93  1  0.76945014  0.22911416  0.47145194  1.0
  C  C94  1  0.81334782  0.26906754  0.37843485  1.0
  C  C95  1  0.81489321  0.40496761  0.36733830  1.0
  C  C96  1  0.77332068  0.36873906  0.45767997  1.0
  C  C97  1  0.74882365  0.27980934  0.51258475  1.0
  C  C98  1  0.67704650  0.15395553  0.65672129  1.0
  C  C99  1  0.83635856  0.35513463  0.32737503  1.0
  C  C100  1  0.84894473  0.78494016  0.94904043  1.0
  C  C101  1  0.79029195  0.84634900  0.94702824  1.0
  C  C102  1  0.69500037  0.79795351  0.99535161  1.0
  C  C103  1  0.66838383  0.73340250  0.09127453  1.0
  C  C104  1  0.72647463  0.67138368  0.09229225  1.0
  C  C105  1  0.79394666  0.69489075  0.99702532  1.0
  C  C106  1  0.74691015  0.69164140  0.94950154  1.0
  C  C107  1  0.68737926  0.75210029  0.94942894  1.0
  C  C108  1  0.19886326  0.26285469  0.94645692  1.0
  C  C109  1  0.25815397  0.20177188  0.94675472  1.0
  C  C110  1  0.30900330  0.20797307  0.99069360  1.0
  C  C111  1  0.24302790  0.18600068  0.08571520  1.0
  C  C112  1  0.18505255  0.24815371  0.08472651  1.0
  C  C113  1  0.20987749  0.31177098  0.98917496  1.0
  C  C114  1  0.30511948  0.35970090  0.93733831  1.0
  C  C115  1  0.36368267  0.29815673  0.93895269  1.0
  C  C116  1  0.85001833  0.29557976  0.91807235  1.0
  C  C117  1  0.79275161  0.23598265  0.91495298  1.0
  C  C118  1  0.70185741  0.19904978  0.99847721  1.0
  C  C119  1  0.66140254  0.27193497  0.00169706  1.0
  C  C120  1  0.71836521  0.33075617  0.00596324  1.0
  C  C121  1  0.79859488  0.29889196  0.00402447  1.0
  C  C122  1  0.76886392  0.21058872  0.08318169  1.0
  C  C123  1  0.71123708  0.15140291  0.08003967  1.0
  C  C124  1  0.23536091  0.78952081  0.91105082  1.0
  C  C125  1  0.28921543  0.85195357  0.91441397  1.0
  C  C126  1  0.29901272  0.80636309  0.99659485  1.0
  C  C127  1  0.34223764  0.73502298  0.99212921  1.0
  C  C128  1  0.28498282  0.67209444  0.99244062  1.0
  C  C129  1  0.20434662  0.70206137  0.99353436  1.0
  C  C130  1  0.15223188  0.70939211  0.07631841  1.0
  C  C131  1  0.20913824  0.76898512  0.07960777  1.0
  C  C132  1  0.06648711  0.75101781  0.50161326  1.0
  C  C133  1  0.43448645  0.75836595  0.48329668  1.0
  C  C134  1  0.75479857  0.42716050  0.49373812  1.0
  C  C135  1  0.75831865  0.08126946  0.49085639  1.0
  O  O136  1  0.00596177  0.50400932  0.99130947  1.0
  O  O137  1  0.87837280  0.43592229  0.94361876  1.0
  O  O138  1  0.90861452  0.34995395  0.19534260  1.0
  O  O139  1  0.89406112  0.63331799  0.03850938  1.0
  O  O140  1  0.88361239  0.32964215  0.05761838  1.0
  O  O141  1  0.86122055  0.59713009  0.95755143  1.0
  O  O142  1  0.89929623  0.47578087  0.18777326  1.0
  O  O143  1  0.06731281  0.62350304  0.04316363  1.0
  O  O144  1  0.16202247  0.60701170  0.78776358  1.0
  O  O145  1  0.18593976  0.62021481  0.93328678  1.0
  O  O146  1  0.02900126  0.60346444  0.80023952  1.0
  O  O147  1  0.06888216  0.33503464  0.04317305  1.0
  O  O148  1  0.18303542  0.44766990  0.93351107  1.0
  O  O149  1  0.50189303  0.00569906  0.99230626  1.0
  O  O150  1  0.63811307  0.89914159  0.03393634  1.0
  O  O151  1  0.61245561  0.03331992  0.79636271  1.0
  O  O152  1  0.62577732  0.17682704  0.93349043  1.0
  O  O153  1  0.59682818  0.86759353  0.95518101  1.0
  O  O154  1  0.62678035  0.06407525  0.04593044  1.0
  O  O155  1  0.60668600  0.15955511  0.78859495  1.0
  O  O156  1  0.44660160  0.17680630  0.93768256  1.0
  O  O157  1  0.34086484  0.91082520  0.19606997  1.0
  O  O158  1  0.32693791  0.06872270  0.04364879  1.0
  O  O159  1  0.47240956  0.90346010  0.18537254  1.0
  O  O160  1  0.43544004  0.89597960  0.93115634  1.0
  O  O161  1  0.32442147  0.88848563  0.05386153  1.0
  O  O162  1  0.07719447  0.72836975  0.44104363  1.0
  O  O163  1  0.00564926  0.77881590  0.53000461  1.0
  O  O164  1  0.42505548  0.67724935  0.54097875  1.0
  O  O165  1  0.49416133  0.81290736  0.45727514  1.0
  O  O166  1  0.78270801  0.41707488  0.55096183  1.0
  O  O167  1  0.71982524  0.48254341  0.47262789  1.0
  O  O168  1  0.84195887  0.09305349  0.42974943  1.0
  O  O169  1  0.70193595  0.02423877  0.51563210  1.0
