# generated using pymatgen
data_ZnH4(C3O2)3
_symmetry_space_group_name_H-M   'P 1'
_cell_length_a   13.72958797
_cell_length_b   19.66463932
_cell_length_c   19.66460883
_cell_angle_alpha   89.99791951
_cell_angle_beta   89.99991554
_cell_angle_gamma   89.99998122
_symmetry_Int_Tables_number   1
_chemical_formula_structural   ZnH4(C3O2)3
_chemical_formula_sum   'Zn16 H64 C144 O96'
_cell_volume   5309.19651690
_cell_formula_units_Z   16
loop_
 _symmetry_equiv_pos_site_id
 _symmetry_equiv_pos_as_xyz
  1  'x, y, z'
loop_
 _atom_site_type_symbol
 _atom_site_label
 _atom_site_symmetry_multiplicity
 _atom_site_fract_x
 _atom_site_fract_y
 _atom_site_fract_z
 _atom_site_occupancy
  Zn  Zn0  1  0.37992983  0.98957840  0.46722785  1.0
  Zn  Zn1  1  0.87992533  0.01042469  0.53277121  1.0
  Zn  Zn2  1  0.12991889  0.03275753  0.48957836  1.0
  Zn  Zn3  1  0.62991836  0.96724664  0.51042247  1.0
  Zn  Zn4  1  0.37007843  0.51042451  0.96724345  1.0
  Zn  Zn5  1  0.87008131  0.48957554  0.03275918  1.0
  Zn  Zn6  1  0.62007281  0.46722979  0.98957559  1.0
  Zn  Zn7  1  0.12007412  0.53276980  0.01042475  1.0
  Zn  Zn8  1  0.00000010  0.48787550  0.48787829  1.0
  Zn  Zn9  1  0.49999759  0.51212564  0.51212166  1.0
  Zn  Zn10  1  0.74999451  0.01211798  0.98787971  1.0
  Zn  Zn11  1  0.25000216  0.98787955  0.01211846  1.0
  Zn  Zn12  1  0.25000251  0.53252401  0.46747624  1.0
  Zn  Zn13  1  0.74999999  0.46747708  0.53252193  1.0
  Zn  Zn14  1  0.00000433  0.03253141  0.03253146  1.0
  Zn  Zn15  1  0.49999846  0.96746770  0.96746799  1.0
  H  H16  1  0.58831153  0.91569616  0.15127365  1.0
  H  H17  1  0.65431703  0.90649527  0.26890490  1.0
  H  H18  1  0.40204134  0.67446006  0.40693132  1.0
  H  H19  1  0.40086932  0.66976417  0.49914529  1.0
  H  H20  1  0.28435414  0.06674607  0.31377452  1.0
  H  H21  1  0.96148847  0.73586369  0.48670317  1.0
  H  H22  1  0.03367036  0.85162172  0.49299916  1.0
  H  H23  1  0.53981054  0.50830338  0.82932965  1.0
  H  H24  1  0.08831273  0.08430344  0.84872316  1.0
  H  H25  1  0.15431629  0.09350330  0.73109133  1.0
  H  H26  1  0.90204239  0.32554049  0.59306772  1.0
  H  H27  1  0.90086838  0.33023841  0.50085324  1.0
  H  H28  1  0.78434889  0.93325552  0.68622208  1.0
  H  H29  1  0.46148666  0.26413735  0.51329681  1.0
  H  H30  1  0.53366949  0.14837739  0.50699873  1.0
  H  H31  1  0.03981080  0.49169674  0.17067078  1.0
  H  H32  1  0.33831990  0.34872396  0.41572106  1.0
  H  H33  1  0.40432338  0.23109267  0.40651271  1.0
  H  H34  1  0.15201528  0.09310099  0.17447462  1.0
  H  H35  1  0.15087398  0.00088682  0.16975919  1.0
  H  H36  1  0.03429828  0.18621941  0.56670912  1.0
  H  H37  1  0.71148505  0.01326260  0.23586831  1.0
  H  H38  1  0.78366481  0.00698679  0.35162914  1.0
  H  H39  1  0.28979513  0.67068692  0.00825379  1.0
  H  H40  1  0.83832009  0.65127915  0.58427549  1.0
  H  H41  1  0.90431985  0.76890991  0.59348683  1.0
  H  H42  1  0.65201848  0.90689910  0.82552416  1.0
  H  H43  1  0.65087203  0.99911225  0.83023857  1.0
  H  H44  1  0.53429944  0.81378223  0.43329080  1.0
  H  H45  1  0.21148674  0.98673697  0.76412990  1.0
  H  H46  1  0.28366674  0.99301531  0.64836950  1.0
  H  H47  1  0.78978878  0.32930958  0.99174739  1.0
  H  H48  1  0.16168138  0.58427754  0.65127508  1.0
  H  H49  1  0.09567854  0.59348636  0.76890658  1.0
  H  H50  1  0.34798307  0.82552419  0.90690041  1.0
  H  H51  1  0.34912722  0.83024012  0.99911370  1.0
  H  H52  1  0.46570056  0.43329136  0.81378230  1.0
  H  H53  1  0.78851334  0.76413077  0.98673812  1.0
  H  H54  1  0.71633202  0.64837212  0.99301448  1.0
  H  H55  1  0.21021039  0.99174674  0.32931058  1.0
  H  H56  1  0.66168145  0.41572204  0.34872419  1.0
  H  H57  1  0.59567886  0.40651222  0.23109327  1.0
  H  H58  1  0.84798379  0.17447281  0.09310224  1.0
  H  H59  1  0.84912886  0.16976044  0.00088895  1.0
  H  H60  1  0.96569944  0.56670815  0.18621870  1.0
  H  H61  1  0.28851332  0.23586828  0.01326102  1.0
  H  H62  1  0.21633197  0.35162898  0.00698678  1.0
  H  H63  1  0.71020560  0.00825741  0.67068763  1.0
  H  H64  1  0.41168652  0.15127672  0.91569692  1.0
  H  H65  1  0.34568306  0.26890783  0.90649657  1.0
  H  H66  1  0.59796033  0.40693184  0.67445830  1.0
  H  H67  1  0.59913223  0.49914567  0.66976291  1.0
  H  H68  1  0.71564624  0.31377614  0.06674736  1.0
  H  H69  1  0.03851228  0.48670189  0.73586340  1.0
  H  H70  1  0.96633024  0.49299779  0.85162153  1.0
  H  H71  1  0.46018861  0.82932909  0.50830349  1.0
  H  H72  1  0.91168840  0.84872280  0.08430006  1.0
  H  H73  1  0.84568425  0.73109272  0.09350150  1.0
  H  H74  1  0.09795730  0.59306674  0.32554053  1.0
  H  H75  1  0.09913361  0.50085342  0.33023694  1.0
  H  H76  1  0.21564772  0.68622293  0.93325491  1.0
  H  H77  1  0.53851176  0.51329619  0.26413601  1.0
  H  H78  1  0.46632836  0.50700070  0.14837795  1.0
  H  H79  1  0.96018922  0.17067195  0.49169599  1.0
  C  C80  1  0.56933474  0.94547683  0.38588394  1.0
  C  C81  1  0.22067524  0.88957578  0.48351586  1.0
  C  C82  1  0.41291008  0.95974452  0.10979284  1.0
  C  C83  1  0.39107608  0.96801186  0.23823309  1.0
  C  C84  1  0.44690302  0.95131336  0.18154980  1.0
  C  C85  1  0.42931241  0.96350816  0.30412106  1.0
  C  C86  1  0.54273764  0.92778001  0.19490310  1.0
  C  C87  1  0.52399041  0.94284289  0.31763958  1.0
  C  C88  1  0.57979768  0.92331293  0.26015643  1.0
  C  C89  1  0.18159543  0.81879453  0.47763858  1.0
  C  C90  1  0.19680715  0.69621028  0.46344982  1.0
  C  C91  1  0.36053239  0.68510066  0.45341923  1.0
  C  C92  1  0.09789084  0.68425924  0.47239967  1.0
  C  C93  1  0.05287421  0.61581193  0.47729399  1.0
  C  C94  1  0.23831529  0.76122286  0.46617128  1.0
  C  C95  1  0.28003502  0.01081070  0.31066742  1.0
  C  C96  1  0.03965091  0.74314346  0.48114734  1.0
  C  C97  1  0.07987788  0.80754276  0.48393695  1.0
  C  C98  1  0.06933208  0.05452379  0.61411188  1.0
  C  C99  1  0.72067510  0.11042531  0.51648387  1.0
  C  C100  1  0.91291283  0.04025399  0.89020568  1.0
  C  C101  1  0.89107181  0.03198767  0.76176392  1.0
  C  C102  1  0.94690154  0.04868666  0.81844817  1.0
  C  C103  1  0.92930974  0.03649390  0.69587642  1.0
  C  C104  1  0.04273603  0.07221960  0.80509528  1.0
  C  C105  1  0.02398833  0.05715926  0.68235679  1.0
  C  C106  1  0.07979548  0.07668718  0.73984039  1.0
  C  C107  1  0.68159379  0.18120658  0.52236068  1.0
  C  C108  1  0.69680542  0.30378828  0.53654942  1.0
  C  C109  1  0.86053209  0.31489990  0.54658035  1.0
  C  C110  1  0.59788767  0.31574138  0.52759967  1.0
  C  C111  1  0.55287101  0.38418920  0.52270743  1.0
  C  C112  1  0.73831578  0.23877619  0.53382691  1.0
  C  C113  1  0.78002973  0.98919140  0.68932970  1.0
  C  C114  1  0.53964924  0.25685717  0.51885206  1.0
  C  C115  1  0.57987843  0.19245786  0.51606241  1.0
  C  C116  1  0.31933101  0.11411144  0.44548184  1.0
  C  C117  1  0.97067037  0.01647468  0.38958590  1.0
  C  C118  1  0.16291254  0.39019813  0.45974162  1.0
  C  C119  1  0.14105903  0.26175932  0.46798465  1.0
  C  C120  1  0.19688955  0.31844309  0.45130337  1.0
  C  C121  1  0.17930346  0.19587566  0.46349553  1.0
  C  C122  1  0.29274169  0.30509314  0.42779026  1.0
  C  C123  1  0.27398732  0.18235225  0.44283526  1.0
  C  C124  1  0.32979599  0.23983802  0.42332248  1.0
  C  C125  1  0.93158697  0.02234743  0.31880129  1.0
  C  C126  1  0.94680314  0.03654823  0.19621786  1.0
  C  C127  1  0.11052168  0.04660160  0.18510575  1.0
  C  C128  1  0.84788759  0.02759177  0.18425902  1.0
  C  C129  1  0.80287684  0.02269133  0.11581638  1.0
  C  C130  1  0.98830614  0.03381931  0.26123011  1.0
  C  C131  1  0.03000469  0.18931278  0.51076847  1.0
  C  C132  1  0.78964543  0.01882778  0.24314520  1.0
  C  C133  1  0.82986871  0.01604038  0.30754723  1.0
  C  C134  1  0.81932460  0.88589065  0.55451982  1.0
  C  C135  1  0.47067385  0.98352940  0.61041103  1.0
  C  C136  1  0.66290993  0.60980298  0.54025766  1.0
  C  C137  1  0.64105711  0.73824281  0.53201465  1.0
  C  C138  1  0.69688835  0.68155801  0.54869689  1.0
  C  C139  1  0.67930150  0.80412545  0.53650628  1.0
  C  C140  1  0.79274043  0.69490997  0.57220939  1.0
  C  C141  1  0.77398530  0.81764883  0.55716543  1.0
  C  C142  1  0.82979396  0.76016509  0.57667917  1.0
  C  C143  1  0.43158811  0.97765413  0.68119568  1.0
  C  C144  1  0.44680549  0.96344874  0.80377808  1.0
  C  C145  1  0.61052416  0.95339698  0.81488900  1.0
  C  C146  1  0.34789209  0.97240522  0.81573803  1.0
  C  C147  1  0.30288193  0.97730415  0.88418276  1.0
  C  C148  1  0.48830935  0.96617918  0.73876680  1.0
  C  C149  1  0.53000500  0.81068937  0.48923044  1.0
  C  C150  1  0.28964787  0.98117127  0.75685242  1.0
  C  C151  1  0.32987274  0.98395967  0.69245086  1.0
  C  C152  1  0.18067224  0.55451936  0.88589101  1.0
  C  C153  1  0.52932570  0.61041484  0.98352715  1.0
  C  C154  1  0.33709456  0.54026069  0.60980128  1.0
  C  C155  1  0.35894505  0.53201564  0.73824130  1.0
  C  C156  1  0.30311313  0.54869534  0.68155747  1.0
  C  C157  1  0.32069692  0.53650474  0.80412407  1.0
  C  C158  1  0.20726100  0.57220787  0.69490646  1.0
  C  C159  1  0.22601234  0.55716291  0.81764905  1.0
  C  C160  1  0.17020446  0.57667664  0.76016119  1.0
  C  C161  1  0.56841135  0.68119783  0.97765438  1.0
  C  C162  1  0.55319602  0.80377903  0.96345102  1.0
  C  C163  1  0.38947662  0.81489258  0.95339883  1.0
  C  C164  1  0.65210867  0.81573941  0.97240745  1.0
  C  C165  1  0.69711728  0.88418349  0.97730687  1.0
  C  C166  1  0.51169078  0.73876890  0.96618047  1.0
  C  C167  1  0.46999493  0.48923142  0.81068842  1.0
  C  C168  1  0.71035222  0.75685487  0.98117398  1.0
  C  C169  1  0.67012743  0.69245243  0.98396140  1.0
  C  C170  1  0.68066915  0.44548174  0.11411384  1.0
  C  C171  1  0.02932706  0.38958477  0.01647633  1.0
  C  C172  1  0.83709015  0.45974038  0.39019883  1.0
  C  C173  1  0.85894309  0.46798339  0.26175828  1.0
  C  C174  1  0.80311252  0.45130268  0.31844370  1.0
  C  C175  1  0.82069948  0.46349684  0.19587505  1.0
  C  C176  1  0.70726042  0.42779017  0.30509379  1.0
  C  C177  1  0.72601348  0.44283565  0.18235270  1.0
  C  C178  1  0.67020403  0.42332243  0.23983910  1.0
  C  C179  1  0.06841201  0.31880076  0.02234804  1.0
  C  C180  1  0.05319962  0.19621956  0.03655193  1.0
  C  C181  1  0.88947962  0.18510644  0.04660479  1.0
  C  C182  1  0.15211083  0.18426068  0.02759184  1.0
  C  C183  1  0.19712167  0.11581761  0.02269339  1.0
  C  C184  1  0.01169581  0.26123021  0.03382252  1.0
  C  C185  1  0.96999383  0.51076910  0.18931156  1.0
  C  C186  1  0.21035074  0.24314521  0.01882677  1.0
  C  C187  1  0.17012883  0.30754665  0.01604194  1.0
  C  C188  1  0.43066661  0.38588460  0.94547814  1.0
  C  C189  1  0.77932241  0.48351564  0.88957526  1.0
  C  C190  1  0.58708504  0.10979281  0.95974830  1.0
  C  C191  1  0.60892251  0.23823336  0.96801614  1.0
  C  C192  1  0.55309567  0.18155121  0.95131562  1.0
  C  C193  1  0.57068538  0.30412074  0.96350890  1.0
  C  C194  1  0.45726324  0.19490455  0.92778229  1.0
  C  C195  1  0.47601103  0.31764134  0.94284264  1.0
  C  C196  1  0.42020385  0.26015781  0.92331422  1.0
  C  C197  1  0.81840596  0.47763682  0.81879387  1.0
  C  C198  1  0.80319515  0.46344911  0.69621199  1.0
  C  C199  1  0.63946993  0.45341915  0.68510092  1.0
  C  C200  1  0.90211364  0.47239685  0.68425730  1.0
  C  C201  1  0.94712890  0.47729215  0.61581240  1.0
  C  C202  1  0.76168473  0.46616957  0.76122317  1.0
  C  C203  1  0.71996617  0.31066802  0.01081190  1.0
  C  C204  1  0.96035130  0.48114600  0.74314209  1.0
  C  C205  1  0.92012279  0.48393614  0.80754253  1.0
  C  C206  1  0.93067012  0.61411289  0.05452594  1.0
  C  C207  1  0.27932206  0.51648544  0.11042542  1.0
  C  C208  1  0.08709195  0.89020577  0.04025309  1.0
  C  C209  1  0.10893095  0.76176268  0.03198777  1.0
  C  C210  1  0.05310186  0.81844738  0.04868529  1.0
  C  C211  1  0.07069092  0.69587632  0.03649352  1.0
  C  C212  1  0.95726444  0.80509547  0.07221669  1.0
  C  C213  1  0.97601305  0.68235665  0.05715885  1.0
  C  C214  1  0.92020507  0.73984070  0.07668632  1.0
  C  C215  1  0.31840473  0.52236222  0.18120677  1.0
  C  C216  1  0.30319438  0.53655196  0.30378714  1.0
  C  C217  1  0.13946986  0.54658044  0.31489940  1.0
  C  C218  1  0.40210994  0.52759963  0.31574071  1.0
  C  C219  1  0.44712578  0.52270686  0.38418811  1.0
  C  C220  1  0.26168555  0.53382948  0.23877651  1.0
  C  C221  1  0.21996971  0.68932952  0.98919037  1.0
  C  C222  1  0.46034991  0.51885301  0.25685688  1.0
  C  C223  1  0.42012081  0.51606186  0.19245750  1.0
  O  O224  1  0.51583417  0.96002991  0.43956644  1.0
  O  O225  1  0.35859720  0.98172379  0.34999607  1.0
  O  O226  1  0.31065829  0.89917040  0.46962774  1.0
  O  O227  1  0.15992976  0.93452110  0.50217601  1.0
  O  O228  1  0.10628225  0.56123804  0.46535269  1.0
  O  O229  1  0.47666879  0.94715472  0.06442523  1.0
  O  O230  1  0.29605137  0.98961556  0.24152190  1.0
  O  O231  1  0.33707719  0.75647949  0.45610399  1.0
  O  O232  1  0.96547259  0.60842722  0.49291054  1.0
  O  O233  1  0.26849833  0.64928364  0.45052996  1.0
  O  O234  1  0.32520899  0.97835070  0.09994745  1.0
  O  O235  1  0.65839640  0.93519833  0.39409121  1.0
  O  O236  1  0.01583236  0.03997428  0.56042791  1.0
  O  O237  1  0.85859172  0.01828083  0.65000199  1.0
  O  O238  1  0.81065958  0.10083322  0.53037088  1.0
  O  O239  1  0.65992895  0.06547798  0.49782785  1.0
  O  O240  1  0.60628046  0.43876054  0.53464767  1.0
  O  O241  1  0.97667580  0.05284377  0.93556965  1.0
  O  O242  1  0.79604785  0.01038806  0.75847470  1.0
  O  O243  1  0.83707911  0.24352107  0.54389206  1.0
  O  O244  1  0.46546782  0.39157128  0.50709249  1.0
  O  O245  1  0.76849727  0.35071745  0.54946870  1.0
  O  O246  1  0.82521318  0.02164376  0.90005217  1.0
  O  O247  1  0.15839594  0.06480075  0.60590401  1.0
  O  O248  1  0.26582030  0.06042649  0.46002826  1.0
  O  O249  1  0.10858101  0.14999348  0.48170169  1.0
  O  O250  1  0.06065762  0.03034469  0.39916830  1.0
  O  O251  1  0.90990935  0.99783589  0.43453366  1.0
  O  O252  1  0.85627835  0.03465541  0.06124551  1.0
  O  O253  1  0.22668649  0.43556608  0.44715978  1.0
  O  O254  1  0.04602338  0.25846419  0.48957329  1.0
  O  O255  1  0.08706643  0.04389342  0.25648532  1.0
  O  O256  1  0.71548239  0.00705580  0.10842424  1.0
  O  O257  1  0.01848837  0.04948154  0.14928658  1.0
  O  O258  1  0.07521652  0.40004899  0.47835309  1.0
  O  O259  1  0.40839269  0.10589890  0.43521069  1.0
  O  O260  1  0.76581462  0.93957663  0.53997803  1.0
  O  O261  1  0.60858343  0.85000865  0.51829561  1.0
  O  O262  1  0.56066054  0.96966255  0.60082854  1.0
  O  O263  1  0.40991484  0.00216822  0.56546434  1.0
  O  O264  1  0.35628041  0.96534158  0.93875662  1.0
  O  O265  1  0.72668387  0.56443451  0.55284045  1.0
  O  O266  1  0.54602587  0.74153745  0.51042611  1.0
  O  O267  1  0.58706978  0.95610211  0.74350997  1.0
  O  O268  1  0.21548818  0.99294022  0.89157651  1.0
  O  O269  1  0.51849077  0.95051502  0.85071031  1.0
  O  O270  1  0.57521322  0.59994960  0.52164780  1.0
  O  O271  1  0.90838625  0.89410164  0.56479189  1.0
  O  O272  1  0.23417925  0.53997451  0.93957602  1.0
  O  O273  1  0.39141932  0.51830016  0.85000781  1.0
  O  O274  1  0.43933686  0.60083344  0.96965829  1.0
  O  O275  1  0.59008094  0.56546564  0.00216593  1.0
  O  O276  1  0.64371946  0.93875578  0.96534584  1.0
  O  O277  1  0.27331993  0.55284298  0.56443431  1.0
  O  O278  1  0.45397630  0.51042656  0.74153691  1.0
  O  O279  1  0.41293036  0.74351263  0.95610854  1.0
  O  O280  1  0.78451100  0.89157464  0.99294239  1.0
  O  O281  1  0.48150997  0.85071225  0.95051834  1.0
  O  O282  1  0.42479058  0.52165182  0.59994834  1.0
  O  O283  1  0.09161056  0.56478995  0.89410054  1.0
  O  O284  1  0.73417627  0.46002455  0.06042776  1.0
  O  O285  1  0.89141905  0.48170141  0.14999276  1.0
  O  O286  1  0.93933833  0.39916863  0.03034578  1.0
  O  O287  1  0.09008458  0.43453345  0.99783495  1.0
  O  O288  1  0.14372240  0.06124482  0.03465549  1.0
  O  O289  1  0.77331543  0.44715912  0.43556638  1.0
  O  O290  1  0.95397580  0.48957245  0.25846309  1.0
  O  O291  1  0.91293406  0.25648537  0.04390116  1.0
  O  O292  1  0.28451470  0.10842644  0.00705828  1.0
  O  O293  1  0.98151225  0.14928573  0.04948773  1.0
  O  O294  1  0.92478905  0.47835025  0.40005016  1.0
  O  O295  1  0.59160749  0.43521016  0.10590542  1.0
  O  O296  1  0.48416782  0.43956851  0.96002867  1.0
  O  O297  1  0.64140487  0.34999666  0.98172451  1.0
  O  O298  1  0.68933718  0.46962862  0.89916741  1.0
  O  O299  1  0.84006489  0.50217165  0.93452315  1.0
  O  O300  1  0.89372095  0.46535141  0.56123795  1.0
  O  O301  1  0.52332496  0.06442684  0.94715648  1.0
  O  O302  1  0.70394792  0.24152261  0.98961829  1.0
  O  O303  1  0.66292285  0.45610389  0.75647986  1.0
  O  O304  1  0.03453269  0.49290671  0.60843029  1.0
  O  O305  1  0.73150405  0.45053237  0.64928277  1.0
  O  O306  1  0.67478540  0.09994535  0.97835445  1.0
  O  O307  1  0.34160422  0.39409547  0.93520171  1.0
  O  O308  1  0.98416774  0.56042897  0.03997486  1.0
  O  O309  1  0.14141048  0.65000089  0.01828140  1.0
  O  O310  1  0.18933611  0.53037350  0.10083286  1.0
  O  O311  1  0.34006464  0.49782789  0.06547645  1.0
  O  O312  1  0.39372208  0.53465219  0.43876159  1.0
  O  O313  1  0.02333182  0.93557277  0.05284243  1.0
  O  O314  1  0.20395276  0.75847391  0.01038755  1.0
  O  O315  1  0.16292148  0.54389671  0.24352095  1.0
  O  O316  1  0.53452680  0.50708680  0.39157064  1.0
  O  O317  1  0.23150390  0.54947228  0.35071745  1.0
  O  O318  1  0.17479161  0.90005423  0.02164584  1.0
  O  O319  1  0.84160626  0.60590712  0.06480501  1.0
