# generated using pymatgen
data_Mg2H15C26N5O6
_symmetry_space_group_name_H-M   'P 1'
_cell_length_a   6.80675420
_cell_length_b   41.57854789
_cell_length_c   41.57753178
_cell_angle_alpha   119.70693289
_cell_angle_beta   93.12732332
_cell_angle_gamma   93.12985276
_symmetry_Int_Tables_number   1
_chemical_formula_structural   Mg2H15C26N5O6
_chemical_formula_sum   'Mg6 H45 C78 N15 O18'
_cell_volume   10160.00585983
_cell_formula_units_Z   3
loop_
 _symmetry_equiv_pos_site_id
 _symmetry_equiv_pos_as_xyz
  1  'x, y, z'
loop_
 _atom_site_type_symbol
 _atom_site_label
 _atom_site_symmetry_multiplicity
 _atom_site_fract_x
 _atom_site_fract_y
 _atom_site_fract_z
 _atom_site_occupancy
  Mg  Mg0  1  0.54163966  0.63891868  0.32857898  1.0
  Mg  Mg1  1  0.21307407  0.67143653  0.31035438  1.0
  Mg  Mg2  1  0.90273981  0.68965705  0.36108939  1.0
  Mg  Mg3  1  0.36446358  0.36067297  0.67074597  1.0
  Mg  Mg4  1  0.69375851  0.32925460  0.68991397  1.0
  Mg  Mg5  1  0.00385310  0.31007814  0.63932604  1.0
  H  H6  1  0.51415188  0.52280144  0.01795348  1.0
  H  H7  1  0.49619250  0.98204492  0.50483703  1.0
  H  H8  1  0.99134661  0.49515730  0.47719862  1.0
  H  H9  1  0.32153072  0.52733634  0.04325379  1.0
  H  H10  1  0.27825229  0.95674908  0.48407465  1.0
  H  H11  1  0.79418145  0.51591951  0.47266526  1.0
  H  H12  1  0.49358907  0.49054494  0.95232095  1.0
  H  H13  1  0.54137794  0.04767137  0.53821231  1.0
  H  H14  1  0.00310739  0.46177934  0.50945057  1.0
  H  H15  1  0.94237669  0.42831792  0.89260810  1.0
  H  H16  1  0.04981286  0.10737666  0.53569632  1.0
  H  H17  1  0.51409073  0.46429724  0.57167632  1.0
  H  H18  1  0.78542555  0.45577610  0.95194014  1.0
  H  H19  1  0.83351937  0.04805691  0.50383555  1.0
  H  H20  1  0.32965588  0.49616882  0.54422226  1.0
  H  H21  1  0.06704984  0.56135542  0.04345428  1.0
  H  H22  1  0.02362719  0.95654135  0.51789279  1.0
  H  H23  1  0.50576943  0.48209169  0.43863419  1.0
  H  H24  1  0.88577032  0.58598570  0.10008204  1.0
  H  H25  1  0.78564775  0.89992526  0.48589839  1.0
  H  H26  1  0.29981689  0.51409624  0.41400713  1.0
  H  H27  1  0.59508365  0.47695865  0.06103343  1.0
  H  H28  1  0.53403325  0.93896821  0.41591689  1.0
  H  H29  1  0.11809870  0.58406156  0.52303401  1.0
  H  H30  1  0.78431169  0.45145507  0.00521285  1.0
  H  H31  1  0.77908955  0.99478048  0.44623822  1.0
  H  H32  1  0.33285633  0.55374727  0.54852705  1.0
  H  H33  1  0.31440692  0.56190013  0.15462538  1.0
  H  H34  1  0.15981307  0.84539092  0.40726617  1.0
  H  H35  1  0.75252355  0.59272068  0.43811127  1.0
  H  H36  1  0.18510645  0.58988220  0.21705936  1.0
  H  H37  1  0.96823441  0.78294579  0.37281775  1.0
  H  H38  1  0.59535171  0.62716864  0.41012006  1.0
  H  H39  1  0.88763653  0.61853182  0.20669904  1.0
  H  H40  1  0.68099657  0.79331938  0.41185571  1.0
  H  H41  1  0.26916640  0.58815011  0.38146581  1.0
  H  H42  1  0.61469675  0.43294414  0.84475983  1.0
  H  H43  1  0.76982714  0.15525480  0.58818667  1.0
  H  H44  1  0.18168456  0.41181611  0.56705326  1.0
  H  H45  1  0.73105494  0.40712950  0.78132608  1.0
  H  H46  1  0.94978446  0.21866873  0.62580359  1.0
  H  H47  1  0.32383076  0.37419540  0.59285842  1.0
  H  H48  1  0.02695974  0.38396195  0.79510654  1.0
  H  H49  1  0.23176162  0.20490141  0.58885835  1.0
  H  H50  1  0.64291334  0.41114446  0.61603479  1.0
  C  C51  1  0.25117313  0.49913791  0.98670195  1.0
  C  C52  1  0.26450871  0.01330230  0.51244156  1.0
  C  C53  1  0.75204127  0.48755685  0.50085283  1.0
  C  C54  1  0.33768784  0.48319464  0.95280383  1.0
  C  C55  1  0.38500847  0.04719404  0.53037811  1.0
  C  C56  1  0.85455588  0.46961165  0.51679925  1.0
  C  C57  1  0.22840231  0.45806559  0.91921917  1.0
  C  C58  1  0.30927644  0.08077658  0.53884164  1.0
  C  C59  1  0.77037995  0.46115360  0.54191967  1.0
  C  C60  1  0.02718714  0.44772552  0.91883651  1.0
  C  C61  1  0.10842296  0.08115238  0.52888467  1.0
  C  C62  1  0.57949624  0.47111749  0.55226608  1.0
  C  C63  1  0.94200625  0.46311696  0.95210299  1.0
  C  C64  1  0.98992529  0.04788923  0.51102190  1.0
  C  C65  1  0.47891346  0.48899791  0.53688493  1.0
  C  C66  1  0.04735826  0.48908347  0.98642920  1.0
  C  C67  1  0.06094793  0.01356907  0.50267023  1.0
  C  C68  1  0.55825741  0.49733800  0.51090504  1.0
  C  C69  1  0.94307563  0.50429457  0.02039927  1.0
  C  C70  1  0.92275550  0.97958810  0.48388047  1.0
  C  C71  1  0.43880102  0.51609616  0.49569026  1.0
  C  C72  1  0.96867978  0.54248182  0.04773773  1.0
  C  C73  1  0.92102109  0.95225109  0.49472732  1.0
  C  C74  1  0.42629265  0.50525152  0.45750480  1.0
  C  C75  1  0.86653280  0.55650781  0.07923942  1.0
  C  C76  1  0.78721450  0.92077157  0.47726869  1.0
  C  C77  1  0.31009092  0.52272698  0.44348633  1.0
  C  C78  1  0.73255048  0.53276405  0.08437934  1.0
  C  C79  1  0.64810451  0.91562774  0.44838274  1.0
  C  C80  1  0.19983806  0.55160247  0.46723236  1.0
  C  C81  1  0.70048584  0.49503598  0.05693919  1.0
  C  C82  1  0.64352626  0.94306043  0.43808853  1.0
  C  C83  1  0.20536489  0.56187608  0.50495247  1.0
  C  C84  1  0.80600594  0.48103226  0.02576584  1.0
  C  C85  1  0.78027178  0.97422066  0.45525404  1.0
  C  C86  1  0.32494064  0.54471603  0.51894909  1.0
  C  C87  1  0.61257699  0.58799084  0.17682887  1.0
  C  C88  1  0.43581884  0.82318984  0.41117103  1.0
  C  C89  1  0.02469449  0.58883623  0.41203187  1.0
  C  C90  1  0.41166648  0.58007228  0.17978709  1.0
  C  C91  1  0.23202024  0.82023888  0.40026262  1.0
  C  C92  1  0.83172820  0.59971372  0.41995372  1.0
  C  C93  1  0.34002852  0.59550106  0.21443475  1.0
  C  C94  1  0.12583336  0.78558783  0.38103933  1.0
  C  C95  1  0.74469255  0.61892837  0.40452304  1.0
  C  C96  1  0.46392271  0.61833500  0.24776845  1.0
  C  C97  1  0.21637433  0.75225865  0.37057420  1.0
  C  C98  1  0.84569373  0.62940910  0.38167170  1.0
  C  C99  1  0.66666667  0.62650665  0.24442694  1.0
  C  C100  1  0.42231564  0.75559597  0.38211722  1.0
  C  C101  1  0.04013526  0.61787744  0.37348022  1.0
  C  C102  1  0.73396292  0.61189944  0.20908845  1.0
  C  C103  1  0.52494464  0.79093792  0.40283927  1.0
  C  C104  1  0.12212489  0.59716641  0.38810697  1.0
  C  C105  1  0.81365623  0.64875264  0.27644942  1.0
  C  C106  1  0.53725861  0.72356463  0.37234794  1.0
  C  C107  1  0.16492458  0.62766932  0.35123953  1.0
  C  C108  1  0.31068726  0.41036403  0.82382636  1.0
  C  C109  1  0.48671934  0.17618180  0.58655545  1.0
  C  C110  1  0.90017995  0.41345063  0.58961457  1.0
  C  C111  1  0.51224379  0.41662045  0.81989845  1.0
  C  C112  1  0.69222515  0.18011650  0.59673564  1.0
  C  C113  1  0.09547321  0.40326908  0.58336173  1.0
  C  C114  1  0.57650085  0.40239651  0.78480642  1.0
  C  C115  1  0.79173789  0.21519952  0.61760387  1.0
  C  C116  1  0.17396310  0.38239143  0.59757185  1.0
  C  C117  1  0.44583888  0.38174340  0.75195425  1.0
  C  C118  1  0.69391317  0.24804756  0.62980364  1.0
  C  C119  1  0.06401438  0.37020928  0.61824562  1.0
  C  C120  1  0.24269552  0.37486759  0.75610484  1.0
  C  C121  1  0.48658791  0.24389338  0.61878266  1.0
  C  C122  1  0.86779037  0.38124526  0.62512763  1.0
  C  C123  1  0.18128727  0.38919808  0.79191657  1.0
  C  C124  1  0.38924321  0.20809111  0.59730847  1.0
  C  C125  1  0.79197559  0.40270894  0.61078396  1.0
  C  C126  1  0.09192604  0.35348381  0.72447398  1.0
  C  C127  1  0.36753325  0.27553172  0.62901989  1.0
  C  C128  1  0.73845909  0.37099443  0.64650937  1.0
  N  N129  1  0.36614529  0.52429773  0.01907459  1.0
  N  N130  1  0.34706657  0.98092619  0.50521867  1.0
  N  N131  1  0.84183935  0.49477668  0.47569887  1.0
  N  N132  1  0.62505882  0.54490234  0.11588083  1.0
  N  N133  1  0.50916155  0.88412479  0.42901659  1.0
  N  N134  1  0.08022122  0.57097233  0.45510611  1.0
  N  N135  1  0.70983028  0.57378819  0.14425913  1.0
  N  N136  1  0.56560818  0.85575688  0.42953557  1.0
  N  N137  1  0.13612653  0.57046991  0.42622504  1.0
  N  N138  1  0.33163988  0.44470821  0.88696060  1.0
  N  N139  1  0.44470383  0.11304632  0.55774537  1.0
  N  N140  1  0.88692835  0.44225298  0.55528502  1.0
  N  N141  1  0.22115366  0.42403049  0.85718159  1.0
  N  N142  1  0.36392017  0.14281734  0.56684680  1.0
  N  N143  1  0.79705784  0.43315258  0.57595714  1.0
  O  O144  1  0.98685086  0.65780280  0.27182958  1.0
  O  O145  1  0.71508385  0.72818051  0.38601119  1.0
  O  O146  1  0.32910911  0.61401153  0.34219424  1.0
  O  O147  1  0.76415017  0.65783556  0.30932179  1.0
  O  O148  1  0.45484077  0.69069662  0.34855567  1.0
  O  O149  1  0.10637026  0.65147563  0.34217676  1.0
  O  O150  1  0.38863204  0.63103162  0.28056704  1.0
  O  O151  1  0.10825128  0.71945855  0.35047273  1.0
  O  O152  1  0.75771727  0.64951385  0.36897736  1.0
  O  O153  1  0.91845414  0.34495572  0.72948168  1.0
  O  O154  1  0.18907450  0.27052284  0.61547107  1.0
  O  O155  1  0.57349746  0.38452231  0.65504128  1.0
  O  O156  1  0.13886558  0.34409382  0.69135846  1.0
  O  O157  1  0.44755602  0.30865031  0.65274274  1.0
  O  O158  1  0.79481315  0.34726628  0.65589355  1.0
  O  O159  1  0.51697392  0.36982525  0.71889727  1.0
  O  O160  1  0.79809943  0.28110746  0.65092611  1.0
  O  O161  1  0.14710698  0.34908542  0.63017293  1.0
