# generated using pymatgen
data_Zn4H27C21N3O16
_symmetry_space_group_name_H-M   'P 1'
_cell_length_a   14.53871371
_cell_length_b   14.83137014
_cell_length_c   15.48612493
_cell_angle_alpha   73.95587043
_cell_angle_beta   68.27173004
_cell_angle_gamma   68.11064121
_symmetry_Int_Tables_number   1
_chemical_formula_structural   Zn4H27C21N3O16
_chemical_formula_sum   'Zn8 H54 C42 N6 O32'
_cell_volume   2841.04457457
_cell_formula_units_Z   2
loop_
 _symmetry_equiv_pos_site_id
 _symmetry_equiv_pos_as_xyz
  1  'x, y, z'
loop_
 _atom_site_type_symbol
 _atom_site_label
 _atom_site_symmetry_multiplicity
 _atom_site_fract_x
 _atom_site_fract_y
 _atom_site_fract_z
 _atom_site_occupancy
  Zn  Zn0  1  0.01992618  0.95928546  0.05637436  1.0
  Zn  Zn1  1  0.04484907  0.75904002  0.99197599  1.0
  Zn  Zn2  1  0.99951641  0.96133055  0.85675585  1.0
  Zn  Zn3  1  0.82201268  0.91771427  0.04620191  1.0
  Zn  Zn4  1  0.38427428  0.34102969  0.46377291  1.0
  Zn  Zn5  1  0.45758747  0.53259722  0.42913503  1.0
  Zn  Zn6  1  0.62049346  0.31851892  0.44754463  1.0
  Zn  Zn7  1  0.42432852  0.39856938  0.62588851  1.0
  H  H8  1  0.33228492  0.67339171  0.06210393  1.0
  H  H9  1  0.30900794  0.76453805  0.12965015  1.0
  H  H10  1  0.22961688  0.67367303  0.27120377  1.0
  H  H11  1  0.18258640  0.62034201  0.21314312  1.0
  H  H12  1  0.41360411  0.55888641  0.16523376  1.0
  H  H13  1  0.31001567  0.41085125  0.22942220  1.0
  H  H14  1  0.44579835  0.30912136  0.04711923  1.0
  H  H15  1  0.33557592  0.37831249  0.00789220  1.0
  H  H16  1  0.31859705  0.32086628  0.12840032  1.0
  H  H17  1  0.97738110  0.26787996  0.84763872  1.0
  H  H18  1  0.06218593  0.25081039  0.91294186  1.0
  H  H19  1  0.21632693  0.19381409  0.77981120  1.0
  H  H20  1  0.13786176  0.19289429  0.71599661  1.0
  H  H21  1  0.12187413  0.38066647  0.77453730  1.0
  H  H22  1  0.99214896  0.35610175  0.69660437  1.0
  H  H23  1  0.93673642  0.58904619  0.56096339  1.0
  H  H24  1  0.89815536  0.47897826  0.61213684  1.0
  H  H25  1  0.99460950  0.48628725  0.50066910  1.0
  H  H26  1  0.79734089  0.99860984  0.34894213  1.0
  H  H27  1  0.74873671  0.11153162  0.28336017  1.0
  H  H28  1  0.60141705  0.06026690  0.28587165  1.0
  H  H29  1  0.65457130  0.94075225  0.34108057  1.0
  H  H30  1  0.62861885  0.00871314  0.48359063  1.0
  H  H31  1  0.45039465  0.03427932  0.42048357  1.0
  H  H32  1  0.29315025  0.98597183  0.65344218  1.0
  H  H33  1  0.30556038  0.99816585  0.53110495  1.0
  H  H34  1  0.26578560  0.10411998  0.58419579  1.0
  H  H35  1  0.19204566  0.64756193  0.71601897  1.0
  H  H36  1  0.10627798  0.74799707  0.66353387  1.0
  H  H37  1  0.26390969  0.77010111  0.55565725  1.0
  H  H38  1  0.24139531  0.84246282  0.63951388  1.0
  H  H39  1  0.35314353  0.67783511  0.72183256  1.0
  H  H40  1  0.41894370  0.82374352  0.56820543  1.0
  H  H41  1  0.58495944  0.83079552  0.61597334  1.0
  H  H42  1  0.60308705  0.81696664  0.50021868  1.0
  H  H43  1  0.68778923  0.72988161  0.56545040  1.0
  H  H44  1  0.74277758  0.66038319  0.04300135  1.0
  H  H45  1  0.86684946  0.57013952  0.03261695  1.0
  H  H46  1  0.83365021  0.54396766  0.20617838  1.0
  H  H47  1  0.71438793  0.64074053  0.21835776  1.0
  H  H48  1  0.76375813  0.44644747  0.15073610  1.0
  H  H49  1  0.56958442  0.61381290  0.17136877  1.0
  H  H50  1  0.51736288  0.58904622  0.99591555  1.0
  H  H51  1  0.60585295  0.65832652  0.93415820  1.0
  H  H52  1  0.51421902  0.68602072  0.04535462  1.0
  H  H53  1  0.65609553  0.20069410  0.90291895  1.0
  H  H54  1  0.78168047  0.21176770  0.83838554  1.0
  H  H55  1  0.77082428  0.12281199  0.71570564  1.0
  H  H56  1  0.63492232  0.16737793  0.76980443  1.0
  H  H57  1  0.79016954  0.27931853  0.65162137  1.0
  H  H58  1  0.59353432  0.39602803  0.76676950  1.0
  H  H59  1  0.67931494  0.55328005  0.76101130  1.0
  H  H60  1  0.72070629  0.48415405  0.86251822  1.0
  H  H61  1  0.59876655  0.49080480  0.85437775  1.0
  C  C62  1  0.18189606  0.77302074  0.08549973  1.0
  C  C63  1  0.27583805  0.71460437  0.11892297  1.0
  C  C64  1  0.24987293  0.64016076  0.20907746  1.0
  C  C65  1  0.34084407  0.54339868  0.21136814  1.0
  C  C66  1  0.37082295  0.45203859  0.08660552  1.0
  C  C67  1  0.36625018  0.35923915  0.06767277  1.0
  C  C68  1  0.35463950  0.50695151  0.30946816  1.0
  C  C69  1  0.04827295  0.11897179  0.89460342  1.0
  C  C70  1  0.05345064  0.22334924  0.85841730  1.0
  C  C71  1  0.14085498  0.23100232  0.76603070  1.0
  C  C72  1  0.13519131  0.33819394  0.72048296  1.0
  C  C73  1  0.04980985  0.46994139  0.61563164  1.0
  C  C74  1  0.96329200  0.50845101  0.57068008  1.0
  C  C75  1  0.24196412  0.34050710  0.65132740  1.0
  C  C76  1  0.81927435  0.99228448  0.20675437  1.0
  C  C77  1  0.75340615  0.03327344  0.29753273  1.0
  C  C78  1  0.64608525  0.01871857  0.33595066  1.0
  C  C79  1  0.58357170  0.04783377  0.43368219  1.0
  C  C80  1  0.42704155  0.02868648  0.56024459  1.0
  C  C81  1  0.31684464  0.02770007  0.58291253  1.0
  C  C82  1  0.55956884  0.15839663  0.43156010  1.0
  C  C83  1  0.11790610  0.77533590  0.78514044  1.0
  C  C84  1  0.16749913  0.72797357  0.69708844  1.0
  C  C85  1  0.25761814  0.76698260  0.62927518  1.0
  C  C86  1  0.36211592  0.70224896  0.64608889  1.0
  C  C87  1  0.53733629  0.71147464  0.61094813  1.0
  C  C88  1  0.60785543  0.77618518  0.57019292  1.0
  C  C89  1  0.39576282  0.61003873  0.60181289  1.0
  C  C90  1  0.85248694  0.70775437  0.06252118  1.0
  C  C91  1  0.80757306  0.62726383  0.07313510  1.0
  C  C92  1  0.76835384  0.58230237  0.17658126  1.0
  C  C93  1  0.71092941  0.50943529  0.18622818  1.0
  C  C94  1  0.64547807  0.55217861  0.04961408  1.0
  C  C95  1  0.56533535  0.62647165  0.00441428  1.0
  C  C96  1  0.66056144  0.47373601  0.28953885  1.0
  C  C97  1  0.78191080  0.06649154  0.88842232  1.0
  C  C98  1  0.72819746  0.17005425  0.84949096  1.0
  C  C99  1  0.70962140  0.17949277  0.75580523  1.0
  C  C100  1  0.71025271  0.28162028  0.69421096  1.0
  C  C101  1  0.73477728  0.39833329  0.76485596  1.0
  C  C102  1  0.68002072  0.48655346  0.81442689  1.0
  C  C103  1  0.64272023  0.30649168  0.63035265  1.0
  N  N104  1  0.33137279  0.46556330  0.17830911  1.0
  N  N105  1  0.05420243  0.38237086  0.67477497  1.0
  N  N106  1  0.48796856  0.02121023  0.46855006  1.0
  N  N107  1  0.43837861  0.75514782  0.60520970  1.0
  N  N108  1  0.62799420  0.55687586  0.14203176  1.0
  N  N109  1  0.67121905  0.36121888  0.74838645  1.0
  O  O110  1  0.97181341  0.90002757  0.98892577  1.0
  O  O111  1  0.14573668  0.72198308  0.05967735  1.0
  O  O112  1  0.14683420  0.86575680  0.08542244  1.0
  O  O113  1  0.40890265  0.51113212  0.02218067  1.0
  O  O114  1  0.37666550  0.56515845  0.34019482  1.0
  O  O115  1  0.34368337  0.42302319  0.35113724  1.0
  O  O116  1  0.04921676  0.07392629  0.83464219  1.0
  O  O117  1  0.04229954  0.08488987  0.98088904  1.0
  O  O118  1  0.11572535  0.51239916  0.59755555  1.0
  O  O119  1  0.30061241  0.35640298  0.68582265  1.0
  O  O120  1  0.26675842  0.31805552  0.57013487  1.0
  O  O121  1  0.77693433  0.95635784  0.17120212  1.0
  O  O122  1  0.91182610  0.99755099  0.17394891  1.0
  O  O123  1  0.46070522  0.03610169  0.61956838  1.0
  O  O124  1  0.62995269  0.18448980  0.43905744  1.0
  O  O125  1  0.47260616  0.21404032  0.42017243  1.0
  O  O126  1  0.09178865  0.86943529  0.77035595  1.0
  O  O127  1  0.10584742  0.72031642  0.86513444  1.0
  O  O128  1  0.56499239  0.62485413  0.64929307  1.0
  O  O129  1  0.38372338  0.53159546  0.65684733  1.0
  O  O130  1  0.42546017  0.62382522  0.51182406  1.0
  O  O131  1  0.79076739  0.79587341  0.05941577  1.0
  O  O132  1  0.94790906  0.68154363  0.05804467  1.0
  O  O133  1  0.72205078  0.49107047  0.00709803  1.0
  O  O134  1  0.68856493  0.38200790  0.32110125  1.0
  O  O135  1  0.59181014  0.54101951  0.33546881  1.0
  O  O136  1  0.74497565  0.03589783  0.97590434  1.0
  O  O137  1  0.86366600  0.01787874  0.83207275  1.0
  O  O138  1  0.83128543  0.36092200  0.73997816  1.0
  O  O139  1  0.68772167  0.30087203  0.54342532  1.0
  O  O140  1  0.54526238  0.32911855  0.67247963  1.0
  O  O141  1  0.47270788  0.39605406  0.48975109  1.0
