# generated using pymatgen
data_Zn3H8C28(IO3)5
_symmetry_space_group_name_H-M   'P 1'
_cell_length_a   18.56410617
_cell_length_b   18.62502886
_cell_length_c   18.71647170
_cell_angle_alpha   109.42170160
_cell_angle_beta   109.18060419
_cell_angle_gamma   109.22998498
_symmetry_Int_Tables_number   1
_chemical_formula_structural   Zn3H8C28(IO3)5
_chemical_formula_sum   'Zn6 H16 C56 I10 O30'
_cell_volume   5017.05443657
_cell_formula_units_Z   2
loop_
 _symmetry_equiv_pos_site_id
 _symmetry_equiv_pos_as_xyz
  1  'x, y, z'
loop_
 _atom_site_type_symbol
 _atom_site_label
 _atom_site_symmetry_multiplicity
 _atom_site_fract_x
 _atom_site_fract_y
 _atom_site_fract_z
 _atom_site_occupancy
  Zn  Zn0  1  0.99786574  0.93462121  0.43824580  1.0
  Zn  Zn1  1  0.00399586  0.06442589  0.56653162  1.0
  Zn  Zn2  1  0.42888495  0.49680779  0.43354608  1.0
  Zn  Zn3  1  0.55725881  0.49556357  0.55931083  1.0
  Zn  Zn4  1  0.43926701  0.93643026  0.00069942  1.0
  Zn  Zn5  1  0.56562005  0.06533807  0.00255117  1.0
  H  H6  1  0.80335793  0.66441069  0.57295066  1.0
  H  H7  1  0.26582409  0.99711958  0.86064400  1.0
  H  H8  1  0.55940957  0.73164100  0.52436818  1.0
  H  H9  1  0.97587803  0.82748078  0.56201215  1.0
  H  H10  1  0.70078760  0.16560181  0.25395054  1.0
  H  H11  1  0.68382092  0.92409072  0.87579437  1.0
  H  H12  1  0.43275347  0.17599184  0.01763018  1.0
  H  H13  1  0.46399762  0.98954829  0.76091835  1.0
  H  H14  1  0.85769367  0.12331129  0.39947166  1.0
  H  H15  1  0.67540779  0.89107878  0.08817234  1.0
  H  H16  1  0.78327008  0.87477029  0.19409408  1.0
  H  H17  1  0.33216661  0.71948736  0.73643042  1.0
  H  H18  1  0.44689329  0.09748659  0.24077877  1.0
  H  H19  1  0.44716116  0.34927758  0.20380658  1.0
  H  H20  1  0.38614935  0.22553294  0.55781270  1.0
  H  H21  1  0.14828008  0.29668721  0.50747393  1.0
  C  C22  1  0.12372955  0.98027256  0.59378233  1.0
  C  C23  1  0.20105169  0.98845766  0.66317172  1.0
  C  C24  1  0.73744435  0.82077943  0.50819991  1.0
  C  C25  1  0.12305323  0.13750353  0.52820823  1.0
  C  C26  1  0.67468866  0.75033669  0.50481961  1.0
  C  C27  1  0.69999564  0.69530660  0.53070717  1.0
  C  C28  1  0.78454757  0.70838371  0.55567884  1.0
  C  C29  1  0.84543854  0.77524221  0.55397009  1.0
  C  C30  1  0.82283443  0.83359910  0.53272603  1.0
  C  C31  1  0.81919330  0.07275147  0.33115531  1.0
  C  C32  1  0.76106562  0.08409862  0.27181280  1.0
  C  C33  1  0.23761493  0.25901796  0.45410718  1.0
  C  C34  1  0.70859278  0.01757962  0.18391374  1.0
  C  C35  1  0.71601866  0.94191241  0.15623993  1.0
  C  C36  1  0.77622129  0.93286937  0.21531838  1.0
  C  C37  1  0.88873187  0.98695359  0.36834509  1.0
  C  C38  1  0.82720348  0.99774392  0.30338998  1.0
  C  C39  1  0.46680065  0.61396606  0.58664062  1.0
  C  C40  1  0.40572470  0.38575934  0.53008622  1.0
  C  C41  1  0.46093010  0.37163513  0.35729788  1.0
  C  C42  1  0.63289536  0.61783160  0.52352265  1.0
  C  C43  1  0.47601969  0.85912865  0.88289369  1.0
  C  C44  1  0.20142307  0.28121045  0.51798162  1.0
  C  C45  1  0.41503416  0.01864208  0.87488923  1.0
  C  C46  1  0.46341757  0.09178998  0.10368565  1.0
  C  C47  1  0.64051728  0.02277073  0.11835970  1.0
  C  C48  1  0.54722348  0.75171418  0.73130458  1.0
  C  C49  1  0.88838881  0.90427417  0.52906866  1.0
  C  C50  1  0.55140536  0.80706620  0.80588229  1.0
  C  C51  1  0.47282219  0.79342420  0.80760382  1.0
  C  C52  1  0.39234447  0.72710571  0.73500960  1.0
  C  C53  1  0.38897881  0.67237772  0.65992214  1.0
  C  C54  1  0.46672044  0.68146324  0.65813597  1.0
  C  C55  1  0.19857905  0.20091700  0.52997831  1.0
  C  C56  1  0.45080687  0.22140043  0.29798683  1.0
  C  C57  1  0.44862609  0.15378884  0.23400875  1.0
  C  C58  1  0.45160558  0.15896401  0.16223176  1.0
  C  C59  1  0.45069631  0.22993082  0.15079363  1.0
  C  C60  1  0.44926357  0.29531419  0.21366729  1.0
  C  C61  1  0.29579539  0.26245102  0.60874882  1.0
  C  C62  1  0.45217196  0.29386398  0.28867783  1.0
  C  C63  1  0.29726133  0.34201700  0.59551669  1.0
  C  C64  1  0.33487716  0.31961925  0.53108087  1.0
  C  C65  1  0.33304090  0.24110846  0.54556389  1.0
  C  C66  1  0.19834129  0.98960861  0.73788930  1.0
  C  C67  1  0.23739361  0.17981690  0.46759008  1.0
  C  C68  1  0.58155598  0.73272430  0.47596170  1.0
  C  C69  1  0.93115183  0.77834211  0.57027152  1.0
  C  C70  1  0.75280116  0.16377288  0.30342096  1.0
  C  C71  1  0.63833315  0.87649363  0.88515290  1.0
  C  C72  1  0.44620748  0.23571389  0.07225247  1.0
  C  C73  1  0.43002765  0.01274951  0.72055675  1.0
  C  C74  1  0.26871497  0.99807406  0.80385476  1.0
  C  C75  1  0.34402898  0.00841587  0.79815052  1.0
  C  C76  1  0.35069188  0.01023896  0.72557635  1.0
  C  C77  1  0.27849661  0.00103001  0.65867245  1.0
  I  I78  1  0.34809602  0.46826254  0.69756054  1.0
  I  I79  1  0.09280321  0.98050282  0.76098742  1.0
  I  I80  1  0.28433329  0.01194754  0.55141161  1.0
  I  I81  1  0.70410003  0.90630889  0.47194379  1.0
  I  I82  1  0.66828734  0.77971972  0.73249058  1.0
  I  I83  1  0.34000103  0.26527774  0.72902749  1.0
  I  I84  1  0.26300100  0.57857296  0.55342704  1.0
  I  I85  1  0.44691559  0.20505735  0.40245353  1.0
  I  I86  1  0.19817935  0.05740763  0.36580075  1.0
  I  I87  1  0.18471233  0.25003388  0.33113058  1.0
  O  O88  1  0.08566334  0.91812223  0.51526466  1.0
  O  O89  1  0.53129341  0.93830828  0.91346206  1.0
  O  O90  1  0.38931093  0.97231438  0.90728582  1.0
  O  O91  1  0.10135383  0.03655761  0.62049050  1.0
  O  O92  1  0.49550508  0.07467016  0.90537170  1.0
  O  O93  1  0.41577923  0.01127770  0.08019545  1.0
  O  O94  1  0.52200096  0.11998924  0.08391899  1.0
  O  O95  1  0.56141663  0.97035932  0.09169499  1.0
  O  O96  1  0.66626115  0.07786515  0.09302340  1.0
  O  O97  1  0.09029124  0.05766284  0.47406216  1.0
  O  O98  1  0.09677265  0.16794271  0.58063552  1.0
  O  O99  1  0.51689634  0.58472596  0.61168440  1.0
  O  O100  1  0.91148353  0.92982716  0.33985557  1.0
  O  O101  1  0.91473921  0.03555913  0.44810399  1.0
  O  O102  1  0.90546042  0.87669386  0.46856356  1.0
  O  O103  1  0.92180064  0.98423963  0.58594024  1.0
  O  O104  1  0.41692121  0.59009445  0.50723692  1.0
  O  O105  1  0.53468974  0.72382406  0.40679460  1.0
  O  O106  1  0.95054853  0.72767617  0.58868145  1.0
  O  O107  1  0.79834447  0.22456460  0.37838792  1.0
  O  O108  1  0.65939933  0.87957245  0.95560344  1.0
  O  O109  1  0.45470158  0.30077641  0.06547131  1.0
  O  O110  1  0.38070201  0.41390400  0.47906429  1.0
  O  O111  1  0.45715906  0.03541519  0.67613387  1.0
  O  O112  1  0.48587533  0.41037952  0.58060492  1.0
  O  O113  1  0.41057808  0.40213505  0.33209299  1.0
  O  O114  1  0.51894370  0.40313987  0.43490697  1.0
  O  O115  1  0.55380954  0.58726224  0.46782586  1.0
  O  O116  1  0.65866363  0.58701891  0.57289740  1.0
  O  O117  1  0.42172854  0.83248419  0.90887374  1.0
