# generated using pymatgen
data_Al4H30C88Br5N12Cl9O28
_symmetry_space_group_name_H-M   'P 1'
_cell_length_a   6.60444210
_cell_length_b   28.21321892
_cell_length_c   31.79667338
_cell_angle_alpha   101.88374149
_cell_angle_beta   89.94844458
_cell_angle_gamma   89.73560784
_symmetry_Int_Tables_number   1
_chemical_formula_structural   Al4H30C88Br5N12Cl9O28
_chemical_formula_sum   'Al4 H30 C88 Br5 N12 Cl9 O28'
_cell_volume   5797.70123177
_cell_formula_units_Z   1
loop_
 _symmetry_equiv_pos_site_id
 _symmetry_equiv_pos_as_xyz
  1  'x, y, z'
loop_
 _atom_site_type_symbol
 _atom_site_label
 _atom_site_symmetry_multiplicity
 _atom_site_fract_x
 _atom_site_fract_y
 _atom_site_fract_z
 _atom_site_occupancy
  Al  Al0  1  0.89398589  0.50057907  0.49947106  1.0
  Al  Al1  1  0.39435623  0.49790936  0.49781489  1.0
  Al  Al2  1  0.30255099  0.99970842  0.99954504  1.0
  Al  Al3  1  0.80114626  0.00048067  0.00120993  1.0
  H  H4  1  0.84587256  0.42352898  0.37259412  1.0
  H  H5  1  0.40987219  0.36647404  0.40938792  1.0
  H  H6  1  0.75638084  0.16454992  0.18339283  1.0
  H  H7  1  0.74244346  0.09965010  0.11617123  1.0
  H  H8  1  0.38220789  0.11390769  0.09828745  1.0
  H  H9  1  0.39434021  0.18131687  0.16360453  1.0
  H  H10  1  0.70889995  0.22354526  0.67049906  1.0
  H  H11  1  0.49504485  0.27519408  0.82821101  1.0
  H  H12  1  0.28606605  0.04669896  0.88135814  1.0
  H  H13  1  0.28972879  0.09869628  0.82616280  1.0
  H  H14  1  0.42760192  0.37754979  0.56057736  1.0
  H  H15  1  0.86919885  0.44614300  0.61151453  1.0
  H  H16  1  0.20038856  0.83403864  0.27477397  1.0
  H  H17  1  0.21618765  0.77836073  0.32815208  1.0
  H  H18  1  0.93950670  0.66339540  0.37893679  1.0
  H  H19  1  0.94050706  0.60866641  0.43169443  1.0
  H  H20  1  0.33356715  0.56404480  0.39467357  1.0
  H  H21  1  0.33403935  0.61684032  0.34042384  1.0
  H  H22  1  0.85241605  0.94134183  0.10828702  1.0
  H  H23  1  0.25695708  0.88845883  0.06934030  1.0
  H  H24  1  0.27312407  0.83330335  0.12165589  1.0
  H  H25  1  0.36469722  0.63841636  0.69723070  1.0
  H  H26  1  0.87334234  0.70740796  0.65021995  1.0
  H  H27  1  0.27365471  0.84332348  0.81116127  1.0
  H  H28  1  0.25406300  0.90799255  0.87817810  1.0
  H  H29  1  0.86559502  0.87487316  0.90914539  1.0
  H  H30  1  0.65107063  0.44140650  0.50980776  1.0
  H  H31  1  0.15083243  0.55923123  0.52668412  1.0
  H  H32  1  0.55141453  0.05820090  0.98925403  1.0
  H  H33  1  0.05232695  0.93665965  0.99754750  1.0
  C  C34  1  0.63455155  0.55197664  0.44866172  1.0
  C  C35  1  0.64664114  0.56180144  0.56433428  1.0
  C  C36  1  0.15174817  0.44492277  0.54935130  1.0
  C  C37  1  0.13385539  0.43778749  0.43421203  1.0
  C  C38  1  0.96598451  0.39645634  0.36623365  1.0
  C  C39  1  0.96193389  0.35990247  0.32942168  1.0
  C  C40  1  0.11274374  0.32362307  0.32151691  1.0
  C  C41  1  0.27238860  0.32641570  0.35117712  1.0
  C  C42  1  0.28392347  0.36408602  0.38702731  1.0
  C  C43  1  0.12838912  0.39862732  0.39472294  1.0
  C  C44  1  0.08497428  0.21574899  0.21581539  1.0
  C  C45  1  0.10269577  0.28408672  0.28297015  1.0
  C  C46  1  0.89193416  0.15353214  0.16424619  1.0
  C  C47  1  0.88452492  0.11744370  0.12717469  1.0
  C  C48  1  0.06172975  0.10320244  0.10350792  1.0
  C  C49  1  0.24615243  0.12575608  0.11699292  1.0
  C  C50  1  0.25305438  0.16278840  0.15325661  1.0
  C  C51  1  0.07605323  0.17676792  0.17727811  1.0
  C  C52  1  0.26269089  0.33620682  0.71018385  1.0
  C  C53  1  0.99382145  0.28714082  0.66575512  1.0
  C  C54  1  0.97001821  0.25979075  0.70044925  1.0
  C  C55  1  0.10766973  0.26590468  0.73526650  1.0
  C  C56  1  0.26446590  0.30109328  0.73920864  1.0
  C  C57  1  0.81284124  0.22718078  0.69754381  1.0
  C  C58  1  0.78633294  0.19865225  0.72862356  1.0
  C  C59  1  0.92499177  0.20124927  0.76242543  1.0
  C  C60  1  0.08547716  0.23551535  0.76569281  1.0
  C  C61  1  0.22744787  0.24079770  0.79968912  1.0
  C  C62  1  0.38634116  0.27293302  0.80213192  1.0
  C  C63  1  0.40730205  0.30289496  0.77209346  1.0
  C  C64  1  0.91414610  0.16880425  0.79381862  1.0
  C  C65  1  0.20902405  0.21248691  0.83373973  1.0
  C  C66  1  0.92045295  0.15684677  0.89263502  1.0
  C  C67  1  0.91436925  0.12685872  0.92288517  1.0
  C  C68  1  0.04562191  0.08670129  0.91820660  1.0
  C  C69  1  0.18221765  0.07724008  0.88378788  1.0
  C  C70  1  0.18467862  0.10602582  0.85321067  1.0
  C  C71  1  0.05336706  0.14548458  0.85760080  1.0
  C  C72  1  0.29583609  0.35121171  0.61335478  1.0
  C  C73  1  0.30387455  0.38115974  0.58363070  1.0
  C  C74  1  0.14836484  0.41465747  0.58277166  1.0
  C  C75  1  0.98977549  0.41995668  0.61255025  1.0
  C  C76  1  0.98986372  0.39191043  0.64384555  1.0
  C  C77  1  0.14010841  0.35664923  0.64407087  1.0
  C  C78  1  0.72135099  0.78795844  0.16619438  1.0
  C  C79  1  0.44533902  0.83548073  0.21020668  1.0
  C  C80  1  0.45672402  0.80105010  0.23943266  1.0
  C  C81  1  0.61220764  0.76552525  0.23510138  1.0
  C  C82  1  0.75528274  0.76042721  0.20098433  1.0
  C  C83  1  0.31570222  0.80586898  0.27247952  1.0
  C  C84  1  0.32519585  0.77547989  0.30198755  1.0
  C  C85  1  0.47748527  0.74078458  0.29894777  1.0
  C  C86  1  0.62492996  0.73522015  0.26582230  1.0
  C  C87  1  0.78297743  0.70010049  0.26301221  1.0
  C  C88  1  0.93184530  0.69808576  0.23129289  1.0
  C  C89  1  0.91875541  0.72857701  0.20036286  1.0
  C  C90  1  0.48042846  0.71024019  0.33150463  1.0
  C  C91  1  0.78075559  0.66615458  0.29349602  1.0
  C  C92  1  0.80775102  0.64133458  0.38231632  1.0
  C  C93  1  0.80834203  0.61098727  0.41171993  1.0
  C  C94  1  0.63685064  0.58337029  0.41634411  1.0
  C  C95  1  0.46582607  0.58564243  0.39071757  1.0
  C  C96  1  0.46594594  0.61508695  0.36061389  1.0
  C  C97  1  0.63643946  0.64305920  0.35693140  1.0
  C  C98  1  0.73039227  0.88878538  0.14188092  1.0
  C  C99  1  0.72534974  0.91792180  0.11151279  1.0
  C  C100  1  0.55503740  0.91755651  0.08530307  1.0
  C  C101  1  0.38993677  0.88786803  0.08944366  1.0
  C  C102  1  0.39862920  0.85732462  0.11863642  1.0
  C  C103  1  0.56840393  0.85753442  0.14475311  1.0
  C  C104  1  0.49261172  0.60130878  0.63682301  1.0
  C  C105  1  0.47998495  0.63876208  0.67283200  1.0
  C  C106  1  0.61660080  0.67732311  0.67752315  1.0
  C  C107  1  0.76696412  0.67752119  0.64647976  1.0
  C  C108  1  0.77636069  0.63993509  0.61049242  1.0
  C  C109  1  0.63854902  0.60096153  0.60434943  1.0
  C  C110  1  0.58333668  0.78561127  0.78258698  1.0
  C  C111  1  0.59954267  0.71808788  0.71457658  1.0
  C  C112  1  0.40211085  0.85056929  0.83294692  1.0
  C  C113  1  0.39142553  0.88657001  0.86997581  1.0
  C  C114  1  0.55983959  0.89575789  0.89712312  1.0
  C  C115  1  0.73636669  0.86794241  0.88754959  1.0
  C  C116  1  0.74397053  0.83097026  0.85104517  1.0
  C  C117  1  0.57822781  0.82250204  0.82271885  1.0
  C  C118  1  0.55136841  0.93464418  0.93692041  1.0
  C  C119  1  0.55494287  0.94874989  0.05270952  1.0
  C  C120  1  0.05698170  0.06447607  0.06375050  1.0
  C  C121  1  0.04562136  0.05301246  0.94897077  1.0
  Br  Br122  1  0.75217607  0.21184858  0.89855891  1.0
  Br  Br123  1  0.78073692  0.40083925  0.68543906  1.0
  Br  Br124  1  0.15637494  0.65568524  0.22659028  1.0
  Br  Br125  1  0.47537525  0.27745257  0.34362535  1.0
  Br  Br126  1  0.30775402  0.54935753  0.63474357  1.0
  N  N127  1  0.25111594  0.28214687  0.25340956  1.0
  N  N128  1  0.24178408  0.24711999  0.21890267  1.0
  N  N129  1  0.93713901  0.21785030  0.24566570  1.0
  N  N130  1  0.94615084  0.25305149  0.28016770  1.0
  N  N131  1  0.13246256  0.32542441  0.67429303  1.0
  N  N132  1  0.06270879  0.17589959  0.82646720  1.0
  N  N133  1  0.57807174  0.82616523  0.17501111  1.0
  N  N134  1  0.63375403  0.67483898  0.32665961  1.0
  N  N135  1  0.74779957  0.75178610  0.72039910  1.0
  N  N136  1  0.73977250  0.78643377  0.75511581  1.0
  N  N137  1  0.42083414  0.75642777  0.77354621  1.0
  N  N138  1  0.42884337  0.72185778  0.73856438  1.0
  Cl  Cl139  1  0.57812037  0.16155389  0.72154694  1.0
  Cl  Cl140  1  0.61526996  0.33998393  0.77844213  1.0
  Cl  Cl141  1  0.75503091  0.14168346  0.96659754  1.0
  Cl  Cl142  1  0.47845270  0.30727937  0.61204447  1.0
  Cl  Cl143  1  0.77114166  0.36042769  0.29238995  1.0
  Cl  Cl144  1  0.10886817  0.72552367  0.16336360  1.0
  Cl  Cl145  1  0.93621357  0.89134659  0.17551057  1.0
  Cl  Cl146  1  0.95839712  0.64485071  0.57235144  1.0
  Cl  Cl147  1  0.95497919  0.79370534  0.84241504  1.0
  O  O148  1  0.48198582  0.55194614  0.54387527  1.0
  O  O149  1  0.79911699  0.54710714  0.46834723  1.0
  O  O150  1  0.96771466  0.45925793  0.44631747  1.0
  O  O151  1  0.81834978  0.54258994  0.55391905  1.0
  O  O152  1  0.98208562  0.45391713  0.53366223  1.0
  O  O153  1  0.46674039  0.53243033  0.45492748  1.0
  O  O154  1  0.64707112  0.46917327  0.49622998  1.0
  O  O155  1  0.32495928  0.45873539  0.53922661  1.0
  O  O156  1  0.30303687  0.44631323  0.45328777  1.0
  O  O157  1  0.14547983  0.52942686  0.50502231  1.0
  O  O158  1  0.36349732  0.37334649  0.71610980  1.0
  O  O159  1  0.89896730  0.27792178  0.63192769  1.0
  O  O160  1  0.78754293  0.13690215  0.79264926  1.0
  O  O161  1  0.31310469  0.21981080  0.86635656  1.0
  O  O162  1  0.80647739  0.77896532  0.13120875  1.0
  O  O163  1  0.32759923  0.87006143  0.21585325  1.0
  O  O164  1  0.35648453  0.71505513  0.36097347  1.0
  O  O165  1  0.89604114  0.63149033  0.29074751  1.0
  O  O166  1  0.72535098  0.96532674  0.04398835  1.0
  O  O167  1  0.37766627  0.95234888  0.94865197  1.0
  O  O168  1  0.21806099  0.04234208  0.96223066  1.0
  O  O169  1  0.38681092  0.95614827  0.03552692  1.0
  O  O170  1  0.22730669  0.04707384  0.04915362  1.0
  O  O171  1  0.71823180  0.94655893  0.95614222  1.0
  O  O172  1  0.55111926  0.02957137  0.00174323  1.0
  O  O173  1  0.88502310  0.05220014  0.04697147  1.0
  O  O174  1  0.87605494  0.03722337  0.95865008  1.0
  O  O175  1  0.05189799  0.97087316  0.99728324  1.0
