# generated using pymatgen
data_Al2H18(C2O)15
_symmetry_space_group_name_H-M   'P 1'
_cell_length_a   4.06185497
_cell_length_b   17.19591402
_cell_length_c   17.19589341
_cell_angle_alpha   59.99978648
_cell_angle_beta   89.99921971
_cell_angle_gamma   90.00062390
_symmetry_Int_Tables_number   1
_chemical_formula_structural   Al2H18(C2O)15
_chemical_formula_sum   'Al2 H18 C30 O15'
_cell_volume   1040.16951001
_cell_formula_units_Z   1
loop_
 _symmetry_equiv_pos_site_id
 _symmetry_equiv_pos_as_xyz
  1  'x, y, z'
loop_
 _atom_site_type_symbol
 _atom_site_label
 _atom_site_symmetry_multiplicity
 _atom_site_fract_x
 _atom_site_fract_y
 _atom_site_fract_z
 _atom_site_occupancy
  Al  Al0  1  0.02365630  0.49999907  0.99999782  1.0
  Al  Al1  1  0.07854318  0.16666525  0.66666617  1.0
  H  H2  1  0.86309884  0.19183087  0.41405935  1.0
  H  H3  1  0.38176878  0.48215297  0.41331562  1.0
  H  H4  1  0.99913792  0.42702099  0.42184187  1.0
  H  H5  1  0.96539142  0.50564209  0.25344272  1.0
  H  H6  1  0.34607489  0.56100848  0.24544091  1.0
  H  H7  1  0.86311155  0.39411174  0.69182521  1.0
  H  H8  1  0.38173538  0.10453409  0.98214360  1.0
  H  H9  1  0.99910372  0.15113882  0.92702167  1.0
  H  H10  1  0.96538989  0.24091471  0.00564605  1.0
  H  H11  1  0.34608399  0.19354970  0.06100101  1.0
  H  H12  1  0.86310298  0.91406116  0.89411395  1.0
  H  H13  1  0.38176702  0.91332046  0.60453967  1.0
  H  H14  1  0.99912915  0.92184006  0.65114381  1.0
  H  H15  1  0.96538694  0.75343805  0.74092022  1.0
  H  H16  1  0.34608730  0.74544649  0.69355192  1.0
  H  H17  1  0.88291683  0.30840687  0.17896336  1.0
  H  H18  1  0.88293936  0.51262550  0.80840585  1.0
  H  H19  1  0.88293740  0.67896359  0.01262644  1.0
  C  C20  1  0.52369646  0.63818197  0.93229353  1.0
  C  C21  1  0.52368095  0.42952377  0.13818009  1.0
  C  C22  1  0.52368937  0.43229187  0.92952060  1.0
  C  C23  1  0.57889645  0.23819399  0.52915702  1.0
  C  C24  1  0.57889289  0.23264762  0.73819391  1.0
  C  C25  1  0.57888592  0.02915617  0.73265441  1.0
  C  C26  1  0.57505986  0.28985497  0.42876857  1.0
  C  C27  1  0.54860911  0.38390912  0.23580258  1.0
  C  C28  1  0.41844258  0.37301569  0.38012016  1.0
  C  C29  1  0.72497598  0.30145124  0.28546221  1.0
  C  C30  1  0.40055783  0.41689764  0.28704706  1.0
  C  C31  1  0.72851250  0.25504762  0.37988238  1.0
  C  C32  1  0.23633270  0.44665738  0.38676238  1.0
  C  C33  1  0.21526518  0.49647629  0.28071861  1.0
  C  C34  1  0.57505555  0.28138124  0.78984562  1.0
  C  C35  1  0.54861650  0.38028770  0.88390638  1.0
  C  C36  1  0.41841954  0.24686774  0.87300792  1.0
  C  C37  1  0.72498235  0.41308853  0.80144440  1.0
  C  C38  1  0.40054828  0.29605489  0.91689167  1.0
  C  C39  1  0.72852035  0.36507418  0.75504056  1.0
  C  C40  1  0.23629932  0.16657745  0.94665322  1.0
  C  C41  1  0.21526202  0.22280418  0.99647301  1.0
  C  C42  1  0.57506076  0.92877019  0.78138495  1.0
  C  C43  1  0.54862228  0.73580431  0.88028773  1.0
  C  C44  1  0.41843021  0.88012058  0.74687115  1.0
  C  C45  1  0.72498280  0.78546492  0.91308780  1.0
  C  C46  1  0.40055801  0.78704918  0.79605798  1.0
  C  C47  1  0.72851426  0.87988415  0.86507479  1.0
  C  C48  1  0.23632372  0.88676698  0.66658194  1.0
  C  C49  1  0.21527021  0.78072007  0.72280946  1.0
  O  O50  1  0.28281480  0.41703859  0.98301093  1.0
  O  O51  1  0.28282331  0.59994619  0.91703923  1.0
  O  O52  1  0.28280562  0.48301229  0.09994560  1.0
  O  O53  1  0.74777606  0.49299728  0.91215955  1.0
  O  O54  1  0.74775920  0.41216019  0.09483823  1.0
  O  O55  1  0.74778103  0.59483861  0.99299775  1.0
  O  O56  1  0.34307535  0.06734091  0.74940291  1.0
  O  O57  1  0.34308806  0.18325686  0.56734261  1.0
  O  O58  1  0.34308384  0.24939896  0.68325660  1.0
  O  O59  1  0.81467227  0.06890526  0.67815478  1.0
  O  O60  1  0.81466528  0.17815234  0.75293940  1.0
  O  O61  1  0.81467465  0.25293886  0.56890632  1.0
  O  O62  1  0.88876351  0.26362205  0.24419684  1.0
  O  O63  1  0.88878723  0.49218046  0.76361757  1.0
  O  O64  1  0.88878655  0.74419825  0.99217984  1.0
