# generated using pymatgen
data_AlH10C12N2O5
_symmetry_space_group_name_H-M   'P 1'
_cell_length_a   6.66068720
_cell_length_b   10.98350732
_cell_length_c   16.85090037
_cell_angle_alpha   72.79372104
_cell_angle_beta   84.03292989
_cell_angle_gamma   74.50486873
_symmetry_Int_Tables_number   1
_chemical_formula_structural   AlH10C12N2O5
_chemical_formula_sum   'Al2 H20 C24 N4 O10'
_cell_volume   1134.38334132
_cell_formula_units_Z   2
loop_
 _symmetry_equiv_pos_site_id
 _symmetry_equiv_pos_as_xyz
  1  'x, y, z'
loop_
 _atom_site_type_symbol
 _atom_site_label
 _atom_site_symmetry_multiplicity
 _atom_site_fract_x
 _atom_site_fract_y
 _atom_site_fract_z
 _atom_site_occupancy
  Al  Al0  1  0.50334566  0.49643721  0.50012743  1.0
  Al  Al1  1  0.00266551  0.49817010  0.49896362  1.0
  H  H2  1  0.21037287  0.64929624  0.41969509  1.0
  H  H3  1  0.77546653  0.39113998  0.60161855  1.0
  H  H4  1  0.93738929  0.40836107  0.75049429  1.0
  H  H5  1  0.85677931  0.41684467  0.89778039  1.0
  H  H6  1  0.33453951  0.62127954  0.87711902  1.0
  H  H7  1  0.65806843  0.38597019  0.12030923  1.0
  H  H8  1  0.14471725  0.58282937  0.10264237  1.0
  H  H9  1  0.06772424  0.58613300  0.25112054  1.0
  H  H10  1  0.28455499  0.88685501  0.44939640  1.0
  H  H11  1  0.71722488  0.11233973  0.54715242  1.0
  H  H12  1  0.51398862  0.68853645  0.75657236  1.0
  H  H13  1  0.40633105  0.70803680  0.65970628  1.0
  H  H14  1  0.60003645  0.56613308  0.70251766  1.0
  H  H15  1  0.40204292  0.43499276  0.30023065  1.0
  H  H16  1  0.59383128  0.28856062  0.33598890  1.0
  H  H17  1  0.47382818  0.32052616  0.23973600  1.0
  H  H18  1  0.02255559  0.21381742  0.46197588  1.0
  H  H19  1  0.00205917  0.07121335  0.44165955  1.0
  H  H20  1  0.96931582  0.77693093  0.54458922  1.0
  H  H21  1  0.98213882  0.90796183  0.57919578  1.0
  C  C22  1  0.65505595  0.73193875  0.48793703  1.0
  C  C23  1  0.78351571  0.50022213  0.35543140  1.0
  C  C24  1  0.34796332  0.26580189  0.50934841  1.0
  C  C25  1  0.22119341  0.49428920  0.64523947  1.0
  C  C26  1  0.18308753  0.50766760  0.73144360  1.0
  C  C27  1  0.02413284  0.45439860  0.77937773  1.0
  C  C28  1  0.97867281  0.45862571  0.86064065  1.0
  C  C29  1  0.09466191  0.51862233  0.89572645  1.0
  C  C30  1  0.25000938  0.57410293  0.84793938  1.0
  C  C31  1  0.29830357  0.57062591  0.76565329  1.0
  C  C32  1  0.74496361  0.43063747  0.15033320  1.0
  C  C33  1  0.90177857  0.48538241  0.10314786  1.0
  C  C34  1  0.02124104  0.54200942  0.13923499  1.0
  C  C35  1  0.97795190  0.54355014  0.22103221  1.0
  C  C36  1  0.81797906  0.49064097  0.26841694  1.0
  C  C37  1  0.69881828  0.43125357  0.23319238  1.0
  C  C38  1  0.41970814  0.12940545  0.50294310  1.0
  C  C39  1  0.58397978  0.86968543  0.49242109  1.0
  C  C40  1  0.29098970  0.06765649  0.47347070  1.0
  C  C41  1  0.71354356  0.93261645  0.52043894  1.0
  C  C42  1  0.37924709  0.93789666  0.47015638  1.0
  C  C43  1  0.62469790  0.06098126  0.52531136  1.0
  C  C44  1  0.46335117  0.63679891  0.71879907  1.0
  C  C45  1  0.53291010  0.36558326  0.27947898  1.0
  N  N46  1  0.06794820  0.52852417  0.97809759  1.0
  N  N47  1  0.92793818  0.47680049  0.02055871  1.0
  N  N48  1  0.09246669  0.12984796  0.44604063  1.0
  N  N49  1  0.92112320  0.87482543  0.53942172  1.0
  O  O50  1  0.51926233  0.67694953  0.47559263  1.0
  O  O51  1  0.92946860  0.52376900  0.38758989  1.0
  O  O52  1  0.15383852  0.32366349  0.49983039  1.0
  O  O53  1  0.39755079  0.50370985  0.61006036  1.0
  O  O54  1  0.48271808  0.31924788  0.52427559  1.0
  O  O55  1  0.07381705  0.47305651  0.61232755  1.0
  O  O56  1  0.84989813  0.67478550  0.49711478  1.0
  O  O57  1  0.61098101  0.48617061  0.39236730  1.0
  O  O58  1  0.23548085  0.56236954  0.45857350  1.0
  O  O59  1  0.77080067  0.43347616  0.54239612  1.0
