# generated using pymatgen
data_ZnH7C23N2O4F5
_symmetry_space_group_name_H-M   'P 1'
_cell_length_a   15.28800038
_cell_length_b   15.28755334
_cell_length_c   15.96733472
_cell_angle_alpha   93.24258612
_cell_angle_beta   93.13454694
_cell_angle_gamma   90.11710459
_symmetry_Int_Tables_number   1
_chemical_formula_structural   ZnH7C23N2O4F5
_chemical_formula_sum   'Zn2 H14 C46 N4 O8 F10'
_cell_volume   3720.22518130
_cell_formula_units_Z   2
loop_
 _symmetry_equiv_pos_site_id
 _symmetry_equiv_pos_as_xyz
  1  'x, y, z'
loop_
 _atom_site_type_symbol
 _atom_site_label
 _atom_site_symmetry_multiplicity
 _atom_site_fract_x
 _atom_site_fract_y
 _atom_site_fract_z
 _atom_site_occupancy
  Zn  Zn0  1  0.49399571  0.49379134  0.91180240  1.0
  Zn  Zn1  1  0.50598568  0.50602920  0.08820365  1.0
  H  H2  1  0.41696098  0.41697822  0.21782132  1.0
  H  H3  1  0.41659013  0.41647874  0.37659124  1.0
  H  H4  1  0.61778991  0.61715815  0.38834930  1.0
  H  H5  1  0.38249034  0.38264183  0.61162083  1.0
  H  H6  1  0.58366055  0.58336360  0.62349852  1.0
  H  H7  1  0.58320172  0.58285145  0.78224643  1.0
  H  H8  1  0.50747054  0.78275360  0.13118754  1.0
  H  H9  1  0.49308457  0.77163383  0.86148140  1.0
  H  H10  1  0.49299870  0.21714276  0.86886051  1.0
  H  H11  1  0.50724432  0.22821661  0.13856209  1.0
  H  H12  1  0.22786867  0.50615734  0.13861548  1.0
  H  H13  1  0.21747748  0.49265304  0.86893162  1.0
  H  H14  1  0.77203747  0.49211537  0.86128391  1.0
  H  H15  1  0.78242412  0.50615129  0.13095304  1.0
  C  C16  1  0.50003387  0.32934316  0.00531905  1.0
  C  C17  1  0.32937828  0.49997946  0.00538479  1.0
  C  C18  1  0.50006959  0.67048423  0.99471528  1.0
  C  C19  1  0.67054467  0.49942931  0.99456791  1.0
  C  C20  1  0.45970020  0.45966494  0.25904081  1.0
  C  C21  1  0.45971222  0.45955626  0.34565468  1.0
  C  C22  1  0.51742575  0.51707181  0.39344172  1.0
  C  C23  1  0.57249521  0.57202983  0.35310932  1.0
  C  C24  1  0.56669275  0.56643927  0.26575033  1.0
  C  C25  1  0.42775319  0.42778541  0.64688202  1.0
  C  C26  1  0.48282614  0.48276059  0.60656559  1.0
  C  C27  1  0.54050864  0.54028047  0.65439593  1.0
  C  C28  1  0.54046435  0.54018549  0.74100541  1.0
  C  C29  1  0.43347334  0.43340940  0.73424703  1.0
  C  C30  1  0.50436117  0.81720391  0.07331357  1.0
  C  C31  1  0.50438265  0.90895305  0.07570767  1.0
  C  C32  1  0.50827633  0.96149841  0.15280010  1.0
  C  C33  1  0.49635530  0.81089823  0.92057419  1.0
  C  C34  1  0.49633177  0.90258733  0.92115473  1.0
  C  C35  1  0.49241202  0.94894043  0.84575208  1.0
  C  C36  1  0.49607240  0.18266407  0.92671093  1.0
  C  C37  1  0.49612286  0.09092137  0.92430403  1.0
  C  C38  1  0.49235231  0.03835912  0.84722255  1.0
  C  C39  1  0.50400503  0.18895745  0.07946717  1.0
  C  C40  1  0.50412795  0.09726562  0.07887213  1.0
  C  C41  1  0.50817216  0.05091650  0.15427859  1.0
  C  C42  1  0.50032491  0.76883067  0.99619000  1.0
  C  C43  1  0.50030401  0.95346207  0.99923150  1.0
  C  C44  1  0.49997059  0.23101324  0.00385610  1.0
  C  C45  1  0.50016227  0.04640655  0.00079010  1.0
  C  C46  1  0.18875105  0.50297690  0.07950115  1.0
  C  C47  1  0.09706099  0.50269144  0.07884475  1.0
  C  C48  1  0.05053627  0.50615211  0.15422171  1.0
  C  C49  1  0.18286336  0.49548907  0.92676589  1.0
  C  C50  1  0.09112794  0.49520259  0.92430424  1.0
  C  C51  1  0.03879158  0.49133333  0.84718838  1.0
  C  C52  1  0.81113693  0.49531621  0.92040901  1.0
  C  C53  1  0.90281521  0.49516920  0.92103948  1.0
  C  C54  1  0.94937103  0.49130773  0.84565999  1.0
  C  C55  1  0.81704919  0.50308811  0.07312766  1.0
  C  C56  1  0.90877933  0.50287557  0.07558943  1.0
  C  C57  1  0.96112170  0.50632553  0.15268640  1.0
  C  C58  1  0.23103049  0.49943146  0.00392280  1.0
  C  C59  1  0.04641101  0.49891371  0.00074805  1.0
  C  C60  1  0.76887967  0.49932533  0.99598888  1.0
  C  C61  1  0.95347636  0.49896394  0.99913432  1.0
  N  N62  1  0.51295491  0.51288555  0.21932083  1.0
  N  N63  1  0.52547695  0.52497154  0.48251349  1.0
  N  N64  1  0.47482088  0.47485839  0.51750765  1.0
  N  N65  1  0.48717272  0.48697700  0.78069112  1.0
  O  O66  1  0.49865027  0.36354371  0.93442171  1.0
  O  O67  1  0.50151518  0.37052752  0.07694870  1.0
  O  O68  1  0.37045644  0.50155127  0.07699386  1.0
  O  O69  1  0.36369449  0.49886528  0.93448439  1.0
  O  O70  1  0.50124085  0.63626320  0.06560039  1.0
  O  O71  1  0.49865646  0.62931365  0.92308739  1.0
  O  O72  1  0.62946896  0.49796169  0.92296559  1.0
  O  O73  1  0.63623810  0.50095814  0.06548080  1.0
  F  F74  1  0.61823110  0.61796719  0.22418770  1.0
  F  F75  1  0.38192376  0.38189246  0.77579400  1.0
  F  F76  1  0.51197346  0.09799414  0.22909769  1.0
  F  F77  1  0.51212142  0.92051957  0.22612146  1.0
  F  F78  1  0.48870750  0.07932161  0.77389867  1.0
  F  F79  1  0.48874835  0.90187340  0.77094208  1.0
  F  F80  1  0.91997924  0.50970149  0.22598810  1.0
  F  F81  1  0.09742295  0.50924502  0.22904758  1.0
  F  F82  1  0.90245353  0.48768058  0.77084966  1.0
  F  F83  1  0.07996392  0.48768843  0.77390827  1.0
