# generated using pymatgen
data_AlH3C8Cl2O5
_symmetry_space_group_name_H-M   'P 1'
_cell_length_a   6.66232644
_cell_length_b   12.37292057
_cell_length_c   17.30824677
_cell_angle_alpha   89.86239942
_cell_angle_beta   89.25183551
_cell_angle_gamma   88.90348947
_symmetry_Int_Tables_number   1
_chemical_formula_structural   AlH3C8Cl2O5
_chemical_formula_sum   'Al4 H12 C32 Cl8 O20'
_cell_volume   1426.37475439
_cell_formula_units_Z   4
loop_
 _symmetry_equiv_pos_site_id
 _symmetry_equiv_pos_as_xyz
  1  'x, y, z'
loop_
 _atom_site_type_symbol
 _atom_site_label
 _atom_site_symmetry_multiplicity
 _atom_site_fract_x
 _atom_site_fract_y
 _atom_site_fract_z
 _atom_site_occupancy
  Al  Al0  1  0.00205931  0.00333695  0.49761319  1.0
  Al  Al1  1  0.50247990  0.99783873  0.49934587  1.0
  Al  Al2  1  0.99751943  0.50216591  0.00065452  1.0
  Al  Al3  1  0.49793875  0.49666344  0.00239015  1.0
  H  H4  1  0.25337610  0.13529651  0.52838641  1.0
  H  H5  1  0.76447047  0.86980469  0.53369172  1.0
  H  H6  1  0.24664281  0.36470981  0.97160418  1.0
  H  H7  1  0.73555077  0.63020259  0.96632193  1.0
  H  H8  1  0.46473647  0.36748651  0.21028011  1.0
  H  H9  1  0.03529956  0.13249674  0.28971623  1.0
  H  H10  1  0.96297123  0.75469291  0.84160948  1.0
  H  H11  1  0.53701853  0.74531777  0.65839845  1.0
  H  H12  1  0.52978076  0.74528325  0.15479390  1.0
  H  H13  1  0.97017663  0.75471675  0.34520600  1.0
  H  H14  1  0.47203800  0.24709186  0.84561634  1.0
  H  H15  1  0.02792102  0.25291801  0.65436283  1.0
  C  C16  1  0.74592798  0.12359741  0.60827948  1.0
  C  C17  1  0.74440577  0.12692575  0.39323467  1.0
  C  C18  1  0.25755491  0.88189256  0.38893790  1.0
  C  C19  1  0.25118218  0.87457729  0.60676990  1.0
  C  C20  1  0.75406126  0.37642158  0.89170992  1.0
  C  C21  1  0.75562750  0.37307246  0.10676446  1.0
  C  C22  1  0.24244983  0.61810517  0.11107125  1.0
  C  C23  1  0.24881454  0.62543294  0.89323811  1.0
  C  C24  1  0.74219356  0.19394330  0.32120872  1.0
  C  C25  1  0.75783723  0.30604201  0.17877540  1.0
  C  C26  1  0.58015234  0.26102238  0.29835021  1.0
  C  C27  1  0.91986371  0.23893955  0.20164205  1.0
  C  C28  1  0.58977381  0.31547042  0.22791277  1.0
  C  C29  1  0.91026942  0.18449787  0.27206498  1.0
  C  C30  1  0.24337052  0.81231259  0.68110536  1.0
  C  C31  1  0.25663730  0.68766607  0.81890150  1.0
  C  C32  1  0.08055519  0.81476736  0.73400039  1.0
  C  C33  1  0.41940754  0.68522528  0.76599674  1.0
  C  C34  1  0.08945048  0.75287363  0.80119373  1.0
  C  C35  1  0.41054827  0.74712126  0.69880158  1.0
  C  C36  1  0.26066674  0.81604412  0.31642338  1.0
  C  C37  1  0.23928134  0.68393288  0.18358533  1.0
  C  C38  1  0.41904269  0.81377144  0.26162064  1.0
  C  C39  1  0.08097388  0.68623269  0.23839136  1.0
  C  C40  1  0.40667960  0.74782062  0.19678503  1.0
  C  C41  1  0.09325921  0.75216774  0.30322658  1.0
  C  C42  1  0.74071914  0.18689794  0.68195501  1.0
  C  C43  1  0.75927769  0.31312264  0.81802802  1.0
  C  C44  1  0.58303194  0.18530087  0.73701257  1.0
  C  C45  1  0.91689731  0.31472248  0.76297002  1.0
  C  C46  1  0.59439782  0.24807935  0.80338927  1.0
  C  C47  1  0.90557507  0.25194217  0.69658976  1.0
  Cl  Cl48  1  0.36842801  0.28307548  0.35518901  1.0
  Cl  Cl49  1  0.13161867  0.21690853  0.14479922  1.0
  Cl  Cl50  1  0.86738452  0.89460114  0.72225987  1.0
  Cl  Cl51  1  0.63261598  0.60539817  0.77774689  1.0
  Cl  Cl52  1  0.62802876  0.89326827  0.26867306  1.0
  Cl  Cl53  1  0.87193636  0.60670177  0.23134361  1.0
  Cl  Cl54  1  0.37450601  0.10534951  0.72872484  1.0
  Cl  Cl55  1  0.12545122  0.39468463  0.77124679  1.0
  O  O56  1  0.91982871  0.09820049  0.58188075  1.0
  O  O57  1  0.57792446  0.09214849  0.41787727  1.0
  O  O58  1  0.42265226  0.89802992  0.42231329  1.0
  O  O59  1  0.08628636  0.89546262  0.57345213  1.0
  O  O60  1  0.08529083  0.91425734  0.41285211  1.0
  O  O61  1  0.42511970  0.90000621  0.58209547  1.0
  O  O62  1  0.57973791  0.10189912  0.57734987  1.0
  O  O63  1  0.91487729  0.10736362  0.42326457  1.0
  O  O64  1  0.25163007  0.06611229  0.50230763  1.0
  O  O65  1  0.75641024  0.93383781  0.50134046  1.0
  O  O66  1  0.92026339  0.39812305  0.92263372  1.0
  O  O67  1  0.58515878  0.39264023  0.07673917  1.0
  O  O68  1  0.41472116  0.58575409  0.08715701  1.0
  O  O69  1  0.07489645  0.59999907  0.91792117  1.0
  O  O70  1  0.07736315  0.60195562  0.07769874  1.0
  O  O71  1  0.41371649  0.60454517  0.92655183  1.0
  O  O72  1  0.58015911  0.40180233  0.91811964  1.0
  O  O73  1  0.92209825  0.40785705  0.08211726  1.0
  O  O74  1  0.24836922  0.43388359  0.99769803  1.0
  O  O75  1  0.74359333  0.56616068  0.99866398  1.0
