# generated using pymatgen
data_Zn4H5C36I7Br6O13
_symmetry_space_group_name_H-M   'P 1'
_cell_length_a   18.15977787
_cell_length_b   18.16105277
_cell_length_c   18.21242053
_cell_angle_alpha   119.83185901
_cell_angle_beta   90.32168399
_cell_angle_gamma   119.33317209
_symmetry_Int_Tables_number   1
_chemical_formula_structural   Zn4H5C36I7Br6O13
_chemical_formula_sum   'Zn8 H10 C72 I14 Br12 O26'
_cell_volume   4288.54986263
_cell_formula_units_Z   2
loop_
 _symmetry_equiv_pos_site_id
 _symmetry_equiv_pos_as_xyz
  1  'x, y, z'
loop_
 _atom_site_type_symbol
 _atom_site_label
 _atom_site_symmetry_multiplicity
 _atom_site_fract_x
 _atom_site_fract_y
 _atom_site_fract_z
 _atom_site_occupancy
  Zn  Zn0  1  0.63409319  0.59181690  0.54378148  1.0
  Zn  Zn1  1  0.04671664  0.59767410  0.13534066  1.0
  Zn  Zn2  1  0.45707102  0.59305196  0.54937761  1.0
  Zn  Zn3  1  0.46277326  0.42340929  0.37248829  1.0
  Zn  Zn4  1  0.04844798  0.41549297  0.96251886  1.0
  Zn  Zn5  1  0.04716853  0.58321494  0.95170797  1.0
  Zn  Zn6  1  0.45652867  0.41412731  0.54385148  1.0
  Zn  Zn7  1  0.87425352  0.41644179  0.96162613  1.0
  H  H8  1  0.79892550  0.65921964  0.39767699  1.0
  H  H9  1  0.25800957  0.49510249  0.14535716  1.0
  H  H10  1  0.35020516  0.48822159  0.23994407  1.0
  H  H11  1  0.70066533  0.77603116  0.96467813  1.0
  H  H12  1  0.76786895  0.75370521  0.06425471  1.0
  H  H13  1  0.72198467  0.81519603  0.52182631  1.0
  H  H14  1  0.06543192  0.81308822  0.05312581  1.0
  H  H15  1  0.17550502  0.58404086  0.78051725  1.0
  H  H16  1  0.88623194  0.19734399  0.70707165  1.0
  H  H17  1  0.24297087  0.19587424  0.26106780  1.0
  C  C18  1  0.37036571  0.22862625  0.35801985  1.0
  C  C19  1  0.30489806  0.45994850  0.75248315  1.0
  C  C20  1  0.23461385  0.47935685  0.19404357  1.0
  C  C21  1  0.70715209  0.66679012  0.84611604  1.0
  C  C22  1  0.78970455  0.64818622  0.95959500  1.0
  C  C23  1  0.71889777  0.72107754  0.93648388  1.0
  C  C24  1  0.75789105  0.70941720  0.99285759  1.0
  C  C25  1  0.77582799  0.58674716  0.86557496  1.0
  C  C26  1  0.71130775  0.42098880  0.15371268  1.0
  C  C27  1  0.72755624  0.59154181  0.80569489  1.0
  C  C28  1  0.70402693  0.52182102  0.71106609  1.0
  C  C29  1  0.80696103  0.52197046  0.82651910  1.0
  C  C30  1  0.73321011  0.45756435  0.67654843  1.0
  C  C31  1  0.78702995  0.45957204  0.73466093  1.0
  C  C32  1  0.33358732  0.48051091  0.37332403  1.0
  C  C33  1  0.11619010  0.48963207  0.15114507  1.0
  C  C34  1  0.37850327  0.51652703  0.65538028  1.0
  C  C35  1  0.86133502  0.50863601  0.13322393  1.0
  C  C36  1  0.64394433  0.50333795  0.36248168  1.0
  C  C37  1  0.67233897  0.40683937  0.21738093  1.0
  C  C38  1  0.12739546  0.48083640  0.85044439  1.0
  C  C39  1  0.60730120  0.30426235  0.19081283  1.0
  C  C40  1  0.19339922  0.33367025  0.77564307  1.0
  C  C41  1  0.56657452  0.22205460  0.10101722  1.0
  C  C42  1  0.25028311  0.30572428  0.78381905  1.0
  C  C43  1  0.22391938  0.42074747  0.77229925  1.0
  C  C44  1  0.58561479  0.24427758  0.03562677  1.0
  C  C45  1  0.34155202  0.36817233  0.79225840  1.0
  C  C46  1  0.70171411  0.49770627  0.30424969  1.0
  C  C47  1  0.18147106  0.47400184  0.78846517  1.0
  C  C48  1  0.86421559  0.22764349  0.85382486  1.0
  C  C49  1  0.77883781  0.59079444  0.33182758  1.0
  C  C50  1  0.20657209  0.54214834  0.76458556  1.0
  C  C51  1  0.83248356  0.59712534  0.27660439  1.0
  C  C52  1  0.27178870  0.55890547  0.72187119  1.0
  C  C53  1  0.80040729  0.51338475  0.18724935  1.0
  C  C54  1  0.32168272  0.51845410  0.71515940  1.0
  C  C55  1  0.75765618  0.89880084  0.56322228  1.0
  C  C56  1  0.10492875  0.89669863  0.09979441  1.0
  C  C57  1  0.80624327  0.95321462  0.52902370  1.0
  C  C58  1  0.07845324  0.95065081  0.08800687  1.0
  C  C59  1  0.85147139  0.06224211  0.58038784  1.0
  C  C60  1  0.12808893  0.05992067  0.14773983  1.0
  C  C61  1  0.63902354  0.77987369  0.62485536  1.0
  C  C62  1  0.15505948  0.77919311  0.12688441  1.0
  C  C63  1  0.85187518  0.11387445  0.66764411  1.0
  C  C64  1  0.65664190  0.34149666  0.06136402  1.0
  C  C65  1  0.20473367  0.11213844  0.21645139  1.0
  C  C66  1  0.80457244  0.05998118  0.70524457  1.0
  C  C67  1  0.23578442  0.05919562  0.22802741  1.0
  C  C68  1  0.75275373  0.94994470  0.65050369  1.0
  C  C69  1  0.18415603  0.94888743  0.16917115  1.0
  C  C70  1  0.36716956  0.44170273  0.77459315  1.0
  C  C71  1  0.69428287  0.89568714  0.68353673  1.0
  C  C72  1  0.21469575  0.89547475  0.18158746  1.0
  C  C73  1  0.68661413  0.94828213  0.76697426  1.0
  C  C74  1  0.29639167  0.94981670  0.24536687  1.0
  C  C75  1  0.74415735  0.05791426  0.82430691  1.0
  C  C76  1  0.34825979  0.05947169  0.30309935  1.0
  C  C77  1  0.80320528  0.11208009  0.79438026  1.0
  C  C78  1  0.31712123  0.11270776  0.29613627  1.0
  C  C79  1  0.13768414  0.41025273  0.37989067  1.0
  C  C80  1  0.03265712  0.41398572  0.26984001  1.0
  C  C81  1  0.06128139  0.40676412  0.39624373  1.0
  C  C82  1  0.00825833  0.40954961  0.34069184  1.0
  C  C83  1  0.12046382  0.44236590  0.26558153  1.0
  C  C84  1  0.17494787  0.43971942  0.32214907  1.0
  C  C85  1  0.64419512  0.51073138  0.64284718  1.0
  C  C86  1  0.86548477  0.51833663  0.88146338  1.0
  C  C87  1  0.26006660  0.46092552  0.31267621  1.0
  C  C88  1  0.15510793  0.46778657  0.20505623  1.0
  C  C89  1  0.28628726  0.47542883  0.24708618  1.0
  I  I90  1  0.91353506  0.14721852  0.52671678  1.0
  I  I91  1  0.93161944  0.34890997  0.15564812  1.0
  I  I92  1  0.18483722  0.34931819  0.42526171  1.0
  I  I93  1  0.01839991  0.38754066  0.49656362  1.0
  I  I94  1  0.89036251  0.39984160  0.36044212  1.0
  I  I95  1  0.47826921  0.07029569  0.06199576  1.0
  I  I96  1  0.20471850  0.17630512  0.78554958  1.0
  I  I97  1  0.09006517  0.14572882  0.13403394  1.0
  I  I98  1  0.95767267  0.74014748  0.34477111  1.0
  I  I99  1  0.28448082  0.64756616  0.67410474  1.0
  I  I100  1  0.58819651  0.86543403  0.80620816  1.0
  I  I101  1  0.34379519  0.86735357  0.25198300  1.0
  I  I102  1  0.73926913  0.13868385  0.95424845  1.0
  I  I103  1  0.47452378  0.14471746  0.39799670  1.0
  Br  Br104  1  0.70204581  0.36754983  0.55044202  1.0
  Br  Br105  1  0.06978775  0.24550013  0.75285187  1.0
  Br  Br106  1  0.58920244  0.28107718  0.28200299  1.0
  Br  Br107  1  0.51278436  0.14125727  0.91427751  1.0
  Br  Br108  1  0.42714424  0.35170522  0.82810875  1.0
  Br  Br109  1  0.66876157  0.37601091  0.97759195  1.0
  Br  Br110  1  0.48925400  0.53505081  0.79780583  1.0
  Br  Br111  1  0.83168674  0.37617081  0.68709435  1.0
  Br  Br112  1  0.80990859  0.87799679  0.41216937  1.0
  Br  Br113  1  0.97624134  0.87549045  0.98900596  1.0
  Br  Br114  1  0.67096507  0.71032951  0.78550614  1.0
  Br  Br115  1  0.85573029  0.65949426  0.05104748  1.0
  O  O116  1  0.50346536  0.50630897  0.50382410  1.0
  O  O117  1  0.10944738  0.44039004  0.06876797  1.0
  O  O118  1  0.36821488  0.43154493  0.33314694  1.0
  O  O119  1  0.37695355  0.26840492  0.44032223  1.0
  O  O120  1  0.82663261  0.27383687  0.86474209  1.0
  O  O121  1  0.55593062  0.73333740  0.58874674  1.0
  O  O122  1  0.12136683  0.74131502  0.17043526  1.0
  O  O123  1  0.00526131  0.50444272  0.00382496  1.0
  O  O124  1  0.40252730  0.27573474  0.32104622  1.0
  O  O125  1  0.94691675  0.26768880  0.88562200  1.0
  O  O126  1  0.68216318  0.73954897  0.61621254  1.0
  O  O127  1  0.14199203  0.73032603  0.04279645  1.0
  O  O128  1  0.56047227  0.45058004  0.62412831  1.0
  O  O129  1  0.82480845  0.44894440  0.89535931  1.0
  O  O130  1  0.36115323  0.55121344  0.45672884  1.0
  O  O131  1  0.10279652  0.56078346  0.19220788  1.0
  O  O132  1  0.37103134  0.43133597  0.60549152  1.0
  O  O133  1  0.83569467  0.42016430  0.06345384  1.0
  O  O134  1  0.56103094  0.45633849  0.32307123  1.0
  O  O135  1  0.13722194  0.46036777  0.90596868  1.0
  O  O136  1  0.42391989  0.59534348  0.65345759  1.0
  O  O137  1  0.93792964  0.59130830  0.16154087  1.0
  O  O138  1  0.68451927  0.56247372  0.44646235  1.0
  O  O139  1  0.68419650  0.55874486  0.60854675  1.0
  O  O140  1  0.08099882  0.51512645  0.84840957  1.0
  O  O141  1  0.94904047  0.58159845  0.90331273  1.0
