# generated using pymatgen
data_CuH12C18(NO)3
_symmetry_space_group_name_H-M   'P 1'
_cell_length_a   15.30783739
_cell_length_b   19.37361449
_cell_length_c   20.89910552
_cell_angle_alpha   89.99993030
_cell_angle_beta   80.33118880
_cell_angle_gamma   89.99977692
_symmetry_Int_Tables_number   1
_chemical_formula_structural   CuH12C18(NO)3
_chemical_formula_sum   'Cu8 H96 C144 N24 O24'
_cell_volume   6109.96638803
_cell_formula_units_Z   8
loop_
 _symmetry_equiv_pos_site_id
 _symmetry_equiv_pos_as_xyz
  1  'x, y, z'
loop_
 _atom_site_type_symbol
 _atom_site_label
 _atom_site_symmetry_multiplicity
 _atom_site_fract_x
 _atom_site_fract_y
 _atom_site_fract_z
 _atom_site_occupancy
  Cu  Cu0  1  0.32267999  0.46511687  0.76168661  1.0
  Cu  Cu1  1  0.45428296  0.53974751  0.82837382  1.0
  Cu  Cu2  1  0.32268077  0.03487534  0.26168628  1.0
  Cu  Cu3  1  0.45428503  0.96024242  0.32837047  1.0
  Cu  Cu4  1  0.67733562  0.96513971  0.73830491  1.0
  Cu  Cu5  1  0.54571801  0.03979172  0.67163570  1.0
  Cu  Cu6  1  0.67733971  0.53486979  0.23830370  1.0
  Cu  Cu7  1  0.54572406  0.46021282  0.17162997  1.0
  H  H8  1  0.37281555  0.04950040  0.11577343  1.0
  H  H9  1  0.38403738  0.13634639  0.02685798  1.0
  H  H10  1  0.30125836  0.29081528  0.17422886  1.0
  H  H11  1  0.30045252  0.19765811  0.25647603  1.0
  H  H12  1  0.32455606  0.19749759  0.96665115  1.0
  H  H13  1  0.32129247  0.28325811  0.87967215  1.0
  H  H14  1  0.34312400  0.44778654  0.01409191  1.0
  H  H15  1  0.34812712  0.36276104  0.10147809  1.0
  H  H16  1  0.17031733  0.37794026  0.80477692  1.0
  H  H17  1  0.00571917  0.38491907  0.82028179  1.0
  H  H18  1  0.03383040  0.60339919  0.78009234  1.0
  H  H19  1  0.19734693  0.58604803  0.76199845  1.0
  H  H20  1  0.88529377  0.42365386  0.88673805  1.0
  H  H21  1  0.72082758  0.43126652  0.90132954  1.0
  H  H22  1  0.74042872  0.58744653  0.75432895  1.0
  H  H23  1  0.90542436  0.58051108  0.73826187  1.0
  H  H24  1  0.44475103  0.96577358  0.46660249  1.0
  H  H25  1  0.42827031  0.88507978  0.55888470  1.0
  H  H26  1  0.43760598  0.71823179  0.41880594  1.0
  H  H27  1  0.44884481  0.80809374  0.33274988  1.0
  H  H28  1  0.47037610  0.80837277  0.61944342  1.0
  H  H29  1  0.44350328  0.72481787  0.70971688  1.0
  H  H30  1  0.33119513  0.58167808  0.58898394  1.0
  H  H31  1  0.35640715  0.66530318  0.49777906  1.0
  H  H32  1  0.37282544  0.45048926  0.61577299  1.0
  H  H33  1  0.38405101  0.36364645  0.52685671  1.0
  H  H34  1  0.30126614  0.20917608  0.67422416  1.0
  H  H35  1  0.30045981  0.30233107  0.75647558  1.0
  H  H36  1  0.32455756  0.30249795  0.46664756  1.0
  H  H37  1  0.32129505  0.21673807  0.37966805  1.0
  H  H38  1  0.34313518  0.05220954  0.51408792  1.0
  H  H39  1  0.34814055  0.13723542  0.60147183  1.0
  H  H40  1  0.17031765  0.12205442  0.30478133  1.0
  H  H41  1  0.00571822  0.11507662  0.32028397  1.0
  H  H42  1  0.03382875  0.89659726  0.28009524  1.0
  H  H43  1  0.19734518  0.91394639  0.26200231  1.0
  H  H44  1  0.88529304  0.07634110  0.38673498  1.0
  H  H45  1  0.72082624  0.06873099  0.40132464  1.0
  H  H46  1  0.74043036  0.91254985  0.25432522  1.0
  H  H47  1  0.90542661  0.91948430  0.23826046  1.0
  H  H48  1  0.44475761  0.53422084  0.96660482  1.0
  H  H49  1  0.42827997  0.61491833  0.05888417  1.0
  H  H50  1  0.43760879  0.78176014  0.91879840  1.0
  H  H51  1  0.44884338  0.69189414  0.83274772  1.0
  H  H52  1  0.47038210  0.69161946  0.11944085  1.0
  H  H53  1  0.44350423  0.77517277  0.20971578  1.0
  H  H54  1  0.33120138  0.91831513  0.08897775  1.0
  H  H55  1  0.35642626  0.83469199  0.99777142  1.0
  H  H56  1  0.62718688  0.54950204  0.38423017  1.0
  H  H57  1  0.61596133  0.63634640  0.47314453  1.0
  H  H58  1  0.69873828  0.79081316  0.32577324  1.0
  H  H59  1  0.69954325  0.69765713  0.24352628  1.0
  H  H60  1  0.67544151  0.69750729  0.53335813  1.0
  H  H61  1  0.67869542  0.78326975  0.62033579  1.0
  H  H62  1  0.65685533  0.94779209  0.48591017  1.0
  H  H63  1  0.65185856  0.86276465  0.39852763  1.0
  H  H64  1  0.82968480  0.87796062  0.69521295  1.0
  H  H65  1  0.99428615  0.88493688  0.67972013  1.0
  H  H66  1  0.96615916  0.10342295  0.71989742  1.0
  H  H67  1  0.80264344  0.08606917  0.73798214  1.0
  H  H68  1  0.11470806  0.92367550  0.61326377  1.0
  H  H69  1  0.27917544  0.93127735  0.59868600  1.0
  H  H70  1  0.25955941  0.08746107  0.74568396  1.0
  H  H71  1  0.09456389  0.08053023  0.76173955  1.0
  H  H72  1  0.55524336  0.46577201  0.03341069  1.0
  H  H73  1  0.57171048  0.38508484  0.94112206  1.0
  H  H74  1  0.56238440  0.21822807  0.08119507  1.0
  H  H75  1  0.55114778  0.30808581  0.16725173  1.0
  H  H76  1  0.52961836  0.30837649  0.88055606  1.0
  H  H77  1  0.55650351  0.22482679  0.79028026  1.0
  H  H78  1  0.66880174  0.08168134  0.91101598  1.0
  H  H79  1  0.64356890  0.16529776  0.00222468  1.0
  H  H80  1  0.62718818  0.95050329  0.88422836  1.0
  H  H81  1  0.61596504  0.86365884  0.97314109  1.0
  H  H82  1  0.69874540  0.70919409  0.82576813  1.0
  H  H83  1  0.69955123  0.80235177  0.74352384  1.0
  H  H84  1  0.67543972  0.80249680  0.03335110  1.0
  H  H85  1  0.67870067  0.71673525  0.12032803  1.0
  H  H86  1  0.65686984  0.55221044  0.98590388  1.0
  H  H87  1  0.65186870  0.63723852  0.89851937  1.0
  H  H88  1  0.82968513  0.62204949  0.19521640  1.0
  H  H89  1  0.99428654  0.61506862  0.17971928  1.0
  H  H90  1  0.96615684  0.39658230  0.21990136  1.0
  H  H91  1  0.80264103  0.41394224  0.23798751  1.0
  H  H92  1  0.11471064  0.57632609  0.11326126  1.0
  H  H93  1  0.27917606  0.56871910  0.09868374  1.0
  H  H94  1  0.25955768  0.41254168  0.24568686  1.0
  H  H95  1  0.09456213  0.41947609  0.26174292  1.0
  H  H96  1  0.55524397  0.03423475  0.53341421  1.0
  H  H97  1  0.57171352  0.11491720  0.44112185  1.0
  H  H98  1  0.56238920  0.28177964  0.58118777  1.0
  H  H99  1  0.55114902  0.19192646  0.66724782  1.0
  H  H100  1  0.52962039  0.19163505  0.38055253  1.0
  H  H101  1  0.55650314  0.27518737  0.29027837  1.0
  H  H102  1  0.66880401  0.41832922  0.41101217  1.0
  H  H103  1  0.64358204  0.33471032  0.50221872  1.0
  C  C104  1  0.35764938  0.10386147  0.12611724  1.0
  C  C105  1  0.36234734  0.15256433  0.07691703  1.0
  C  C106  1  0.33942956  0.22169343  0.09213033  1.0
  C  C107  1  0.31796228  0.23814569  0.15843076  1.0
  C  C108  1  0.31642430  0.18635822  0.20463529  1.0
  C  C109  1  0.33659428  0.27350775  0.04083013  1.0
  C  C110  1  0.32896586  0.25222098  0.97764182  1.0
  C  C111  1  0.32617469  0.30009850  0.92867574  1.0
  C  C112  1  0.33152570  0.37090200  0.94128884  1.0
  C  C113  1  0.33839203  0.39279424  0.00421719  1.0
  C  C114  1  0.34047549  0.34468289  0.05335417  1.0
  C  C115  1  0.13691917  0.42661425  0.79890622  1.0
  C  C116  1  0.04528259  0.43135743  0.80851040  1.0
  C  C117  1  0.00436578  0.49522478  0.80150262  1.0
  C  C118  1  0.06080030  0.55192863  0.78475064  1.0
  C  C119  1  0.15214738  0.54301947  0.77525989  1.0
  C  C120  1  0.90717600  0.50143544  0.81131585  1.0
  C  C121  1  0.85408909  0.45923325  0.85697506  1.0
  C  C122  1  0.76225186  0.46359395  0.86578874  1.0
  C  C123  1  0.72103222  0.50997052  0.82891436  1.0
  C  C124  1  0.77338578  0.55233375  0.78340089  1.0
  C  C125  1  0.86541942  0.54839321  0.77488344  1.0
  C  C126  1  0.62140320  0.51290197  0.83885761  1.0
  C  C127  1  0.33366272  0.42152449  0.88696225  1.0
  C  C128  1  0.44181397  0.91038486  0.45884760  1.0
  C  C129  1  0.43316447  0.86404501  0.51003151  1.0
  C  C130  1  0.42926808  0.79299013  0.49776718  1.0
  C  C131  1  0.43683892  0.77252831  0.43246600  1.0
  C  C132  1  0.44463727  0.82190425  0.38372237  1.0
  C  C133  1  0.41636277  0.74269491  0.55143038  1.0
  C  C134  1  0.43993038  0.75882450  0.61197700  1.0
  C  C135  1  0.42536282  0.71182655  0.66295478  1.0
  C  C136  1  0.38672071  0.64754692  0.65477510  1.0
  C  C137  1  0.36262340  0.63123615  0.59467629  1.0
  C  C138  1  0.37741742  0.67809422  0.54369403  1.0
  C  C139  1  0.37092224  0.59682328  0.70975236  1.0
  C  C140  1  0.35765689  0.39612978  0.62611619  1.0
  C  C141  1  0.36235841  0.34742748  0.57691513  1.0
  C  C142  1  0.33943567  0.27829998  0.59212718  1.0
  C  C143  1  0.31796979  0.26184460  0.65842794  1.0
  C  C144  1  0.31642824  0.31363202  0.70463475  1.0
  C  C145  1  0.33660065  0.22648419  0.54082557  1.0
  C  C146  1  0.32896630  0.24777402  0.47763746  1.0
  C  C147  1  0.32617736  0.19989399  0.42867069  1.0
  C  C148  1  0.33152936  0.12909252  0.44128471  1.0
  C  C149  1  0.33840228  0.10720032  0.50421325  1.0
  C  C150  1  0.34048419  0.15531263  0.55334894  1.0
  C  C151  1  0.13692038  0.07337951  0.29891153  1.0
  C  C152  1  0.04528318  0.06863866  0.30851244  1.0
  C  C153  1  0.00436604  0.00476990  0.30150190  1.0
  C  C154  1  0.06080106  0.94806774  0.28475320  1.0
  C  C155  1  0.15214677  0.95697404  0.27526213  1.0
  C  C156  1  0.90717389  0.99855932  0.31131487  1.0
  C  C157  1  0.85408721  0.04076339  0.35697264  1.0
  C  C158  1  0.76225066  0.03640348  0.36578625  1.0
  C  C159  1  0.72103282  0.99002634  0.32890972  1.0
  C  C160  1  0.77338657  0.94766300  0.28339914  1.0
  C  C161  1  0.86542286  0.95160379  0.27487898  1.0
  C  C162  1  0.62139850  0.98709724  0.33885600  1.0
  C  C163  1  0.33366660  0.07846803  0.38696102  1.0
  C  C164  1  0.44182096  0.58960752  0.95884790  1.0
  C  C165  1  0.43317139  0.63594954  0.01002985  1.0
  C  C166  1  0.42928051  0.70700378  0.99776049  1.0
  C  C167  1  0.43684529  0.72746515  0.93246001  1.0
  C  C168  1  0.44464386  0.67808770  0.88371975  1.0
  C  C169  1  0.41637573  0.75729912  0.05142691  1.0
  C  C170  1  0.43993547  0.74116834  0.11197545  1.0
  C  C171  1  0.42536105  0.78816524  0.16295542  1.0
  C  C172  1  0.38671599  0.85244448  0.15477364  1.0
  C  C173  1  0.36262855  0.86875489  0.09467220  1.0
  C  C174  1  0.37743075  0.82190097  0.04368901  1.0
  C  C175  1  0.37091862  0.90317068  0.20974783  1.0
  C  C176  1  0.64235277  0.60386101  0.37388872  1.0
  C  C177  1  0.63765524  0.65256434  0.42308739  1.0
  C  C178  1  0.66057069  0.72169338  0.40787573  1.0
  C  C179  1  0.68203659  0.73814618  0.34157305  1.0
  C  C180  1  0.68357547  0.68635825  0.29536943  1.0
  C  C181  1  0.66340044  0.77351434  0.45917461  1.0
  C  C182  1  0.67103212  0.75223070  0.52236495  1.0
  C  C183  1  0.67381445  0.80011228  0.57133204  1.0
  C  C184  1  0.66846313  0.87091220  0.55871411  1.0
  C  C185  1  0.66159021  0.89280130  0.49578604  1.0
  C  C186  1  0.65951426  0.84468641  0.44664965  1.0
  C  C187  1  0.86308607  0.92663605  0.70108036  1.0
  C  C188  1  0.95472388  0.93137638  0.69148607  1.0
  C  C189  1  0.99562845  0.99524875  0.69849572  1.0
  C  C190  1  0.93919150  0.05195196  0.71523747  1.0
  C  C191  1  0.84784977  0.04304513  0.72472664  1.0
  C  C192  1  0.09281925  0.00146089  0.68868674  1.0
  C  C193  1  0.14590657  0.95925217  0.64303129  1.0
  C  C194  1  0.23774836  0.96360383  0.63422519  1.0
  C  C195  1  0.27896556  0.00998458  0.67109892  1.0
  C  C196  1  0.22661181  0.05234792  0.71660903  1.0
  C  C197  1  0.13457291  0.04841177  0.72512423  1.0
  C  C198  1  0.37859852  0.01291109  0.66115664  1.0
  C  C199  1  0.66632658  0.92153876  0.61303484  1.0
  C  C200  1  0.55817743  0.41038223  0.04115834  1.0
  C  C201  1  0.56682439  0.36404641  0.98997192  1.0
  C  C202  1  0.57071661  0.29298907  0.00223874  1.0
  C  C203  1  0.56315185  0.27252254  0.06753682  1.0
  C  C204  1  0.55535525  0.32189431  0.11628019  1.0
  C  C205  1  0.58362804  0.24269683  0.94856865  1.0
  C  C206  1  0.56006366  0.25882812  0.88802162  1.0
  C  C207  1  0.57464271  0.21183380  0.83704205  1.0
  C  C208  1  0.61328845  0.14755456  0.84522088  1.0
  C  C209  1  0.63737457  0.13124106  0.90532152  1.0
  C  C210  1  0.62256773  0.17809343  0.95630670  1.0
  C  C211  1  0.62909377  0.09683559  0.79024526  1.0
  C  C212  1  0.64235765  0.89614635  0.87388558  1.0
  C  C213  1  0.63766168  0.84744194  0.92308412  1.0
  C  C214  1  0.66057617  0.77831388  0.90786883  1.0
  C  C215  1  0.68204346  0.76186110  0.84156696  1.0
  C  C216  1  0.68358407  0.81365115  0.79536499  1.0
  C  C217  1  0.66340548  0.72649284  0.95917069  1.0
  C  C218  1  0.67103390  0.74777445  0.02235996  1.0
  C  C219  1  0.67381978  0.69989486  0.07132476  1.0
  C  C220  1  0.66846947  0.62909446  0.05870679  1.0
  C  C221  1  0.66160314  0.60720377  0.99577796  1.0
  C  C222  1  0.65952231  0.65531615  0.94664401  1.0
  C  C223  1  0.86308664  0.57337241  0.20108240  1.0
  C  C224  1  0.95472118  0.56862871  0.19148564  1.0
  C  C225  1  0.99562803  0.50475620  0.19849652  1.0
  C  C226  1  0.93918959  0.44805390  0.21524179  1.0
  C  C227  1  0.84784782  0.45696409  0.22473094  1.0
  C  C228  1  0.09282046  0.49854141  0.18868297  1.0
  C  C229  1  0.14590931  0.54075083  0.14302975  1.0
  C  C230  1  0.23774849  0.53639167  0.13422206  1.0
  C  C231  1  0.27896613  0.49001356  0.17109859  1.0
  C  C232  1  0.22660861  0.44765135  0.21660919  1.0
  C  C233  1  0.13457167  0.45159242  0.22512559  1.0
  C  C234  1  0.37859977  0.48708778  0.16115670  1.0
  C  C235  1  0.66633445  0.57846836  0.11303074  1.0
  C  C236  1  0.55818177  0.08962554  0.54115992  1.0
  C  C237  1  0.56683264  0.13595868  0.48996963  1.0
  C  C238  1  0.57072970  0.20701769  0.50223292  1.0
  C  C239  1  0.56316021  0.22748415  0.56753059  1.0
  C  C240  1  0.55535853  0.17811544  0.61627749  1.0
  C  C241  1  0.58363638  0.25731033  0.44856477  1.0
  C  C242  1  0.56007076  0.24118074  0.38801696  1.0
  C  C243  1  0.57464293  0.28817869  0.33704102  1.0
  C  C244  1  0.61328703  0.35245780  0.34522142  1.0
  C  C245  1  0.63737705  0.36877063  0.40532062  1.0
  C  C246  1  0.62257642  0.32191411  0.45630271  1.0
  C  C247  1  0.62908948  0.40317525  0.29024273  1.0
  N  N248  1  0.33363428  0.11976299  0.18925398  1.0
  N  N249  1  0.19012255  0.48131125  0.78200799  1.0
  N  N250  1  0.45535510  0.46991185  0.76067194  1.0
  N  N251  1  0.49669276  0.41606587  0.75699931  1.0
  N  N252  1  0.53583738  0.36451529  0.75026379  1.0
  N  N253  1  0.44583340  0.88992098  0.39682846  1.0
  N  N254  1  0.33364055  0.38022619  0.68925117  1.0
  N  N255  1  0.19012206  0.01868237  0.28200973  1.0
  N  N256  1  0.45535790  0.03008098  0.26066993  1.0
  N  N257  1  0.49669399  0.08392477  0.25699600  1.0
  N  N258  1  0.53584035  0.13547731  0.25025926  1.0
  N  N259  1  0.44583632  0.61007251  0.89682827  1.0
  N  N260  1  0.66636647  0.61976512  0.31075261  1.0
  N  N261  1  0.80988243  0.98133371  0.71797760  1.0
  N  N262  1  0.54465242  0.96994593  0.73933538  1.0
  N  N263  1  0.50331370  0.91610937  0.74300771  1.0
  N  N264  1  0.46416407  0.86455374  0.74973814  1.0
  N  N265  1  0.55416409  0.38991002  0.10317487  1.0
  N  N266  1  0.66637143  0.88024329  0.81074901  1.0
  N  N267  1  0.80988325  0.51867644  0.21798159  1.0
  N  N268  1  0.54466120  0.53005623  0.23933074  1.0
  N  N269  1  0.50332422  0.58389240  0.24300090  1.0
  N  N270  1  0.46417766  0.63544917  0.24973091  1.0
  N  N271  1  0.55416634  0.11009871  0.60317619  1.0
  O  O272  1  0.57692560  0.47417150  0.88021937  1.0
  O  O273  1  0.58751983  0.55661356  0.80315591  1.0
  O  O274  1  0.31320916  0.39741909  0.83398440  1.0
  O  O275  1  0.35650987  0.48318460  0.89521510  1.0
  O  O276  1  0.39093228  0.61267622  0.76396206  1.0
  O  O277  1  0.33554753  0.53912064  0.69633967  1.0
  O  O278  1  0.57692246  0.02582493  0.38021664  1.0
  O  O279  1  0.58751998  0.94338064  0.30315376  1.0
  O  O280  1  0.31321426  0.10257305  0.33398204  1.0
  O  O281  1  0.35650742  0.01680836  0.39521613  1.0
  O  O282  1  0.39092806  0.88731709  0.26396002  1.0
  O  O283  1  0.33554099  0.96087138  0.19633543  1.0
  O  O284  1  0.42307255  0.97418599  0.61979958  1.0
  O  O285  1  0.41247109  0.05663492  0.69685862  1.0
  O  O286  1  0.68678023  0.89743322  0.66601558  1.0
  O  O287  1  0.64348774  0.98319585  0.60478046  1.0
  O  O288  1  0.60908301  0.11268918  0.73603324  1.0
  O  O289  1  0.66447009  0.03913644  0.80365639  1.0
  O  O290  1  0.42307266  0.52582135  0.11980556  1.0
  O  O291  1  0.41247254  0.44336381  0.19685823  1.0
  O  O292  1  0.68678600  0.60257376  0.16601218  1.0
  O  O293  1  0.64348996  0.51681238  0.10477662  1.0
  O  O294  1  0.60908077  0.38731973  0.23603239  1.0
  O  O295  1  0.66446551  0.46087531  0.30365527  1.0
