# generated using pymatgen
data_Zn4H33C42N3O16
_symmetry_space_group_name_H-M   'P 1'
_cell_length_a   20.79583881
_cell_length_b   21.42620492
_cell_length_c   21.53255026
_cell_angle_alpha   62.22215169
_cell_angle_beta   61.32672404
_cell_angle_gamma   60.97683889
_symmetry_Int_Tables_number   1
_chemical_formula_structural   Zn4H33C42N3O16
_chemical_formula_sum   'Zn8 H66 C84 N6 O32'
_cell_volume   7012.28665697
_cell_formula_units_Z   2
loop_
 _symmetry_equiv_pos_site_id
 _symmetry_equiv_pos_as_xyz
  1  'x, y, z'
loop_
 _atom_site_type_symbol
 _atom_site_label
 _atom_site_symmetry_multiplicity
 _atom_site_fract_x
 _atom_site_fract_y
 _atom_site_fract_z
 _atom_site_occupancy
  Zn  Zn0  1  0.03422832  0.03544916  0.04373203  1.0
  Zn  Zn1  1  0.04334209  0.88701385  0.04764193  1.0
  Zn  Zn2  1  0.04151986  0.02453316  0.90050483  1.0
  Zn  Zn3  1  0.88082639  0.02845070  0.04841186  1.0
  Zn  Zn4  1  0.45776249  0.45685410  0.47483075  1.0
  Zn  Zn5  1  0.46527344  0.60029560  0.47357116  1.0
  Zn  Zn6  1  0.61708102  0.45236066  0.47552155  1.0
  Zn  Zn7  1  0.45736834  0.46250714  0.61908328  1.0
  H  H8  1  0.11568796  0.94586638  0.22213462  1.0
  H  H9  1  0.18921204  0.87248419  0.31435820  1.0
  H  H10  1  0.21110644  0.75313534  0.15190187  1.0
  H  H11  1  0.37175914  0.56770344  0.30031848  1.0
  H  H12  1  0.26494519  0.65167221  0.17502091  1.0
  H  H13  1  0.31624798  0.51834081  0.20121618  1.0
  H  H14  1  0.36467104  0.50436429  0.25766626  1.0
  H  H15  1  0.26084399  0.53858906  0.28727555  1.0
  H  H16  1  0.40013357  0.60118315  0.09345797  1.0
  H  H17  1  0.43862805  0.59660164  0.15411556  1.0
  H  H18  1  0.38683480  0.68514010  0.10315784  1.0
  H  H19  1  0.22136705  0.10370089  0.94104803  1.0
  H  H20  1  0.30952387  0.18197731  0.87238388  1.0
  H  H21  1  0.13474239  0.20841535  0.75898128  1.0
  H  H22  1  0.26660943  0.38520716  0.58900708  1.0
  H  H23  1  0.13337423  0.28566481  0.67179689  1.0
  H  H24  1  0.15821707  0.33757929  0.53841560  1.0
  H  H25  1  0.22843660  0.37104333  0.52450335  1.0
  H  H26  1  0.24701627  0.27272735  0.55608079  1.0
  H  H27  1  0.05563406  0.41891297  0.62601717  1.0
  H  H28  1  0.12635414  0.44814979  0.61862585  1.0
  H  H29  1  0.07149923  0.40227428  0.70753503  1.0
  H  H30  1  0.93046131  0.21889040  0.10434717  1.0
  H  H31  1  0.86608654  0.30720594  0.18056191  1.0
  H  H32  1  0.73637958  0.14073689  0.22315302  1.0
  H  H33  1  0.57016696  0.27683952  0.39930617  1.0
  H  H34  1  0.63907129  0.15450425  0.29446007  1.0
  H  H35  1  0.49918656  0.18684865  0.35365468  1.0
  H  H36  1  0.49431371  0.24800181  0.39076793  1.0
  H  H37  1  0.52160254  0.27038174  0.29286388  1.0
  H  H38  1  0.59330425  0.07872322  0.42620288  1.0
  H  H39  1  0.59558871  0.14146902  0.45689907  1.0
  H  H40  1  0.68375088  0.08605430  0.40539229  1.0
  H  H41  1  0.10466925  0.73534528  0.94653856  1.0
  H  H42  1  0.16886999  0.64369401  0.87369663  1.0
  H  H43  1  0.21740096  0.88561750  0.75865464  1.0
  H  H44  1  0.37554071  0.75243069  0.58032063  1.0
  H  H45  1  0.27021566  0.90535091  0.65597946  1.0
  H  H46  1  0.32768066  0.94972711  0.52372170  1.0
  H  H47  1  0.37350233  0.85877087  0.51422798  1.0
  H  H48  1  0.27013927  0.89890478  0.54245944  1.0
  H  H49  1  0.40779506  0.90044762  0.61078643  1.0
  H  H50  1  0.44207810  0.80650401  0.61073590  1.0
  H  H51  1  0.38875099  0.82826132  0.69616832  1.0
  H  H52  1  0.94818238  0.74042918  0.22850333  1.0
  H  H53  1  0.88555268  0.64108010  0.31838300  1.0
  H  H54  1  0.74417036  0.87958118  0.16455195  1.0
  H  H55  1  0.57810495  0.73261556  0.30686955  1.0
  H  H56  1  0.64199887  0.88992994  0.18843523  1.0
  H  H57  1  0.50253670  0.92870202  0.22461938  1.0
  H  H58  1  0.50066875  0.83691863  0.27870884  1.0
  H  H59  1  0.52882762  0.88364545  0.30660661  1.0
  H  H60  1  0.59272468  0.87657944  0.11120512  1.0
  H  H61  1  0.60112441  0.78242985  0.16807965  1.0
  H  H62  1  0.68628279  0.80820805  0.11236610  1.0
  H  H63  1  0.93262125  0.08676074  0.75897512  1.0
  H  H64  1  0.86539321  0.16196831  0.66179121  1.0
  H  H65  1  0.73622328  0.20286619  0.90939610  1.0
  H  H66  1  0.56638821  0.37894090  0.76697694  1.0
  H  H67  1  0.63486875  0.27001282  0.92263108  1.0
  H  H68  1  0.49708821  0.33638604  0.96352240  1.0
  H  H69  1  0.49234335  0.37904488  0.87243706  1.0
  H  H70  1  0.51432053  0.28039093  0.91309880  1.0
  H  H71  1  0.59693637  0.40133988  0.91919102  1.0
  H  H72  1  0.60103475  0.43446291  0.82522001  1.0
  H  H73  1  0.68770513  0.37619555  0.84890751  1.0
  C  C74  1  0.11625992  0.89344362  0.12949985  1.0
  C  C75  1  0.16036003  0.85177429  0.18291144  1.0
  C  C76  1  0.15302215  0.88760960  0.22768595  1.0
  C  C77  1  0.19310742  0.84767536  0.27796137  1.0
  C  C78  1  0.24111161  0.77254934  0.28482638  1.0
  C  C79  1  0.24861587  0.73656132  0.23943118  1.0
  C  C80  1  0.20772726  0.77728260  0.18840065  1.0
  C  C81  1  0.33491348  0.62574022  0.29696601  1.0
  C  C82  1  0.33176078  0.65669614  0.34215727  1.0
  C  C83  1  0.38068949  0.60793531  0.39106959  1.0
  C  C84  1  0.28253430  0.73416914  0.34015095  1.0
  C  C85  1  0.31329494  0.62175903  0.19718610  1.0
  C  C86  1  0.31382052  0.54110558  0.23892474  1.0
  C  C87  1  0.38917239  0.62667177  0.13310388  1.0
  C  C88  1  0.12475531  0.10418445  0.89263420  1.0
  C  C89  1  0.17440890  0.15242252  0.85212184  1.0
  C  C90  1  0.22235012  0.14425598  0.88630748  1.0
  C  C91  1  0.27001893  0.18711233  0.84924348  1.0
  C  C92  1  0.26994008  0.24002917  0.77921444  1.0
  C  C93  1  0.21954943  0.25035678  0.74578801  1.0
  C  C94  1  0.17286841  0.20473663  0.78262762  1.0
  C  C95  1  0.26900061  0.34400494  0.64284520  1.0
  C  C96  1  0.32060905  0.33620394  0.67066163  1.0
  C  C97  1  0.37065855  0.38389998  0.62373125  1.0
  C  C98  1  0.32483354  0.28231841  0.74307225  1.0
  C  C99  1  0.16188914  0.32795639  0.64101551  1.0
  C  C100  1  0.20174166  0.32715588  0.56029616  1.0
  C  C101  1  0.10018331  0.40379451  0.64897195  1.0
  C  C102  1  0.87575580  0.12415877  0.11413757  1.0
  C  C103  1  0.83541846  0.17608667  0.15997255  1.0
  C  C104  1  0.87377301  0.22209632  0.14720552  1.0
  C  C105  1  0.83888875  0.27005252  0.18901901  1.0
  C  C106  1  0.76639103  0.27293700  0.24504781  1.0
  C  C107  1  0.72798803  0.22584991  0.25888325  1.0
  C  C108  1  0.76313265  0.17789372  0.21517427  1.0
  C  C109  1  0.62601688  0.27678136  0.35575335  1.0
  C  C110  1  0.65949516  0.32368998  0.34617399  1.0
  C  C111  1  0.61477720  0.37129477  0.39647215  1.0
  C  C112  1  0.73332064  0.32673125  0.28715198  1.0
  C  C113  1  0.61246175  0.17984834  0.33881317  1.0
  C  C114  1  0.52695743  0.22433175  0.34428544  1.0
  C  C115  1  0.62202356  0.11777650  0.41107536  1.0
  C  C116  1  0.11976992  0.86885513  0.89873852  1.0
  C  C117  1  0.15846506  0.81515254  0.85526896  1.0
  C  C118  1  0.14381855  0.74700930  0.88955007  1.0
  C  C119  1  0.17899180  0.69685491  0.85002036  1.0
  C  C120  1  0.23040746  0.71186547  0.77701107  1.0
  C  C121  1  0.24517224  0.78058852  0.74231600  1.0
  C  C122  1  0.20810363  0.83223170  0.78227162  1.0
  C  C123  1  0.33433765  0.73990412  0.63605204  1.0
  C  C124  1  0.32530106  0.67109553  0.66666667  1.0
  C  C125  1  0.37592831  0.61871700  0.62136201  1.0
  C  C126  1  0.26811025  0.65307186  0.73980723  1.0
  C  C127  1  0.31799597  0.86329123  0.62908779  1.0
  C  C128  1  0.32254807  0.89384439  0.54770384  1.0
  C  C129  1  0.39355242  0.84873805  0.63744146  1.0
  C  C130  1  0.88694592  0.87298565  0.13889838  1.0
  C  C131  1  0.84823638  0.81548101  0.19247412  1.0
  C  C132  1  0.88975791  0.74822508  0.23508309  1.0
  C  C133  1  0.85577698  0.69378933  0.28396157  1.0
  C  C134  1  0.78097470  0.70346907  0.29136506  1.0
  C  C135  1  0.73920235  0.77110635  0.24817598  1.0
  C  C136  1  0.77354035  0.82699071  0.19908875  1.0
  C  C137  1  0.63590628  0.72296233  0.30345859  1.0
  C  C138  1  0.67239684  0.65565613  0.34687431  1.0
  C  C139  1  0.62643834  0.60388100  0.39511815  1.0
  C  C140  1  0.74926147  0.64109410  0.34516801  1.0
  C  C141  1  0.61734695  0.84575047  0.21095109  1.0
  C  C142  1  0.53253885  0.87486645  0.25848140  1.0
  C  C143  1  0.62508777  0.82711671  0.14667289  1.0
  C  C144  1  0.87883083  0.09680564  0.89499445  1.0
  C  C145  1  0.83676069  0.14138993  0.83935976  1.0
  C  C146  1  0.87497116  0.12888354  0.76959865  1.0
  C  C147  1  0.83864278  0.17005501  0.71636669  1.0
  C  C148  1  0.76509756  0.22544303  0.72972871  1.0
  C  C149  1  0.72651741  0.23861395  0.79979353  1.0
  C  C150  1  0.76300696  0.19529116  0.85472041  1.0
  C  C151  1  0.62296745  0.33566656  0.75497557  1.0
  C  C152  1  0.65711315  0.32733440  0.68529616  1.0
  C  C153  1  0.61322145  0.37939935  0.63210735  1.0
  C  C154  1  0.73163298  0.26823306  0.66786945  1.0
  C  C155  1  0.61044125  0.31721676  0.88025158  1.0
  C  C156  1  0.52367361  0.32887972  0.90830133  1.0
  C  C157  1  0.62517092  0.38628938  0.86761161  1.0
  N  N158  1  0.29619257  0.66127507  0.24756259  1.0
  N  N159  1  0.21953184  0.30496940  0.67649692  1.0
  N  N160  1  0.65581222  0.22972049  0.31567768  1.0
  N  N161  1  0.29658267  0.79425058  0.66920326  1.0
  N  N162  1  0.66459230  0.77956009  0.25650619  1.0
  N  N163  1  0.65310795  0.29462118  0.81127434  1.0
  O  O164  1  0.99538304  0.99508098  0.00905410  1.0
  O  O165  1  0.12034249  0.85731515  0.09358379  1.0
  O  O166  1  0.07702795  0.96267440  0.12396071  1.0
  O  O167  1  0.39665988  0.64025403  0.41578882  1.0
  O  O168  1  0.40381178  0.53697277  0.40320336  1.0
  O  O169  1  0.27291303  0.76737908  0.37974018  1.0
  O  O170  1  0.09293073  0.09972385  0.85727010  1.0
  O  O171  1  0.11857151  0.06970066  0.96112634  1.0
  O  O172  1  0.40036827  0.39472811  0.65574195  1.0
  O  O173  1  0.37924500  0.41062327  0.55396595  1.0
  O  O174  1  0.36985565  0.26892135  0.77336996  1.0
  O  O175  1  0.83882792  0.08930996  0.11635315  1.0
  O  O176  1  0.94665188  0.11921016  0.07488492  1.0
  O  O177  1  0.65147702  0.39622961  0.40736927  1.0
  O  O178  1  0.54124228  0.38207767  0.42529723  1.0
  O  O179  1  0.76673983  0.37000998  0.26968764  1.0
  O  O180  1  0.11635819  0.93710653  0.86353104  1.0
  O  O181  1  0.09255652  0.84104698  0.96909537  1.0
  O  O182  1  0.38357407  0.54982629  0.65430565  1.0
  O  O183  1  0.40952993  0.64782117  0.55223525  1.0
  O  O184  1  0.24977951  0.59600395  0.77057747  1.0
  O  O185  1  0.84612399  0.93893732  0.10923657  1.0
  O  O186  1  0.95979811  0.85004920  0.12751033  1.0
  O  O187  1  0.66107411  0.53456013  0.42117303  1.0
  O  O188  1  0.55300381  0.63580291  0.40531995  1.0
  O  O189  1  0.78647365  0.58483298  0.38424697  1.0
  O  O190  1  0.83997107  0.09254494  0.96354763  1.0
  O  O191  1  0.95206303  0.06591366  0.86775034  1.0
  O  O192  1  0.64976958  0.38573599  0.56351465  1.0
  O  O193  1  0.54105025  0.41482660  0.66096816  1.0
  O  O194  1  0.76596544  0.25160257  0.60932753  1.0
  O  O195  1  0.50165724  0.49119467  0.51012981  1.0
