# generated using pymatgen
data_Zr3H8C24(S3O8)2
_symmetry_space_group_name_H-M   'P 1'
_cell_length_a   16.47506333
_cell_length_b   16.47512478
_cell_length_c   23.29453678
_cell_angle_alpha   90.00272691
_cell_angle_beta   89.99851767
_cell_angle_gamma   89.99730224
_symmetry_Int_Tables_number   1
_chemical_formula_structural   Zr3H8C24(S3O8)2
_chemical_formula_sum   'Zr12 H32 C96 S24 O64'
_cell_volume   6322.80638088
_cell_formula_units_Z   4
loop_
 _symmetry_equiv_pos_site_id
 _symmetry_equiv_pos_as_xyz
  1  'x, y, z'
loop_
 _atom_site_type_symbol
 _atom_site_label
 _atom_site_symmetry_multiplicity
 _atom_site_fract_x
 _atom_site_fract_y
 _atom_site_fract_z
 _atom_site_occupancy
  Zr  Zr0  1  0.60745262  0.39254570  0.49996433  1.0
  Zr  Zr1  1  0.39253245  0.60744625  0.50004762  1.0
  Zr  Zr2  1  0.50004338  0.49995619  0.60742193  1.0
  Zr  Zr3  1  0.49997933  0.50004669  0.39256297  1.0
  Zr  Zr4  1  0.39255694  0.39256715  0.50000751  1.0
  Zr  Zr5  1  0.60745060  0.60744787  0.49999500  1.0
  Zr  Zr6  1  0.10749885  0.10741166  0.99998822  1.0
  Zr  Zr7  1  0.89251172  0.89257787  0.00000313  1.0
  Zr  Zr8  1  0.89256298  0.10749246  0.00004572  1.0
  Zr  Zr9  1  0.10741603  0.89250192  0.99994262  1.0
  Zr  Zr10  1  0.00004146  0.99998923  0.10744043  1.0
  Zr  Zr11  1  0.99996729  0.00003975  0.89255821  1.0
  H  H12  1  0.50001925  0.33105412  0.58442400  1.0
  H  H13  1  0.33105209  0.50001988  0.41557506  1.0
  H  H14  1  0.50000523  0.66891681  0.58446231  1.0
  H  H15  1  0.66891847  0.50000464  0.41553677  1.0
  H  H16  1  0.00005113  0.16891676  0.08446398  1.0
  H  H17  1  0.99997221  0.83105269  0.08442520  1.0
  H  H18  1  0.83104612  0.00003782  0.91557245  1.0
  H  H19  1  0.16891829  0.99998696  0.91553738  1.0
  H  H20  1  0.62867969  0.88964977  0.49953549  1.0
  H  H21  1  0.37131997  0.11035005  0.49959256  1.0
  H  H22  1  0.11034850  0.37132055  0.50040725  1.0
  H  H23  1  0.88964931  0.62868114  0.50046456  1.0
  H  H24  1  0.63111747  0.62989775  0.75921688  1.0
  H  H25  1  0.86978621  0.86923051  0.74082557  1.0
  H  H26  1  0.36976899  0.36920315  0.24078388  1.0
  H  H27  1  0.13109539  0.12987463  0.25917305  1.0
  H  H28  1  0.36923446  0.36974018  0.75921490  1.0
  H  H29  1  0.12984710  0.13112302  0.74082207  1.0
  H  H30  1  0.62986744  0.63114527  0.24078162  1.0
  H  H31  1  0.86925601  0.86975999  0.25916973  1.0
  H  H32  1  0.24129117  0.75961119  0.36958835  1.0
  H  H33  1  0.25942884  0.74111728  0.13048117  1.0
  H  H34  1  0.75959342  0.24127118  0.63041115  1.0
  H  H35  1  0.74145454  0.25976691  0.86951662  1.0
  H  H36  1  0.36904017  0.63004473  0.75914029  1.0
  H  H37  1  0.13008527  0.86904884  0.74081602  1.0
  H  H38  1  0.63007088  0.36906774  0.24086049  1.0
  H  H39  1  0.86902093  0.13005877  0.25918562  1.0
  H  H40  1  0.87132080  0.61036952  0.99959175  1.0
  H  H41  1  0.12867696  0.38963238  0.99953301  1.0
  H  H42  1  0.61035476  0.12862188  0.00061660  1.0
  H  H43  1  0.38963828  0.87137591  0.00025593  1.0
  C  C44  1  0.49963177  0.22734214  0.49797152  1.0
  C  C45  1  0.22734045  0.49963008  0.50202503  1.0
  C  C46  1  0.50036430  0.77265818  0.49807556  1.0
  C  C47  1  0.77265973  0.50036504  0.50192733  1.0
  C  C48  1  0.63855292  0.36550029  0.63612814  1.0
  C  C49  1  0.63413556  0.36183297  0.36349037  1.0
  C  C50  1  0.36549820  0.63855527  0.36387268  1.0
  C  C51  1  0.36184113  0.63414090  0.63650953  1.0
  C  C52  1  0.36188205  0.36583580  0.63655138  1.0
  C  C53  1  0.63818483  0.63408947  0.63655122  1.0
  C  C54  1  0.63410052  0.63818111  0.36344394  1.0
  C  C55  1  0.36583006  0.36188663  0.36344818  1.0
  C  C56  1  0.13822710  0.13404086  0.13651940  1.0
  C  C57  1  0.86184351  0.86588536  0.13651823  1.0
  C  C58  1  0.86579448  0.86193039  0.86347914  1.0
  C  C59  1  0.13412632  0.13814126  0.86348138  1.0
  C  C60  1  0.00037188  0.27265657  0.99807179  1.0
  C  C61  1  0.27266147  0.99966121  0.00193938  1.0
  C  C62  1  0.99962411  0.72734219  0.99797156  1.0
  C  C63  1  0.72733272  0.00033972  0.00202057  1.0
  C  C64  1  0.86188015  0.13419074  0.13654197  1.0
  C  C65  1  0.86552743  0.13859082  0.86383701  1.0
  C  C66  1  0.13410200  0.86179709  0.86345707  1.0
  C  C67  1  0.13851337  0.86546414  0.13615952  1.0
  C  C68  1  0.56683841  0.91267503  0.49963647  1.0
  C  C69  1  0.43316488  0.08732722  0.49966072  1.0
  C  C70  1  0.50000528  0.86176225  0.49910434  1.0
  C  C71  1  0.49999682  0.13823874  0.49902691  1.0
  C  C72  1  0.45733424  0.00521560  0.50005492  1.0
  C  C73  1  0.54266540  0.99478607  0.50001241  1.0
  C  C74  1  0.08732558  0.43316342  0.50033810  1.0
  C  C75  1  0.91267465  0.56683888  0.50036500  1.0
  C  C76  1  0.13823792  0.49999573  0.50097153  1.0
  C  C77  1  0.86176230  0.50000600  0.50089751  1.0
  C  C78  1  0.99478478  0.54266534  0.49998779  1.0
  C  C79  1  0.00521365  0.45733390  0.49994475  1.0
  C  C80  1  0.67334063  0.67251914  0.73981052  1.0
  C  C81  1  0.82737792  0.82679425  0.76022765  1.0
  C  C82  1  0.68177974  0.67992874  0.68093453  1.0
  C  C83  1  0.82000469  0.81827689  0.81910404  1.0
  C  C84  1  0.77387762  0.77398036  0.73126123  1.0
  C  C85  1  0.72608704  0.72609541  0.76878339  1.0
  C  C86  1  0.32737101  0.32675838  0.26019068  1.0
  C  C87  1  0.17333252  0.17248389  0.23977012  1.0
  C  C88  1  0.32002813  0.31825074  0.31906536  1.0
  C  C89  1  0.18181533  0.17989713  0.18089456  1.0
  C  C90  1  0.22606618  0.22606318  0.26873784  1.0
  C  C91  1  0.27386343  0.27394147  0.23121697  1.0
  C  C92  1  0.32677649  0.32735420  0.73980359  1.0
  C  C93  1  0.17247928  0.17333480  0.76022479  1.0
  C  C94  1  0.31824424  0.32003715  0.68092922  1.0
  C  C95  1  0.17995536  0.18175293  0.81910390  1.0
  C  C96  1  0.22604680  0.22607753  0.73125530  1.0
  C  C97  1  0.27396347  0.27384058  0.76877477  1.0
  C  C98  1  0.67249840  0.67336008  0.26018864  1.0
  C  C99  1  0.82679501  0.82737583  0.23976615  1.0
  C  C100  1  0.67993868  0.68177214  0.31906346  1.0
  C  C101  1  0.81820085  0.82007274  0.18089135  1.0
  C  C102  1  0.77399169  0.77386526  0.26873346  1.0
  C  C103  1  0.72606410  0.72611313  0.23121529  1.0
  C  C104  1  0.26058581  0.74013449  0.32714700  1.0
  C  C105  1  0.24006137  0.76053692  0.17291480  1.0
  C  C106  1  0.32000197  0.68183039  0.31916764  1.0
  C  C107  1  0.18179297  0.81999729  0.18088429  1.0
  C  C108  1  0.26867342  0.73123264  0.22608488  1.0
  C  C109  1  0.23125754  0.76870495  0.27396704  1.0
  C  C110  1  0.74011488  0.26056821  0.67284993  1.0
  C  C111  1  0.76063810  0.24017550  0.82708085  1.0
  C  C112  1  0.68183738  0.32000916  0.68083059  1.0
  C  C113  1  0.82002877  0.18183740  0.81911222  1.0
  C  C114  1  0.73127160  0.26871501  0.77390990  1.0
  C  C115  1  0.76868444  0.23124087  0.72602860  1.0
  C  C116  1  0.32670888  0.67256069  0.73975015  1.0
  C  C117  1  0.17259015  0.82670041  0.76021475  1.0
  C  C118  1  0.31820724  0.67997736  0.68087303  1.0
  C  C119  1  0.17993734  0.81817785  0.81908929  1.0
  C  C120  1  0.22611463  0.77393620  0.73121816  1.0
  C  C121  1  0.27393704  0.72607631  0.76874203  1.0
  C  C122  1  0.67257940  0.32672780  0.26025364  1.0
  C  C123  1  0.82669753  0.17258383  0.23979033  1.0
  C  C124  1  0.67996605  0.31819553  0.31912774  1.0
  C  C125  1  0.81824687  0.17999990  0.18091449  1.0
  C  C126  1  0.77392265  0.22610309  0.26878478  1.0
  C  C127  1  0.72610570  0.27396906  0.23126349  1.0
  C  C128  1  0.93315904  0.58733152  0.99966163  1.0
  C  C129  1  0.06683750  0.41267039  0.99963399  1.0
  C  C130  1  0.99998977  0.63824123  0.99902610  1.0
  C  C131  1  0.00000922  0.36175943  0.99910143  1.0
  C  C132  1  0.04266214  0.49478055  0.00000979  1.0
  C  C133  1  0.95733394  0.50522025  0.00005440  1.0
  C  C134  1  0.58732201  0.06680498  0.00042345  1.0
  C  C135  1  0.41266738  0.93319949  0.00028895  1.0
  C  C136  1  0.63823034  0.99995060  0.00094782  1.0
  C  C137  1  0.36176328  0.00005330  0.00092193  1.0
  C  C138  1  0.49478418  0.95733783  0.99993373  1.0
  C  C139  1  0.50520211  0.04266808  0.00000181  1.0
  S  S140  1  0.40769547  0.91307634  0.49957225  1.0
  S  S141  1  0.59230420  0.08691800  0.49934717  1.0
  S  S142  1  0.08691698  0.59230336  0.50065245  1.0
  S  S143  1  0.91307415  0.40769531  0.50042885  1.0
  S  S144  1  0.75310804  0.75217165  0.66039852  1.0
  S  S145  1  0.74784663  0.74687224  0.83964909  1.0
  S  S146  1  0.24791925  0.24678963  0.33960182  1.0
  S  S147  1  0.25319400  0.25207812  0.16035253  1.0
  S  S148  1  0.24675524  0.24794885  0.66039252  1.0
  S  S149  1  0.25226320  0.25300661  0.83964059  1.0
  S  S150  1  0.75220281  0.75308045  0.33959757  1.0
  S  S151  1  0.74667057  0.74803786  0.16034907  1.0
  S  S152  1  0.34008867  0.66089958  0.24735928  1.0
  S  S153  1  0.16095121  0.84014025  0.25269351  1.0
  S  S154  1  0.66095737  0.34014788  0.75263895  1.0
  S  S155  1  0.84008270  0.16089567  0.74730514  1.0
  S  S156  1  0.24681620  0.75216051  0.66034476  1.0
  S  S157  1  0.25205795  0.74671092  0.83961456  1.0
  S  S158  1  0.75213036  0.24678808  0.33965816  1.0
  S  S159  1  0.74690439  0.25224556  0.16039095  1.0
  S  S160  1  0.09230038  0.58691550  0.99934563  1.0
  S  S161  1  0.90769860  0.41307972  0.99957221  1.0
  S  S162  1  0.58690221  0.90765446  0.00047925  1.0
  S  S163  1  0.41308657  0.09234941  0.00060578  1.0
  O  O164  1  0.56904676  0.26251717  0.49784526  1.0
  O  O165  1  0.26251561  0.56904482  0.50215080  1.0
  O  O166  1  0.43094871  0.73748254  0.49800692  1.0
  O  O167  1  0.73748456  0.43095031  0.50199517  1.0
  O  O168  1  0.58640165  0.41791141  0.65332237  1.0
  O  O169  1  0.58191633  0.41390789  0.34637398  1.0
  O  O170  1  0.41791289  0.58640757  0.34667545  1.0
  O  O171  1  0.41391044  0.58192031  0.65362206  1.0
  O  O172  1  0.34460820  0.34879846  0.58426474  1.0
  O  O173  1  0.65542113  0.65116761  0.58426741  1.0
  O  O174  1  0.65117102  0.65541997  0.41572886  1.0
  O  O175  1  0.34879103  0.34461002  0.41573284  1.0
  O  O176  1  0.58614893  0.58183674  0.65363250  1.0
  O  O177  1  0.58184369  0.58614331  0.34636314  1.0
  O  O178  1  0.41802197  0.41398884  0.34635960  1.0
  O  O179  1  0.41398713  0.41802231  0.65363905  1.0
  O  O180  1  0.65564496  0.34852041  0.58397169  1.0
  O  O181  1  0.34461019  0.65116460  0.58422346  1.0
  O  O182  1  0.34851906  0.65565047  0.41602784  1.0
  O  O183  1  0.65116256  0.34461079  0.41577558  1.0
  O  O184  1  0.73756810  0.56960904  0.50201167  1.0
  O  O185  1  0.43038994  0.26243425  0.49795686  1.0
  O  O186  1  0.26243208  0.43039033  0.50204200  1.0
  O  O187  1  0.56960978  0.73756728  0.49799062  1.0
  O  O188  1  0.62083203  0.50003450  0.43950678  1.0
  O  O189  1  0.50003350  0.62082896  0.56049193  1.0
  O  O190  1  0.37912248  0.50001894  0.43956008  1.0
  O  O191  1  0.50001856  0.37912518  0.56044322  1.0
  O  O192  1  0.41081999  0.49996711  0.54462390  1.0
  O  O193  1  0.49996935  0.41082641  0.45537878  1.0
  O  O194  1  0.49997486  0.58922992  0.45544231  1.0
  O  O195  1  0.58922901  0.49997322  0.54455573  1.0
  O  O196  1  0.15547554  0.15106436  0.08423603  1.0
  O  O197  1  0.84456359  0.84890447  0.08423245  1.0
  O  O198  1  0.84874209  0.84470901  0.91576337  1.0
  O  O199  1  0.15121806  0.15532489  0.91576845  1.0
  O  O200  1  0.93093059  0.23750109  0.99800988  1.0
  O  O201  1  0.23758827  0.93040793  0.00195528  1.0
  O  O202  1  0.06906297  0.76249828  0.99785145  1.0
  O  O203  1  0.76240470  0.06959482  0.00209482  1.0
  O  O204  1  0.91392518  0.08193556  0.15363819  1.0
  O  O205  1  0.91791724  0.08642612  0.84666596  1.0
  O  O206  1  0.08190401  0.91389568  0.84636343  1.0
  O  O207  1  0.08638153  0.91789225  0.15333787  1.0
  O  O208  1  0.84854708  0.15576067  0.91598831  1.0
  O  O209  1  0.15111261  0.84451845  0.91573970  1.0
  O  O210  1  0.15560844  0.84841810  0.08400779  1.0
  O  O211  1  0.84467410  0.15126787  0.08425720  1.0
  O  O212  1  0.06959005  0.23755111  0.99797912  1.0
  O  O213  1  0.76253192  0.93093761  0.00210030  1.0
  O  O214  1  0.93040655  0.76245008  0.99795132  1.0
  O  O215  1  0.23746409  0.06906636  0.00206441  1.0
  O  O216  1  0.08184884  0.08613321  0.84637955  1.0
  O  O217  1  0.08615720  0.08181908  0.15362086  1.0
  O  O218  1  0.91397469  0.91804455  0.15362908  1.0
  O  O219  1  0.91801430  0.91400285  0.84637424  1.0
  O  O220  1  0.12083124  0.99996158  0.93950481  1.0
  O  O221  1  0.87911712  0.00009273  0.93955660  1.0
  O  O222  1  0.99998427  0.87912072  0.06043755  1.0
  O  O223  1  0.00006059  0.12082891  0.06049446  1.0
  O  O224  1  0.91081834  0.00003274  0.04462287  1.0
  O  O225  1  0.08923317  0.99991158  0.04455878  1.0
  O  O226  1  0.99992102  0.91082343  0.95537582  1.0
  O  O227  1  0.00002251  0.08923134  0.95543896  1.0
