# generated using pymatgen
data_TbH22C33NO10
_symmetry_space_group_name_H-M   'P 1'
_cell_length_a   8.51584337
_cell_length_b   17.96362766
_cell_length_c   26.43459490
_cell_angle_alpha   87.82135796
_cell_angle_beta   80.71738947
_cell_angle_gamma   76.32035230
_symmetry_Int_Tables_number   1
_chemical_formula_structural   TbH22C33NO10
_chemical_formula_sum   'Tb4 H88 C132 N4 O40'
_cell_volume   3877.67967395
_cell_formula_units_Z   4
loop_
 _symmetry_equiv_pos_site_id
 _symmetry_equiv_pos_as_xyz
  1  'x, y, z'
loop_
 _atom_site_type_symbol
 _atom_site_label
 _atom_site_symmetry_multiplicity
 _atom_site_fract_x
 _atom_site_fract_y
 _atom_site_fract_z
 _atom_site_occupancy
  Tb  Tb0  1  0.61813184  0.49989677  0.76368731  1.0
  Tb  Tb1  1  0.86845520  0.00005134  0.26365401  1.0
  Tb  Tb2  1  0.39439979  0.00004174  0.21180954  1.0
  Tb  Tb3  1  0.14406552  0.49992519  0.71185821  1.0
  H  H4  1  0.47994552  0.38360217  0.49057452  1.0
  H  H5  1  0.16997921  0.75415900  0.66657087  1.0
  H  H6  1  0.70298195  0.20255129  0.79657598  1.0
  H  H7  1  0.90991361  0.83337341  0.27570064  1.0
  H  H8  1  0.81845070  0.89113617  0.42305581  1.0
  H  H9  1  0.88701882  0.87130911  0.01930848  1.0
  H  H10  1  0.13758442  0.07108557  0.33450439  1.0
  H  H11  1  0.99271041  0.61874087  0.89021039  1.0
  H  H12  1  0.50940689  0.77301143  0.27909325  1.0
  H  H13  1  0.52388987  0.60466582  0.61256801  1.0
  H  H14  1  0.97157977  0.37119489  0.51914708  1.0
  H  H15  1  0.18924228  0.27265738  0.77895544  1.0
  H  H16  1  0.45933577  0.60875514  0.92310935  1.0
  H  H17  1  0.37707207  0.40313870  0.58361531  1.0
  H  H18  1  0.56791795  0.64807785  0.32369919  1.0
  H  H19  1  0.52962656  0.32928122  0.86587858  1.0
  H  H20  1  0.99847485  0.38911176  0.18858938  1.0
  H  H21  1  0.80933014  0.64930073  0.34291316  1.0
  H  H22  1  0.38571347  0.90330457  0.08341576  1.0
  H  H23  1  0.60934979  0.17099134  0.36593772  1.0
  H  H24  1  0.52827899  0.92897140  0.33453893  1.0
  H  H25  1  0.01183026  0.70063414  0.92303447  1.0
  H  H26  1  0.02139948  0.61122017  0.95597785  1.0
  H  H27  1  0.54108191  0.50079314  0.46082010  1.0
  H  H28  1  0.86127181  0.11924310  0.47584645  1.0
  H  H29  1  0.99730106  0.49912458  0.46085612  1.0
  H  H30  1  0.00918708  0.10508111  0.11240390  1.0
  H  H31  1  0.31704631  0.69982442  0.93647342  1.0
  H  H32  1  0.13585656  0.11105311  0.68841536  1.0
  H  H33  1  0.65635128  0.29767414  0.29656669  1.0
  H  H34  1  0.16143506  0.11106552  0.45599453  1.0
  H  H35  1  0.03922326  0.59638912  0.58354238  1.0
  H  H36  1  0.17527775  0.88880147  0.68839772  1.0
  H  H37  1  0.87869266  0.89491469  0.11268256  1.0
  H  H38  1  0.08925269  0.70531638  0.41492212  1.0
  H  H39  1  0.74642374  0.30017570  0.93647831  1.0
  H  H40  1  0.20795143  0.85067609  0.84287435  1.0
  H  H41  1  0.41785294  0.04457253  0.80278910  1.0
  H  H42  1  0.11689429  0.38159108  0.89026276  1.0
  H  H43  1  0.16367682  0.24561186  0.66659483  1.0
  H  H44  1  0.73021363  0.38082898  0.97583139  1.0
  H  H45  1  0.77866433  0.95542550  0.80273448  1.0
  H  H46  1  0.61427782  0.11640896  0.99050516  1.0
  H  H47  1  0.04707403  0.70249514  0.29669442  1.0
  H  H48  1  0.79699185  0.19988491  0.43650516  1.0
  H  H49  1  0.06528839  0.29961333  0.92305495  1.0
  H  H50  1  0.24852042  0.11856137  0.39022171  1.0
  H  H51  1  0.50901534  0.62847793  0.51923449  1.0
  H  H52  1  0.60430267  0.67067969  0.86578021  1.0
  H  H53  1  0.21117853  0.14763112  0.82350578  1.0
  H  H54  1  0.81391421  0.61109188  0.18845912  1.0
  H  H55  1  0.03171239  0.72729812  0.77885398  1.0
  H  H56  1  0.67389013  0.74565784  0.16666396  1.0
  H  H57  1  0.09361137  0.12868964  0.01905037  1.0
  H  H58  1  0.54451132  0.79465772  0.91491599  1.0
  H  H59  1  0.02916559  0.61631778  0.49055567  1.0
  H  H60  1  0.81480346  0.16678254  0.27562900  1.0
  H  H61  1  0.38299192  0.88866460  0.45597728  1.0
  H  H62  1  0.11498988  0.20049852  0.42306040  1.0
  H  H63  1  0.49530041  0.29494076  0.41505431  1.0
  H  H64  1  0.20712002  0.57105515  0.83446655  1.0
  H  H65  1  0.79234840  0.99926403  0.96073942  1.0
  H  H66  1  0.61751674  0.39126693  0.92311808  1.0
  H  H67  1  0.46262177  0.79927543  0.42297384  1.0
  H  H68  1  0.02227327  0.38904704  0.95602503  1.0
  H  H69  1  0.36175719  0.88122259  0.39020102  1.0
  H  H70  1  0.86346916  0.39480230  0.61252861  1.0
  H  H71  1  0.39503753  0.88352483  0.99042885  1.0
  H  H72  1  0.94850032  0.14936758  0.84270809  1.0
  H  H73  1  0.21261411  0.22694911  0.27894981  1.0
  H  H74  1  0.76716759  0.80002201  0.43636677  1.0
  H  H75  1  0.10905142  0.35199241  0.32342284  1.0
  H  H76  1  0.96516310  0.85228461  0.82340434  1.0
  H  H77  1  0.75883496  0.10881675  0.42316833  1.0
  H  H78  1  0.48500695  0.54490972  0.30275553  1.0
  H  H79  1  0.49957038  0.79765979  0.79670259  1.0
  H  H80  1  0.21227148  0.45523938  0.30279878  1.0
  H  H81  1  0.16056534  0.25452771  0.16682977  1.0
  H  H82  1  0.53101694  0.09684121  0.08352969  1.0
  H  H83  1  0.02490595  0.82916489  0.36565757  1.0
  H  H84  1  0.49326705  0.66666667  0.77572512  1.0
  H  H85  1  0.66351706  0.88061328  0.47577646  1.0
  H  H86  1  0.54016332  0.20530844  0.91500193  1.0
  H  H87  1  0.95842120  0.42894648  0.83449260  1.0
  H  H88  1  0.73072951  0.33342346  0.77558065  1.0
  H  H89  1  0.29383407  0.61919356  0.97580580  1.0
  H  H90  1  0.84777096  0.35080427  0.34283546  1.0
  H  H91  1  0.24663003  0.00074516  0.96083981  1.0
  C  C92  1  0.12549758  0.92380254  0.15785862  1.0
  C  C93  1  0.71920649  0.86253355  0.43639999  1.0
  C  C94  1  0.33104957  0.93098005  0.76028016  1.0
  C  C95  1  0.22190602  0.91883699  0.90602960  1.0
  C  C96  1  0.86530877  0.05446078  0.81657140  1.0
  C  C97  1  0.88824262  0.78559711  0.25603918  1.0
  C  C98  1  0.24628906  0.83940172  0.70649291  1.0
  C  C99  1  0.77976059  0.96972642  0.88403032  1.0
  C  C100  1  0.38037905  0.09822552  0.90393063  1.0
  C  C101  1  0.35772194  0.30818985  0.82016184  1.0
  C  C102  1  0.21919747  0.31301603  0.33280225  1.0
  C  C103  1  0.72779417  0.43109197  0.26024598  1.0
  C  C104  1  0.74800284  0.40056939  0.35369913  1.0
  C  C105  1  0.01309437  0.55433632  0.31666993  1.0
  C  C106  1  0.06230425  0.23497387  0.69452167  1.0
  C  C107  1  0.92422872  0.60302370  0.56891092  1.0
  C  C108  1  0.54511050  0.51078181  0.33220081  1.0
  C  C109  1  0.46745387  0.22007138  0.88413153  1.0
  C  C110  1  0.68134287  0.87673597  0.21121924  1.0
  C  C111  1  0.04678425  0.16051665  0.70646743  1.0
  C  C112  1  0.95875660  0.33964701  0.20664653  1.0
  C  C113  1  0.50670709  0.39654816  0.56894903  1.0
  C  C114  1  0.74863726  0.83193296  0.87166607  1.0
  C  C115  1  0.42384880  0.71443999  0.75606705  1.0
  C  C116  1  0.41628601  0.75724512  0.30791678  1.0
  C  C117  1  0.83557290  0.66052473  0.20653913  1.0
  C  C118  1  0.91888546  0.12963300  0.94314842  1.0
  C  C119  1  0.13732927  0.87045893  0.94331046  1.0
  C  C120  1  0.67021783  0.44574049  0.31662625  1.0
  C  C121  1  0.02718873  0.36215875  0.91888233  1.0
  C  C122  1  0.89850770  0.09957247  0.85359482  1.0
  C  C123  1  0.92348291  0.10874045  0.08540833  1.0
  C  C124  1  0.14353338  0.78878753  0.35760123  1.0
  C  C125  1  0.80448278  0.21154456  0.76809964  1.0
  C  C126  1  0.29743901  0.33193469  0.37171752  1.0
  C  C127  1  0.26890345  0.25699550  0.80788653  1.0
  C  C128  1  0.28217176  0.18675174  0.83284193  1.0
  C  C129  1  0.56509418  0.38578868  0.51691898  1.0
  C  C130  1  0.45963111  0.28882821  0.85776605  1.0
  C  C131  1  0.64827012  0.77988117  0.88407987  1.0
  C  C132  1  0.31702705  0.94562937  0.81666800  1.0
  C  C133  1  0.11591237  0.46962324  0.38411394  1.0
  C  C134  1  0.84589903  0.41786687  0.85742286  1.0
  C  C135  1  0.99561216  0.87857391  0.03372056  1.0
  C  C136  1  0.49980229  0.53043730  0.38406949  1.0
  C  C137  1  0.33554661  0.85166244  0.74441265  1.0
  C  C138  1  0.01236741  0.56905323  0.26028241  1.0
  C  C139  1  0.47773405  0.11517081  0.29443777  1.0
  C  C140  1  0.81889614  0.35180533  0.24441940  1.0
  C  C141  1  0.54280943  0.42361410  0.65791830  1.0
  C  C142  1  0.22837005  0.88478300  0.29430318  1.0
  C  C143  1  0.75851450  0.62957127  0.44331686  1.0
  C  C144  1  0.75788668  0.73499843  0.19459680  1.0
  C  C145  1  0.86320769  0.61515972  0.79434391  1.0
  C  C146  1  0.32945699  0.70190154  0.71988363  1.0
  C  C147  1  0.24701380  0.90049077  0.85373475  1.0
  C  C148  1  0.13132752  0.90184929  0.10320381  1.0
  C  C149  1  0.22829786  0.40169343  0.40393957  1.0
  C  C150  1  0.27641847  0.24272976  0.30790574  1.0
  C  C151  1  0.43753183  0.28006647  0.38415950  1.0
  C  C152  1  0.76816190  0.62173855  0.49885859  1.0
  C  C153  1  0.97063040  0.12145238  0.03351224  1.0
  C  C154  1  0.87154240  0.08121272  0.90590004  1.0
  C  C155  1  0.90747845  0.06911537  0.76017849  1.0
  C  C156  1  0.24318943  0.76489747  0.69452646  1.0
  C  C157  1  0.95061349  0.29804936  0.71979935  1.0
  C  C158  1  0.30814455  0.62320694  0.71122390  1.0
  C  C159  1  0.73195460  0.36268171  0.93646467  1.0
  C  C160  1  0.68249286  0.71111618  0.85768419  1.0
  C  C161  1  0.34238100  0.38472672  0.79443700  1.0
  C  C162  1  0.89133054  0.58115327  0.40604801  1.0
  C  C163  1  0.76699706  0.28867163  0.26816239  1.0
  C  C164  1  0.98080829  0.37668230  0.71114031  1.0
  C  C165  1  0.44221365  0.86183244  0.41882297  1.0
  C  C166  1  0.89817647  0.59949137  0.35375101  1.0
  C  C167  1  0.65406367  0.10342698  0.06887159  1.0
  C  C168  1  0.96516759  0.71146656  0.26820597  1.0
  C  C169  1  0.78146266  0.39121347  0.58549996  1.0
  C  C170  1  0.71523814  0.90178539  0.90384511  1.0
  C  C171  1  0.26651817  0.98382803  0.92077790  1.0
  C  C172  1  0.33075086  0.66819062  0.37171265  1.0
  C  C173  1  0.36188137  0.01060465  0.83224042  1.0
  C  C174  1  0.85628043  0.21456445  0.25603174  1.0
  C  C175  1  0.70162588  0.11423095  0.01683668  1.0
  C  C176  1  0.99964831  0.20212271  0.21997961  1.0
  C  C177  1  0.80505385  0.98945772  0.83217131  1.0
  C  C178  1  0.62898889  0.91787968  0.35742943  1.0
  C  C179  1  0.17818076  0.72009283  0.38405393  1.0
  C  C180  1  0.63287572  0.60838673  0.58554651  1.0
  C  C181  1  0.05386549  0.63807811  0.91884300  1.0
  C  C182  1  0.42664069  0.78859643  0.76822699  1.0
  C  C183  1  0.82197955  0.69173095  0.82005107  1.0
  C  C184  1  0.29666978  0.58206889  0.85741645  1.0
  C  C185  1  0.71712544  0.07636853  0.15785156  1.0
  C  C186  1  0.79932782  0.57609139  0.65790863  1.0
  C  C187  1  0.91926651  0.14839814  0.74432556  1.0
  C  C188  1  0.36753904  0.59840624  0.40391217  1.0
  C  C189  1  0.33568185  0.03027364  0.88410623  1.0
  C  C190  1  0.78123550  0.79807061  0.21989769  1.0
  C  C191  1  0.01399704  0.08211256  0.35742330  1.0
  C  C192  1  0.79784945  0.37040716  0.44326165  1.0
  C  C193  1  0.57830602  0.48389740  0.42075541  1.0
  C  C194  1  0.13934710  0.87819417  0.99886308  1.0
  C  C195  1  0.70241873  0.41887270  0.40600449  1.0
  C  C196  1  0.10805691  0.12343438  0.21131830  1.0
  C  C197  1  0.93719229  0.64833098  0.24441833  1.0
  C  C198  1  0.12259369  0.48930157  0.33225328  1.0
  C  C199  1  0.91773373  0.61404432  0.51691016  1.0
  C  C200  1  0.26376396  0.80825289  0.32003721  1.0
  C  C201  1  0.28144544  0.88577193  0.01684926  1.0
  C  C202  1  0.78339292  0.59786990  0.60322324  1.0
  C  C203  1  0.61327538  0.40173271  0.60322560  1.0
  C  C204  1  0.81974519  0.28564074  0.75592372  1.0
  C  C205  1  0.41650750  0.19170894  0.32018770  1.0
  C  C206  1  0.84135718  0.37849694  0.53360443  1.0
  C  C207  1  0.49882268  0.21128858  0.35780411  1.0
  C  C208  1  0.00050495  0.51609541  0.42079904  1.0
  C  C209  1  0.37948351  0.16802569  0.87172016  1.0
  C  C210  1  0.27722938  0.89669180  0.06884550  1.0
  C  C211  1  0.04851614  0.26518469  0.19473351  1.0
  C  C212  1  0.99118665  0.89131234  0.08559388  1.0
  C  C213  1  0.44834639  0.68706009  0.33291660  1.0
  C  C214  1  0.88484337  0.81316358  0.83276789  1.0
  C  C215  1  0.92310077  0.74293372  0.80778895  1.0
  C  C216  1  0.13946103  0.13794467  0.41886258  1.0
  C  C217  1  0.81230370  0.01619773  0.92067484  1.0
  C  C218  1  0.84484965  0.13737049  0.43648263  1.0
  C  C219  1  0.62479455  0.62121487  0.53366993  1.0
  C  C220  1  0.73269323  0.37817254  0.49881922  1.0
  C  C221  1  0.33153975  0.63731746  0.93643996  1.0
  C  C222  1  0.76575476  0.09828098  0.10316508  1.0
  C  C223  1  0.86163011  0.12184156  0.99872122  1.0
  N  N224  1  0.00088911  0.11652478  0.40264206  1.0
  N  N225  1  0.86723192  0.38352604  0.90264565  1.0
  N  N226  1  0.59692428  0.88337856  0.40260798  1.0
  N  N227  1  0.23008444  0.61652823  0.90261737  1.0
  O  O228  1  0.93137374  0.32651420  0.42742323  1.0
  O  O229  1  0.57960237  0.05824386  0.16831675  1.0
  O  O230  1  0.29200453  0.59672223  0.44786843  1.0
  O  O231  1  0.07862879  0.06763012  0.24053481  1.0
  O  O232  1  0.76231233  0.93538773  0.34173487  1.0
  O  O233  1  0.25248951  0.94209257  0.16820618  1.0
  O  O234  1  0.63937358  0.42453793  0.68949435  1.0
  O  O235  1  0.33273486  0.98402422  0.72931124  1.0
  O  O236  1  0.06735723  0.51607224  0.22927993  1.0
  O  O237  1  0.06319263  0.82665848  0.92750613  1.0
  O  O238  1  0.44752097  0.56454820  0.84176483  1.0
  O  O239  1  0.81473711  0.07532111  0.18940715  1.0
  O  O240  1  0.41355493  0.09656726  0.94788543  1.0
  O  O241  1  0.01324197  0.58543735  0.77784546  1.0
  O  O242  1  0.38725029  0.44186723  0.66835904  1.0
  O  O243  1  0.23588557  0.11385065  0.17782444  1.0
  O  O244  1  0.94451820  0.55800938  0.66830239  1.0
  O  O245  1  0.70429329  0.48411780  0.22926283  1.0
  O  O246  1  0.99652686  0.92472189  0.18949756  1.0
  O  O247  1  0.37404494  0.08525848  0.27799371  1.0
  O  O248  1  0.89592606  0.43251689  0.74039326  1.0
  O  O249  1  0.46246713  0.41526495  0.79209922  1.0
  O  O250  1  0.64076056  0.67341808  0.42751035  1.0
  O  O251  1  0.22369197  0.61357125  0.67766799  1.0
  O  O252  1  0.62840509  0.08482942  0.29196114  1.0
  O  O253  1  0.67124927  0.57515825  0.68953454  1.0
  O  O254  1  0.71076479  0.43523867  0.84174712  1.0
  O  O255  1  0.08016431  0.91531664  0.29198308  1.0
  O  O256  1  0.68130010  0.93254778  0.24046898  1.0
  O  O257  1  0.20896592  0.41448818  0.77789220  1.0
  O  O258  1  0.63766191  0.90351085  0.94775467  1.0
  O  O259  1  0.34865513  0.91453275  0.27775047  1.0
  O  O260  1  0.89631604  0.06463537  0.34174451  1.0
  O  O261  1  0.00851550  0.17354389  0.92728316  1.0
  O  O262  1  0.58717763  0.88630326  0.17768790  1.0
  O  O263  1  0.36365400  0.56744468  0.74052278  1.0
  O  O264  1  0.74557491  0.58457290  0.79197167  1.0
  O  O265  1  0.93636695  0.01609014  0.72920467  1.0
  O  O266  1  0.09908606  0.38621618  0.67763499  1.0
  O  O267  1  0.25983517  0.40336105  0.44789488  1.0
