# generated using pymatgen
data_Al4H32(C9O5)5
_symmetry_space_group_name_H-M   'P 1'
_cell_length_a   6.78231266
_cell_length_b   17.07502233
_cell_length_c   18.19288390
_cell_angle_alpha   105.78067346
_cell_angle_beta   89.79800644
_cell_angle_gamma   89.80420221
_symmetry_Int_Tables_number   1
_chemical_formula_structural   Al4H32(C9O5)5
_chemical_formula_sum   'Al4 H32 C45 O25'
_cell_volume   2027.44156568
_cell_formula_units_Z   1
loop_
 _symmetry_equiv_pos_site_id
 _symmetry_equiv_pos_as_xyz
  1  'x, y, z'
loop_
 _atom_site_type_symbol
 _atom_site_label
 _atom_site_symmetry_multiplicity
 _atom_site_fract_x
 _atom_site_fract_y
 _atom_site_fract_z
 _atom_site_occupancy
  Al  Al0  1  0.88733123  0.50111595  0.49865691  1.0
  Al  Al1  1  0.38786577  0.50377309  0.49942238  1.0
  Al  Al2  1  0.37597649  0.00143137  0.99647537  1.0
  Al  Al3  1  0.87510217  0.00210996  0.99409886  1.0
  H  H4  1  0.39908512  0.72806768  0.64929759  1.0
  H  H5  1  0.67037050  0.79452201  0.84189970  1.0
  H  H6  1  0.81743955  0.73415012  0.88662498  1.0
  H  H7  1  0.65535546  0.67956632  0.72225282  1.0
  H  H8  1  0.92678011  0.33092197  0.28274472  1.0
  H  H9  1  0.91836503  0.21343155  0.16592153  1.0
  H  H10  1  0.19689626  0.22061665  0.18300088  1.0
  H  H11  1  0.11389703  0.28902654  0.48287832  1.0
  H  H12  1  0.34746190  0.31147855  0.45004002  1.0
  H  H13  1  0.44788705  0.16474956  0.42119997  1.0
  H  H14  1  0.36876733  0.20155450  0.51781584  1.0
  H  H15  1  0.20875315  0.13933540  0.44890207  1.0
  H  H16  1  0.12665058  0.34064119  0.19350197  1.0
  H  H17  1  0.38018159  0.35567075  0.21895543  1.0
  H  H18  1  0.30833466  0.49709622  0.29476725  1.0
  H  H19  1  0.20764967  0.48175894  0.20166146  1.0
  H  H20  1  0.04991262  0.48089768  0.27970038  1.0
  H  H21  1  0.56686864  0.84244192  0.71011805  1.0
  H  H22  1  0.90118670  0.60523766  0.87308689  1.0
  H  H23  1  0.05621541  0.58122992  0.79036514  1.0
  H  H24  1  0.90516303  0.44398728  0.74542496  1.0
  H  H25  1  0.99317209  0.45915321  0.84040509  1.0
  H  H26  1  0.73630566  0.46762081  0.82356526  1.0
  H  H27  1  0.31306765  0.09826951  0.30719181  1.0
  H  H28  1  0.29359475  0.02224104  0.21851984  1.0
  H  H29  1  0.93355356  0.00402300  0.24862206  1.0
  H  H30  1  0.09178690  0.98411724  0.31942987  1.0
  H  H31  1  0.96164039  0.07899943  0.33764238  1.0
  H  H32  1  0.64171631  0.60040067  0.48795321  1.0
  H  H33  1  0.14026249  0.41308441  0.43199423  1.0
  H  H34  1  0.62907166  0.90509300  0.00929582  1.0
  H  H35  1  0.12338225  0.09714354  0.05423942  1.0
  C  C36  1  0.62921407  0.41485166  0.58159919  1.0
  C  C37  1  0.64438047  0.38978037  0.38463837  1.0
  C  C38  1  0.14097354  0.59860122  0.42110684  1.0
  C  C39  1  0.12889713  0.60874254  0.61480567  1.0
  C  C40  1  0.97380017  0.70136476  0.73463144  1.0
  C  C41  1  0.12555032  0.68242889  0.68104153  1.0
  C  C42  1  0.27871080  0.73980638  0.69096079  1.0
  C  C43  1  0.27870311  0.81249015  0.74985646  1.0
  C  C44  1  0.12678329  0.82915142  0.80623995  1.0
  C  C45  1  0.97760739  0.77154703  0.79619801  1.0
  C  C46  1  0.79187792  0.75024476  0.83292829  1.0
  C  C47  1  0.77660535  0.67328366  0.76020544  1.0
  C  C48  1  0.12233229  0.86193309  0.13157800  1.0
  C  C49  1  0.12380447  0.82162621  0.17802152  1.0
  C  C50  1  0.12598808  0.77843562  0.22945771  1.0
  C  C51  1  0.12904784  0.73863746  0.27678614  1.0
  C  C52  1  0.13293937  0.69412324  0.32710888  1.0
  C  C53  1  0.13681844  0.65222356  0.37218950  1.0
  C  C54  1  0.62762759  0.36093656  0.63012461  1.0
  C  C55  1  0.62306227  0.31559959  0.67210324  1.0
  C  C56  1  0.62019760  0.26735922  0.71922157  1.0
  C  C57  1  0.61870213  0.22375875  0.76333744  1.0
  C  C58  1  0.61837099  0.17701578  0.81181363  1.0
  C  C59  1  0.61892039  0.13448517  0.85633789  1.0
  C  C60  1  0.47315345  0.26331002  0.30109714  1.0
  C  C61  1  0.63754525  0.31409985  0.31975049  1.0
  C  C62  1  0.79686298  0.29319482  0.26920053  1.0
  C  C63  1  0.79325534  0.22650305  0.20472753  1.0
  C  C64  1  0.62754133  0.17683511  0.18530418  1.0
  C  C65  1  0.46639671  0.19902898  0.23453693  1.0
  C  C66  1  0.24379285  0.19677730  0.23052142  1.0
  C  C67  1  0.25098990  0.26919066  0.30989196  1.0
  C  C68  1  0.62352839  0.11007323  0.11314027  1.0
  C  C69  1  0.62292131  0.08582181  0.90975802  1.0
  C  C70  1  0.12954276  0.89747884  0.87769591  1.0
  C  C71  1  0.12395059  0.91144956  0.07885159  1.0
  C  C72  1  0.23517726  0.26416554  0.44309953  1.0
  C  C73  1  0.31981740  0.18765725  0.45805877  1.0
  C  C74  1  0.22838756  0.37282121  0.23893779  1.0
  C  C75  1  0.19710553  0.46364780  0.25506124  1.0
  C  C76  1  0.43416866  0.87161195  0.74352461  1.0
  C  C77  1  0.91052724  0.56962725  0.81253938  1.0
  C  C78  1  0.88462360  0.47976069  0.80494093  1.0
  C  C79  1  0.21033446  0.06863108  0.26169672  1.0
  C  C80  1  0.03897704  0.03168735  0.29385584  1.0
  O  O81  1  0.48009518  0.41574334  0.41655866  1.0
  O  O82  1  0.79591750  0.42774134  0.55461393  1.0
  O  O83  1  0.96481811  0.57438580  0.59342648  1.0
  O  O84  1  0.81136117  0.42314439  0.40378875  1.0
  O  O85  1  0.97388276  0.58150578  0.44495628  1.0
  O  O86  1  0.46225764  0.44312578  0.56932565  1.0
  O  O87  1  0.63879735  0.55217234  0.50640074  1.0
  O  O88  1  0.31141148  0.57368887  0.43427329  1.0
  O  O89  1  0.29627939  0.58782075  0.58366858  1.0
  O  O90  1  0.13856463  0.45396677  0.48154817  1.0
  O  O91  1  0.79290483  0.06629593  0.92851130  1.0
  O  O92  1  0.45446342  0.08279399  0.08814155  1.0
  O  O93  1  0.29416186  0.93071869  0.05972300  1.0
  O  O94  1  0.45705526  0.06870255  0.93407279  1.0
  O  O95  1  0.29520738  0.91981988  0.90827821  1.0
  O  O96  1  0.78982060  0.08634877  0.08190931  1.0
  O  O97  1  0.62670912  0.95213390  0.98906245  1.0
  O  O98  1  0.96098459  0.92318026  0.90491636  1.0
  O  O99  1  0.95584274  0.93027625  0.05743309  1.0
  O  O100  1  0.12511267  0.05053383  0.00946325  1.0
  O  O101  1  0.14905270  0.24805547  0.36732693  1.0
  O  O102  1  0.18780215  0.34939285  0.30788819  1.0
  O  O103  1  0.42104648  0.94547602  0.76741295  1.0
  O  O104  1  0.75695998  0.59469007  0.76952574  1.0
  O  O105  1  0.13208830  0.12709349  0.22528102  1.0
