# generated using pymatgen
data_AlH16C20O7
_symmetry_space_group_name_H-M   'P 1'
_cell_length_a   6.62371508
_cell_length_b   20.42349733
_cell_length_c   24.10869533
_cell_angle_alpha   89.85667937
_cell_angle_beta   87.13011633
_cell_angle_gamma   87.51705580
_symmetry_Int_Tables_number   1
_chemical_formula_structural   AlH16C20O7
_chemical_formula_sum   'Al4 H64 C80 O28'
_cell_volume   3254.26179858
_cell_formula_units_Z   4
loop_
 _symmetry_equiv_pos_site_id
 _symmetry_equiv_pos_as_xyz
  1  'x, y, z'
loop_
 _atom_site_type_symbol
 _atom_site_label
 _atom_site_symmetry_multiplicity
 _atom_site_fract_x
 _atom_site_fract_y
 _atom_site_fract_z
 _atom_site_occupancy
  Al  Al0  1  0.13121371  0.50433918  0.50198492  1.0
  Al  Al1  1  0.63241427  0.50289713  0.49857624  1.0
  Al  Al2  1  0.71333444  0.99935059  0.99919280  1.0
  Al  Al3  1  0.21349954  0.99888626  0.99849322  1.0
  H  H4  1  0.61043255  0.70407149  0.53233286  1.0
  H  H5  1  0.57506543  0.86708764  0.67457415  1.0
  H  H6  1  0.07465960  0.67692784  0.92752010  1.0
  H  H7  1  0.09050733  0.78272418  0.97837862  1.0
  H  H8  1  0.72128762  0.87733263  0.76578252  1.0
  H  H9  1  0.67020527  0.16464681  0.76654189  1.0
  H  H10  1  0.63631055  0.24138789  0.68668747  1.0
  H  H11  1  0.19573346  0.26378760  0.81528060  1.0
  H  H12  1  0.68397018  0.65789613  0.25959257  1.0
  H  H13  1  0.71197778  0.73247073  0.17761781  1.0
  H  H14  1  0.47984774  0.11864774  0.34554308  1.0
  H  H15  1  0.47475996  0.11377701  0.16512005  1.0
  H  H16  1  0.50239742  0.11644619  0.24440171  1.0
  H  H17  1  0.97098385  0.61678691  0.84985595  1.0
  H  H18  1  0.53877567  0.80590099  0.58886709  1.0
  H  H19  1  0.16133030  0.34060774  0.73571190  1.0
  H  H20  1  0.14884836  0.83216795  0.23137436  1.0
  H  H21  1  0.12080636  0.75765677  0.31329458  1.0
  H  H22  1  0.43363596  0.46721196  0.19138703  1.0
  H  H23  1  0.17004390  0.45244448  0.19806058  1.0
  H  H24  1  0.12938055  0.49315557  0.10005015  1.0
  H  H25  1  0.23074581  0.55427639  0.14198307  1.0
  H  H26  1  0.39241286  0.50827597  0.09377958  1.0
  H  H27  1  0.25795089  0.69375757  0.66237793  1.0
  H  H28  1  0.28298303  0.64330853  0.60133076  1.0
  H  H29  1  0.54779461  0.61117596  0.66903807  1.0
  H  H30  1  0.35463721  0.59649333  0.72078601  1.0
  H  H31  1  0.38104719  0.54657740  0.65977988  1.0
  H  H32  1  0.71320196  0.38506920  0.27772218  1.0
  H  H33  1  0.76631556  0.40094545  0.34824816  1.0
  H  H34  1  0.84173414  0.49725856  0.28548121  1.0
  H  H35  1  0.65250292  0.51830001  0.33821738  1.0
  H  H36  1  0.58218046  0.50367426  0.26902215  1.0
  H  H37  1  0.09838985  0.24148976  0.49657649  1.0
  H  H38  1  0.10249258  0.31870222  0.53039596  1.0
  H  H39  1  0.30100590  0.26669273  0.60638388  1.0
  H  H40  1  0.06799537  0.22794009  0.60011281  1.0
  H  H41  1  0.29819609  0.18920653  0.57222340  1.0
  H  H42  1  0.36016311  0.32265094  0.06271422  1.0
  H  H43  1  0.67317874  0.21701655  0.97441994  1.0
  H  H44  1  0.53008417  0.29324645  0.97212527  1.0
  H  H45  1  0.31978267  0.24537112  0.89849146  1.0
  H  H46  1  0.58159947  0.24645448  0.87630957  1.0
  H  H47  1  0.47460760  0.17180487  0.89939647  1.0
  H  H48  1  0.36136363  0.38694072  0.25247314  1.0
  H  H49  1  0.18796710  0.12007792  0.39336815  1.0
  H  H50  1  0.09636751  0.15393524  0.45817360  1.0
  H  H51  1  0.30763565  0.06925886  0.50837599  1.0
  H  H52  1  0.13359203  0.03199865  0.46552120  1.0
  H  H53  1  0.39433596  0.03410017  0.44352203  1.0
  H  H54  1  0.11743889  0.88607061  0.76326539  1.0
  H  H55  1  0.21067705  0.92349785  0.82324841  1.0
  H  H56  1  0.99265916  0.02525078  0.80585337  1.0
  H  H57  1  0.16174448  0.00658642  0.74789144  1.0
  H  H58  1  0.90222282  0.98787656  0.74557067  1.0
  H  H59  1  0.77148926  0.54369592  0.81661201  1.0
  H  H60  1  0.02554587  0.53502565  0.78800551  1.0
  H  H61  1  0.90265845  0.48490685  0.70190759  1.0
  H  H62  1  0.82139071  0.43960197  0.76161482  1.0
  H  H63  1  0.64800085  0.49432236  0.72870183  1.0
  H  H64  1  0.37840832  0.48595079  0.57035544  1.0
  H  H65  1  0.90880901  0.45920663  0.43930971  1.0
  H  H66  1  0.48458172  0.96765403  0.93137703  1.0
  H  H67  1  0.94724760  0.03258666  0.06537430  1.0
  C  C68  1  0.37624981  0.57941131  0.42411867  1.0
  C  C69  1  0.40780965  0.40349910  0.44463980  1.0
  C  C70  1  0.87840792  0.42732503  0.57895922  1.0
  C  C71  1  0.85133734  0.60189960  0.55486589  1.0
  C  C72  1  0.99166107  0.84086992  0.90900264  1.0
  C  C73  1  0.81499933  0.66110809  0.59050735  1.0
  C  C74  1  0.03499001  0.72331716  0.90741430  1.0
  C  C75  1  0.04398389  0.78154266  0.93566707  1.0
  C  C76  1  0.93561554  0.84129580  0.85406926  1.0
  C  C77  1  0.91777110  0.78189300  0.82416540  1.0
  C  C78  1  0.97177220  0.72214839  0.85218372  1.0
  C  C79  1  0.84891305  0.77786480  0.76807878  1.0
  C  C80  1  0.86400924  0.71712022  0.73904810  1.0
  C  C81  1  0.89239782  0.65806831  0.77142575  1.0
  C  C82  1  0.95031906  0.66120678  0.82538721  1.0
  C  C83  1  0.74612510  0.83217630  0.74227448  1.0
  C  C84  1  0.66658618  0.82664861  0.69131542  1.0
  C  C85  1  0.70583086  0.76948991  0.65826438  1.0
  C  C86  1  0.82289124  0.71600078  0.68055686  1.0
  C  C87  1  0.63287536  0.76529566  0.60425410  1.0
  C  C88  1  0.67604347  0.71018363  0.57245854  1.0
  C  C89  1  0.89724754  0.66568614  0.64267443  1.0
  C  C90  1  0.75788881  0.24612711  0.71508796  1.0
  C  C91  1  0.89601981  0.29627216  0.70615961  1.0
  C  C92  1  0.05441148  0.30198573  0.74275733  1.0
  C  C93  1  0.07366327  0.25914517  0.78706239  1.0
  C  C94  1  0.93499911  0.20914760  0.79624690  1.0
  C  C95  1  0.77707315  0.20327691  0.75946611  1.0
  C  C96  1  0.87952835  0.34062508  0.66135513  1.0
  C  C97  1  0.95155113  0.16555862  0.84168712  1.0
  C  C98  1  0.95940094  0.12757980  0.88063798  1.0
  C  C99  1  0.87426447  0.37998593  0.62335335  1.0
  C  C100  1  0.58302432  0.73751819  0.20742172  1.0
  C  C101  1  0.43234642  0.78718532  0.19932082  1.0
  C  C102  1  0.26486663  0.79381219  0.23784484  1.0
  C  C103  1  0.24926085  0.75238037  0.28334826  1.0
  C  C104  1  0.40085592  0.70309949  0.29169890  1.0
  C  C105  1  0.56759821  0.69611692  0.25296160  1.0
  C  C106  1  0.44884567  0.83074975  0.15381893  1.0
  C  C107  1  0.38747992  0.66123345  0.33836334  1.0
  C  C108  1  0.37926327  0.62471252  0.37833097  1.0
  C  C109  1  0.45997881  0.86958447  0.11548309  1.0
  C  C110  1  0.42655522  0.15888318  0.08710908  1.0
  C  C111  1  0.41278061  0.34091150  0.41194797  1.0
  C  C112  1  0.38589945  0.27700668  0.08517495  1.0
  C  C113  1  0.39554194  0.21785289  0.05726404  1.0
  C  C114  1  0.44878733  0.16021943  0.14381538  1.0
  C  C115  1  0.43504294  0.21966146  0.17401740  1.0
  C  C116  1  0.40202595  0.27868089  0.14332562  1.0
  C  C117  1  0.44713960  0.22170198  0.23381552  1.0
  C  C118  1  0.42547469  0.28289990  0.26184959  1.0
  C  C119  1  0.38756519  0.34106416  0.23017844  1.0
  C  C120  1  0.37695864  0.33925480  0.17344371  1.0
  C  C121  1  0.47427797  0.16329368  0.26544874  1.0
  C  C122  1  0.46120830  0.16404264  0.32220513  1.0
  C  C123  1  0.42934860  0.22397272  0.35216010  1.0
  C  C124  1  0.43032113  0.28477967  0.32203119  1.0
  C  C125  1  0.40417216  0.22290926  0.41109349  1.0
  C  C126  1  0.39305581  0.28135882  0.44093660  1.0
  C  C127  1  0.43424000  0.34304671  0.35443589  1.0
  C  C128  1  0.43408690  0.09568569  0.05584983  1.0
  C  C129  1  0.46819487  0.91826610  0.07207480  1.0
  C  C130  1  0.99115390  0.90342477  0.94081430  1.0
  C  C131  1  0.95777116  0.07978755  0.92499867  1.0
  C  C132  1  0.30090838  0.45527183  0.16803959  1.0
  C  C133  1  0.26102883  0.50564071  0.12323534  1.0
  C  C134  1  0.24957440  0.64333212  0.64656169  1.0
  C  C135  1  0.39131174  0.59654501  0.67582810  1.0
  C  C136  1  0.66955510  0.41606068  0.31417724  1.0
  C  C137  1  0.68661652  0.48813613  0.30106377  1.0
  C  C138  1  0.18469484  0.27104585  0.52435341  1.0
  C  C139  1  0.21536983  0.23649839  0.57901820  1.0
  C  C140  1  0.52509092  0.24001398  0.96487642  1.0
  C  C141  1  0.47215859  0.22500621  0.90607085  1.0
  C  C142  1  0.22537991  0.12666453  0.43697249  1.0
  C  C143  1  0.26809016  0.06165457  0.46522824  1.0
  C  C144  1  0.08065267  0.92248906  0.79640383  1.0
  C  C145  1  0.03046683  0.98948094  0.77266108  1.0
  C  C146  1  0.86556870  0.54153958  0.77743076  1.0
  C  C147  1  0.80571118  0.48693391  0.74014500  1.0
  O  O148  1  0.57610120  0.42394750  0.45895226  1.0
  O  O149  1  0.20458606  0.56775460  0.44700389  1.0
  O  O150  1  0.02722304  0.57490804  0.54810744  1.0
  O  O151  1  0.23405261  0.43086868  0.45524646  1.0
  O  O152  1  0.05400542  0.44221567  0.56016675  1.0
  O  O153  1  0.54701592  0.55434221  0.43690299  1.0
  O  O154  1  0.37742685  0.50730317  0.53436799  1.0
  O  O155  1  0.70880910  0.44988650  0.56304125  1.0
  O  O156  1  0.69244410  0.58172099  0.53385218  1.0
  O  O157  1  0.89172797  0.49368036  0.46700229  1.0
  O  O158  1  0.29914908  0.94558873  0.06030178  1.0
  O  O159  1  0.60515349  0.06481940  0.05030979  1.0
  O  O160  1  0.78445437  0.06917235  0.94749608  1.0
  O  O161  1  0.64240289  0.93003783  0.05071742  1.0
  O  O162  1  0.82186963  0.93479309  0.94800693  1.0
  O  O163  1  0.26966617  0.07721834  0.03746787  1.0
  O  O164  1  0.47057340  0.99444518  0.96461477  1.0
  O  O165  1  0.15731798  0.92012954  0.95985987  1.0
  O  O166  1  0.12703179  0.05227096  0.93604771  1.0
  O  O167  1  0.95701343  0.00463779  0.03280984  1.0
  O  O168  1  0.33806266  0.39304815  0.14114689  1.0
  O  O169  1  0.04552115  0.62150549  0.65777051  1.0
  O  O170  1  0.46047858  0.40494422  0.33167186  1.0
  O  O171  1  0.38136673  0.28296244  0.49790649  1.0
  O  O172  1  0.37008035  0.21275362  0.00119996  1.0
  O  O173  1  0.40503718  0.16427455  0.43965674  1.0
  O  O174  1  0.90566821  0.90229289  0.82977855  1.0
  O  O175  1  0.83787676  0.60180729  0.74768485  1.0
