# generated using pymatgen
data_ZnH10C17IN3O4
_symmetry_space_group_name_H-M   'P 1'
_cell_length_a   10.89771052
_cell_length_b   15.89068413
_cell_length_c   17.25549484
_cell_angle_alpha   92.65740310
_cell_angle_beta   90.37060237
_cell_angle_gamma   91.51697615
_symmetry_Int_Tables_number   1
_chemical_formula_structural   ZnH10C17IN3O4
_chemical_formula_sum   'Zn2 H20 C34 I2 N6 O8'
_cell_volume   2983.82167803
_cell_formula_units_Z   2
loop_
 _symmetry_equiv_pos_site_id
 _symmetry_equiv_pos_as_xyz
  1  'x, y, z'
loop_
 _atom_site_type_symbol
 _atom_site_label
 _atom_site_symmetry_multiplicity
 _atom_site_fract_x
 _atom_site_fract_y
 _atom_site_fract_z
 _atom_site_occupancy
  Zn  Zn0  1  0.50328548  0.58749443  0.49734188  1.0
  Zn  Zn1  1  0.49026276  0.41263965  0.50139883  1.0
  H  H2  1  0.91185923  0.57963526  0.61121588  1.0
  H  H3  1  0.07180869  0.44130556  0.61999112  1.0
  H  H4  1  0.48309057  0.61286402  0.25057854  1.0
  H  H5  1  0.55739407  0.38830155  0.74475611  1.0
  H  H6  1  0.50364065  0.60675503  0.10479995  1.0
  H  H7  1  0.57326412  0.39462653  0.89100901  1.0
  H  H8  1  0.50916940  0.65546002  0.74851300  1.0
  H  H9  1  0.53015672  0.34582462  0.25228126  1.0
  H  H10  1  0.37830156  0.72888361  0.57406221  1.0
  H  H11  1  0.61603794  0.27184352  0.42550365  1.0
  H  H12  1  0.38239021  0.88831753  0.57439442  1.0
  H  H13  1  0.08175129  0.42005858  0.38893540  1.0
  H  H14  1  0.61521309  0.11246946  0.42649038  1.0
  H  H15  1  0.33324372  0.12806975  0.60046063  1.0
  H  H16  1  0.66540572  0.87177471  0.40114147  1.0
  H  H17  1  0.34479105  0.28734686  0.59150487  1.0
  H  H18  1  0.64997601  0.71236700  0.40842625  1.0
  H  H19  1  0.06746276  0.64799373  0.49629647  1.0
  H  H20  1  0.92612806  0.35174376  0.50390641  1.0
  H  H21  1  0.92177703  0.55838614  0.38030492  1.0
  C  C22  1  0.51468603  0.51664304  0.65206872  1.0
  C  C23  1  0.44007341  0.76383258  0.53702670  1.0
  C  C24  1  0.55487990  0.14948550  0.46380234  1.0
  C  C25  1  0.44228148  0.85106120  0.53697580  1.0
  C  C26  1  0.47377818  0.10958539  0.51418585  1.0
  C  C27  1  0.52448618  0.89075873  0.48712154  1.0
  C  C28  1  0.39654524  0.15856265  0.56126356  1.0
  C  C29  1  0.60113630  0.84149676  0.43989053  1.0
  C  C30  1  0.40283829  0.24579252  0.55658895  1.0
  C  C31  1  0.59275072  0.75419370  0.44365814  1.0
  C  C32  1  0.25798456  0.50613489  0.50413913  1.0
  C  C33  1  0.49536269  0.48413433  0.34639272  1.0
  C  C34  1  0.73608715  0.49333261  0.49543497  1.0
  C  C35  1  0.03521191  0.58232778  0.49799032  1.0
  C  C36  1  0.95861019  0.41734791  0.50222251  1.0
  C  C37  1  0.95163397  0.54444061  0.56191852  1.0
  C  C38  1  0.04212227  0.45522263  0.43827400  1.0
  C  C39  1  0.87244308  0.49402277  0.49759643  1.0
  C  C40  1  0.12150971  0.50562226  0.50260721  1.0
  C  C41  1  0.95681617  0.53264634  0.43360800  1.0
  C  C42  1  0.03701088  0.46701798  0.56659916  1.0
  C  C43  1  0.52989402  0.52128599  0.73883520  1.0
  C  C44  1  0.54713359  0.52807093  0.90145453  1.0
  C  C45  1  0.50614412  0.47978574  0.25945620  1.0
  C  C46  1  0.54970268  0.44752689  0.77853180  1.0
  C  C47  1  0.49896190  0.55373380  0.21821161  1.0
  C  C48  1  0.55849903  0.45089113  0.85867221  1.0
  C  C49  1  0.51056106  0.55055554  0.13834408  1.0
  C  C50  1  0.53027167  0.47330774  0.09724976  1.0
  C  C51  1  0.53191968  0.60223873  0.86096320  1.0
  C  C52  1  0.53716669  0.39937251  0.13908271  1.0
  C  C53  1  0.52287733  0.59882751  0.78031518  1.0
  C  C54  1  0.52509775  0.40255205  0.21948631  1.0
  C  C55  1  0.55521954  0.23665305  0.46292811  1.0
  I  I56  1  0.51555497  0.71949811  0.92172558  1.0
  I  I57  1  0.56983104  0.28268383  0.08095807  1.0
  N  N58  1  0.54963849  0.53510013  0.98290856  1.0
  N  N59  1  0.53564299  0.46587896  0.01590244  1.0
  N  N60  1  0.48061375  0.28370551  0.50832918  1.0
  N  N61  1  0.51375180  0.71649662  0.49126154  1.0
  N  N62  1  0.46207435  0.02109856  0.52118635  1.0
  N  N63  1  0.53703494  0.97927520  0.48043172  1.0
  O  O64  1  0.51074122  0.58592942  0.61808313  1.0
  O  O65  1  0.48907424  0.41483656  0.38048452  1.0
  O  O66  1  0.50630049  0.44301087  0.61975270  1.0
  O  O67  1  0.49449500  0.55774663  0.37887041  1.0
  O  O68  1  0.31547190  0.57691904  0.50274100  1.0
  O  O69  1  0.67880469  0.42240725  0.49592062  1.0
  O  O70  1  0.30682060  0.43402231  0.50607945  1.0
  O  O71  1  0.68721493  0.56543766  0.49375566  1.0
