# generated using pymatgen
data_CdH12C18(N3O2)2
_symmetry_space_group_name_H-M   'P 1'
_cell_length_a   8.62653905
_cell_length_b   10.58776904
_cell_length_c   15.05232212
_cell_angle_alpha   90.00069149
_cell_angle_beta   89.99993639
_cell_angle_gamma   89.99839654
_symmetry_Int_Tables_number   1
_chemical_formula_structural   CdH12C18(N3O2)2
_chemical_formula_sum   'Cd2 H24 C36 N12 O8'
_cell_volume   1374.81592835
_cell_formula_units_Z   2
loop_
 _symmetry_equiv_pos_site_id
 _symmetry_equiv_pos_as_xyz
  1  'x, y, z'
loop_
 _atom_site_type_symbol
 _atom_site_label
 _atom_site_symmetry_multiplicity
 _atom_site_fract_x
 _atom_site_fract_y
 _atom_site_fract_z
 _atom_site_occupancy
  Cd  Cd0  1  0.50001141  0.68478732  0.99999276  1.0
  Cd  Cd1  1  0.50000217  0.18479491  0.50000188  1.0
  H  H2  1  0.54802307  0.43602505  0.30802855  1.0
  H  H3  1  0.45195405  0.43603134  0.69196137  1.0
  H  H4  1  0.54805743  0.93604061  0.19196551  1.0
  H  H5  1  0.45195225  0.93603192  0.80803062  1.0
  H  H6  1  0.82553027  0.53782140  0.08547718  1.0
  H  H7  1  0.17446883  0.53782178  0.91452821  1.0
  H  H8  1  0.82553048  0.03782279  0.41453594  1.0
  H  H9  1  0.17446620  0.03783542  0.58546724  1.0
  H  H10  1  0.03589725  0.53284524  0.18117893  1.0
  H  H11  1  0.96408463  0.53283268  0.81883307  1.0
  H  H12  1  0.03592431  0.03285346  0.31882934  1.0
  H  H13  1  0.96407254  0.03282341  0.68115520  1.0
  H  H14  1  0.26152094  0.45077982  0.26217199  1.0
  H  H15  1  0.73845914  0.45075775  0.73784729  1.0
  H  H16  1  0.26154826  0.95077446  0.23783965  1.0
  H  H17  1  0.73845512  0.95074243  0.76214464  1.0
  H  H18  1  0.95956816  0.22941511  0.42914840  1.0
  H  H19  1  0.04042769  0.22940692  0.57085772  1.0
  H  H20  1  0.95958885  0.72941158  0.07086293  1.0
  H  H21  1  0.04043957  0.72941998  0.92913810  1.0
  H  H22  1  0.73240284  0.30464810  0.34481429  1.0
  H  H23  1  0.26759273  0.30465133  0.65518051  1.0
  H  H24  1  0.73242568  0.80465642  0.15519449  1.0
  H  H25  1  0.26759550  0.80466671  0.84480983  1.0
  C  C26  1  0.58602150  0.47376950  0.24435015  1.0
  C  C27  1  0.41396243  0.47377304  0.75564009  1.0
  C  C28  1  0.58604530  0.97378051  0.25564819  1.0
  C  C29  1  0.41395844  0.97377913  0.74434892  1.0
  C  C30  1  0.72882307  0.52469548  0.13042571  1.0
  C  C31  1  0.27118112  0.52469761  0.86957227  1.0
  C  C32  1  0.72882453  0.02470175  0.36957939  1.0
  C  C33  1  0.27117376  0.02470730  0.63042102  1.0
  C  C34  1  0.86952771  0.42302106  0.25750330  1.0
  C  C35  1  0.13046260  0.42300813  0.74250113  1.0
  C  C36  1  0.86955271  0.92302428  0.24250706  1.0
  C  C37  1  0.13045511  0.92301444  0.75748830  1.0
  C  C38  1  0.01830733  0.46396547  0.23406085  1.0
  C  C39  1  0.98167462  0.46395255  0.76595389  1.0
  C  C40  1  0.01833343  0.96397004  0.26594973  1.0
  C  C41  1  0.98166833  0.96394523  0.73403667  1.0
  C  C42  1  0.14617859  0.41841942  0.28077500  1.0
  C  C43  1  0.85380610  0.41839631  0.71924201  1.0
  C  C44  1  0.14620478  0.91841563  0.21923710  1.0
  C  C45  1  0.85380203  0.91838980  0.78074957  1.0
  C  C46  1  0.12624500  0.33311239  0.35109935  1.0
  C  C47  1  0.87374263  0.33309422  0.64891628  1.0
  C  C48  1  0.12626785  0.83310643  0.14891205  1.0
  C  C49  1  0.87374886  0.83309176  0.85107922  1.0
  C  C50  1  0.97625978  0.29346193  0.37345161  1.0
  C  C51  1  0.02373849  0.29344941  0.62655638  1.0
  C  C52  1  0.97627920  0.79346031  0.12656091  1.0
  C  C53  1  0.02374120  0.79345867  0.87343734  1.0
  C  C54  1  0.84806861  0.33710956  0.32693210  1.0
  C  C55  1  0.15192120  0.33710533  0.67307227  1.0
  C  C56  1  0.84809026  0.83711253  0.17307887  1.0
  C  C57  1  0.15192748  0.83711474  0.82692107  1.0
  C  C58  1  0.26029492  0.28390644  0.40416998  1.0
  C  C59  1  0.73969673  0.28388850  0.59584059  1.0
  C  C60  1  0.26031672  0.78389768  0.09583760  1.0
  C  C61  1  0.73970054  0.78388601  0.90415592  1.0
  N  N62  1  0.58450738  0.55894687  0.11416993  1.0
  N  N63  1  0.41548636  0.55895357  0.88582302  1.0
  N  N64  1  0.58451228  0.05895531  0.38582957  1.0
  N  N65  1  0.41548483  0.05896015  0.61417180  1.0
  N  N66  1  0.49350381  0.52723646  0.18597337  1.0
  N  N67  1  0.50648523  0.52724552  0.81401666  1.0
  N  N68  1  0.49351928  0.02724744  0.31402194  1.0
  N  N69  1  0.50647892  0.02724673  0.68597783  1.0
  N  N70  1  0.73619537  0.47021720  0.21253307  1.0
  N  N71  1  0.26379100  0.47021997  0.78746777  1.0
  N  N72  1  0.73621680  0.97022593  0.28747179  1.0
  N  N73  1  0.26378822  0.97022551  0.71252662  1.0
  O  O74  1  0.23370637  0.19483463  0.45963747  1.0
  O  O75  1  0.76629299  0.19481324  0.54037501  1.0
  O  O76  1  0.23371784  0.69482774  0.04036872  1.0
  O  O77  1  0.76630597  0.69481549  0.95962272  1.0
  O  O78  1  0.39508861  0.33157209  0.39375846  1.0
  O  O79  1  0.60490255  0.33156399  0.60624720  1.0
  O  O80  1  0.39511038  0.83156067  0.10624612  1.0
  O  O81  1  0.60490407  0.83155472  0.89374780  1.0
