# generated using pymatgen
data_Zn2H21C38N2(Cl3O4)2
_symmetry_space_group_name_H-M   'P 1'
_cell_length_a   11.01512375
_cell_length_b   14.09007028
_cell_length_c   26.19928602
_cell_angle_alpha   89.27274733
_cell_angle_beta   89.69109551
_cell_angle_gamma   89.74218427
_symmetry_Int_Tables_number   1
_chemical_formula_structural   Zn2H21C38N2(Cl3O4)2
_chemical_formula_sum   'Zn4 H42 C76 N4 Cl12 O16'
_cell_volume   4065.80395148
_cell_formula_units_Z   2
loop_
 _symmetry_equiv_pos_site_id
 _symmetry_equiv_pos_as_xyz
  1  'x, y, z'
loop_
 _atom_site_type_symbol
 _atom_site_label
 _atom_site_symmetry_multiplicity
 _atom_site_fract_x
 _atom_site_fract_y
 _atom_site_fract_z
 _atom_site_occupancy
  Zn  Zn0  1  0.45769148  0.38439379  0.50018810  1.0
  Zn  Zn1  1  0.46215487  0.59217421  0.49426515  1.0
  Zn  Zn2  1  0.53523794  0.62010796  0.91511390  1.0
  Zn  Zn3  1  0.54681227  0.41451047  0.91699729  1.0
  H  H4  1  0.28304575  0.04112905  0.52062607  1.0
  H  H5  1  0.60128575  0.93010508  0.43672512  1.0
  H  H6  1  0.37325807  0.73369754  0.55932813  1.0
  H  H7  1  0.36697824  0.90990347  0.56914369  1.0
  H  H8  1  0.63751928  0.24338130  0.49097124  1.0
  H  H9  1  0.66635586  0.06755446  0.48831127  1.0
  H  H10  1  0.37721928  0.38678049  0.81309204  1.0
  H  H11  1  0.33411650  0.35942940  0.62533025  1.0
  H  H12  1  0.55492531  0.35126700  0.23678198  1.0
  H  H13  1  0.50323691  0.65220843  0.17924663  1.0
  H  H14  1  0.48076649  0.37068400  0.06983762  1.0
  H  H15  1  0.45877433  0.35072058  0.16326974  1.0
  H  H16  1  0.38641054  0.61063866  0.34088899  1.0
  H  H17  1  0.38788392  0.62742544  0.24672186  1.0
  H  H18  1  0.17928856  0.55142983  0.40255622  1.0
  H  H19  1  0.72992186  0.51186203  0.40516662  1.0
  H  H20  1  0.37505587  0.96042327  0.87450554  1.0
  H  H21  1  0.64897384  0.07787992  0.98786686  1.0
  H  H22  1  0.46722017  0.26833427  0.85054764  1.0
  H  H23  1  0.45640332  0.09361287  0.84448483  1.0
  H  H24  1  0.68824274  0.76224514  0.95489339  1.0
  H  H25  1  0.71136486  0.93768212  0.95826359  1.0
  H  H26  1  0.26343943  0.42919580  0.00188267  1.0
  H  H27  1  0.81545976  0.47930270  0.00965491  1.0
  H  H28  1  0.23576073  0.27445896  0.55728007  1.0
  H  H29  1  0.20892338  0.27528710  0.49137918  1.0
  H  H30  1  0.16308310  0.17512225  0.52952134  1.0
  H  H31  1  0.69356025  0.69604859  0.44002382  1.0
  H  H32  1  0.56530159  0.68975725  0.40060267  1.0
  H  H33  1  0.66467660  0.78984460  0.39507106  1.0
  H  H34  1  0.59775173  0.25954547  0.30570587  1.0
  H  H35  1  0.62407293  0.31633067  0.36514966  1.0
  H  H36  1  0.48275852  0.26328535  0.35407818  1.0
  H  H37  1  0.61455747  0.71226511  0.06399860  1.0
  H  H38  1  0.45795954  0.71939437  0.05249309  1.0
  H  H39  1  0.51535009  0.75332002  0.11330602  1.0
  H  H40  1  0.37464502  0.72325707  0.83586126  1.0
  H  H41  1  0.28843941  0.72670877  0.89231542  1.0
  H  H42  1  0.27725340  0.82314073  0.84727147  1.0
  H  H43  1  0.76202452  0.30188323  0.98149064  1.0
  H  H44  1  0.62448057  0.32398381  0.01367661  1.0
  H  H45  1  0.70871629  0.21788654  0.02805565  1.0
  C  C46  1  0.46001393  0.46822963  0.39894536  1.0
  C  C47  1  0.69669059  0.48100320  0.49842562  1.0
  C  C48  1  0.46727962  0.49627291  0.59536651  1.0
  C  C49  1  0.22539393  0.51290866  0.49665519  1.0
  C  C50  1  0.52173387  0.52371745  0.01454938  1.0
  C  C51  1  0.77618908  0.52640380  0.91718028  1.0
  C  C52  1  0.53571635  0.51646417  0.81705244  1.0
  C  C53  1  0.30583933  0.50102593  0.91331529  1.0
  C  C54  1  0.35409501  0.18243569  0.51466121  1.0
  C  C55  1  0.36440681  0.08360005  0.51442496  1.0
  C  C56  1  0.55019700  0.78983962  0.46172928  1.0
  C  C57  1  0.55051490  0.88885840  0.46505547  1.0
  C  C58  1  0.42137262  0.78060879  0.53281953  1.0
  C  C59  1  0.41820206  0.87836968  0.53794147  1.0
  C  C60  1  0.56149603  0.19517842  0.49708465  1.0
  C  C61  1  0.57665737  0.09743527  0.49557124  1.0
  C  C62  1  0.47572044  0.03926959  0.50450580  1.0
  C  C63  1  0.48270041  0.93479188  0.50276475  1.0
  C  C64  1  0.51650640  0.51347768  0.76004868  1.0
  C  C65  1  0.43807748  0.44305058  0.73965784  1.0
  C  C66  1  0.57325090  0.57743236  0.72712471  1.0
  C  C67  1  0.37188119  0.38001677  0.77187348  1.0
  C  C68  1  0.29751472  0.31145055  0.75207646  1.0
  C  C69  1  0.48354290  0.50276036  0.65236789  1.0
  C  C70  1  0.55665326  0.57228443  0.67318874  1.0
  C  C71  1  0.42271182  0.43690588  0.68552575  1.0
  C  C72  1  0.34504524  0.36585504  0.66629109  1.0
  C  C73  1  0.28445008  0.30381735  0.69838462  1.0
  C  C74  1  0.46363043  0.47064088  0.34191635  1.0
  C  C75  1  0.50646390  0.52114038  0.07132715  1.0
  C  C76  1  0.50915105  0.39486719  0.31248465  1.0
  C  C77  1  0.51419206  0.40758659  0.25948330  1.0
  C  C78  1  0.50992059  0.60275489  0.10236456  1.0
  C  C79  1  0.49779818  0.58970441  0.15519190  1.0
  C  C80  1  0.48796367  0.43190936  0.09448176  1.0
  C  C81  1  0.47604332  0.42088172  0.14686854  1.0
  C  C82  1  0.42234806  0.55370193  0.31741978  1.0
  C  C83  1  0.42474660  0.56343490  0.26470193  1.0
  C  C84  1  0.47294162  0.49042135  0.23458442  1.0
  C  C85  1  0.48206949  0.50032196  0.17855544  1.0
  C  C86  1  0.08872423  0.50619188  0.49713423  1.0
  C  C87  1  0.02296552  0.51907657  0.45078895  1.0
  C  C88  1  0.02744967  0.48379591  0.54199149  1.0
  C  C89  1  0.08127305  0.54170387  0.40380902  1.0
  C  C90  1  0.01551882  0.55291723  0.35937483  1.0
  C  C91  1  0.83337107  0.48531706  0.49798541  1.0
  C  C92  1  0.89888893  0.47308213  0.54243407  1.0
  C  C93  1  0.89377509  0.50799780  0.45133101  1.0
  C  C94  1  0.82826322  0.52000156  0.40526135  1.0
  C  C95  1  0.88700643  0.54180078  0.36002182  1.0
  C  C96  1  0.44116274  0.82032928  0.89115932  1.0
  C  C97  1  0.44787693  0.91933434  0.89224710  1.0
  C  C98  1  0.61463081  0.21649984  0.95650044  1.0
  C  C99  1  0.60898592  0.11740517  0.95607735  1.0
  C  C100  1  0.50661927  0.22322891  0.88018473  1.0
  C  C101  1  0.50007567  0.12524902  0.87730008  1.0
  C  C102  1  0.62101030  0.80953339  0.93766285  1.0
  C  C103  1  0.63270608  0.90737404  0.93961316  1.0
  C  C104  1  0.54422555  0.96498151  0.91622550  1.0
  C  C105  1  0.55126521  0.06966115  0.91652025  1.0
  C  C106  1  0.16894570  0.50205963  0.91376785  1.0
  C  C107  1  0.10474715  0.47745263  0.95932508  1.0
  C  C108  1  0.10625623  0.53268233  0.87103539  1.0
  C  C109  1  0.16542996  0.44064390  0.00296071  1.0
  C  C110  1  0.10151613  0.41715762  0.04678310  1.0
  C  C111  1  0.91300574  0.52195572  0.91641121  1.0
  C  C112  1  0.97742672  0.54154328  0.87197100  1.0
  C  C113  1  0.97560924  0.48956229  0.96095071  1.0
  C  C114  1  0.91313689  0.46843934  0.00712495  1.0
  C  C115  1  0.97381163  0.43275194  0.04911206  1.0
  C  C116  1  0.23369515  0.22878086  0.52364600  1.0
  C  C117  1  0.62225381  0.73937696  0.42178036  1.0
  C  C118  1  0.55620711  0.30348874  0.33544243  1.0
  C  C119  1  0.52519527  0.70249352  0.08207944  1.0
  C  C120  1  0.33916303  0.77154272  0.86506154  1.0
  C  C121  1  0.68087736  0.26717946  0.99757892  1.0
  N  N122  1  0.45327508  0.23721212  0.50609579  1.0
  N  N123  1  0.48380471  0.73732036  0.49528860  1.0
  N  N124  1  0.52824219  0.76658734  0.91401392  1.0
  N  N125  1  0.56123074  0.26836632  0.91877863  1.0
  Cl  Cl126  1  0.63358074  0.65187768  0.63470351  1.0
  Cl  Cl127  1  0.66749874  0.66367389  0.75035066  1.0
  Cl  Cl128  1  0.22021066  0.23592990  0.79313482  1.0
  Cl  Cl129  1  0.19245377  0.21797808  0.67279130  1.0
  Cl  Cl130  1  0.82429745  0.44528720  0.59852996  1.0
  Cl  Cl131  1  0.10603747  0.47080717  0.59838296  1.0
  Cl  Cl132  1  0.08998587  0.58035673  0.30310374  1.0
  Cl  Cl133  1  0.80350080  0.55501990  0.30493034  1.0
  Cl  Cl134  1  0.90256400  0.57351742  0.81695632  1.0
  Cl  Cl135  1  0.18505279  0.56016698  0.81576381  1.0
  Cl  Cl136  1  0.17651868  0.36849761  0.09843334  1.0
  Cl  Cl137  1  0.89280015  0.40676183  0.10401839  1.0
  O  O138  1  0.44677726  0.38896952  0.42204069  1.0
  O  O139  1  0.47103081  0.54867117  0.42064331  1.0
  O  O140  1  0.64432356  0.56044442  0.50438602  1.0
  O  O141  1  0.64680250  0.40141527  0.49131855  1.0
  O  O142  1  0.43599570  0.57140044  0.57174802  1.0
  O  O143  1  0.48529864  0.41519449  0.57575664  1.0
  O  O144  1  0.28109158  0.43469108  0.50342455  1.0
  O  O145  1  0.27249027  0.59367342  0.48878067  1.0
  O  O146  1  0.55306699  0.60118553  0.99268226  1.0
  O  O147  1  0.50311268  0.44571755  0.99122699  1.0
  O  O148  1  0.72509992  0.44729642  0.92674173  1.0
  O  O149  1  0.72404848  0.60545471  0.90918797  1.0
  O  O150  1  0.57044670  0.43995092  0.83867871  1.0
  O  O151  1  0.51257945  0.59450416  0.83882035  1.0
  O  O152  1  0.35413402  0.57908597  0.92526059  1.0
  O  O153  1  0.36004747  0.42428084  0.90213674  1.0
