# generated using pymatgen
data_FeAg2H10(C8N5)2
_symmetry_space_group_name_H-M   'P 1'
_cell_length_a   10.10546490
_cell_length_b   10.15093721
_cell_length_c   29.91593436
_cell_angle_alpha   89.99909845
_cell_angle_beta   89.99438768
_cell_angle_gamma   78.90318464
_symmetry_Int_Tables_number   1
_chemical_formula_structural   FeAg2H10(C8N5)2
_chemical_formula_sum   'Fe4 Ag8 H40 C64 N40'
_cell_volume   3011.39896118
_cell_formula_units_Z   4
loop_
 _symmetry_equiv_pos_site_id
 _symmetry_equiv_pos_as_xyz
  1  'x, y, z'
loop_
 _atom_site_type_symbol
 _atom_site_label
 _atom_site_symmetry_multiplicity
 _atom_site_fract_x
 _atom_site_fract_y
 _atom_site_fract_z
 _atom_site_occupancy
  Fe  Fe0  1  0.23712788  0.23663130  0.94122034  1.0
  Fe  Fe1  1  0.26288673  0.26338917  0.44121841  1.0
  Fe  Fe2  1  0.76286196  0.76337379  0.05877817  1.0
  Fe  Fe3  1  0.73712310  0.73661013  0.55878110  1.0
  Ag  Ag4  1  0.23197191  0.73766099  0.94963171  1.0
  Ag  Ag5  1  0.26808733  0.76235248  0.44964299  1.0
  Ag  Ag6  1  0.76803056  0.26234527  0.05036479  1.0
  Ag  Ag7  1  0.73193101  0.23764391  0.55036488  1.0
  Ag  Ag8  1  0.73667873  0.23977970  0.94952364  1.0
  Ag  Ag9  1  0.76332912  0.26024762  0.44951971  1.0
  Ag  Ag10  1  0.26331124  0.76021030  0.05047820  1.0
  Ag  Ag11  1  0.23668277  0.73974164  0.55048648  1.0
  H  H12  1  0.17653743  0.43885967  0.69698309  1.0
  H  H13  1  0.32345940  0.06115188  0.19698486  1.0
  H  H14  1  0.82346878  0.56114764  0.30301040  1.0
  H  H15  1  0.67653994  0.93885031  0.80301865  1.0
  H  H16  1  0.11309642  0.31959970  0.67135396  1.0
  H  H17  1  0.38690085  0.18039749  0.17134399  1.0
  H  H18  1  0.88690535  0.68039547  0.32864889  1.0
  H  H19  1  0.61309265  0.81959457  0.82865217  1.0
  H  H20  1  0.39773805  0.04473165  0.88139719  1.0
  H  H21  1  0.10225389  0.45528085  0.38140698  1.0
  H  H22  1  0.60225401  0.95526743  0.11860198  1.0
  H  H23  1  0.89773612  0.54470412  0.61859353  1.0
  H  H24  1  0.44717515  0.02278824  0.79934149  1.0
  H  H25  1  0.05280657  0.47720613  0.29935381  1.0
  H  H26  1  0.55281987  0.97721088  0.20065734  1.0
  H  H27  1  0.94717243  0.52277467  0.70064737  1.0
  H  H28  1  0.16376613  0.39673725  0.78079627  1.0
  H  H29  1  0.33626060  0.10328566  0.28079573  1.0
  H  H30  1  0.83623810  0.60327004  0.21920257  1.0
  H  H31  1  0.66373722  0.89670947  0.71920344  1.0
  H  H32  1  0.12589587  0.40246426  0.86144989  1.0
  H  H33  1  0.37413087  0.09757059  0.36144712  1.0
  H  H34  1  0.87409931  0.59753888  0.13854895  1.0
  H  H35  1  0.62587324  0.90242763  0.63855172  1.0
  H  H36  1  0.44614623  0.02467637  0.59823564  1.0
  H  H37  1  0.05388616  0.47535367  0.09824826  1.0
  H  H38  1  0.55388539  0.97533729  0.40176420  1.0
  H  H39  1  0.94612379  0.52465469  0.90175158  1.0
  H  H40  1  0.39990640  0.05576687  0.51681584  1.0
  H  H41  1  0.10011919  0.44426120  0.01682608  1.0
  H  H42  1  0.60012214  0.94423770  0.48318434  1.0
  H  H43  1  0.89987048  0.55573986  0.98317276  1.0
  H  H44  1  0.18525258  0.44224168  0.53534834  1.0
  H  H45  1  0.31471165  0.05775562  0.03534708  1.0
  H  H46  1  0.81473287  0.55774624  0.46465050  1.0
  H  H47  1  0.68525344  0.94223507  0.96465109  1.0
  H  H48  1  0.22570751  0.43241862  0.61709008  1.0
  H  H49  1  0.27427710  0.06759594  0.11709145  1.0
  H  H50  1  0.77427748  0.56757635  0.38290842  1.0
  H  H51  1  0.72571377  0.93240413  0.88290805  1.0
  C  C52  1  0.34979874  0.11993709  0.85761783  1.0
  C  C53  1  0.15020358  0.38008232  0.35762473  1.0
  C  C54  1  0.65019764  0.88006506  0.14238134  1.0
  C  C55  1  0.84978857  0.61990669  0.64237611  1.0
  C  C56  1  0.37738086  0.10919442  0.81248092  1.0
  C  C57  1  0.12261354  0.39081131  0.31249002  1.0
  C  C58  1  0.62261651  0.89080774  0.18751826  1.0
  C  C59  1  0.87737035  0.60917458  0.68751049  1.0
  C  C60  1  0.31408341  0.20935872  0.78274873  1.0
  C  C61  1  0.18592486  0.29065492  0.28275423  1.0
  C  C62  1  0.68591905  0.79064753  0.21725078  1.0
  C  C63  1  0.81406823  0.70933914  0.71724594  1.0
  C  C64  1  0.21995711  0.31569624  0.80097275  1.0
  C  C65  1  0.28005867  0.18432272  0.30097366  1.0
  C  C66  1  0.78004358  0.68430898  0.19902676  1.0
  C  C67  1  0.71993640  0.81567137  0.69902551  1.0
  C  C68  1  0.19669403  0.31940485  0.84684199  1.0
  C  C69  1  0.30332457  0.18062270  0.34684015  1.0
  C  C70  1  0.80330489  0.68059935  0.15315785  1.0
  C  C71  1  0.69667699  0.81937348  0.65315869  1.0
  C  C72  1  0.35530278  0.19358358  0.73611675  1.0
  C  C73  1  0.14470779  0.30642656  0.23612488  1.0
  C  C74  1  0.64470519  0.80642475  0.26388343  1.0
  C  C75  1  0.85529139  0.69357160  0.76387463  1.0
  C  C76  1  0.36858822  0.20161851  0.66264964  1.0
  C  C77  1  0.13141706  0.29840485  0.16265825  1.0
  C  C78  1  0.63141975  0.79838983  0.33735054  1.0
  C  C79  1  0.86858618  0.70160242  0.83734125  1.0
  C  C80  1  0.33804631  0.22470745  0.61527801  1.0
  C  C81  1  0.16195691  0.27531537  0.11528506  1.0
  C  C82  1  0.66196466  0.77529589  0.38472217  1.0
  C  C83  1  0.83804280  0.72468984  0.88471445  1.0
  C  C84  1  0.38836707  0.11901933  0.58585700  1.0
  C  C85  1  0.11164234  0.38100023  0.08586418  1.0
  C  C86  1  0.61165119  0.88098712  0.41414318  1.0
  C  C87  1  0.88835736  0.61900498  0.91413499  1.0
  C  C88  1  0.36307015  0.13586979  0.54048223  1.0
  C  C89  1  0.13694275  0.36414831  0.04048932  1.0
  C  C90  1  0.63694893  0.86413265  0.45951761  1.0
  C  C91  1  0.86304318  0.63585170  0.95950952  1.0
  C  C92  1  0.24224370  0.35158742  0.55087079  1.0
  C  C93  1  0.25773728  0.14841731  0.05087229  1.0
  C  C94  1  0.75775100  0.64840364  0.44912838  1.0
  C  C95  1  0.74223784  0.85157753  0.94912621  1.0
  C  C96  1  0.26393555  0.34397393  0.59691782  1.0
  C  C97  1  0.23605195  0.15604044  0.09692034  1.0
  C  C98  1  0.73606087  0.65602319  0.40308169  1.0
  C  C99  1  0.76393596  0.84395959  0.90307850  1.0
  C  C100  1  0.22777816  0.54052315  0.94423583  1.0
  C  C101  1  0.27225003  0.95949490  0.44423693  1.0
  C  C102  1  0.77220057  0.45948784  0.05576434  1.0
  C  C103  1  0.72777362  0.04050458  0.55576424  1.0
  C  C104  1  0.92978950  0.26063850  0.94117199  1.0
  C  C105  1  0.57022920  0.23939590  0.44116790  1.0
  C  C106  1  0.07020077  0.73934042  0.05881816  1.0
  C  C107  1  0.42978276  0.76060745  0.55884398  1.0
  C  C108  1  0.24021174  0.93453642  0.94838625  1.0
  C  C109  1  0.25984662  0.56548305  0.44839312  1.0
  C  C110  1  0.75981644  0.06546512  0.05160724  1.0
  C  C111  1  0.74015765  0.43451920  0.55161240  1.0
  C  C112  1  0.54271262  0.21605195  0.95048261  1.0
  C  C113  1  0.95729821  0.28396434  0.45047912  1.0
  C  C114  1  0.45727504  0.78395411  0.04952927  1.0
  C  C115  1  0.04271933  0.71601191  0.54951938  1.0
  N  N116  1  0.26111304  0.22462979  0.87528621  1.0
  N  N117  1  0.23890188  0.27539500  0.37528836  1.0
  N  N118  1  0.73888609  0.77537340  0.12471363  1.0
  N  N119  1  0.76110010  0.72459917  0.62471148  1.0
  N  N120  1  0.46694086  0.10938875  0.72302576  1.0
  N  N121  1  0.03307050  0.39062629  0.22304185  1.0
  N  N122  1  0.53306827  0.89062363  0.27697475  1.0
  N  N123  1  0.96693160  0.60937694  0.77695799  1.0
  N  N124  1  0.47390761  0.11299608  0.67756525  1.0
  N  N125  1  0.02610068  0.38702547  0.17758159  1.0
  N  N126  1  0.52610312  0.88701329  0.32243526  1.0
  N  N127  1  0.97390491  0.61298485  0.82241792  1.0
  N  N128  1  0.29174992  0.25601049  0.69881879  1.0
  N  N129  1  0.20825620  0.24400624  0.19882246  1.0
  N  N130  1  0.70825884  0.74399887  0.30118071  1.0
  N  N131  1  0.79174413  0.75599597  0.80117705  1.0
  N  N132  1  0.16476435  0.34111119  0.69893200  1.0
  N  N133  1  0.33524001  0.15889947  0.19892887  1.0
  N  N134  1  0.83524461  0.65889716  0.30106751  1.0
  N  N135  1  0.66476032  0.84110273  0.80107031  1.0
  N  N136  1  0.29076796  0.24939623  0.52347448  1.0
  N  N137  1  0.20922824  0.25061141  0.02347607  1.0
  N  N138  1  0.70924093  0.75059803  0.47652570  1.0
  N  N139  1  0.79074708  0.74938243  0.97652210  1.0
  N  N140  1  0.22782200  0.42529533  0.94150547  1.0
  N  N141  1  0.27219508  0.07472719  0.44150487  1.0
  N  N142  1  0.77215357  0.57471663  0.05849470  1.0
  N  N143  1  0.72782799  0.92527026  0.55849664  1.0
  N  N144  1  0.04573378  0.25971444  0.93855732  1.0
  N  N145  1  0.45428732  0.24030709  0.43855182  1.0
  N  N146  1  0.95425738  0.74027456  0.06143517  1.0
  N  N147  1  0.54572403  0.75969927  0.56145337  1.0
  N  N148  1  0.24384729  0.04907419  0.94606996  1.0
  N  N149  1  0.25618640  0.45095262  0.44606963  1.0
  N  N150  1  0.75616365  0.95093418  0.05392754  1.0
  N  N151  1  0.74381590  0.54904961  0.55393155  1.0
  N  N152  1  0.42703988  0.21523852  0.94850733  1.0
  N  N153  1  0.07297159  0.28478703  0.44850860  1.0
  N  N154  1  0.57294156  0.78477855  0.05149953  1.0
  N  N155  1  0.92704072  0.71520022  0.55148991  1.0
