# generated using pymatgen
data_Cu3H6C15N7
_symmetry_space_group_name_H-M   'P 1'
_cell_length_a   23.35884960
_cell_length_b   23.68327706
_cell_length_c   23.74103520
_cell_angle_alpha   89.95918193
_cell_angle_beta   89.96610134
_cell_angle_gamma   89.87917463
_symmetry_Int_Tables_number   1
_chemical_formula_structural   Cu3H6C15N7
_chemical_formula_sum   'Cu12 H24 C60 N28'
_cell_volume   13133.84076120
_cell_formula_units_Z   4
loop_
 _symmetry_equiv_pos_site_id
 _symmetry_equiv_pos_as_xyz
  1  'x, y, z'
loop_
 _atom_site_type_symbol
 _atom_site_label
 _atom_site_symmetry_multiplicity
 _atom_site_fract_x
 _atom_site_fract_y
 _atom_site_fract_z
 _atom_site_occupancy
  Cu  Cu0  1  0.41889846  0.33778862  0.56119555  1.0
  Cu  Cu1  1  0.33565767  0.44169247  0.58319958  1.0
  Cu  Cu2  1  0.44095871  0.41822316  0.66585996  1.0
  Cu  Cu3  1  0.58080888  0.83864243  0.93980623  1.0
  Cu  Cu4  1  0.66360033  0.94231564  0.91772324  1.0
  Cu  Cu5  1  0.55790596  0.91949335  0.83549205  1.0
  Cu  Cu6  1  0.91851379  0.16204900  0.43848601  1.0
  Cu  Cu7  1  0.83526633  0.05881803  0.41623939  1.0
  Cu  Cu8  1  0.94119729  0.08167530  0.33385427  1.0
  Cu  Cu9  1  0.08120470  0.66128965  0.06024739  1.0
  Cu  Cu10  1  0.16475181  0.55770060  0.08250052  1.0
  Cu  Cu11  1  0.05860275  0.58064433  0.16450360  1.0
  H  H12  1  0.36226702  0.28571299  0.45040129  1.0
  H  H13  1  0.24864009  0.42718727  0.48157583  1.0
  H  H14  1  0.55290741  0.36025196  0.71818715  1.0
  H  H15  1  0.52084797  0.25061589  0.57562983  1.0
  H  H16  1  0.28259041  0.55193018  0.64058380  1.0
  H  H17  1  0.42533742  0.51858490  0.75231563  1.0
  H  H18  1  0.63786103  0.78614378  0.05038195  1.0
  H  H19  1  0.75104292  0.92749040  0.01905712  1.0
  H  H20  1  0.44645891  0.86112491  0.78301427  1.0
  H  H21  1  0.47961447  0.75119452  0.92534593  1.0
  H  H22  1  0.71676843  0.05200044  0.86010094  1.0
  H  H23  1  0.57381795  0.01965834  0.74854751  1.0
  H  H24  1  0.86198684  0.21408116  0.54950245  1.0
  H  H25  1  0.74824134  0.07329754  0.51813241  1.0
  H  H26  1  0.05344618  0.13961233  0.28194577  1.0
  H  H27  1  0.02030906  0.24889901  0.42463129  1.0
  H  H28  1  0.78241200  0.94895860  0.35886624  1.0
  H  H29  1  0.92554852  0.98132067  0.24735264  1.0
  H  H30  1  0.13799784  0.71377387  0.94976796  1.0
  H  H31  1  0.25222975  0.57277493  0.98106674  1.0
  H  H32  1  0.94663712  0.63896092  0.21691697  1.0
  H  H33  1  0.97949017  0.74874995  0.07446682  1.0
  H  H34  1  0.21810571  0.44781664  0.14048286  1.0
  H  H35  1  0.07446349  0.48057422  0.25140566  1.0
  C  C36  1  0.34020196  0.32286722  0.46611695  1.0
  C  C37  1  0.29096488  0.34991318  0.44491044  1.0
  C  C38  1  0.28198435  0.39526114  0.48232040  1.0
  C  C39  1  0.53693303  0.33919682  0.68082057  1.0
  C  C40  1  0.55817240  0.29081927  0.65333317  1.0
  C  C41  1  0.52024279  0.28304380  0.60786797  1.0
  C  C42  1  0.32006989  0.53569554  0.66220017  1.0
  C  C43  1  0.34734915  0.55630798  0.71087340  1.0
  C  C44  1  0.39310947  0.51840113  0.71943698  1.0
  C  C45  1  0.65979580  0.82328318  0.03466824  1.0
  C  C46  1  0.70896631  0.85023120  0.05583270  1.0
  C  C47  1  0.71779902  0.89559949  0.01840083  1.0
  C  C48  1  0.46264100  0.84009211  0.82035351  1.0
  C  C49  1  0.44195678  0.79141109  0.84761721  1.0
  C  C50  1  0.47985820  0.78374528  0.89317030  1.0
  C  C51  1  0.67915540  0.03608602  0.83858663  1.0
  C  C52  1  0.65208542  0.05667069  0.78971835  1.0
  C  C53  1  0.60600643  0.01928524  0.78144553  1.0
  C  C54  1  0.83985235  0.17713812  0.53369266  1.0
  C  C55  1  0.79074736  0.15015963  0.55503100  1.0
  C  C56  1  0.78156960  0.10509046  0.51740123  1.0
  C  C57  1  0.03722495  0.16055653  0.31932107  1.0
  C  C58  1  0.05811395  0.20889717  0.34695644  1.0
  C  C59  1  0.01996561  0.21655981  0.39231855  1.0
  C  C60  1  0.81998301  0.96492287  0.33728469  1.0
  C  C61  1  0.84737046  0.94411838  0.28868119  1.0
  C  C62  1  0.89322269  0.98175292  0.28016787  1.0
  C  C63  1  0.16020835  0.67671016  0.96547598  1.0
  C  C64  1  0.20958192  0.64989683  0.94429300  1.0
  C  C65  1  0.21873301  0.60456357  0.98174333  1.0
  C  C66  1  0.96279275  0.65995446  0.17955679  1.0
  C  C67  1  0.94193119  0.70862291  0.15225255  1.0
  C  C68  1  0.97984919  0.71622528  0.10667618  1.0
  C  C69  1  0.18035237  0.46385189  0.16184567  1.0
  C  C70  1  0.15298171  0.44328445  0.21056251  1.0
  C  C71  1  0.10684888  0.48086213  0.21865404  1.0
  C  C72  1  0.74331977  0.83609824  0.10247694  1.0
  C  C73  1  0.77724163  0.82758114  0.14039496  1.0
  C  C74  1  0.25666043  0.33587935  0.39822088  1.0
  C  C75  1  0.22280615  0.32737840  0.36028459  1.0
  C  C76  1  0.24386347  0.66411860  0.89761211  1.0
  C  C77  1  0.27764725  0.67276629  0.85960096  1.0
  C  C78  1  0.75676808  0.16401921  0.60204786  1.0
  C  C79  1  0.72323677  0.17234897  0.64035655  1.0
  C  C80  1  0.89521556  0.74370274  0.16604135  1.0
  C  C81  1  0.85769902  0.77851284  0.17383712  1.0
  C  C82  1  0.60517868  0.25606228  0.66690504  1.0
  C  C83  1  0.64297060  0.22144411  0.67428429  1.0
  C  C84  1  0.10496986  0.24377072  0.33358656  1.0
  C  C85  1  0.14256403  0.27848209  0.32636303  1.0
  C  C86  1  0.39538762  0.75640497  0.83382610  1.0
  C  C87  1  0.35792603  0.72172112  0.82595635  1.0
  C  C88  1  0.83335952  0.89757106  0.25455274  1.0
  C  C89  1  0.82534458  0.85971800  0.22090690  1.0
  C  C90  1  0.33333333  0.60291198  0.74504530  1.0
  C  C91  1  0.32552634  0.64074421  0.77880081  1.0
  C  C92  1  0.66666667  0.10282521  0.75520067  1.0
  C  C93  1  0.67535140  0.14028908  0.72122856  1.0
  C  C94  1  0.16716045  0.39699887  0.24517198  1.0
  C  C95  1  0.17518622  0.35950176  0.27930614  1.0
  N  N96  1  0.32259160  0.39502430  0.52239371  1.0
  N  N97  1  0.35858709  0.34997596  0.51253216  1.0
  N  N98  1  0.47991389  0.32357910  0.60840451  1.0
  N  N99  1  0.49004724  0.35829821  0.65380010  1.0
  N  N100  1  0.39293079  0.47867526  0.67905881  1.0
  N  N101  1  0.34748689  0.48922586  0.64361410  1.0
  N  N102  1  0.67713462  0.89548019  0.97838968  1.0
  N  N103  1  0.64126992  0.85048366  0.98828536  1.0
  N  N104  1  0.51967231  0.82460934  0.89283289  1.0
  N  N105  1  0.50921405  0.85945472  0.84753059  1.0
  N  N106  1  0.60582560  0.97982470  0.82214141  1.0
  N  N107  1  0.65135575  0.99006292  0.85749450  1.0
  N  N108  1  0.82197184  0.10541470  0.47709341  1.0
  N  N109  1  0.85801640  0.15024237  0.48701533  1.0
  N  N110  1  0.97983109  0.17601872  0.39159905  1.0
  N  N111  1  0.99030585  0.14138420  0.34616769  1.0
  N  N112  1  0.89300333  0.02152221  0.32050934  1.0
  N  N113  1  0.84741308  0.01126379  0.35585960  1.0
  N  N114  1  0.17803701  0.60457866  0.02178427  1.0
  N  N115  1  0.14185388  0.64947114  0.01187918  1.0
  N  N116  1  0.01984744  0.67536855  0.10705963  1.0
  N  N117  1  0.00948783  0.64056402  0.15239810  1.0
  N  N118  1  0.10687935  0.52038009  0.17801548  1.0
  N  N119  1  0.15262861  0.51001166  0.14284784  1.0
  N  N120  1  0.81705611  0.81905181  0.18133458  1.0
  N  N121  1  0.18318093  0.31894737  0.31916496  1.0
  N  N122  1  0.31730959  0.68134328  0.81850553  1.0
  N  N123  1  0.68368147  0.18094115  0.68157810  1.0
