# generated using pymatgen
data_AlH6C21N7O18
_symmetry_space_group_name_H-M   'P 1'
_cell_length_a   4.33364937
_cell_length_b   13.55709324
_cell_length_c   13.55714824
_cell_angle_alpha   59.99956539
_cell_angle_beta   89.99926989
_cell_angle_gamma   89.99899293
_symmetry_Int_Tables_number   1
_chemical_formula_structural   AlH6C21N7O18
_chemical_formula_sum   'Al1 H6 C21 N7 O18'
_cell_volume   689.79084733
_cell_formula_units_Z   1
loop_
 _symmetry_equiv_pos_site_id
 _symmetry_equiv_pos_as_xyz
  1  'x, y, z'
loop_
 _atom_site_type_symbol
 _atom_site_label
 _atom_site_symmetry_multiplicity
 _atom_site_fract_x
 _atom_site_fract_y
 _atom_site_fract_z
 _atom_site_occupancy
  Al  Al0  1  0.00000076  0.99999981  0.50000114  1.0
  H  H1  1  0.21589517  0.86772419  0.10459079  1.0
  H  H2  1  0.78407880  0.60458049  0.36771925  1.0
  H  H3  1  0.78409911  0.86772136  0.02769287  1.0
  H  H4  1  0.21591549  0.60458713  0.02769720  1.0
  H  H5  1  0.78413233  0.52769866  0.10459692  1.0
  H  H6  1  0.21586005  0.52769922  0.36771286  1.0
  C  C7  1  0.50000091  0.91347043  0.67306000  1.0
  C  C8  1  0.49999434  0.17306103  0.41347133  1.0
  C  C9  1  0.50000380  0.91346695  0.41347544  1.0
  C  C10  1  0.34519377  0.88790900  0.24492019  1.0
  C  C11  1  0.34028616  0.82973746  0.18496525  1.0
  C  C12  1  0.49998973  0.72685143  0.22684902  1.0
  C  C13  1  0.65969935  0.68495850  0.32973984  1.0
  C  C14  1  0.65479997  0.74491104  0.38791399  1.0
  C  C15  1  0.50000226  0.84872003  0.34872833  1.0
  C  C16  1  0.65971226  0.82973853  0.98530274  1.0
  C  C17  1  0.65480953  0.88791064  0.86717350  1.0
  C  C18  1  0.50000703  0.84872291  0.80255463  1.0
  C  C19  1  0.34520835  0.74491629  0.86717503  1.0
  C  C20  1  0.34029954  0.68496323  0.98530225  1.0
  C  C21  1  0.50000027  0.72685197  0.04630267  1.0
  C  C22  1  0.65972634  0.48530620  0.18496892  1.0
  C  C23  1  0.65482491  0.36717733  0.24492099  1.0
  C  C24  1  0.49999206  0.30255802  0.34872402  1.0
  C  C25  1  0.34516156  0.36717763  0.38790729  1.0
  C  C26  1  0.34025367  0.48530653  0.32973289  1.0
  C  C27  1  0.49999009  0.54630680  0.22684907  1.0
  N  N28  1  0.49999259  0.66667149  0.16666572  1.0
  N  N29  1  0.82242008  0.69190434  0.49780413  1.0
  N  N30  1  0.17757326  0.99780114  0.19192374  1.0
  N  N31  1  0.82242156  0.99780114  0.81028035  1.0
  N  N32  1  0.17759702  0.69191430  0.81028653  1.0
  N  N33  1  0.82246916  0.31029147  0.19192180  1.0
  N  N34  1  0.17751931  0.31029123  0.49779139  1.0
  O  O35  1  0.73936420  0.97155553  0.40196003  1.0
  O  O36  1  0.73936855  0.90195540  0.62648452  1.0
  O  O37  1  0.73936085  0.12648575  0.47155942  1.0
  O  O38  1  0.26064118  0.90195361  0.47156369  1.0
  O  O39  1  0.26063638  0.12648626  0.40195848  1.0
  O  O40  1  0.26064078  0.97155770  0.62648575  1.0
  O  O41  1  0.73999780  0.71881317  0.56795811  1.0
  O  O42  1  0.03089020  0.62361245  0.51082497  1.0
  O  O43  1  0.26000939  0.06795053  0.21883889  1.0
  O  O44  1  0.96910577  0.01083100  0.12363164  1.0
  O  O45  1  0.73998528  0.06795045  0.71321479  1.0
  O  O46  1  0.03088629  0.01083183  0.86554211  1.0
  O  O47  1  0.26003221  0.71883345  0.71321917  1.0
  O  O48  1  0.96913391  0.62362106  0.86554897  1.0
  O  O49  1  0.74003731  0.21323053  0.21882717  1.0
  O  O50  1  0.03095134  0.36555918  0.12363781  1.0
  O  O51  1  0.25994996  0.21322976  0.56794841  1.0
  O  O52  1  0.96903288  0.36555918  0.51080730  1.0
