# generated using pymatgen
data_AlH7C13O5F
_symmetry_space_group_name_H-M   'P 1'
_cell_length_a   6.62134764
_cell_length_b   11.04749782
_cell_length_c   15.23297027
_cell_angle_alpha   93.64549063
_cell_angle_beta   101.55191308
_cell_angle_gamma   106.30073371
_symmetry_Int_Tables_number   1
_chemical_formula_structural   AlH7C13O5F
_chemical_formula_sum   'Al2 H14 C26 O10 F2'
_cell_volume   1039.28865156
_cell_formula_units_Z   2
loop_
 _symmetry_equiv_pos_site_id
 _symmetry_equiv_pos_as_xyz
  1  'x, y, z'
loop_
 _atom_site_type_symbol
 _atom_site_label
 _atom_site_symmetry_multiplicity
 _atom_site_fract_x
 _atom_site_fract_y
 _atom_site_fract_z
 _atom_site_occupancy
  Al  Al0  1  0.00769685  0.50468614  0.50060916  1.0
  Al  Al1  1  0.50912539  0.50669562  0.50206304  1.0
  H  H2  1  0.34169736  0.58331142  0.61057657  1.0
  H  H3  1  0.65413408  0.34953500  0.45111744  1.0
  H  H4  1  0.56742567  0.38643098  0.76612747  1.0
  H  H5  1  0.65848760  0.37480435  0.93040768  1.0
  H  H6  1  0.47020590  0.54960548  0.23058065  1.0
  H  H7  1  0.38373380  0.54801879  0.06446506  1.0
  H  H8  1  0.79538216  0.45305377  0.23059986  1.0
  H  H9  1  0.70518326  0.45424730  0.06476616  1.0
  H  H10  1  0.21079255  0.62884492  0.78270182  1.0
  H  H11  1  0.29630363  0.63106010  0.94844678  1.0
  H  H12  1  0.50274905  0.75520196  0.39301783  1.0
  H  H13  1  0.76013111  0.22152480  0.37654631  1.0
  H  H14  1  0.37537096  0.12588567  0.55013109  1.0
  H  H15  1  0.25624462  0.88886679  0.54599335  1.0
  C  C16  1  0.86770406  0.72923134  0.49063273  1.0
  C  C17  1  0.83117355  0.51139561  0.66470861  1.0
  C  C18  1  0.13901494  0.27510917  0.49410123  1.0
  C  C19  1  0.18905729  0.50078581  0.33991524  1.0
  C  C20  1  0.88371788  0.50781846  0.76395274  1.0
  C  C21  1  0.13792193  0.50103392  0.24053713  1.0
  C  C22  1  0.72775000  0.43843841  0.80666040  1.0
  C  C23  1  0.77915926  0.43385235  0.89923999  1.0
  C  C24  1  0.30312666  0.52845287  0.19325578  1.0
  C  C25  1  0.25317101  0.52822144  0.10018067  1.0
  C  C26  1  0.92249651  0.47369928  0.19311453  1.0
  C  C27  1  0.87347514  0.47384720  0.10012406  1.0
  C  C28  1  0.09025245  0.57422987  0.81589316  1.0
  C  C29  1  0.13825970  0.57357760  0.90887655  1.0
  C  C30  1  0.98466616  0.50245731  0.95264586  1.0
  C  C31  1  0.03745419  0.50114416  0.05149347  1.0
  C  C32  1  0.92854918  0.86778841  0.48116300  1.0
  C  C33  1  0.77677556  0.92759727  0.43771209  1.0
  C  C34  1  0.14221904  0.93806723  0.51698697  1.0
  C  C35  1  0.56224584  0.85726473  0.39205614  1.0
  C  C36  1  0.42844700  0.91777133  0.34539145  1.0
  C  C37  1  0.06499224  0.13328155  0.48142290  1.0
  C  C38  1  0.20956297  0.07055538  0.51825486  1.0
  C  C39  1  0.84866727  0.06291552  0.43579705  1.0
  C  C40  1  0.70616504  0.12117430  0.38464124  1.0
  C  C41  1  0.50125501  0.04979464  0.34082335  1.0
  O  O42  1  0.00599786  0.67254982  0.48098401  1.0
  O  O43  1  0.63325546  0.49342427  0.62638403  1.0
  O  O44  1  0.33133330  0.32987637  0.48738307  1.0
  O  O45  1  0.03127597  0.47627454  0.37875325  1.0
  O  O46  1  0.00507103  0.33086047  0.51241884  1.0
  O  O47  1  0.38684731  0.52417987  0.38028467  1.0
  O  O48  1  0.68761378  0.67857415  0.51079815  1.0
  O  O49  1  0.98837722  0.53315420  0.62522769  1.0
  O  O50  1  0.30575240  0.56418585  0.54526179  1.0
  O  O51  1  0.70886056  0.44168017  0.46190465  1.0
  F  F52  1  0.22415749  0.85191893  0.30078087  1.0
  F  F53  1  0.36529415  0.10438565  0.29094807  1.0
