# generated using pymatgen
data_ZnH12C24(NO3)2
_symmetry_space_group_name_H-M   'P 1'
_cell_length_a   13.11764802
_cell_length_b   13.23582951
_cell_length_c   22.36158033
_cell_angle_alpha   89.99998947
_cell_angle_beta   89.99998520
_cell_angle_gamma   103.29307082
_symmetry_Int_Tables_number   1
_chemical_formula_structural   ZnH12C24(NO3)2
_chemical_formula_sum   'Zn4 H48 C96 N8 O24'
_cell_volume   3778.45900765
_cell_formula_units_Z   4
loop_
 _symmetry_equiv_pos_site_id
 _symmetry_equiv_pos_as_xyz
  1  'x, y, z'
loop_
 _atom_site_type_symbol
 _atom_site_label
 _atom_site_symmetry_multiplicity
 _atom_site_fract_x
 _atom_site_fract_y
 _atom_site_fract_z
 _atom_site_occupancy
  Zn  Zn0  1  0.22643088  0.12809502  0.82806533  1.0
  Zn  Zn1  1  0.77356905  0.87190564  0.32806526  1.0
  Zn  Zn2  1  0.25405011  0.15550041  0.95478401  1.0
  Zn  Zn3  1  0.74594958  0.84449941  0.45478394  1.0
  H  H4  1  0.11159030  0.97598006  0.73508171  1.0
  H  H5  1  0.88840968  0.02402064  0.23508215  1.0
  H  H6  1  0.10441595  0.96547106  0.62346616  1.0
  H  H7  1  0.89558486  0.03452969  0.12346616  1.0
  H  H8  1  0.31685304  0.26772554  0.61832701  1.0
  H  H9  1  0.68314718  0.73227598  0.11832652  1.0
  H  H10  1  0.31451840  0.26663677  0.73106949  1.0
  H  H11  1  0.68548082  0.73336392  0.23106900  1.0
  H  H12  1  0.47419805  0.11538569  0.45101772  1.0
  H  H13  1  0.52580317  0.88461415  0.95101767  1.0
  H  H14  1  0.48118574  0.12649273  0.33851270  1.0
  H  H15  1  0.51881477  0.87350715  0.83851265  1.0
  H  H16  1  0.96939901  0.13969679  0.33259582  1.0
  H  H17  1  0.03060134  0.86030232  0.83259585  1.0
  H  H18  1  0.96362386  0.12991540  0.44467869  1.0
  H  H19  1  0.03637736  0.87008444  0.94467871  1.0
  H  H20  1  0.31613887  0.30880057  0.16729449  1.0
  H  H21  1  0.68386003  0.69119860  0.66729309  1.0
  H  H22  1  0.32533699  0.30911292  0.05456721  1.0
  H  H23  1  0.67466156  0.69088785  0.55456671  1.0
  H  H24  1  0.16974556  0.99978905  0.04567381  1.0
  H  H25  1  0.83025587  0.00021096  0.54567380  1.0
  H  H26  1  0.15363363  0.98635317  0.15754157  1.0
  H  H27  1  0.84636605  0.01364601  0.65754201  1.0
  H  H28  1  0.23942098  0.44381216  0.77991353  1.0
  H  H29  1  0.76057710  0.55618696  0.27991305  1.0
  H  H30  1  0.23359548  0.62971922  0.76650615  1.0
  H  H31  1  0.76640431  0.37028068  0.26650568  1.0
  H  H32  1  0.26539649  0.48532978  0.96996494  1.0
  H  H33  1  0.73460336  0.51467082  0.46996447  1.0
  H  H34  1  0.23134194  0.80177537  0.81148597  1.0
  H  H35  1  0.76865859  0.19822453  0.31148597  1.0
  H  H36  1  0.25679220  0.84277198  0.00177620  1.0
  H  H37  1  0.74320697  0.15722804  0.50177619  1.0
  H  H38  1  0.26721162  0.65822256  0.01474219  1.0
  H  H39  1  0.73278830  0.34177746  0.51474172  1.0
  H  H40  1  0.90303846  0.12666307  0.81410249  1.0
  H  H41  1  0.09696113  0.87333604  0.31410252  1.0
  H  H42  1  0.74918462  0.15342202  0.01600775  1.0
  H  H43  1  0.25081566  0.84657955  0.51600774  1.0
  H  H44  1  0.93549551  0.13875933  0.00481890  1.0
  H  H45  1  0.06450442  0.86124069  0.50481847  1.0
  H  H46  1  0.73316573  0.13738667  0.76687150  1.0
  H  H47  1  0.26683482  0.86261324  0.26687105  1.0
  H  H48  1  0.54687976  0.15008290  0.77789980  1.0
  H  H49  1  0.45312061  0.84991623  0.27790067  1.0
  H  H50  1  0.57906616  0.16252447  0.96891760  1.0
  H  H51  1  0.42093446  0.83747613  0.46891759  1.0
  C  C52  1  0.15624790  0.03891536  0.70766375  1.0
  C  C53  1  0.84375192  0.96108458  0.20766410  1.0
  C  C54  1  0.15246947  0.03321041  0.64549506  1.0
  C  C55  1  0.84753115  0.96678956  0.14549541  1.0
  C  C56  1  0.21139283  0.11601187  0.61292893  1.0
  C  C57  1  0.78860739  0.88398966  0.11292885  1.0
  C  C58  1  0.27066894  0.20199691  0.64293530  1.0
  C  C59  1  0.72933092  0.79800305  0.14293524  1.0
  C  C60  1  0.27005101  0.20168437  0.70499621  1.0
  C  C61  1  0.72994823  0.79831633  0.20499570  1.0
  C  C62  1  0.11810970  0.11758868  0.51890964  1.0
  C  C63  1  0.88189193  0.88241212  0.01891000  1.0
  C  C64  1  0.12477036  0.12511616  0.45297960  1.0
  C  C65  1  0.87523179  0.87488446  0.95297994  1.0
  C  C66  1  0.22051416  0.12604751  0.42329251  1.0
  C  C67  1  0.77948631  0.87395234  0.92329197  1.0
  C  C68  1  0.31205049  0.11985641  0.45525044  1.0
  C  C69  1  0.68794937  0.88014420  0.95525081  1.0
  C  C70  1  0.30968504  0.11341022  0.52116976  1.0
  C  C71  1  0.69031735  0.88659058  0.02116924  1.0
  C  C72  1  0.40505047  0.12027386  0.42515283  1.0
  C  C73  1  0.59495000  0.87972598  0.92515277  1.0
  C  C74  1  0.40899386  0.12660469  0.36259419  1.0
  C  C75  1  0.59100664  0.87339518  0.86259413  1.0
  C  C76  1  0.32001198  0.13245732  0.33013048  1.0
  C  C77  1  0.67998836  0.86754179  0.83013086  1.0
  C  C78  1  0.22438413  0.13219492  0.35970443  1.0
  C  C79  1  0.77561696  0.86780418  0.85970434  1.0
  C  C80  1  0.13220155  0.13707334  0.32768568  1.0
  C  C81  1  0.86779803  0.86292576  0.82768558  1.0
  C  C82  1  0.03963073  0.13701370  0.35792908  1.0
  C  C83  1  0.96036977  0.86298617  0.85792851  1.0
  C  C84  1  0.03606145  0.13126280  0.42058431  1.0
  C  C85  1  0.96393996  0.86873783  0.92058419  1.0
  C  C86  1  0.13378490  0.14124708  0.26167380  1.0
  C  C87  1  0.86621625  0.85875207  0.76167325  1.0
  C  C88  1  0.32577030  0.13831776  0.26422190  1.0
  C  C89  1  0.67423008  0.86168138  0.76422228  1.0
  C  C90  1  0.23543362  0.14676000  0.17025046  1.0
  C  C91  1  0.76456605  0.85323917  0.67025038  1.0
  C  C92  1  0.28342937  0.23895241  0.14167868  1.0
  C  C93  1  0.71657049  0.76104756  0.64167861  1.0
  C  C94  1  0.28914510  0.23936620  0.07959094  1.0
  C  C95  1  0.71085555  0.76063380  0.57958998  1.0
  C  C96  1  0.20166197  0.06586804  0.07448935  1.0
  C  C97  1  0.79833733  0.93413272  0.57448970  1.0
  C  C98  1  0.19287124  0.05896162  0.13640403  1.0
  C  C99  1  0.80712844  0.94103757  0.63640393  1.0
  C  C100  1  0.25324404  0.34203613  0.88354306  1.0
  C  C101  1  0.74675586  0.65796450  0.38354257  1.0
  C  C102  1  0.25326093  0.45468760  0.87609501  1.0
  C  C103  1  0.74673804  0.54531226  0.37609453  1.0
  C  C104  1  0.24437629  0.49570727  0.81814070  1.0
  C  C105  1  0.75562211  0.50429338  0.31813977  1.0
  C  C106  1  0.24080567  0.59806598  0.81097573  1.0
  C  C107  1  0.75919333  0.40193390  0.31097526  1.0
  C  C108  1  0.24527804  0.66447387  0.86128836  1.0
  C  C109  1  0.75472152  0.33552522  0.36128790  1.0
  C  C110  1  0.25509833  0.62341143  0.91995148  1.0
  C  C111  1  0.74490232  0.37658920  0.41995146  1.0
  C  C112  1  0.25904144  0.51805598  0.92576189  1.0
  C  C113  1  0.74095768  0.48194463  0.42576142  1.0
  C  C114  1  0.23900387  0.76924601  0.85561746  1.0
  C  C115  1  0.76099587  0.23075386  0.35561701  1.0
  C  C116  1  0.24234404  0.83183735  0.90552002  1.0
  C  C117  1  0.75765603  0.16816405  0.40552047  1.0
  C  C118  1  0.25339400  0.79144022  0.96341083  1.0
  C  C119  1  0.74660568  0.20855960  0.46341038  1.0
  C  C120  1  0.25944026  0.68971769  0.97030480  1.0
  C  C121  1  0.74055960  0.31028291  0.47030434  1.0
  C  C122  1  0.23449773  0.94238675  0.89862873  1.0
  C  C123  1  0.76550140  0.05761388  0.39862919  1.0
  C  C124  1  0.03937349  0.12265027  0.90204178  1.0
  C  C125  1  0.96062698  0.87734958  0.40204168  1.0
  C  C126  1  0.92799300  0.13049212  0.90842812  1.0
  C  C127  1  0.07200654  0.86950695  0.40842770  1.0
  C  C128  1  0.86775556  0.13200247  0.85783107  1.0
  C  C129  1  0.13224494  0.86799740  0.35783065  1.0
  C  C130  1  0.76291573  0.14132509  0.86230348  1.0
  C  C131  1  0.23708477  0.85867478  0.36230394  1.0
  C  C132  1  0.71928383  0.14884366  0.92063746  1.0
  C  C133  1  0.28071681  0.85115696  0.42063747  1.0
  C  C134  1  0.78300793  0.14722723  0.97192453  1.0
  C  C135  1  0.21699192  0.85277337  0.47192410  1.0
  C  C136  1  0.88512481  0.13877996  0.96605061  1.0
  C  C137  1  0.11487487  0.86121986  0.46605064  1.0
  C  C138  1  0.69928883  0.14270340  0.81105353  1.0
  C  C139  1  0.30071170  0.85729649  0.31105353  1.0
  C  C140  1  0.59688304  0.15029301  0.81682728  1.0
  C  C141  1  0.40311766  0.84970766  0.31682726  1.0
  C  C142  1  0.55372896  0.15775343  0.87442697  1.0
  C  C143  1  0.44627171  0.84224721  0.37442739  1.0
  C  C144  1  0.61416112  0.15717998  0.92514520  1.0
  C  C145  1  0.38583969  0.84282142  0.42514519  1.0
  C  C146  1  0.44116370  0.16259897  0.88069263  1.0
  C  C147  1  0.55883738  0.83740012  0.38069304  1.0
  N  N148  1  0.21426380  0.12136442  0.73666661  1.0
  N  N149  1  0.78573601  0.87863550  0.23666653  1.0
  N  N150  1  0.21249752  0.11485705  0.54876844  1.0
  N  N151  1  0.78750333  0.88514373  0.04876881  1.0
  N  N152  1  0.23107891  0.14216987  0.23447982  1.0
  N  N153  1  0.76892208  0.85782851  0.73447974  1.0
  N  N154  1  0.24998608  0.15416578  0.04679810  1.0
  N  N155  1  0.75001230  0.84583422  0.54679801  1.0
  O  O156  1  0.03745649  0.11552570  0.54738259  1.0
  O  O157  1  0.96254418  0.88447430  0.04738249  1.0
  O  O158  1  0.38585124  0.10760554  0.55179996  1.0
  O  O159  1  0.61414960  0.89239524  0.05179991  1.0
  O  O160  1  0.05688783  0.14426337  0.23069746  1.0
  O  O161  1  0.94311239  0.85573501  0.73069779  1.0
  O  O162  1  0.40544686  0.13935040  0.23522171  1.0
  O  O163  1  0.59455371  0.86064953  0.73522165  1.0
  O  O164  1  0.40860186  0.17523721  0.93322112  1.0
  O  O165  1  0.59139877  0.82476341  0.43322108  1.0
  O  O166  1  0.38679060  0.15151122  0.83295809  1.0
  O  O167  1  0.61320822  0.84848788  0.33295849  1.0
  O  O168  1  0.07176377  0.11065353  0.84935320  1.0
  O  O169  1  0.92823597  0.88934634  0.34935265  1.0
  O  O170  1  0.09314478  0.12923501  0.94979198  1.0
  O  O171  1  0.90685491  0.87076481  0.44979189  1.0
  O  O172  1  0.24358569  0.99681787  0.94612715  1.0
  O  O173  1  0.75641400  0.00318196  0.44612807  1.0
  O  O174  1  0.21860809  0.97337755  0.84618878  1.0
  O  O175  1  0.78139131  0.02662077  0.34618925  1.0
  O  O176  1  0.26161496  0.30934470  0.93655094  1.0
  O  O177  1  0.73838321  0.69065512  0.43655045  1.0
  O  O178  1  0.24322248  0.28739353  0.83608220  1.0
  O  O179  1  0.75677727  0.71260635  0.33608170  1.0
