# generated using pymatgen
data_FeP3H27(C6O)6
_symmetry_space_group_name_H-M   'P 1'
_cell_length_a   9.58864704
_cell_length_b   25.08630053
_cell_length_c   25.08628932
_cell_angle_alpha   120.00000761
_cell_angle_beta   90.00001602
_cell_angle_gamma   90.00000174
_symmetry_Int_Tables_number   1
_chemical_formula_structural   FeP3H27(C6O)6
_chemical_formula_sum   'Fe4 P12 H108 C144 O24'
_cell_volume   5225.89859486
_cell_formula_units_Z   4
loop_
 _symmetry_equiv_pos_site_id
 _symmetry_equiv_pos_as_xyz
  1  'x, y, z'
loop_
 _atom_site_type_symbol
 _atom_site_label
 _atom_site_symmetry_multiplicity
 _atom_site_fract_x
 _atom_site_fract_y
 _atom_site_fract_z
 _atom_site_occupancy
  Fe  Fe0  1  0.96735816  0.33333333  0.66666667  1.0
  Fe  Fe1  1  0.03264220  0.66666667  0.33333333  1.0
  Fe  Fe2  1  0.46758067  0.33333333  0.66666667  1.0
  Fe  Fe3  1  0.53241970  0.66666667  0.33333333  1.0
  P  P4  1  0.21297023  0.43331489  0.75602299  1.0
  P  P5  1  0.21297019  0.24397727  0.67729154  1.0
  P  P6  1  0.21297120  0.32270777  0.56668484  1.0
  P  P7  1  0.78703014  0.56668531  0.24397703  1.0
  P  P8  1  0.78702913  0.75602383  0.32270893  1.0
  P  P9  1  0.78702917  0.67729150  0.43331471  1.0
  P  P10  1  0.28666758  0.68345888  0.24798749  1.0
  P  P11  1  0.28666766  0.75201240  0.43547106  1.0
  P  P12  1  0.28666760  0.56452837  0.31654075  1.0
  P  P13  1  0.71333070  0.31654086  0.75201190  1.0
  P  P14  1  0.71333167  0.24798779  0.56452896  1.0
  P  P15  1  0.71333172  0.43547135  0.68345903  1.0
  H  H16  1  0.44290155  0.49550026  0.84027701  1.0
  H  H17  1  0.44290043  0.15972327  0.65522410  1.0
  H  H18  1  0.44290142  0.34477643  0.50449951  1.0
  H  H19  1  0.55709882  0.50450039  0.15972244  1.0
  H  H20  1  0.55709994  0.84027785  0.34477678  1.0
  H  H21  1  0.55709999  0.65522376  0.49550130  1.0
  H  H22  1  0.01505809  0.45054268  0.85168004  1.0
  H  H23  1  0.01505694  0.14831998  0.59886249  1.0
  H  H24  1  0.01505798  0.40113679  0.54945657  1.0
  H  H25  1  0.98494437  0.54945521  0.14831882  1.0
  H  H26  1  0.98494343  0.85168067  0.40113656  1.0
  H  H27  1  0.98494344  0.59886386  0.45054447  1.0
  H  H28  1  0.05950856  0.55116096  0.81828053  1.0
  H  H29  1  0.05950747  0.18172151  0.73288073  1.0
  H  H30  1  0.05951155  0.26711928  0.44883900  1.0
  H  H31  1  0.94049076  0.44883831  0.18171943  1.0
  H  H32  1  0.94049185  0.81828052  0.26711941  1.0
  H  H33  1  0.94049195  0.73288137  0.55116125  1.0
  H  H34  1  0.03851394  0.63661080  0.79613975  1.0
  H  H35  1  0.03851290  0.20386108  0.84047137  1.0
  H  H36  1  0.03851480  0.15952894  0.36338867  1.0
  H  H37  1  0.96148539  0.36338846  0.20386060  1.0
  H  H38  1  0.96148852  0.79613911  0.15952865  1.0
  H  H39  1  0.96148765  0.84047217  0.63661021  1.0
  H  H40  1  0.15591629  0.62969077  0.70428843  1.0
  H  H41  1  0.15591844  0.29571268  0.92540256  1.0
  H  H42  1  0.15591823  0.07459738  0.37030922  1.0
  H  H43  1  0.84408200  0.37031034  0.29571284  1.0
  H  H44  1  0.84408401  0.70428750  0.07459745  1.0
  H  H45  1  0.84408005  0.92540234  0.62968976  1.0
  H  H46  1  0.29276977  0.53571816  0.63378329  1.0
  H  H47  1  0.29277507  0.36621643  0.90193473  1.0
  H  H48  1  0.29276969  0.09806536  0.46428257  1.0
  H  H49  1  0.70722852  0.46428341  0.36621741  1.0
  H  H50  1  0.70722842  0.63378377  0.09806609  1.0
  H  H51  1  0.70722442  0.90193391  0.53571739  1.0
  H  H52  1  0.31793078  0.45095691  0.65756947  1.0
  H  H53  1  0.31793499  0.34243039  0.79338692  1.0
  H  H54  1  0.31793073  0.20661265  0.54904340  1.0
  H  H55  1  0.68206855  0.54904374  0.34243037  1.0
  H  H56  1  0.68206746  0.65757027  0.20661373  1.0
  H  H57  1  0.68206547  0.79338570  0.45095609  1.0
  H  H58  1  0.02785139  0.50991199  0.96551386  1.0
  H  H59  1  0.02785121  0.03448579  0.54439731  1.0
  H  H60  1  0.02785121  0.45560119  0.49008769  1.0
  H  H61  1  0.97214898  0.49008774  0.03448553  1.0
  H  H62  1  0.97214916  0.96551439  0.45560230  1.0
  H  H63  1  0.97214916  0.54439899  0.50991312  1.0
  H  H64  1  0.45795794  0.55382333  0.95387591  1.0
  H  H65  1  0.45795675  0.04612430  0.59994774  1.0
  H  H66  1  0.45795880  0.40005234  0.44617578  1.0
  H  H67  1  0.54204138  0.44617778  0.04612337  1.0
  H  H68  1  0.54204153  0.95387636  0.40005371  1.0
  H  H69  1  0.54204262  0.59994786  0.55382424  1.0
  H  H70  1  0.48126747  0.60349200  0.15292416  1.0
  H  H71  1  0.48126655  0.84707591  0.45056640  1.0
  H  H72  1  0.48126652  0.54943361  0.39650931  1.0
  H  H73  1  0.51873290  0.39650957  0.84707535  1.0
  H  H74  1  0.51873382  0.15292475  0.54943465  1.0
  H  H75  1  0.51873385  0.45056612  0.60349087  1.0
  H  H76  1  0.05953853  0.66678296  0.16349995  1.0
  H  H77  1  0.05954075  0.83650024  0.50328353  1.0
  H  H78  1  0.05953963  0.49671642  0.33321577  1.0
  H  H79  1  0.94045975  0.33321724  0.83649927  1.0
  H  H80  1  0.94045962  0.16350040  0.49671671  1.0
  H  H81  1  0.94046178  0.50328331  0.66678402  1.0
  H  H82  1  0.14986417  0.79515271  0.33751058  1.0
  H  H83  1  0.14986838  0.66248805  0.45764064  1.0
  H  H84  1  0.14986516  0.54235704  0.20484673  1.0
  H  H85  1  0.85013411  0.20484703  0.66248841  1.0
  H  H86  1  0.85013407  0.33751168  0.54235795  1.0
  H  H87  1  0.85013417  0.45764223  0.79515402  1.0
  H  H88  1  0.17313024  0.90521940  0.36482482  1.0
  H  H89  1  0.17313447  0.63517300  0.54039235  1.0
  H  H90  1  0.17313430  0.45960492  0.09478015  1.0
  H  H91  1  0.82687117  0.09478032  0.63517416  1.0
  H  H92  1  0.82686694  0.36482535  0.45960515  1.0
  H  H93  1  0.82686607  0.54039526  0.90522066  1.0
  H  H94  1  0.34407509  0.93406125  0.30862153  1.0
  H  H95  1  0.34407624  0.69137736  0.62543880  1.0
  H  H96  1  0.34408019  0.37456060  0.06593956  1.0
  H  H97  1  0.65592736  0.06593940  0.69137912  1.0
  H  H98  1  0.65592204  0.30862054  0.37455967  1.0
  H  H99  1  0.65592226  0.62544006  0.93406069  1.0
  H  H100  1  0.49577008  0.85365894  0.22774476  1.0
  H  H101  1  0.49576709  0.77225606  0.62591531  1.0
  H  H102  1  0.49577211  0.37408560  0.14634174  1.0
  H  H103  1  0.50423446  0.14634171  0.77225628  1.0
  H  H104  1  0.50423015  0.22774367  0.37408567  1.0
  H  H105  1  0.50422930  0.62591413  0.85365725  1.0
  H  H106  1  0.47469097  0.74481846  0.20195209  1.0
  H  H107  1  0.47468692  0.79804984  0.54286856  1.0
  H  H108  1  0.47469098  0.45713322  0.25518241  1.0
  H  H109  1  0.52531044  0.25518219  0.79804855  1.0
  H  H110  1  0.52531032  0.20195173  0.45713374  1.0
  H  H111  1  0.52531044  0.54286560  0.74481732  1.0
  H  H112  1  0.04195415  0.60762814  0.04987463  1.0
  H  H113  1  0.04195539  0.95012592  0.55775407  1.0
  H  H114  1  0.04195323  0.44224603  0.39237118  1.0
  H  H115  1  0.95804622  0.39237251  0.95012482  1.0
  H  H116  1  0.95804497  0.04987519  0.44224640  1.0
  H  H117  1  0.95804714  0.55775371  0.60762861  1.0
  H  H118  1  0.46529646  0.54440438  0.03912874  1.0
  H  H119  1  0.46529560  0.96087096  0.50527310  1.0
  H  H120  1  0.46529452  0.49472663  0.45559745  1.0
  H  H121  1  0.53470391  0.45559764  0.96086980  1.0
  H  H122  1  0.53470477  0.03912969  0.49472754  1.0
  H  H123  1  0.53470480  0.50527356  0.54440336  1.0
  C  C124  1  0.22636840  0.47104221  0.83876657  1.0
  C  C125  1  0.22636622  0.16123347  0.63227580  1.0
  C  C126  1  0.22636828  0.36772379  0.52895717  1.0
  C  C127  1  0.77363302  0.52895843  0.16123367  1.0
  C  C128  1  0.77363206  0.83876672  0.36772501  1.0
  C  C129  1  0.77363209  0.63227594  0.47104262  1.0
  C  C130  1  0.35203890  0.49894186  0.86790598  1.0
  C  C131  1  0.35203776  0.13209428  0.63103660  1.0
  C  C132  1  0.35203980  0.36896335  0.50105739  1.0
  C  C133  1  0.64796147  0.50105878  0.13209426  1.0
  C  C134  1  0.64796157  0.86790638  0.36896445  1.0
  C  C135  1  0.64796265  0.63103684  0.49894302  1.0
  C  C136  1  0.11056584  0.47470061  0.87446845  1.0
  C  C137  1  0.11056572  0.12553096  0.60023192  1.0
  C  C138  1  0.11056675  0.39976742  0.52529851  1.0
  C  C139  1  0.88943453  0.52529866  0.12553150  1.0
  C  C140  1  0.88943465  0.87446968  0.39976792  1.0
  C  C141  1  0.88943466  0.60023323  0.47470253  1.0
  C  C142  1  0.18928075  0.49510990  0.73883727  1.0
  C  C143  1  0.18928283  0.26116273  0.75627212  1.0
  C  C144  1  0.18928170  0.24372684  0.50488935  1.0
  C  C145  1  0.81071753  0.50488937  0.26116149  1.0
  C  C146  1  0.81071753  0.73883930  0.24372881  1.0
  C  C147  1  0.81071658  0.75627151  0.49511054  1.0
  C  C148  1  0.11068574  0.54758403  0.77778965  1.0
  C  C149  1  0.11068676  0.22221104  0.76979437  1.0
  C  C150  1  0.11068665  0.23020623  0.45241642  1.0
  C  C151  1  0.88931359  0.45241570  0.22220974  1.0
  C  C152  1  0.88931360  0.77779007  0.23020650  1.0
  C  C153  1  0.88931163  0.76979350  0.54758337  1.0
  C  C154  1  0.09910120  0.59581795  0.76539623  1.0
  C  C155  1  0.09910434  0.23460394  0.83042175  1.0
  C  C156  1  0.09910314  0.16957803  0.40418176  1.0
  C  C157  1  0.90089500  0.40418178  0.23460395  1.0
  C  C158  1  0.90089916  0.76539626  0.16957827  1.0
  C  C159  1  0.90089932  0.83042308  0.59581991  1.0
  C  C160  1  0.16487897  0.59180236  0.71374379  1.0
  C  C161  1  0.16488215  0.28625599  0.87805771  1.0
  C  C162  1  0.16487988  0.12194158  0.40819786  1.0
  C  C163  1  0.83512035  0.40819829  0.28625605  1.0
  C  C164  1  0.83512031  0.71374373  0.12194207  1.0
  C  C165  1  0.83511631  0.87805770  0.59180170  1.0
  C  C166  1  0.24189816  0.53927990  0.67436025  1.0
  C  C167  1  0.24190240  0.32563990  0.86491939  1.0
  C  C168  1  0.24190015  0.13508014  0.46071974  1.0
  C  C169  1  0.75809908  0.46072075  0.32563999  1.0
  C  C170  1  0.75810006  0.67436029  0.13508142  1.0
  C  C171  1  0.75809604  0.86491821  0.53927896  1.0
  C  C172  1  0.25500846  0.49130697  0.68708985  1.0
  C  C173  1  0.25501267  0.31291006  0.80421642  1.0
  C  C174  1  0.25500838  0.19578337  0.50869374  1.0
  C  C175  1  0.74498982  0.50869369  0.31291000  1.0
  C  C176  1  0.74498979  0.68709104  0.19578405  1.0
  C  C177  1  0.74498677  0.80421591  0.49130662  1.0
  C  C178  1  0.11889759  0.50762664  0.93838648  1.0
  C  C179  1  0.11889639  0.06161399  0.56923969  1.0
  C  C180  1  0.11889742  0.43075929  0.49237318  1.0
  C  C181  1  0.88110382  0.49237309  0.06161251  1.0
  C  C182  1  0.88110397  0.93838712  0.43076038  1.0
  C  C183  1  0.88110399  0.56924090  0.50762803  1.0
  C  C184  1  0.36036648  0.53122855  0.93182443  1.0
  C  C185  1  0.36036530  0.06817546  0.59940405  1.0
  C  C186  1  0.36036631  0.40059594  0.46877132  1.0
  C  C187  1  0.63963389  0.46877210  0.06817422  1.0
  C  C188  1  0.63963507  0.93182565  0.40059762  1.0
  C  C189  1  0.63963510  0.59940425  0.53122989  1.0
  C  C190  1  0.24363157  0.53677690  0.96824527  1.0
  C  C191  1  0.24363036  0.03175491  0.56853107  1.0
  C  C192  1  0.24363034  0.43146859  0.46322288  1.0
  C  C193  1  0.75636984  0.46322514  0.03175647  1.0
  C  C194  1  0.75636896  0.96824345  0.43146843  1.0
  C  C195  1  0.75637003  0.56853298  0.53677663  1.0
  C  C196  1  0.27303581  0.64005432  0.16521240  1.0
  C  C197  1  0.27303593  0.83478797  0.47484182  1.0
  C  C198  1  0.27303483  0.52515829  0.35994594  1.0
  C  C199  1  0.72696352  0.35994726  0.83478871  1.0
  C  C200  1  0.72696444  0.16521223  0.52515860  1.0
  C  C201  1  0.72696450  0.47484189  0.64005327  1.0
  C  C202  1  0.38663889  0.60527470  0.12982790  1.0
  C  C203  1  0.38663903  0.87017240  0.47544543  1.0
  C  C204  1  0.38663794  0.52455487  0.39472675  1.0
  C  C205  1  0.61336044  0.39472687  0.87017081  1.0
  C  C206  1  0.61336239  0.12982917  0.52455647  1.0
  C  C207  1  0.61336243  0.47544487  0.60527344  1.0
  C  C208  1  0.14856777  0.64026742  0.13600572  1.0
  C  C209  1  0.14856791  0.86399437  0.50426148  1.0
  C  C210  1  0.14856784  0.49573831  0.35973231  1.0
  C  C211  1  0.85143156  0.35973277  0.86399310  1.0
  C  C212  1  0.85143246  0.13600674  0.49573900  1.0
  C  C213  1  0.85143253  0.50426142  0.64026828  1.0
  C  C214  1  0.31049473  0.76328352  0.26842026  1.0
  C  C215  1  0.31049481  0.73157916  0.49486298  1.0
  C  C216  1  0.31049471  0.50513652  0.23671664  1.0
  C  C217  1  0.68950564  0.23671621  0.73157793  1.0
  C  C218  1  0.68950556  0.26842149  0.50513727  1.0
  C  C219  1  0.68950566  0.49486229  0.76328388  1.0
  C  C220  1  0.22625867  0.80874143  0.31432602  1.0
  C  C221  1  0.22626186  0.68567248  0.49441395  1.0
  C  C222  1  0.22626070  0.50558436  0.19125823  1.0
  C  C223  1  0.77373752  0.19125876  0.68567399  1.0
  C  C224  1  0.77373746  0.31432542  0.50558372  1.0
  C  C225  1  0.77373967  0.49441490  0.80874172  1.0
  C  C226  1  0.23908114  0.87009089  0.32904145  1.0
  C  C227  1  0.23908538  0.67095651  0.54104761  1.0
  C  C228  1  0.23908731  0.45894949  0.12990806  1.0
  C  C229  1  0.76091819  0.12990976  0.67095800  1.0
  C  C230  1  0.76091603  0.32904184  0.45895069  1.0
  C  C231  1  0.76091515  0.54104933  0.87009127  1.0
  C  C232  1  0.33488505  0.88621213  0.29751551  1.0
  C  C233  1  0.33488723  0.70248372  0.58869597  1.0
  C  C234  1  0.33489018  0.41130335  0.11378800  1.0
  C  C235  1  0.66511636  0.11378852  0.70248513  1.0
  C  C236  1  0.66511209  0.29751510  0.41130296  1.0
  C  C237  1  0.66511228  0.58869683  0.88621161  1.0
  C  C238  1  0.41952054  0.84103362  0.25181323  1.0
  C  C239  1  0.41951857  0.74818650  0.58922083  1.0
  C  C240  1  0.41952361  0.41077956  0.15896647  1.0
  C  C241  1  0.58048192  0.15896658  0.74818679  1.0
  C  C242  1  0.58047971  0.25181323  0.41077975  1.0
  C  C243  1  0.58047884  0.58922017  0.84103292  1.0
  C  C244  1  0.40785048  0.77976747  0.23739737  1.0
  C  C245  1  0.40784955  0.76260374  0.54237164  1.0
  C  C246  1  0.40785150  0.45762939  0.22023278  1.0
  C  C247  1  0.59215093  0.22023227  0.76260242  1.0
  C  C248  1  0.59214978  0.23739739  0.45763004  1.0
  C  C249  1  0.59214991  0.54236941  0.77976654  1.0
  C  C250  1  0.13874362  0.60646592  0.07213628  1.0
  C  C251  1  0.13874172  0.92786393  0.53432991  1.0
  C  C252  1  0.13874165  0.46566979  0.39353308  1.0
  C  C253  1  0.86125883  0.39353474  0.92786277  1.0
  C  C254  1  0.86125865  0.07213764  0.46567159  1.0
  C  C255  1  0.86125872  0.53432948  0.60646687  1.0
  C  C256  1  0.37667917  0.57198827  0.06601190  1.0
  C  C257  1  0.37667622  0.93398719  0.50597479  1.0
  C  C258  1  0.37667617  0.49402560  0.42801333  1.0
  C  C259  1  0.62332433  0.42801285  0.93398619  1.0
  C  C260  1  0.62332520  0.06601346  0.49402665  1.0
  C  C261  1  0.62332316  0.50597414  0.57198726  1.0
  C  C262  1  0.25287128  0.57206328  0.03601865  1.0
  C  C263  1  0.25287044  0.96398161  0.53604318  1.0
  C  C264  1  0.25287142  0.46395614  0.42793736  1.0
  C  C265  1  0.74712804  0.42793875  0.96398069  1.0
  C  C266  1  0.74712993  0.03601904  0.46395786  1.0
  C  C267  1  0.74712894  0.53604359  0.57206283  1.0
  O  O268  1  0.08516074  0.39182238  0.73893808  1.0
  O  O269  1  0.08516070  0.26106190  0.65288358  1.0
  O  O270  1  0.08516069  0.34711564  0.60817728  1.0
  O  O271  1  0.91483963  0.60817735  0.26106210  1.0
  O  O272  1  0.91483967  0.73893783  0.34711541  1.0
  O  O273  1  0.91483968  0.65288455  0.39182233  1.0
  O  O274  1  0.35258637  0.40339365  0.72877518  1.0
  O  O275  1  0.35258739  0.27122468  0.67461711  1.0
  O  O276  1  0.35258736  0.32538208  0.59660654  1.0
  O  O277  1  0.64741296  0.59660700  0.27122387  1.0
  O  O278  1  0.64741298  0.72877596  0.32538313  1.0
  O  O279  1  0.64741197  0.67461673  0.40339278  1.0
  O  O280  1  0.41488797  0.65774518  0.26327550  1.0
  O  O281  1  0.41488698  0.73672428  0.39446974  1.0
  O  O282  1  0.41488800  0.60553021  0.34225449  1.0
  O  O283  1  0.58511240  0.34225548  0.73672435  1.0
  O  O284  1  0.58511235  0.26327544  0.60553044  1.0
  O  O285  1  0.58511341  0.39446951  0.65774449  1.0
  O  O286  1  0.14691587  0.67977195  0.27458306  1.0
  O  O287  1  0.14691591  0.72541676  0.40518905  1.0
  O  O288  1  0.14691484  0.59481094  0.32022757  1.0
  O  O289  1  0.85308555  0.32022779  0.72541673  1.0
  O  O290  1  0.85308550  0.27458344  0.59481097  1.0
  O  O291  1  0.85308553  0.40518880  0.67977222  1.0
