# generated using pymatgen
data_Zn4H6C21N3Cl3O13
_symmetry_space_group_name_H-M   'P 1'
_cell_length_a   15.51128543
_cell_length_b   16.07114078
_cell_length_c   16.58303945
_cell_angle_alpha   63.17228373
_cell_angle_beta   62.54565893
_cell_angle_gamma   61.91093224
_symmetry_Int_Tables_number   1
_chemical_formula_structural   Zn4H6C21N3Cl3O13
_chemical_formula_sum   'Zn8 H12 C42 N6 Cl6 O26'
_cell_volume   3088.00541669
_cell_formula_units_Z   2
loop_
 _symmetry_equiv_pos_site_id
 _symmetry_equiv_pos_as_xyz
  1  'x, y, z'
loop_
 _atom_site_type_symbol
 _atom_site_label
 _atom_site_symmetry_multiplicity
 _atom_site_fract_x
 _atom_site_fract_y
 _atom_site_fract_z
 _atom_site_occupancy
  Zn  Zn0  1  0.02164764  0.84091878  0.11067387  1.0
  Zn  Zn1  1  0.04888125  0.01908521  0.91461962  1.0
  Zn  Zn2  1  0.05475053  0.02562695  0.10277929  1.0
  Zn  Zn3  1  0.84272893  0.05434924  0.08562769  1.0
  Zn  Zn4  1  0.42355769  0.63723977  0.51849803  1.0
  Zn  Zn5  1  0.46173761  0.43327180  0.68398816  1.0
  Zn  Zn6  1  0.63489503  0.45857512  0.48019190  1.0
  Zn  Zn7  1  0.42364168  0.44676068  0.50129830  1.0
  H  H8  1  0.55612235  0.60225410  0.75713583  1.0
  H  H9  1  0.35898116  0.75621170  0.96922548  1.0
  H  H10  1  0.06396397  0.67513670  0.62542679  1.0
  H  H11  1  0.89227875  0.86551438  0.42606724  1.0
  H  H12  1  0.53683312  0.71960792  0.19403464  1.0
  H  H13  1  0.72332934  0.90781566  0.00480592  1.0
  H  H14  1  0.55798627  0.12153332  0.66744372  1.0
  H  H15  1  0.39293363  0.92543943  0.89579159  1.0
  H  H16  1  0.76782812  0.51672098  0.61666292  1.0
  H  H17  1  0.91908603  0.34003729  0.83256446  1.0
  H  H18  1  0.63293324  0.53707134  0.19288069  1.0
  H  H19  1  0.86697764  0.34977258  0.01640403  1.0
  C  C20  1  0.46943233  0.67972339  0.86357136  1.0
  C  C21  1  0.48110392  0.64679977  0.79333306  1.0
  C  C22  1  0.39267229  0.67117770  0.77280901  1.0
  C  C23  1  0.28972343  0.75604952  0.88156047  1.0
  C  C24  1  0.37153493  0.73334693  0.91099923  1.0
  C  C25  1  0.18403600  0.81731117  0.92955631  1.0
  C  C26  1  0.40110374  0.62736528  0.70478736  1.0
  C  C27  1  0.96631888  0.77108715  0.53539292  1.0
  C  C28  1  0.05966243  0.70976651  0.55323491  1.0
  C  C29  1  0.14778412  0.69564640  0.47455606  1.0
  C  C30  1  0.05747939  0.79644944  0.36935295  1.0
  C  C31  1  0.96399750  0.81630942  0.44190542  1.0
  C  C32  1  0.05818365  0.84482942  0.26694519  1.0
  C  C33  1  0.25163188  0.63431299  0.48969193  1.0
  C  C34  1  0.62942745  0.81256952  0.08837558  1.0
  C  C35  1  0.59554023  0.74885013  0.17786150  1.0
  C  C36  1  0.63890129  0.72490184  0.24629992  1.0
  C  C37  1  0.73695269  0.82430678  0.14657619  1.0
  C  C38  1  0.69918716  0.85416948  0.07240400  1.0
  C  C39  1  0.81118197  0.86898964  0.13272175  1.0
  C  C40  1  0.60160640  0.65853180  0.34485381  1.0
  C  C41  1  0.48680652  0.01300278  0.77950972  1.0
  C  C42  1  0.48801616  0.10824721  0.72256540  1.0
  C  C43  1  0.39591222  0.18627771  0.73981092  1.0
  C  C44  1  0.30732335  0.08248410  0.85548224  1.0
  C  C45  1  0.39566978  0.99892313  0.84939667  1.0
  C  C46  1  0.20448929  0.06910572  0.91994060  1.0
  C  C47  1  0.39799128  0.29046482  0.68558499  1.0
  C  C48  1  0.84468621  0.43999497  0.72430039  1.0
  C  C49  1  0.78509575  0.45095034  0.67552947  1.0
  C  C50  1  0.74803322  0.37414353  0.70493958  1.0
  C  C51  1  0.83098451  0.27929674  0.81613303  1.0
  C  C52  1  0.86975838  0.35210332  0.79553471  1.0
  C  C53  1  0.86425996  0.18058428  0.88764420  1.0
  C  C54  1  0.67840519  0.38761452  0.65664385  1.0
  C  C55  1  0.75059784  0.45445628  0.09418915  1.0
  C  C56  1  0.68202601  0.46459952  0.18314298  1.0
  C  C57  1  0.68100047  0.37824343  0.26012275  1.0
  C  C58  1  0.79943684  0.27948813  0.16588516  1.0
  C  C59  1  0.81184677  0.36035355  0.08458024  1.0
  C  C60  1  0.85936833  0.17759178  0.15399277  1.0
  C  C61  1  0.61759295  0.38964022  0.35841121  1.0
  N  N62  1  0.29861665  0.72710608  0.81310197  1.0
  N  N63  1  0.14836694  0.73684817  0.38381779  1.0
  N  N64  1  0.71071421  0.75869986  0.23149099  1.0
  N  N65  1  0.30604437  0.17527264  0.80304311  1.0
  N  N66  1  0.76887283  0.28958110  0.77460258  1.0
  N  N67  1  0.73668218  0.28662337  0.25299593  1.0
  Cl  Cl68  1  0.57448823  0.65124918  0.89392112  1.0
  Cl  Cl69  1  0.85412992  0.79244691  0.62871170  1.0
  Cl  Cl70  1  0.58440873  0.84105162  0.99844251  1.0
  Cl  Cl71  1  0.59717368  0.91280659  0.76264553  1.0
  Cl  Cl72  1  0.88751612  0.53404605  0.69594182  1.0
  Cl  Cl73  1  0.76138730  0.55774797  0.99707956  1.0
  O  O74  1  0.99170158  0.98432470  0.05356412  1.0
  O  O75  1  0.14083438  0.89887944  0.87639076  1.0
  O  O76  1  0.15014472  0.78182918  0.01959373  1.0
  O  O77  1  0.39738226  0.53994962  0.74248891  1.0
  O  O78  1  0.41331606  0.67939361  0.61811344  1.0
  O  O79  1  0.06940190  0.92928992  0.22656850  1.0
  O  O80  1  0.04510561  0.79667105  0.23268373  1.0
  O  O81  1  0.29333220  0.54815463  0.48058192  1.0
  O  O82  1  0.28592849  0.67685149  0.51128737  1.0
  O  O83  1  0.77544137  0.96273090  0.11578590  1.0
  O  O84  1  0.89996122  0.81058148  0.13810097  1.0
  O  O85  1  0.66519243  0.57402565  0.37118765  1.0
  O  O86  1  0.50773314  0.69506356  0.39085677  1.0
  O  O87  1  0.19061372  0.03347778  0.00933477  1.0
  O  O88  1  0.14182771  0.09239534  0.87802473  1.0
  O  O89  1  0.40698873  0.32057347  0.59779124  1.0
  O  O90  1  0.39415822  0.33620826  0.73362242  1.0
  O  O91  1  0.81191649  0.17160708  0.97480071  1.0
  O  O92  1  0.94510939  0.11662953  0.85237843  1.0
  O  O93  1  0.70886467  0.42201362  0.56580619  1.0
  O  O94  1  0.59618639  0.36706789  0.70905768  1.0
  O  O95  1  0.95697337  0.15614413  0.12002903  1.0
  O  O96  1  0.80776049  0.12415085  0.17477526  1.0
  O  O97  1  0.52020641  0.42514033  0.37684232  1.0
  O  O98  1  0.66771441  0.36723056  0.41240478  1.0
  O  O99  1  0.48589024  0.49286510  0.54662387  1.0
