# generated using pymatgen
data_InH4(C3O2)4
_symmetry_space_group_name_H-M   'P 1'
_cell_length_a   17.88360157
_cell_length_b   17.88359354
_cell_length_c   17.88345756
_cell_angle_alpha   109.47181597
_cell_angle_beta   109.47056549
_cell_angle_gamma   109.47071888
_symmetry_Int_Tables_number   1
_chemical_formula_structural   InH4(C3O2)4
_chemical_formula_sum   'In6 H24 C72 O48'
_cell_volume   4402.93611255
_cell_formula_units_Z   6
loop_
 _symmetry_equiv_pos_site_id
 _symmetry_equiv_pos_as_xyz
  1  'x, y, z'
loop_
 _atom_site_type_symbol
 _atom_site_label
 _atom_site_symmetry_multiplicity
 _atom_site_fract_x
 _atom_site_fract_y
 _atom_site_fract_z
 _atom_site_occupancy
  In  In0  1  0.87499893  0.62500555  0.74999759  1.0
  In  In1  1  0.62499955  0.87499828  0.24999529  1.0
  In  In2  1  0.37499912  0.25000690  0.12499930  1.0
  In  In3  1  0.12500182  0.75000376  0.37499123  1.0
  In  In4  1  0.75000374  0.12499522  0.87499691  1.0
  In  In5  1  0.24999662  0.37499060  0.62499277  1.0
  H  H6  1  0.01676024  0.68171208  0.56140570  1.0
  H  H7  1  0.12029296  0.95533562  0.93857863  1.0
  H  H8  1  0.48324543  0.54467146  0.16496206  1.0
  H  H9  1  0.37970505  0.81828758  0.33503913  1.0
  H  H10  1  0.31829939  0.33505248  0.87970797  1.0
  H  H11  1  0.04467348  0.16496126  0.98323385  1.0
  H  H12  1  0.45533549  0.93857586  0.62029811  1.0
  H  H13  1  0.18173410  0.56142417  0.51677572  1.0
  H  H14  1  0.66496111  0.98323126  0.54466010  1.0
  H  H15  1  0.83504198  0.87971388  0.81829129  1.0
  H  H16  1  0.06141194  0.51676828  0.68171958  1.0
  H  H17  1  0.43856382  0.62029946  0.95533731  1.0
  H  H18  1  0.68171278  0.01675287  0.06140981  1.0
  H  H19  1  0.95532692  0.12028356  0.43857730  1.0
  H  H20  1  0.54466130  0.48323638  0.66496324  1.0
  H  H21  1  0.81826650  0.37968455  0.83503097  1.0
  H  H22  1  0.33504621  0.31827492  0.37970728  1.0
  H  H23  1  0.16495872  0.04466825  0.48324407  1.0
  H  H24  1  0.93856896  0.45534066  0.12029800  1.0
  H  H25  1  0.56142109  0.18172150  0.01676537  1.0
  H  H26  1  0.98324508  0.66494088  0.04464200  1.0
  H  H27  1  0.87971270  0.83503968  0.31827287  1.0
  H  H28  1  0.51676437  0.06142746  0.18172879  1.0
  H  H29  1  0.62029724  0.43858535  0.45533686  1.0
  C  C30  1  0.04715964  0.64000372  0.57232780  1.0
  C  C31  1  0.06767721  0.97482124  0.92766719  1.0
  C  C32  1  0.45284468  0.52518682  0.09285090  1.0
  C  C33  1  0.43232510  0.85999026  0.40714313  1.0
  C  C34  1  0.35999684  0.40715135  0.93232916  1.0
  C  C35  1  0.02518870  0.09285563  0.95284209  1.0
  C  C36  1  0.47481391  0.92765970  0.56767173  1.0
  C  C37  1  0.14001902  0.57233741  0.54716574  1.0
  C  C38  1  0.59284942  0.95283874  0.52517995  1.0
  C  C39  1  0.90715396  0.93234354  0.85999999  1.0
  C  C40  1  0.07233985  0.54716064  0.64001429  1.0
  C  C41  1  0.42765310  0.56767559  0.97481558  1.0
  C  C42  1  0.63999880  0.04715213  0.07233404  1.0
  C  C43  1  0.97480637  0.06766169  0.42765768  1.0
  C  C44  1  0.52518095  0.45283976  0.59285431  1.0
  C  C45  1  0.85998420  0.43231764  0.90714160  1.0
  C  C46  1  0.40715008  0.35998623  0.43232836  1.0
  C  C47  1  0.09285573  0.02518959  0.45284773  1.0
  C  C48  1  0.92765698  0.47482262  0.06767065  1.0
  C  C49  1  0.57233365  0.14001326  0.04715928  1.0
  C  C50  1  0.95284242  0.59284723  0.02517054  1.0
  C  C51  1  0.93233095  0.90714950  0.35998642  1.0
  C  C52  1  0.54715876  0.07233974  0.14001736  1.0
  C  C53  1  0.56767384  0.42766525  0.47481799  1.0
  C  C54  1  0.97726572  0.61631090  0.66811872  1.0
  C  C55  1  0.94817861  0.80914805  0.83188214  1.0
  C  C56  1  0.52273309  0.69085277  0.13903270  1.0
  C  C57  1  0.55180846  0.88369817  0.36096539  1.0
  C  C58  1  0.38370489  0.36097522  0.05181840  1.0
  C  C59  1  0.19084728  0.13902788  0.02272837  1.0
  C  C60  1  0.30915395  0.83187581  0.44818630  1.0
  C  C61  1  0.11632177  0.66810207  0.47727410  1.0
  C  C62  1  0.63902777  0.02272913  0.69084900  1.0
  C  C63  1  0.86098162  0.05182956  0.88370857  1.0
  C  C64  1  0.16811616  0.47727324  0.61631762  1.0
  C  C65  1  0.33188283  0.44819135  0.80915098  1.0
  C  C66  1  0.61630112  0.97727234  0.16811599  1.0
  C  C67  1  0.80915321  0.94818060  0.33188124  1.0
  C  C68  1  0.69085070  0.52272774  0.63903971  1.0
  C  C69  1  0.88367924  0.55179469  0.86095144  1.0
  C  C70  1  0.36096704  0.38369655  0.55182122  1.0
  C  C71  1  0.13902644  0.19085189  0.52272911  1.0
  C  C72  1  0.83188302  0.30915504  0.94819637  1.0
  C  C73  1  0.66811092  0.11631302  0.97727202  1.0
  C  C74  1  0.02272841  0.63903296  0.19083875  1.0
  C  C75  1  0.05182774  0.86097481  0.38370351  1.0
  C  C76  1  0.47727135  0.16811524  0.11631130  1.0
  C  C77  1  0.44819094  0.33188906  0.30915455  1.0
  C  C78  1  0.03347088  0.60085506  0.62591388  1.0
  C  C79  1  0.97492304  0.90755416  0.87407853  1.0
  C  C80  1  0.46653006  0.59245923  0.06738211  1.0
  C  C81  1  0.52507639  0.89915478  0.43262713  1.0
  C  C82  1  0.39916640  0.43263769  0.02509093  1.0
  C  C83  1  0.09245325  0.06737590  0.96652682  1.0
  C  C84  1  0.40754956  0.87407664  0.47492190  1.0
  C  C85  1  0.10084942  0.62591901  0.53347232  1.0
  C  C86  1  0.56737345  0.96652390  0.59245134  1.0
  C  C87  1  0.93262992  0.02509065  0.89915822  1.0
  C  C88  1  0.12592413  0.53347355  0.60084899  1.0
  C  C89  1  0.37408028  0.47493160  0.90755175  1.0
  C  C90  1  0.60084365  0.03346905  0.12592290  1.0
  C  C91  1  0.90753505  0.97490249  0.37406609  1.0
  C  C92  1  0.59245087  0.46652388  0.56737112  1.0
  C  C93  1  0.89914983  0.52505959  0.93261476  1.0
  C  C94  1  0.43262145  0.39914449  0.52507291  1.0
  C  C95  1  0.06736973  0.09244677  0.46652883  1.0
  C  C96  1  0.87406900  0.40754165  0.97492370  1.0
  C  C97  1  0.62591597  0.10084773  0.03347470  1.0
  C  C98  1  0.96652754  0.56736506  0.09244299  1.0
  C  C99  1  0.02507335  0.93262520  0.39915030  1.0
  C  C100  1  0.53347399  0.12592028  0.10084844  1.0
  C  C101  1  0.47492349  0.37407499  0.40754840  1.0
  O  O102  1  0.96991666  0.58405836  0.72168607  1.0
  O  O103  1  0.86235528  0.74823955  0.77830872  1.0
  O  O104  1  0.53008054  0.75177142  0.11412089  1.0
  O  O105  1  0.63764254  0.91595787  0.38587661  1.0
  O  O106  1  0.41596561  0.38589106  0.13765295  1.0
  O  O107  1  0.25177266  0.11413019  0.03007807  1.0
  O  O108  1  0.24823476  0.77831242  0.36236416  1.0
  O  O109  1  0.08406810  0.72167651  0.46991243  1.0
  O  O110  1  0.61413127  0.03007690  0.75176854  1.0
  O  O111  1  0.88589089  0.13765867  0.91596447  1.0
  O  O112  1  0.22167985  0.46991737  0.58405548  1.0
  O  O113  1  0.27830966  0.36237027  0.74823420  1.0
  O  O114  1  0.58404382  0.96991734  0.22168239  1.0
  O  O115  1  0.74822827  0.86234222  0.27830315  1.0
  O  O116  1  0.75176121  0.53007498  0.61413036  1.0
  O  O117  1  0.91592982  0.63760831  0.88585161  1.0
  O  O118  1  0.38587216  0.41594555  0.63763929  1.0
  O  O119  1  0.11411503  0.25176274  0.53007149  1.0
  O  O120  1  0.77831487  0.24823108  0.86237425  1.0
  O  O121  1  0.72169058  0.08405752  0.96992366  1.0
  O  O122  1  0.03008494  0.61412223  0.25176437  1.0
  O  O123  1  0.13764613  0.88587356  0.41594365  1.0
  O  O124  1  0.46991676  0.22168576  0.08405820  1.0
  O  O125  1  0.36236355  0.27832024  0.24823435  1.0
  O  O126  1  0.93610952  0.65923111  0.65151076  1.0
  O  O127  1  0.00768786  0.78459097  0.84847514  1.0
  O  O128  1  0.56389271  0.71541901  0.22311228  1.0
  O  O129  1  0.49230457  0.84078365  0.27688650  1.0
  O  O130  1  0.34078500  0.27690118  0.99230482  1.0
  O  O131  1  0.21541693  0.22310604  0.06389141  1.0
  O  O132  1  0.28459012  0.84846926  0.50770089  1.0
  O  O133  1  0.15923341  0.65150794  0.43610647  1.0
  O  O134  1  0.72310535  0.06389100  0.71540888  1.0
  O  O135  1  0.77690031  0.99231838  0.84078477  1.0
  O  O136  1  0.15151302  0.43611887  0.65923741  1.0
  O  O137  1  0.34848681  0.50771154  0.78459590  1.0
  O  O138  1  0.65922031  0.93611371  0.15151517  1.0
  O  O139  1  0.78458718  0.00768634  0.34847062  1.0
  O  O140  1  0.71540102  0.56387624  0.72310801  1.0
  O  O141  1  0.84076215  0.49227015  0.77687181  1.0
  O  O142  1  0.27689639  0.34078092  0.49230548  1.0
  O  O143  1  0.22310479  0.21540931  0.56388929  1.0
  O  O144  1  0.84847855  0.28459954  0.00771437  1.0
  O  O145  1  0.65151725  0.15922527  0.93611240  1.0
  O  O146  1  0.06388459  0.72310798  0.21540144  1.0
  O  O147  1  0.99231673  0.77689521  0.34079375  1.0
  O  O148  1  0.43609914  0.15151089  0.15922296  1.0
  O  O149  1  0.50769339  0.34847462  0.28458544  1.0
