# generated using pymatgen
data_Zn2H24C27N8
_symmetry_space_group_name_H-M   'P 1'
_cell_length_a   14.94541633
_cell_length_b   15.00890390
_cell_length_c   22.79186395
_cell_angle_alpha   89.29711116
_cell_angle_beta   89.52472999
_cell_angle_gamma   79.43037777
_symmetry_Int_Tables_number   1
_chemical_formula_structural   Zn2H24C27N8
_chemical_formula_sum   'Zn8 H96 C108 N32'
_cell_volume   5025.32238695
_cell_formula_units_Z   4
loop_
 _symmetry_equiv_pos_site_id
 _symmetry_equiv_pos_as_xyz
  1  'x, y, z'
loop_
 _atom_site_type_symbol
 _atom_site_label
 _atom_site_symmetry_multiplicity
 _atom_site_fract_x
 _atom_site_fract_y
 _atom_site_fract_z
 _atom_site_occupancy
  Zn  Zn0  1  0.57460169  0.54900820  0.06030882  1.0
  Zn  Zn1  1  0.57545889  0.55005224  0.91844027  1.0
  Zn  Zn2  1  0.07329187  0.05053676  0.55866298  1.0
  Zn  Zn3  1  0.07357396  0.05243411  0.41674692  1.0
  Zn  Zn4  1  0.43360415  0.40683214  0.91743202  1.0
  Zn  Zn5  1  0.42766691  0.41407865  0.06046276  1.0
  Zn  Zn6  1  0.93251266  0.90889901  0.41635433  1.0
  Zn  Zn7  1  0.92702977  0.91475091  0.55961650  1.0
  H  H8  1  0.43999501  0.74117211  0.07347086  1.0
  H  H9  1  0.46079833  0.07967004  0.98618097  1.0
  H  H10  1  0.03663705  0.57231997  0.40923979  1.0
  H  H11  1  0.95604153  0.58168668  0.49473561  1.0
  H  H12  1  0.67811392  0.06655818  0.91162023  1.0
  H  H13  1  0.49545904  0.06776361  0.05940143  1.0
  H  H14  1  0.15422879  0.57024627  0.40251765  1.0
  H  H15  1  0.00351137  0.57140859  0.56491919  1.0
  H  H16  1  0.75507963  0.88588207  0.02588781  1.0
  H  H17  1  0.66813460  0.90152331  0.07934379  1.0
  H  H18  1  0.25658663  0.38907122  0.50833851  1.0
  H  H19  1  0.43252819  0.73715486  0.90034533  1.0
  H  H20  1  0.18571912  0.40062172  0.57068035  1.0
  H  H21  1  0.33333333  0.83591608  0.84180205  1.0
  H  H22  1  0.35376253  0.82605879  0.14658643  1.0
  H  H23  1  0.81706240  0.34701172  0.35383715  1.0
  H  H24  1  0.85405668  0.32467539  0.64699107  1.0
  H  H25  1  0.72355132  0.44008586  0.28027987  1.0
  H  H26  1  0.76269028  0.41571564  0.72198173  1.0
  H  H27  1  0.23997447  0.92919264  0.76842795  1.0
  H  H28  1  0.26143743  0.91780066  0.22080471  1.0
  H  H29  1  0.54424522  0.24572856  0.27572801  1.0
  H  H30  1  0.93797766  0.24236196  0.57137408  1.0
  H  H31  1  0.53222972  0.29471578  0.67815533  1.0
  H  H32  1  0.04183936  0.75400130  0.78023599  1.0
  H  H33  1  0.03314787  0.79241218  0.17868529  1.0
  H  H34  1  0.13508803  0.66086247  0.85405747  1.0
  H  H35  1  0.12607629  0.69986445  0.10411950  1.0
  H  H36  1  0.63734780  0.15304554  0.34956447  1.0
  H  H37  1  0.62418172  0.20297575  0.60271224  1.0
  H  H38  1  0.91447174  0.31065952  0.90218103  1.0
  H  H39  1  0.90791757  0.37810376  0.08555461  1.0
  H  H40  1  0.41363606  0.81929466  0.39834757  1.0
  H  H41  1  0.92854912  0.23925617  0.39930256  1.0
  H  H42  1  0.40809205  0.87054995  0.58409874  1.0
  H  H43  1  0.24667418  0.54680101  0.89587270  1.0
  H  H44  1  0.24201578  0.56316345  0.08036647  1.0
  H  H45  1  0.74352209  0.04781691  0.39971946  1.0
  H  H46  1  0.74098228  0.06351391  0.58132870  1.0
  H  H47  1  0.08067510  0.29701835  0.90138741  1.0
  H  H48  1  0.07314046  0.36394921  0.08495940  1.0
  H  H49  1  0.57965997  0.80493521  0.39788858  1.0
  H  H50  1  0.57334200  0.85567467  0.58374677  1.0
  H  H51  1  0.22610565  0.35743703  0.08490664  1.0
  H  H52  1  0.59417738  0.91302064  0.89750272  1.0
  H  H53  1  0.22896238  0.34262355  0.89542126  1.0
  H  H54  1  0.72528352  0.85701728  0.58335502  1.0
  H  H55  1  0.72955843  0.84324940  0.39381635  1.0
  H  H56  1  0.62057677  0.75615046  0.89460279  1.0
  H  H57  1  0.63025348  0.74900338  0.08409590  1.0
  H  H58  1  0.11644154  0.25898967  0.39287845  1.0
  H  H59  1  0.12472448  0.25233804  0.58240459  1.0
  H  H60  1  0.75039472  0.39561678  0.08618648  1.0
  H  H61  1  0.76121522  0.40472094  0.89605628  1.0
  H  H62  1  0.25023344  0.89721394  0.58398030  1.0
  H  H63  1  0.47250901  0.92295766  0.97958008  1.0
  H  H64  1  0.26027495  0.90750810  0.39384321  1.0
  H  H65  1  0.57293561  0.21867853  0.89928439  1.0
  H  H66  1  0.55886660  0.22493698  0.08902385  1.0
  H  H67  1  0.07217832  0.72272468  0.39705498  1.0
  H  H68  1  0.05778885  0.72573982  0.58680899  1.0
  H  H69  1  0.47039241  0.32080367  0.19434345  1.0
  H  H70  1  0.48806095  0.31717494  0.78387906  1.0
  H  H71  1  0.97522153  0.81867887  0.69266339  1.0
  H  H72  1  0.98689326  0.81848666  0.28314163  1.0
  H  H73  1  0.66594621  0.51430341  0.78562869  1.0
  H  H74  1  0.06806135  0.41698700  0.39878133  1.0
  H  H75  1  0.66389037  0.50292154  0.19258810  1.0
  H  H76  1  0.16432574  0.01607899  0.28430098  1.0
  H  H77  1  0.16488022  0.00466144  0.69001432  1.0
  H  H78  1  0.70893916  0.90749418  0.91757596  1.0
  H  H79  1  0.50764134  0.91090789  0.05330243  1.0
  H  H80  1  0.18626617  0.41150523  0.40778325  1.0
  H  H81  1  0.01856047  0.41418405  0.56166836  1.0
  H  H82  1  0.75565265  0.17384221  0.96610372  1.0
  H  H83  1  0.79493154  0.17261276  0.03886981  1.0
  H  H84  1  0.87140390  0.12965847  0.98216466  1.0
  H  H85  1  0.96619928  0.42483153  0.49234229  1.0
  H  H86  1  0.83320314  0.99948758  0.03571308  1.0
  H  H87  1  0.78924032  0.00263338  0.96488522  1.0
  H  H88  1  0.54899742  0.10118118  0.13349319  1.0
  H  H89  1  0.59273050  0.98368037  0.13967445  1.0
  H  H90  1  0.63253406  0.06090553  0.18656145  1.0
  H  H91  1  0.75216728  0.02270053  0.11750313  1.0
  H  H92  1  0.69755159  0.13232435  0.09829508  1.0
  H  H93  1  0.38310213  0.54808610  0.55369875  1.0
  H  H94  1  0.37659030  0.43961803  0.52580576  1.0
  H  H95  1  0.42135306  0.51878247  0.48173949  1.0
  H  H96  1  0.56037651  0.06811351  0.90655224  1.0
  H  H97  1  0.27167696  0.52050364  0.44507581  1.0
  H  H98  1  0.26671361  0.62344691  0.48247594  1.0
  H  H99  1  0.06935027  0.60103957  0.63354797  1.0
  H  H100  1  0.11434168  0.48348098  0.63576420  1.0
  H  H101  1  0.16213998  0.55904723  0.67959723  1.0
  H  H102  1  0.26821178  0.52548078  0.60309839  1.0
  H  H103  1  0.20963579  0.63462558  0.58596016  1.0
  C  C104  1  0.40207780  0.68604510  0.07224131  1.0
  C  C105  1  0.61002898  0.46481911  0.18484170  1.0
  C  C106  1  0.05529419  0.73917321  0.53990330  1.0
  C  C107  1  0.78070876  0.03848862  0.00697023  1.0
  C  C108  1  0.80115639  0.13376122  0.99807512  1.0
  C  C109  1  0.68865439  0.06122306  0.09872187  1.0
  C  C110  1  0.61128854  0.05120277  0.14136889  1.0
  C  C111  1  0.27408979  0.54953361  0.48897982  1.0
  C  C112  1  0.36833807  0.51211908  0.51432977  1.0
  C  C113  1  0.20190999  0.56304129  0.58822125  1.0
  C  C114  1  0.13278210  0.55112071  0.63633510  1.0
  C  C115  1  0.11448219  0.97301114  0.29262331  1.0
  C  C116  1  0.11181696  0.96546860  0.68251422  1.0
  C  C117  1  0.79821867  0.37985498  0.99169465  1.0
  C  C118  1  0.29765135  0.88159685  0.48938594  1.0
  C  C119  1  0.58260849  0.17787473  0.99515514  1.0
  C  C120  1  0.08115080  0.68032094  0.49260622  1.0
  C  C121  1  0.58395535  0.39426701  0.21818927  1.0
  C  C122  1  0.59443361  0.40059961  0.76002095  1.0
  C  C123  1  0.08804950  0.89357852  0.71566537  1.0
  C  C124  1  0.39770088  0.67976120  0.90259101  1.0
  C  C125  1  0.09346109  0.90160510  0.25918773  1.0
  C  C126  1  0.63833261  0.93554660  0.93048426  1.0
  C  C127  1  0.52223115  0.94069590  0.01068368  1.0
  C  C128  1  0.11913764  0.43929089  0.42686880  1.0
  C  C129  1  0.02253789  0.44347543  0.51739840  1.0
  C  C130  1  0.62140834  0.04019953  0.93215241  1.0
  C  C131  1  0.51472941  0.04410761  0.01506754  1.0
  C  C132  1  0.10292939  0.54370587  0.42879538  1.0
  C  C133  1  0.01500239  0.54710677  0.51998552  1.0
  C  C134  1  0.68622329  0.92374290  0.03530547  1.0
  C  C135  1  0.90036219  0.18697002  0.57090073  1.0
  C  C136  1  0.19125675  0.42581166  0.52546842  1.0
  C  C137  1  0.61928645  0.89633917  0.99097942  1.0
  C  C138  1  0.11396464  0.39941714  0.48897522  1.0
  C  C139  1  0.60471770  0.07519443  0.99565176  1.0
  C  C140  1  0.10060923  0.57773846  0.49280666  1.0
  C  C141  1  0.30283610  0.58286090  0.90061229  1.0
  C  C142  1  0.30092422  0.59544439  0.07497876  1.0
  C  C143  1  0.79971371  0.08419359  0.40287573  1.0
  C  C144  1  0.79968559  0.09590313  0.57515257  1.0
  C  C145  1  0.68745975  0.02779887  0.03457089  1.0
  C  C146  1  0.89411307  0.18168093  0.40268352  1.0
  C  C147  1  0.19057246  0.53008129  0.52495234  1.0
  C  C148  1  0.26896906  0.81759784  0.82898984  1.0
  C  C149  1  0.28291342  0.81902744  0.15260158  1.0
  C  C150  1  0.75707330  0.32411398  0.33708795  1.0
  C  C151  1  0.78287928  0.31865343  0.65274046  1.0
  C  C152  1  0.70408571  0.37689055  0.29516685  1.0
  C  C153  1  0.73111534  0.37018147  0.69533870  1.0
  C  C154  1  0.21603091  0.87049229  0.78715588  1.0
  C  C155  1  0.23056937  0.87102909  0.19476835  1.0
  C  C156  1  0.62876292  0.34831932  0.26976927  1.0
  C  C157  1  0.51174293  0.37196232  0.18559095  1.0
  C  C158  1  0.64137843  0.35933845  0.70790910  1.0
  C  C159  1  0.13500020  0.84714809  0.76644684  1.0
  C  C160  1  0.14112961  0.85941608  0.20755553  1.0
  C  C161  1  0.60395281  0.26886163  0.29280533  1.0
  C  C162  1  0.60328276  0.30099542  0.67175013  1.0
  C  C163  1  0.10587412  0.77264261  0.79354835  1.0
  C  C164  1  0.10394761  0.79951243  0.17209593  1.0
  C  C165  1  0.15881852  0.71976472  0.83550508  1.0
  C  C166  1  0.15649323  0.74729578  0.12983178  1.0
  C  C167  1  0.65688791  0.21618597  0.33478608  1.0
  C  C168  1  0.52456002  0.37178845  0.79273960  1.0
  C  C169  1  0.65522058  0.24929790  0.62900385  1.0
  C  C170  1  0.24384151  0.73844746  0.85240546  1.0
  C  C171  1  0.24874411  0.75247058  0.12113091  1.0
  C  C172  1  0.73762255  0.23992271  0.35577422  1.0
  C  C173  1  0.74777561  0.25339687  0.62059102  1.0
  C  C174  1  0.94881638  0.32312070  0.94250652  1.0
  C  C175  1  0.94522450  0.35912726  0.04492810  1.0
  C  C176  1  0.44810235  0.82791781  0.43933972  1.0
  C  C177  1  0.44504461  0.85521668  0.54292513  1.0
  C  C178  1  0.04311564  0.31545729  0.94206717  1.0
  C  C179  1  0.01516310  0.87100047  0.68385071  1.0
  C  C180  1  0.03918352  0.35140467  0.04450419  1.0
  C  C181  1  0.54243320  0.81986677  0.43907179  1.0
  C  C182  1  0.53911147  0.84710346  0.54265154  1.0
  C  C183  1  0.09027758  0.33377862  0.99240111  1.0
  C  C184  1  0.58997756  0.83381575  0.49019768  1.0
  C  C185  1  0.24122972  0.35614771  0.03821091  1.0
  C  C186  1  0.24304851  0.34799700  0.94180726  1.0
  C  C187  1  0.74071773  0.85594249  0.53670454  1.0
  C  C188  1  0.74317468  0.84843058  0.44027688  1.0
  C  C189  1  0.89696539  0.34982377  0.99325296  1.0
  C  C190  1  0.02319406  0.87331116  0.29180189  1.0
  C  C191  1  0.39640036  0.85069491  0.49070849  1.0
  C  C192  1  0.62182077  0.73949438  0.94113012  1.0
  C  C193  1  0.62695632  0.73578131  0.03747061  1.0
  C  C194  1  0.11768756  0.24234621  0.43940308  1.0
  C  C195  1  0.12214532  0.23887678  0.53576902  1.0
  C  C196  1  0.31096432  0.68468190  0.08773823  1.0
  C  C197  1  0.30835009  0.67328830  0.88643131  1.0
  C  C198  1  0.80956847  0.18545724  0.58705369  1.0
  C  C199  1  0.80397557  0.17488690  0.38863813  1.0
  C  C200  1  0.18618377  0.34203977  0.99070348  1.0
  C  C201  1  0.61607079  0.47126632  0.79389629  1.0
  C  C202  1  0.68594755  0.84209959  0.48896236  1.0
  C  C203  1  0.62563523  0.79540905  0.98949178  1.0
  C  C204  1  0.12017602  0.29853748  0.48775287  1.0
  C  C205  1  0.73896302  0.40550873  0.03937511  1.0
  C  C206  1  0.74404939  0.40941750  0.94243229  1.0
  C  C207  1  0.23866851  0.90740446  0.53720705  1.0
  C  C208  1  0.24342256  0.91211065  0.44025413  1.0
  C  C209  1  0.56277810  0.23432981  0.94549047  1.0
  C  C210  1  0.55598128  0.23729017  0.04203067  1.0
  C  C211  1  0.06250086  0.73780053  0.44337411  1.0
  N  N212  1  0.44251138  0.60373507  0.05326101  1.0
  N  N213  1  0.32458081  0.36432389  0.95898471  1.0
  N  N214  1  0.82285491  0.86926802  0.51796378  1.0
  N  N215  1  0.82459183  0.86463328  0.45779594  1.0
  N  N216  1  0.62036926  0.65357247  0.95895058  1.0
  N  N217  1  0.62356159  0.65133249  0.01908864  1.0
  N  N218  1  0.11764053  0.15617998  0.45725232  1.0
  N  N219  1  0.12039306  0.15408747  0.51740472  1.0
  N  N220  1  0.65757632  0.44873970  0.01958338  1.0
  N  N221  1  0.66070860  0.45120356  0.96000864  1.0
  N  N222  1  0.15749999  0.95148871  0.51762820  1.0
  N  N223  1  0.44140980  0.59912252  0.92320310  1.0
  N  N224  1  0.16040963  0.95438141  0.45805825  1.0
  N  N225  1  0.52622216  0.31968810  0.96188610  1.0
  N  N226  1  0.52220320  0.32141524  0.02131553  1.0
  N  N227  1  0.02677546  0.82307534  0.46030927  1.0
  N  N228  1  0.02250510  0.82379753  0.51979934  1.0
  N  N229  1  0.49651427  0.42472385  0.13719343  1.0
  N  N230  1  0.50659250  0.42105035  0.84186738  1.0
  N  N231  1  0.99757920  0.92467966  0.63600333  1.0
  N  N232  1  0.00442645  0.92352664  0.34048109  1.0
  N  N233  1  0.56356205  0.48318477  0.84240023  1.0
  N  N234  1  0.94084581  0.10443105  0.55230018  1.0
  N  N235  1  0.55782421  0.48255687  0.13678562  1.0
  N  N236  1  0.06130965  0.98575200  0.34080602  1.0
  N  N237  1  0.05790363  0.98355326  0.63524649  1.0
  N  N238  1  0.93932504  0.10099072  0.42219135  1.0
  N  N239  1  0.38313309  0.53958764  0.92201567  1.0
  N  N240  1  0.38048599  0.54794500  0.05499979  1.0
  N  N241  1  0.88135043  0.04111430  0.42233660  1.0
  N  N242  1  0.87910833  0.04837670  0.55498867  1.0
  N  N243  1  0.32320085  0.36932300  0.01912524  1.0
