# generated using pymatgen
data_AlH12(C4O3)6
_symmetry_space_group_name_H-M   'P 1'
_cell_length_a   4.03390670
_cell_length_b   28.95050259
_cell_length_c   28.95277612
_cell_angle_alpha   59.99721323
_cell_angle_beta   89.99957832
_cell_angle_gamma   89.99920020
_symmetry_Int_Tables_number   1
_chemical_formula_structural   AlH12(C4O3)6
_chemical_formula_sum   'Al2 H24 C48 O36'
_cell_volume   2928.13168653
_cell_formula_units_Z   2
loop_
 _symmetry_equiv_pos_site_id
 _symmetry_equiv_pos_as_xyz
  1  'x, y, z'
loop_
 _atom_site_type_symbol
 _atom_site_label
 _atom_site_symmetry_multiplicity
 _atom_site_fract_x
 _atom_site_fract_y
 _atom_site_fract_z
 _atom_site_occupancy
  Al  Al0  1  0.00034437  0.99998021  0.50000914  1.0
  Al  Al1  1  0.99884934  0.66668413  0.16665740  1.0
  H  H2  1  0.13586437  0.56014017  0.28002442  1.0
  H  H3  1  0.86258465  0.56021027  0.15975387  1.0
  H  H4  1  0.80448370  0.37720050  0.24724423  1.0
  H  H5  1  0.19583983  0.37715341  0.37558741  1.0
  H  H6  1  0.80415394  0.28948356  0.41943594  1.0
  H  H7  1  0.19593527  0.28947803  0.29107035  1.0
  H  H8  1  0.13691443  0.10647942  0.38662587  1.0
  H  H9  1  0.86353960  0.10649043  0.50686611  1.0
  H  H10  1  0.13583461  0.78005776  0.15982657  1.0
  H  H11  1  0.86257206  0.65977053  0.28002741  1.0
  H  H12  1  0.80445823  0.74725291  0.37553907  1.0
  H  H13  1  0.19585670  0.87562063  0.24723578  1.0
  H  H14  1  0.80410015  0.91944473  0.29107281  1.0
  H  H15  1  0.19593830  0.79105631  0.41945344  1.0
  H  H16  1  0.13690947  0.88660331  0.50688863  1.0
  H  H17  1  0.86353484  0.00686036  0.38663542  1.0
  H  H18  1  0.13585758  0.65984666  0.06013138  1.0
  H  H19  1  0.86254943  0.78006320  0.06018879  1.0
  H  H20  1  0.80446475  0.87557334  0.87719177  1.0
  H  H21  1  0.19590938  0.74725097  0.87716032  1.0
  H  H22  1  0.80415108  0.79106296  0.78950376  1.0
  H  H23  1  0.19596289  0.91946514  0.78946800  1.0
  H  H24  1  0.13692616  0.00688461  0.60648828  1.0
  H  H25  1  0.86355746  0.88661117  0.60652276  1.0
  C  C26  1  0.50031124  0.95831898  0.58336411  1.0
  C  C27  1  0.50031087  0.08334201  0.45831230  1.0
  C  C28  1  0.50031181  0.95829090  0.45834385  1.0
  C  C29  1  0.49896216  0.58332074  0.20829908  1.0
  C  C30  1  0.49894883  0.70832597  0.20837129  1.0
  C  C31  1  0.49894196  0.70840279  0.08330376  1.0
  C  C32  1  0.49931372  0.52562258  0.23715964  1.0
  C  C33  1  0.31164965  0.49732885  0.28536694  1.0
  C  C34  1  0.32053132  0.44163537  0.31363444  1.0
  C  C35  1  0.49993984  0.41413953  0.29292412  1.0
  C  C36  1  0.67913573  0.44166985  0.24469753  1.0
  C  C37  1  0.68739128  0.49736450  0.21724905  1.0
  C  C38  1  0.50007568  0.35786373  0.32106072  1.0
  C  C39  1  0.50006252  0.30879661  0.34559435  1.0
  C  C40  1  0.50007936  0.25252081  0.37373164  1.0
  C  C41  1  0.67935731  0.22501048  0.42195045  1.0
  C  C42  1  0.68802332  0.16931621  0.44938285  1.0
  C  C43  1  0.50024192  0.14103856  0.42946463  1.0
  C  C44  1  0.31234203  0.16930954  0.38127962  1.0
  C  C45  1  0.32084301  0.22500419  0.35302500  1.0
  C  C46  1  0.49929630  0.73718453  0.23720690  1.0
  C  C47  1  0.31163283  0.78539549  0.21729067  1.0
  C  C48  1  0.32053287  0.81366254  0.24471374  1.0
  C  C49  1  0.49993940  0.79294406  0.29292075  1.0
  C  C50  1  0.67910991  0.74471160  0.31362104  1.0
  C  C51  1  0.68735948  0.71726459  0.28537589  1.0
  C  C52  1  0.50009108  0.82107710  0.32106154  1.0
  C  C53  1  0.50007693  0.84559483  0.34560153  1.0
  C  C54  1  0.50008484  0.87372667  0.37374292  1.0
  C  C55  1  0.67933857  0.92195160  0.35303134  1.0
  C  C56  1  0.68799321  0.94938063  0.38129169  1.0
  C  C57  1  0.50021471  0.92945348  0.42948938  1.0
  C  C58  1  0.31232420  0.88126485  0.44940430  1.0
  C  C59  1  0.32084648  0.85301255  0.42196625  1.0
  C  C60  1  0.49928162  0.73723918  0.02560919  1.0
  C  C61  1  0.31162943  0.71731666  0.99732324  1.0
  C  C62  1  0.32054145  0.74473668  0.94163345  1.0
  C  C63  1  0.49994162  0.79294687  0.91413438  1.0
  C  C64  1  0.67911119  0.81365407  0.94165647  1.0
  C  C65  1  0.68735132  0.78541198  0.99734869  1.0
  C  C66  1  0.50011271  0.82108445  0.85785855  1.0
  C  C67  1  0.50009539  0.84560552  0.80880738  1.0
  C  C68  1  0.50010040  0.87373911  0.75253043  1.0
  C  C69  1  0.67936995  0.85302038  0.72502772  1.0
  C  C70  1  0.68802907  0.88127682  0.66933764  1.0
  C  C71  1  0.50024922  0.92947660  0.64105615  1.0
  C  C72  1  0.31236273  0.94940041  0.66931863  1.0
  C  C73  1  0.32087055  0.92196801  0.72500839  1.0
  O  O74  1  0.73149571  0.99326231  0.44885893  1.0
  O  O75  1  0.73147284  0.94882583  0.55788238  1.0
  O  O76  1  0.73147423  0.05785508  0.49328636  1.0
  O  O77  1  0.26921781  0.94880368  0.49332823  1.0
  O  O78  1  0.26920632  0.05784047  0.44883393  1.0
  O  O79  1  0.26919183  0.99329965  0.55786184  1.0
  O  O80  1  0.72994524  0.71788032  0.10882171  1.0
  O  O81  1  0.72995377  0.60884548  0.17330172  1.0
  O  O82  1  0.72994964  0.67332778  0.21784586  1.0
  O  O83  1  0.26766347  0.67344053  0.10876911  1.0
  O  O84  1  0.26766228  0.71782322  0.17341358  1.0
  O  O85  1  0.26767626  0.60878564  0.21779326  1.0
  O  O86  1  0.13352289  0.52163497  0.30666946  1.0
  O  O87  1  0.86537503  0.52170430  0.17162592  1.0
  O  O88  1  0.84920090  0.41527647  0.22425525  1.0
  O  O89  1  0.15075556  0.41521948  0.36049387  1.0
  O  O90  1  0.84918349  0.25141507  0.44240248  1.0
  O  O91  1  0.15094309  0.25140806  0.30617453  1.0
  O  O92  1  0.13433263  0.14498422  0.35998483  1.0
  O  O93  1  0.86604681  0.14499680  0.49500111  1.0
  O  O94  1  0.13349786  0.80670307  0.17168419  1.0
  O  O95  1  0.86532997  0.67163749  0.30666246  1.0
  O  O96  1  0.84914094  0.72425957  0.36045764  1.0
  O  O97  1  0.15076768  0.86052689  0.22426645  1.0
  O  O98  1  0.84914189  0.94241046  0.30617283  1.0
  O  O99  1  0.15095582  0.80615850  0.44241825  1.0
  O  O100  1  0.13430808  0.85996479  0.49502382  1.0
  O  O101  1  0.86600512  0.99500378  0.35999172  1.0
  O  O102  1  0.13350540  0.67170577  0.02162980  1.0
  O  O103  1  0.86531814  0.80669982  0.02168460  1.0
  O  O104  1  0.84917057  0.86049217  0.91526414  1.0
  O  O105  1  0.15080934  0.72428315  0.91522482  1.0
  O  O106  1  0.84918209  0.80615840  0.75143871  1.0
  O  O107  1  0.15097905  0.94242667  0.75140014  1.0
  O  O108  1  0.13436499  0.99502631  0.64498842  1.0
  O  O109  1  0.86605908  0.85997056  0.64502618  1.0
