# generated using pymatgen
data_Zn3H32(C9O4)4
_symmetry_space_group_name_H-M   'P 1'
_cell_length_a   21.12684244
_cell_length_b   21.12679424
_cell_length_c   21.12676812
_cell_angle_alpha   117.81555029
_cell_angle_beta   117.81551092
_cell_angle_gamma   93.82769359
_symmetry_Int_Tables_number   1
_chemical_formula_structural   Zn3H32(C9O4)4
_chemical_formula_sum   'Zn6 H64 C72 O32'
_cell_volume   6871.40172991
_cell_formula_units_Z   2
loop_
 _symmetry_equiv_pos_site_id
 _symmetry_equiv_pos_as_xyz
  1  'x, y, z'
loop_
 _atom_site_type_symbol
 _atom_site_label
 _atom_site_symmetry_multiplicity
 _atom_site_fract_x
 _atom_site_fract_y
 _atom_site_fract_z
 _atom_site_occupancy
  Zn  Zn0  1  0.05911762  0.49999777  0.55911963  1.0
  Zn  Zn1  1  0.04437102  0.04437498  0.99999897  1.0
  Zn  Zn2  1  0.95562175  0.95562507  0.99999645  1.0
  Zn  Zn3  1  0.49999215  0.94090157  0.44089972  1.0
  Zn  Zn4  1  0.94091162  0.49999974  0.44090586  1.0
  Zn  Zn5  1  0.50000946  0.05912460  0.55911371  1.0
  H  H6  1  0.82107190  0.64181208  0.60573398  1.0
  H  H7  1  0.64180880  0.03606972  0.82072723  1.0
  H  H8  1  0.15640828  0.81205217  0.06983669  1.0
  H  H9  1  0.97950338  0.19918870  0.95660537  1.0
  H  H10  1  0.95457924  0.28204810  0.98206276  1.0
  H  H11  1  0.04871312  0.28932423  0.00757922  1.0
  H  H12  1  0.05022608  0.33988940  0.14273186  1.0
  H  H13  1  0.07425162  0.25724782  0.11621242  1.0
  H  H14  1  0.93658167  0.17580691  0.03711691  1.0
  H  H15  1  0.91342679  0.25778285  0.06983970  1.0
  H  H16  1  0.02289599  0.97951377  0.78030813  1.0
  H  H17  1  0.97251222  0.95459011  0.67252655  1.0
  H  H18  1  0.03607221  0.21533910  0.39425934  1.0
  H  H19  1  0.04113272  0.04872534  0.75938725  1.0
  H  H20  1  0.90748772  0.05023548  0.71033433  1.0
  H  H21  1  0.95803956  0.07425999  0.81700623  1.0
  H  H22  1  0.89946720  0.93658816  0.76077561  1.0
  H  H23  1  0.84358858  0.91342932  0.65564236  1.0
  H  H24  1  0.24258385  0.02289899  0.04338374  1.0
  H  H25  1  0.29998164  0.97251913  0.01792690  1.0
  H  H26  1  0.28174142  0.04113535  0.99241117  1.0
  H  H27  1  0.19715159  0.90749091  0.85725587  1.0
  H  H28  1  0.14103125  0.95803803  0.88378061  1.0
  H  H29  1  0.21533793  0.82108034  0.17926375  1.0
  H  H30  1  0.13868774  0.89946535  0.96287881  1.0
  H  H31  1  0.18794477  0.84358666  0.93015724  1.0
  H  H32  1  0.19920134  0.24258325  0.21968388  1.0
  H  H33  1  0.28205726  0.29998464  0.32746735  1.0
  H  H34  1  0.28933363  0.28174292  0.24060704  1.0
  H  H35  1  0.33989786  0.19715453  0.28966423  1.0
  H  H36  1  0.25725160  0.14103215  0.18299383  1.0
  H  H37  1  0.17580958  0.13869162  0.23922275  1.0
  H  H38  1  0.25778700  0.18794882  0.34435902  1.0
  H  H39  1  0.96392486  0.35818214  0.17926348  1.0
  H  H40  1  0.78465926  0.96392944  0.60574144  1.0
  H  H41  1  0.17891134  0.78465643  0.82072626  1.0
  H  H42  1  0.35818447  0.17892120  0.39425976  1.0
  H  H43  1  0.75740879  0.80079372  0.78030961  1.0
  H  H44  1  0.70000938  0.71793491  0.67252662  1.0
  H  H45  1  0.71825118  0.71065774  0.75938447  1.0
  H  H46  1  0.80283913  0.66009606  0.71032660  1.0
  H  H47  1  0.85896157  0.74274045  0.81700035  1.0
  H  H48  1  0.86130367  0.82418669  0.76077472  1.0
  H  H49  1  0.81205067  0.74221307  0.65564338  1.0
  H  H50  1  0.80079181  0.02047799  0.04337809  1.0
  H  H51  1  0.71793541  0.04540470  0.01792242  1.0
  H  H52  1  0.71065853  0.95126615  0.99239895  1.0
  H  H53  1  0.66009576  0.94976251  0.85724948  1.0
  H  H54  1  0.74274046  0.92573742  0.88377336  1.0
  H  H55  1  0.82418697  0.06341038  0.96288033  1.0
  H  H56  1  0.74220699  0.08656922  0.93015710  1.0
  H  H57  1  0.02047863  0.97709738  0.21968377  1.0
  H  H58  1  0.04540568  0.02748240  0.32746721  1.0
  H  H59  1  0.95126746  0.95886261  0.24060837  1.0
  H  H60  1  0.94976248  0.09251052  0.28966690  1.0
  H  H61  1  0.92573466  0.04195767  0.18299187  1.0
  H  H62  1  0.06340634  0.10053017  0.23922188  1.0
  H  H63  1  0.08656668  0.15640773  0.34435592  1.0
  H  H64  1  0.97709743  0.75740905  0.95661089  1.0
  H  H65  1  0.02748106  0.70001206  0.98206944  1.0
  H  H66  1  0.95886244  0.71825139  0.00758510  1.0
  H  H67  1  0.09250644  0.80284416  0.14273997  1.0
  H  H68  1  0.04195809  0.85896312  0.11621416  1.0
  H  H69  1  0.10053031  0.86130824  0.03711842  1.0
  C  C70  1  0.99999040  0.61721570  0.61720718  1.0
  C  C71  1  0.99999273  0.88172731  0.88173165  1.0
  C  C72  1  0.76314370  0.03898325  0.90971482  1.0
  C  C73  1  0.72249771  0.97299689  0.90623257  1.0
  C  C74  1  0.73865731  0.99875089  0.99470492  1.0
  C  C75  1  0.03898549  0.12926774  0.27584228  1.0
  C  C76  1  0.97300102  0.06675972  0.25049960  1.0
  C  C77  1  0.99874953  0.00404497  0.26009214  1.0
  C  C78  1  0.12926585  0.85342592  0.09027945  1.0
  C  C79  1  0.06675899  0.81625970  0.09375273  1.0
  C  C80  1  0.00404433  0.74395016  0.00528620  1.0
  C  C81  1  0.96101359  0.23685052  0.09028274  1.0
  C  C82  1  0.88172782  0.99999678  0.88173244  1.0
  C  C83  1  0.02699321  0.27749212  0.09375533  1.0
  C  C84  1  0.00122982  0.26132545  0.00527489  1.0
  C  C85  1  0.87073344  0.96101247  0.72415700  1.0
  C  C86  1  0.93323897  0.02699651  0.74950168  1.0
  C  C87  1  0.99595147  0.00124479  0.73990355  1.0
  C  C88  1  0.14657062  0.87073182  0.90971731  1.0
  C  C89  1  0.18373382  0.93323597  0.90624202  1.0
  C  C90  1  0.25604506  0.99595415  0.99471087  1.0
  C  C91  1  0.23685256  0.14657335  0.27583937  1.0
  C  C92  1  0.27749421  0.18373614  0.25049839  1.0
  C  C93  1  0.99999250  0.11825875  0.11826543  1.0
  C  C94  1  0.26133688  0.25604570  0.26009162  1.0
  C  C95  1  0.85342423  0.76314427  0.72415703  1.0
  C  C96  1  0.81625830  0.72250020  0.74949515  1.0
  C  C97  1  0.74395048  0.73865654  0.73990178  1.0
  C  C98  1  0.11825955  0.99999628  0.11826501  1.0
  C  C99  1  0.09005448  0.58997493  0.50006360  1.0
  C  C100  1  0.58998566  0.08998121  0.49999760  1.0
  C  C101  1  0.91006031  0.41001292  0.50002931  1.0
  C  C102  1  0.61721832  0.00000178  0.61721635  1.0
  C  C103  1  0.41000139  0.91008214  0.50003651  1.0
  C  C104  1  0.13982483  0.63973171  0.50006762  1.0
  C  C105  1  0.63974277  0.13972878  0.49998772  1.0
  C  C106  1  0.86028997  0.36024351  0.50001988  1.0
  C  C107  1  0.36021745  0.86033621  0.50003040  1.0
  C  C108  1  0.00000302  0.38278295  0.38278327  1.0
  C  C109  1  0.18231475  0.68226331  0.50003722  1.0
  C  C110  1  0.68226554  0.18225749  0.49999233  1.0
  C  C111  1  0.81775565  0.31772570  0.50000945  1.0
  C  C112  1  0.31771209  0.81777833  0.50001720  1.0
  C  C113  1  0.38278120  0.00000296  0.38277922  1.0
  C  C114  1  0.22863717  0.72861347  0.50002679  1.0
  C  C115  1  0.72860743  0.22860080  0.49999297  1.0
  C  C116  1  0.77139794  0.27139439  0.50000585  1.0
  C  C117  1  0.27139888  0.77141562  0.50002062  1.0
  C  C118  1  0.93038941  0.69166382  0.67548529  1.0
  C  C119  1  0.69165592  0.01615925  0.76125871  1.0
  C  C120  1  0.01615931  0.25490033  0.32450266  1.0
  C  C121  1  0.25489747  0.93039628  0.23873121  1.0
  C  C122  1  0.98383236  0.30833160  0.23872943  1.0
  C  C123  1  0.74510155  0.98383706  0.67549566  1.0
  C  C124  1  0.06959589  0.74510097  0.76125568  1.0
  C  C125  1  0.30834020  0.06960648  0.32449964  1.0
  C  C126  1  0.92893621  0.75603378  0.73852751  1.0
  C  C127  1  0.75603091  0.01750110  0.82709261  1.0
  C  C128  1  0.01750047  0.19040809  0.26146620  1.0
  C  C129  1  0.19040568  0.92893845  0.17290122  1.0
  C  C130  1  0.98249581  0.24396334  0.17290141  1.0
  C  C131  1  0.80959322  0.98249863  0.73853133  1.0
  C  C132  1  0.07105778  0.80959267  0.82709096  1.0
  C  C133  1  0.24396260  0.07106139  0.26146629  1.0
  C  C134  1  0.99999761  0.81323819  0.81323854  1.0
  C  C135  1  0.81323396  0.99999911  0.81323625  1.0
  C  C136  1  0.99999867  0.18675947  0.18675842  1.0
  C  C137  1  0.18675820  0.99999918  0.18675864  1.0
  C  C138  1  0.99999139  0.68563693  0.68561972  1.0
  C  C139  1  0.68563445  0.99999604  0.68562918  1.0
  C  C140  1  0.99999598  0.31436421  0.31436288  1.0
  C  C141  1  0.31436503  0.00000010  0.31436034  1.0
  O  O142  1  0.04315199  0.58264949  0.64161727  1.0
  O  O143  1  0.58264218  0.94101314  0.53947186  1.0
  O  O144  1  0.94101162  0.40153902  0.35835847  1.0
  O  O145  1  0.40154627  0.04317661  0.46051529  1.0
  O  O146  1  0.05897394  0.41734660  0.46051487  1.0
  O  O147  1  0.59846384  0.05897976  0.64162830  1.0
  O  O148  1  0.95681265  0.59845639  0.53945939  1.0
  O  O149  1  0.41734662  0.95682273  0.35836054  1.0
  O  O150  1  0.12223239  0.57973611  0.56105442  1.0
  O  O151  1  0.57974310  0.01873938  0.45756916  1.0
  O  O152  1  0.01880806  0.56116727  0.43906030  1.0
  O  O153  1  0.56118842  0.12217895  0.54243103  1.0
  O  O154  1  0.98129176  0.42026089  0.54245315  1.0
  O  O155  1  0.43881486  0.98131306  0.56103149  1.0
  O  O156  1  0.87786368  0.43882457  0.45759598  1.0
  O  O157  1  0.42024504  0.87788103  0.43903695  1.0
  O  O158  1  0.05315907  0.97446875  0.10400730  1.0
  O  O159  1  0.97446536  0.87045995  0.92130731  1.0
  O  O160  1  0.87045934  0.94915271  0.89598941  1.0
  O  O161  1  0.94914861  0.05315793  0.07869176  1.0
  O  O162  1  0.12953807  0.02553689  0.07868670  1.0
  O  O163  1  0.05084787  0.12953524  0.10400337  1.0
  O  O164  1  0.94684702  0.05085450  0.92131383  1.0
  O  O165  1  0.02552908  0.94684469  0.89599110  1.0
  O  O166  1  0.86411914  0.63186909  0.60230033  1.0
  O  O167  1  0.63186569  0.02955629  0.76773432  1.0
  O  O168  1  0.02955682  0.26181660  0.39768727  1.0
  O  O169  1  0.26181740  0.86412999  0.23225630  1.0
  O  O170  1  0.97043753  0.36812630  0.23225522  1.0
  O  O171  1  0.73818034  0.97043887  0.60230698  1.0
  O  O172  1  0.13586163  0.73818069  0.76772982  1.0
  O  O173  1  0.36812968  0.13587329  0.39769044  1.0
