# generated using pymatgen
data_Zn2H9C35S3Br6N2O11
_symmetry_space_group_name_H-M   'P 1'
_cell_length_a   12.75875785
_cell_length_b   13.81266757
_cell_length_c   28.09124192
_cell_angle_alpha   89.90881417
_cell_angle_beta   89.78861286
_cell_angle_gamma   89.91959223
_symmetry_Int_Tables_number   1
_chemical_formula_structural   Zn2H9C35S3Br6N2O11
_chemical_formula_sum   'Zn4 H18 C70 S6 Br12 N4 O22'
_cell_volume   4950.54445522
_cell_formula_units_Z   2
loop_
 _symmetry_equiv_pos_site_id
 _symmetry_equiv_pos_as_xyz
  1  'x, y, z'
loop_
 _atom_site_type_symbol
 _atom_site_label
 _atom_site_symmetry_multiplicity
 _atom_site_fract_x
 _atom_site_fract_y
 _atom_site_fract_z
 _atom_site_occupancy
  Zn  Zn0  1  0.50202724  0.40057126  0.49840070  1.0
  Zn  Zn1  1  0.49726615  0.60003325  0.49922932  1.0
  Zn  Zn2  1  0.50240709  0.59978191  0.04468763  1.0
  Zn  Zn3  1  0.49827302  0.40033741  0.04386475  1.0
  H  H4  1  0.38471426  0.25006245  0.55079672  1.0
  H  H5  1  0.61585433  0.24870724  0.44752072  1.0
  H  H6  1  0.61368743  0.75044019  0.44783158  1.0
  H  H7  1  0.38424538  0.75163790  0.55187154  1.0
  H  H8  1  0.49947733  0.65480834  0.65032717  1.0
  H  H9  1  0.49890454  0.34538340  0.65042371  1.0
  H  H10  1  0.49924477  0.34502309  0.89277898  1.0
  H  H11  1  0.50048215  0.65447792  0.89270409  1.0
  H  H12  1  0.38555824  0.75067884  0.99263745  1.0
  H  H13  1  0.61651719  0.75103714  0.09519696  1.0
  H  H14  1  0.61499067  0.24943289  0.09495638  1.0
  H  H15  1  0.38592077  0.24897683  0.99149093  1.0
  H  H16  1  0.50104093  0.71644762  0.30810364  1.0
  H  H17  1  0.50081976  0.28335735  0.23492650  1.0
  H  H18  1  0.08106159  0.28303156  0.50043551  1.0
  H  H19  1  0.91877245  0.71653373  0.50020259  1.0
  H  H20  1  0.08108646  0.71820453  0.04378014  1.0
  H  H21  1  0.92021101  0.28480721  0.04450431  1.0
  C  C22  1  0.49839596  0.50035694  0.59246629  1.0
  C  C23  1  0.29469215  0.49843194  0.49989572  1.0
  C  C24  1  0.50193439  0.50143226  0.40553587  1.0
  C  C25  1  0.70481092  0.50158956  0.49878920  1.0
  C  C26  1  0.49933159  0.49944370  0.95063585  1.0
  C  C27  1  0.29537037  0.50283513  0.04394624  1.0
  C  C28  1  0.50194853  0.49833141  0.13754071  1.0
  C  C29  1  0.70552908  0.49971484  0.04452943  1.0
  C  C30  1  0.43530815  0.20512403  0.52867009  1.0
  C  C31  1  0.43192939  0.10371363  0.53074635  1.0
  C  C32  1  0.36340003  0.05076823  0.56235076  1.0
  C  C33  1  0.56570842  0.20431424  0.47012650  1.0
  C  C34  1  0.56916637  0.10292347  0.46868657  1.0
  C  C35  1  0.63803981  0.04933360  0.43756555  1.0
  C  C36  1  0.56414848  0.79540544  0.47042525  1.0
  C  C37  1  0.56848666  0.89679103  0.46890272  1.0
  C  C38  1  0.63775670  0.94974528  0.43766514  1.0
  C  C39  1  0.43437235  0.79609673  0.52928179  1.0
  C  C40  1  0.43148968  0.89750280  0.53108813  1.0
  C  C41  1  0.36329498  0.95110809  0.56253977  1.0
  C  C42  1  0.50045535  0.05145744  0.49982605  1.0
  C  C43  1  0.50019989  0.94898404  0.49994579  1.0
  C  C44  1  0.50217610  0.58119660  0.32200890  1.0
  C  C45  1  0.50208844  0.41860638  0.22104389  1.0
  C  C46  1  0.50233271  0.50282984  0.35328726  1.0
  C  C47  1  0.50226884  0.49698844  0.18977884  1.0
  C  C48  1  0.50199677  0.44949532  0.26926027  1.0
  C  C49  1  0.50204598  0.55030176  0.27379716  1.0
  C  C50  1  0.49922868  0.58767438  0.67058255  1.0
  C  C51  1  0.49952200  0.58961295  0.72044561  1.0
  C  C52  1  0.49928235  0.67890264  0.74706604  1.0
  C  C53  1  0.49888177  0.41244771  0.67063304  1.0
  C  C54  1  0.49898625  0.41039853  0.72050724  1.0
  C  C55  1  0.49818229  0.32104785  0.74720845  1.0
  C  C56  1  0.49930215  0.41216925  0.87253460  1.0
  C  C57  1  0.49929959  0.41024527  0.82267211  1.0
  C  C58  1  0.49838078  0.32097178  0.79604865  1.0
  C  C59  1  0.50000015  0.58741992  0.87249491  1.0
  C  C60  1  0.49987759  0.58949951  0.82262037  1.0
  C  C61  1  0.49943614  0.67884030  0.79591272  1.0
  C  C62  1  0.49886545  0.50009485  0.64596945  1.0
  C  C63  1  0.49949530  0.49996993  0.74629157  1.0
  C  C64  1  0.49957132  0.49975527  0.89714430  1.0
  C  C65  1  0.49965543  0.49991445  0.79684446  1.0
  C  C66  1  0.11107991  0.41834547  0.50044649  1.0
  C  C67  1  0.88852903  0.58128206  0.49954551  1.0
  C  C68  1  0.17974557  0.49667490  0.50034657  1.0
  C  C69  1  0.81978799  0.50301443  0.49920947  1.0
  C  C70  1  0.99470039  0.55019451  0.50010903  1.0
  C  C71  1  0.00485934  0.44935685  0.50024974  1.0
  C  C72  1  0.43626238  0.79543786  0.01457208  1.0
  C  C73  1  0.43317414  0.89685810  0.01245974  1.0
  C  C74  1  0.36481539  0.95006808  0.98105427  1.0
  C  C75  1  0.56650404  0.79568283  0.07275359  1.0
  C  C76  1  0.57016599  0.89705547  0.07416622  1.0
  C  C77  1  0.63901351  0.95039735  0.10510385  1.0
  C  C78  1  0.56550324  0.20465718  0.07247303  1.0
  C  C79  1  0.56980082  0.10323746  0.07395111  1.0
  C  C80  1  0.63888668  0.04999926  0.10500637  1.0
  C  C81  1  0.43597797  0.20439665  0.01394928  1.0
  C  C82  1  0.43307001  0.10301657  0.01212814  1.0
  C  C83  1  0.36481856  0.04972017  0.98087967  1.0
  C  C84  1  0.50171246  0.94880742  0.04318709  1.0
  C  C85  1  0.50162149  0.05127705  0.04307043  1.0
  C  C86  1  0.11155094  0.58289866  0.04400608  1.0
  C  C87  1  0.88946066  0.42002133  0.04476550  1.0
  C  C88  1  0.18042784  0.50457063  0.04405138  1.0
  C  C89  1  0.82049847  0.49828120  0.04474990  1.0
  C  C90  1  0.99555683  0.45107232  0.04446956  1.0
  C  C91  1  0.00541702  0.55191066  0.04429174  1.0
  S  S92  1  0.50227777  0.39162288  0.32369497  1.0
  S  S93  1  0.50228145  0.60819612  0.21936194  1.0
  S  S94  1  0.11439401  0.60793165  0.50019389  1.0
  S  S95  1  0.88509499  0.39170621  0.49969436  1.0
  S  S96  1  0.11540845  0.39330929  0.04435338  1.0
  S  S97  1  0.88548641  0.60959326  0.04442730  1.0
  Br  Br98  1  0.27485603  0.88057590  0.60408072  1.0
  Br  Br99  1  0.27506783  0.12194894  0.60360750  1.0
  Br  Br100  1  0.72746174  0.87835510  0.39704903  1.0
  Br  Br101  1  0.72815815  0.12001092  0.39677892  1.0
  Br  Br102  1  0.49780671  0.79731131  0.83029354  1.0
  Br  Br103  1  0.49751613  0.79745329  0.71256079  1.0
  Br  Br104  1  0.49626885  0.20241970  0.83051345  1.0
  Br  Br105  1  0.49565764  0.20259692  0.71283249  1.0
  Br  Br106  1  0.27636087  0.12048397  0.93963052  1.0
  Br  Br107  1  0.27651970  0.87915613  0.94003048  1.0
  Br  Br108  1  0.72865182  0.12096396  0.14538762  1.0
  Br  Br109  1  0.72904783  0.87939050  0.14560390  1.0
  N  N110  1  0.50057248  0.25208734  0.49925181  1.0
  N  N111  1  0.49868274  0.74842639  0.49972961  1.0
  N  N112  1  0.50129586  0.74821199  0.04383054  1.0
  N  N113  1  0.50017978  0.25187829  0.04334499  1.0
  O  O114  1  0.50056111  0.41846610  0.57179768  1.0
  O  O115  1  0.49591506  0.58275283  0.57213283  1.0
  O  O116  1  0.33703507  0.58243452  0.49997566  1.0
  O  O117  1  0.34247491  0.41744220  0.49934600  1.0
  O  O118  1  0.49957520  0.58277073  0.42677520  1.0
  O  O119  1  0.50372179  0.41775618  0.42522039  1.0
  O  O120  1  0.66207984  0.41767390  0.49831868  1.0
  O  O121  1  0.65738614  0.58268144  0.49906455  1.0
  O  O122  1  0.50144990  0.58128110  0.97134388  1.0
  O  O123  1  0.49703464  0.41700398  0.97095281  1.0
  O  O124  1  0.33801589  0.41885490  0.04366142  1.0
  O  O125  1  0.34284905  0.58385584  0.04419223  1.0
  O  O126  1  0.49995467  0.41696147  0.11633293  1.0
  O  O127  1  0.50349460  0.58198495  0.11783775  1.0
  O  O128  1  0.66259834  0.58365810  0.04478484  1.0
  O  O129  1  0.65826362  0.41867551  0.04392460  1.0
  O  O130  1  0.50258230  0.67532695  0.33631231  1.0
  O  O131  1  0.50245188  0.32449519  0.20672244  1.0
  O  O132  1  0.14297397  0.32425226  0.50073411  1.0
  O  O133  1  0.85681986  0.67542046  0.49915968  1.0
  O  O134  1  0.14313999  0.67699026  0.04363528  1.0
  O  O135  1  0.85805199  0.32587399  0.04516662  1.0
