# generated using pymatgen
data_Zn4C12O13
_symmetry_space_group_name_H-M   'P 1'
_cell_length_a   15.96340286
_cell_length_b   15.99427392
_cell_length_c   16.01084714
_cell_angle_alpha   60.24024816
_cell_angle_beta   60.20988131
_cell_angle_gamma   60.18545141
_symmetry_Int_Tables_number   1
_chemical_formula_structural   Zn4C12O13
_chemical_formula_sum   'Zn8 C24 O26'
_cell_volume   2904.47354452
_cell_formula_units_Z   2
loop_
 _symmetry_equiv_pos_site_id
 _symmetry_equiv_pos_as_xyz
  1  'x, y, z'
loop_
 _atom_site_type_symbol
 _atom_site_label
 _atom_site_symmetry_multiplicity
 _atom_site_fract_x
 _atom_site_fract_y
 _atom_site_fract_z
 _atom_site_occupancy
  Zn  Zn0  1  0.95339120  0.95131427  0.92672187  1.0
  Zn  Zn1  1  0.94504278  0.15514230  0.93069154  1.0
  Zn  Zn2  1  0.15004860  0.95782665  0.93041811  1.0
  Zn  Zn3  1  0.94783998  0.95377507  0.12978556  1.0
  Zn  Zn4  1  0.55468297  0.55240494  0.52758532  1.0
  Zn  Zn5  1  0.54567095  0.35405035  0.53016958  1.0
  Zn  Zn6  1  0.54807902  0.55322516  0.32920713  1.0
  Zn  Zn7  1  0.34792706  0.55837787  0.53065760  1.0
  C  C8  1  0.84207817  0.15882139  0.81781917  1.0
  C  C9  1  0.77931755  0.22172953  0.75270649  1.0
  C  C10  1  0.72601567  0.27593400  0.69885349  1.0
  C  C11  1  0.66144284  0.34130964  0.63559212  1.0
  C  C12  1  0.16642159  0.84494078  0.82023268  1.0
  C  C13  1  0.23264637  0.78107659  0.75627315  1.0
  C  C14  1  0.28637104  0.72762698  0.70260589  1.0
  C  C15  1  0.34812945  0.66383820  0.63854843  1.0
  C  C16  1  0.84505412  0.84011051  0.13455948  1.0
  C  C17  1  0.78216699  0.77510499  0.19767649  1.0
  C  C18  1  0.72854785  0.72155694  0.25190087  1.0
  C  C19  1  0.66356697  0.65866435  0.31703064  1.0
  C  C20  1  0.15243684  0.16958782  0.82197626  1.0
  C  C21  1  0.21470677  0.23518308  0.75774504  1.0
  C  C22  1  0.26801262  0.28905053  0.70376745  1.0
  C  C23  1  0.33346731  0.35146773  0.63935373  1.0
  C  C24  1  0.83334817  0.16238471  0.14026775  1.0
  C  C25  1  0.76812428  0.22572545  0.20469978  1.0
  C  C26  1  0.71444181  0.27903571  0.25849217  1.0
  C  C27  1  0.65165775  0.34329348  0.32203685  1.0
  C  C28  1  0.15668059  0.85063084  0.14043629  1.0
  C  C29  1  0.22005766  0.78707262  0.20490854  1.0
  C  C30  1  0.27338630  0.73297850  0.25873728  1.0
  C  C31  1  0.33766600  0.66780053  0.32229941  1.0
  O  O32  1  0.99904460  0.00447030  0.97930991  1.0
  O  O33  1  0.86164551  0.20682406  0.84626122  1.0
  O  O34  1  0.87087136  0.06264279  0.83965505  1.0
  O  O35  1  0.63109926  0.29634648  0.61427471  1.0
  O  O36  1  0.64169317  0.43692674  0.60817777  1.0
  O  O37  1  0.21059123  0.87156830  0.84634995  1.0
  O  O38  1  0.07068421  0.86767099  0.84349035  1.0
  O  O39  1  0.29863788  0.64171597  0.61417974  1.0
  O  O40  1  0.44479842  0.63670850  0.61347143  1.0
  O  O41  1  0.86770631  0.86593503  0.18229168  1.0
  O  O42  1  0.87072913  0.86464671  0.03847198  1.0
  O  O43  1  0.63699555  0.63380392  0.27176369  1.0
  O  O44  1  0.63977962  0.63515927  0.41262942  1.0
  O  O45  1  0.20124231  0.07398837  0.84625940  1.0
  O  O46  1  0.05589027  0.21424133  0.84719965  1.0
  O  O47  1  0.28858729  0.44778652  0.61523786  1.0
  O  O48  1  0.42928481  0.30298370  0.61370237  1.0
  O  O49  1  0.85814387  0.20959830  0.04451318  1.0
  O  O50  1  0.85919369  0.06628251  0.18618704  1.0
  O  O51  1  0.62754200  0.29717832  0.41797438  1.0
  O  O52  1  0.62755710  0.43918539  0.27506022  1.0
  O  O53  1  0.20393636  0.87742320  0.04469960  1.0
  O  O54  1  0.06041841  0.87264641  0.18635126  1.0
  O  O55  1  0.29143028  0.64550004  0.41820504  1.0
  O  O56  1  0.43365877  0.63969466  0.27525273  1.0
  O  O57  1  0.49893806  0.50468154  0.47968567  1.0
