# generated using pymatgen
data_Zn2H35C43(N3O2)4
_symmetry_space_group_name_H-M   'P 1'
_cell_length_a   16.47789259
_cell_length_b   17.83817061
_cell_length_c   28.87927463
_cell_angle_alpha   90.38005933
_cell_angle_beta   89.63556273
_cell_angle_gamma   89.93434149
_symmetry_Int_Tables_number   1
_chemical_formula_structural   Zn2H35C43(N3O2)4
_chemical_formula_sum   'Zn4 H70 C86 N24 O16'
_cell_volume   8488.27839875
_cell_formula_units_Z   2
loop_
 _symmetry_equiv_pos_site_id
 _symmetry_equiv_pos_as_xyz
  1  'x, y, z'
loop_
 _atom_site_type_symbol
 _atom_site_label
 _atom_site_symmetry_multiplicity
 _atom_site_fract_x
 _atom_site_fract_y
 _atom_site_fract_z
 _atom_site_occupancy
  Zn  Zn0  1  0.58039922  0.50024531  0.49826047  1.0
  Zn  Zn1  1  0.41135891  0.50037161  0.49962692  1.0
  Zn  Zn2  1  0.41421544  0.50330855  0.88128693  1.0
  Zn  Zn3  1  0.58366233  0.50385447  0.88094222  1.0
  H  H4  1  0.28349334  0.59396601  0.54201901  1.0
  H  H5  1  0.28500458  0.40508768  0.45803211  1.0
  H  H6  1  0.70549631  0.55796871  0.56125740  1.0
  H  H7  1  0.70903067  0.43894335  0.43778615  1.0
  H  H8  1  0.62397690  0.73141847  0.47477038  1.0
  H  H9  1  0.37137589  0.74301102  0.51126442  1.0
  H  H10  1  0.62450155  0.26918474  0.52725072  1.0
  H  H11  1  0.37342440  0.25759430  0.48931107  1.0
  H  H12  1  0.60586514  0.40584246  0.77467557  1.0
  H  H13  1  0.60550744  0.40689539  0.60264100  1.0
  H  H14  1  0.40628687  0.58987288  0.64706209  1.0
  H  H15  1  0.40703141  0.59020650  0.73384460  1.0
  H  H16  1  0.37375032  0.47453587  0.03012242  1.0
  H  H17  1  0.62950547  0.51975527  0.02547783  1.0
  H  H18  1  0.37467251  0.52291887  0.35340997  1.0
  H  H19  1  0.62646413  0.46109379  0.35240183  1.0
  H  H20  1  0.71146337  0.59136022  0.83430291  1.0
  H  H21  1  0.70960074  0.41266623  0.92497827  1.0
  H  H22  1  0.28816030  0.56468214  0.82063747  1.0
  H  H23  1  0.28612951  0.43768198  0.94003696  1.0
  H  H24  1  0.37030547  0.74318100  0.89847612  1.0
  H  H25  1  0.62666518  0.73802482  0.87125538  1.0
  H  H26  1  0.37266142  0.26581185  0.85815008  1.0
  H  H27  1  0.62910462  0.26710658  0.88352118  1.0
  H  H28  1  0.06441268  0.37764070  0.46004137  1.0
  H  H29  1  0.15493051  0.34452294  0.43933892  1.0
  H  H30  1  0.06222046  0.61831106  0.54177115  1.0
  H  H31  1  0.15219768  0.65360323  0.56100245  1.0
  H  H32  1  0.93047119  0.44025215  0.42368451  1.0
  H  H33  1  0.84061460  0.41084081  0.40076340  1.0
  H  H34  1  0.92578119  0.55332114  0.57863258  1.0
  H  H35  1  0.83459317  0.58269484  0.60062381  1.0
  H  H36  1  0.37537369  0.94567162  0.52984315  1.0
  H  H37  1  0.31827004  0.86671420  0.53307989  1.0
  H  H38  1  0.64586926  0.93533434  0.46940079  1.0
  H  H39  1  0.69190893  0.85137674  0.45911701  1.0
  H  H40  1  0.37742031  0.05421018  0.47406402  1.0
  H  H41  1  0.32094221  0.13337899  0.46887734  1.0
  H  H42  1  0.64495835  0.06573232  0.53699204  1.0
  H  H43  1  0.69062441  0.14991051  0.54630184  1.0
  H  H44  1  0.64181958  0.55211842  0.15031333  1.0
  H  H45  1  0.69268751  0.55577945  0.09908812  1.0
  H  H46  1  0.36858346  0.46372154  0.15663091  1.0
  H  H47  1  0.31489785  0.45051977  0.10718300  1.0
  H  H48  1  0.63866632  0.45543188  0.22580682  1.0
  H  H49  1  0.68822807  0.43647312  0.27579227  1.0
  H  H50  1  0.37022969  0.55660501  0.22895326  1.0
  H  H51  1  0.31670502  0.56058525  0.27934202  1.0
  H  H52  1  0.92965790  0.38166291  0.92164884  1.0
  H  H53  1  0.83933241  0.35165989  0.94389294  1.0
  H  H54  1  0.93221307  0.61729586  0.83546963  1.0
  H  H55  1  0.84238389  0.64936561  0.81420856  1.0
  H  H56  1  0.06501813  0.43936065  0.95512794  1.0
  H  H57  1  0.15494131  0.40823516  0.97682656  1.0
  H  H58  1  0.06820480  0.55849368  0.80293499  1.0
  H  H59  1  0.15860800  0.59053066  0.78199892  1.0
  H  H60  1  0.63735026  0.93916654  0.84896805  1.0
  H  H61  1  0.68914223  0.85695113  0.84808272  1.0
  H  H62  1  0.36324925  0.94803793  0.90431344  1.0
  H  H63  1  0.31003526  0.86757046  0.91222941  1.0
  H  H64  1  0.63875739  0.06407066  0.89874689  1.0
  H  H65  1  0.69098079  0.14576239  0.90222465  1.0
  H  H66  1  0.36472815  0.06171686  0.84543857  1.0
  H  H67  1  0.31174608  0.14304574  0.84073226  1.0
  H  H68  1  0.76961435  0.30588947  0.73079633  1.0
  H  H69  1  0.69610916  0.30701331  0.77638023  1.0
  H  H70  1  0.68779986  0.24207920  0.72972249  1.0
  H  H71  1  0.68663334  0.24305205  0.64366018  1.0
  H  H72  1  0.69907320  0.31064825  0.59906354  1.0
  H  H73  1  0.76983012  0.30532545  0.64539088  1.0
  C  C74  1  0.49318492  0.64625358  0.49243642  1.0
  C  C75  1  0.49919174  0.51154281  0.58905425  1.0
  C  C76  1  0.49505045  0.35429094  0.50714026  1.0
  C  C77  1  0.49880562  0.48807002  0.40897248  1.0
  C  C78  1  0.49800555  0.65001518  0.88686793  1.0
  C  C79  1  0.50022792  0.51270952  0.79038778  1.0
  C  C80  1  0.50011713  0.35700011  0.87272777  1.0
  C  C81  1  0.50000943  0.49299463  0.97173150  1.0
  C  C82  1  0.24657389  0.55244398  0.52399982  1.0
  C  C83  1  0.16158895  0.55447638  0.52547903  1.0
  C  C84  1  0.11828330  0.49847846  0.50072557  1.0
  C  C85  1  0.16246626  0.44307479  0.47555733  1.0
  C  C86  1  0.24742955  0.44616423  0.47635785  1.0
  C  C87  1  0.03303088  0.49801852  0.50097357  1.0
  C  C88  1  0.95861990  0.49772069  0.50102671  1.0
  C  C89  1  0.87337352  0.49773835  0.50063156  1.0
  C  C90  1  0.82857029  0.53350635  0.53669824  1.0
  C  C91  1  0.74360955  0.53246832  0.53442511  1.0
  C  C92  1  0.74566731  0.46445197  0.46498154  1.0
  C  C93  1  0.83064093  0.46199342  0.46408090  1.0
  C  C94  1  0.49740445  0.73040776  0.49307205  1.0
  C  C95  1  0.57128002  0.76577036  0.48354218  1.0
  C  C96  1  0.57704841  0.84393456  0.48566741  1.0
  C  C97  1  0.50738241  0.88715058  0.49782399  1.0
  C  C98  1  0.43229535  0.85047733  0.50691020  1.0
  C  C99  1  0.42813550  0.77231199  0.50434988  1.0
  C  C100  1  0.51156568  0.96583919  0.50082165  1.0
  C  C101  1  0.51197471  0.03455002  0.50418647  1.0
  C  C102  1  0.50805235  0.11330850  0.50634607  1.0
  C  C103  1  0.57731224  0.15660359  0.51840658  1.0
  C  C104  1  0.57189056  0.23483192  0.51891708  1.0
  C  C105  1  0.49868103  0.27022483  0.50816660  1.0
  C  C106  1  0.42968843  0.22828941  0.49719354  1.0
  C  C107  1  0.43360277  0.15002818  0.49596332  1.0
  C  C108  1  0.50176378  0.50883950  0.73855733  1.0
  C  C109  1  0.55549234  0.45930058  0.71413788  1.0
  C  C110  1  0.44860717  0.55404693  0.71442252  1.0
  C  C111  1  0.60594825  0.40671776  0.73694531  1.0
  C  C112  1  0.65404466  0.35605293  0.71293385  1.0
  C  C113  1  0.50137846  0.50875649  0.64088424  1.0
  C  C114  1  0.44830858  0.55399008  0.66577006  1.0
  C  C115  1  0.55538250  0.45945532  0.66439111  1.0
  C  C116  1  0.60604540  0.40747366  0.64040896  1.0
  C  C117  1  0.65424081  0.35656060  0.66339736  1.0
  C  C118  1  0.50163145  0.49600212  0.02367854  1.0
  C  C119  1  0.42987815  0.48509926  0.04881099  1.0
  C  C120  1  0.43059842  0.48811211  0.09717056  1.0
  C  C121  1  0.50455607  0.50385523  0.12049580  1.0
  C  C122  1  0.57682499  0.51630813  0.09447330  1.0
  C  C123  1  0.57479210  0.51122087  0.04616669  1.0
  C  C124  1  0.50579279  0.50577983  0.16916548  1.0
  C  C125  1  0.50459339  0.50466276  0.21167413  1.0
  C  C126  1  0.50339847  0.50113091  0.26030246  1.0
  C  C127  1  0.43046344  0.51659879  0.28523391  1.0
  C  C128  1  0.42964567  0.51109398  0.33348268  1.0
  C  C129  1  0.50024937  0.49111208  0.35703775  1.0
  C  C130  1  0.57240004  0.47597833  0.33295152  1.0
  C  C131  1  0.57480630  0.48068443  0.28467219  1.0
  C  C132  1  0.74833135  0.55231484  0.85411089  1.0
  C  C133  1  0.83331032  0.55409136  0.85272780  1.0
  C  C134  1  0.87643453  0.50025447  0.87898309  1.0
  C  C135  1  0.83218291  0.44717235  0.90546705  1.0
  C  C136  1  0.74730273  0.45101359  0.90495247  1.0
  C  C137  1  0.96165816  0.49973200  0.87891465  1.0
  C  C138  1  0.03605467  0.49964739  0.87911717  1.0
  C  C139  1  0.12124678  0.49999128  0.87948217  1.0
  C  C140  1  0.16554135  0.53792619  0.84442226  1.0
  C  C141  1  0.25046053  0.53713818  0.84660857  1.0
  C  C142  1  0.24929952  0.46502836  0.91380961  1.0
  C  C143  1  0.16433800  0.46249232  0.91493209  1.0
  C  C144  1  0.49846048  0.73404295  0.88499092  1.0
  C  C145  1  0.42613892  0.77393406  0.89151204  1.0
  C  C146  1  0.42620798  0.85218464  0.88917893  1.0
  C  C147  1  0.49988104  0.89044547  0.87894857  1.0
  C  C148  1  0.57284089  0.84908751  0.87202472  1.0
  C  C149  1  0.57148799  0.77109478  0.87574352  1.0
  C  C150  1  0.50071352  0.96897650  0.87585896  1.0
  C  C151  1  0.50139916  0.03763876  0.87342740  1.0
  C  C152  1  0.50159192  0.11630746  0.87169134  1.0
  C  C153  1  0.42813736  0.15581646  0.86317303  1.0
  C  C154  1  0.42838069  0.23416265  0.86353934  1.0
  C  C155  1  0.50078099  0.27300443  0.87106703  1.0
  C  C156  1  0.57378512  0.23483067  0.87821078  1.0
  C  C157  1  0.57482759  0.15657135  0.87924675  1.0
  C  C158  1  0.70448200  0.30006780  0.73887003  1.0
  C  C159  1  0.70511197  0.30117845  0.63639330  1.0
  N  N160  1  0.28669197  0.49955934  0.50001303  1.0
  N  N161  1  0.70500191  0.49899713  0.49929620  1.0
  N  N162  1  0.70823165  0.50228234  0.87983074  1.0
  N  N163  1  0.28953825  0.50162416  0.88052289  1.0
  N  N164  1  0.12207430  0.38962252  0.44989362  1.0
  N  N165  1  0.12030850  0.60760515  0.55134596  1.0
  N  N166  1  0.87227873  0.42404664  0.42964661  1.0
  N  N167  1  0.86814249  0.57024435  0.57204195  1.0
  N  N168  1  0.36395513  0.89378717  0.51652981  1.0
  N  N169  1  0.65029467  0.88033228  0.47807586  1.0
  N  N170  1  0.36561609  0.10677410  0.48630394  1.0
  N  N171  1  0.65005454  0.12025283  0.52734431  1.0
  N  N172  1  0.64872737  0.53016383  0.11792186  1.0
  N  N173  1  0.36011248  0.47898642  0.12311897  1.0
  N  N174  1  0.64615669  0.46856896  0.25984927  1.0
  N  N175  1  0.36064360  0.53396758  0.26076281  1.0
  N  N176  1  0.87256706  0.39545538  0.93215259  1.0
  N  N177  1  0.87468144  0.60483133  0.82560101  1.0
  N  N178  1  0.12297097  0.42287098  0.94841453  1.0
  N  N179  1  0.12526488  0.57638541  0.81023702  1.0
  N  N180  1  0.64457863  0.88772278  0.86340159  1.0
  N  N181  1  0.35530378  0.89358217  0.89467256  1.0
  N  N182  1  0.64631532  0.11675543  0.88611337  1.0
  N  N183  1  0.35704561  0.11530611  0.85694391  1.0
  O  O184  1  0.55862473  0.61093839  0.48299917  1.0
  O  O185  1  0.42493709  0.61611147  0.50182472  1.0
  O  O186  1  0.43071361  0.50000820  0.57021225  1.0
  O  O187  1  0.56556958  0.52552008  0.56796029  1.0
  O  O188  1  0.42719436  0.38469707  0.49758457  1.0
  O  O189  1  0.56078298  0.38947616  0.51552764  1.0
  O  O190  1  0.56535771  0.47287980  0.42930319  1.0
  O  O191  1  0.43130825  0.50180075  0.42905612  1.0
  O  O192  1  0.42913829  0.61765378  0.88530459  1.0
  O  O193  1  0.56667020  0.61736905  0.88943281  1.0
  O  O194  1  0.56820471  0.51863267  0.81083310  1.0
  O  O195  1  0.43080993  0.51031800  0.81000525  1.0
  O  O196  1  0.56868534  0.39000421  0.87063119  1.0
  O  O197  1  0.43127898  0.38906900  0.87649878  1.0
  O  O198  1  0.43077735  0.49574958  0.95234216  1.0
  O  O199  1  0.56832851  0.48855609  0.95090953  1.0
