# generated using pymatgen
data_ErH12(CO)9
_symmetry_space_group_name_H-M   'P 1'
_cell_length_a   6.65724757
_cell_length_b   11.25751441
_cell_length_c   19.40201571
_cell_angle_alpha   73.14524265
_cell_angle_beta   88.50701246
_cell_angle_gamma   89.98456352
_symmetry_Int_Tables_number   1
_chemical_formula_structural   ErH12(CO)9
_chemical_formula_sum   'Er4 H48 C36 O36'
_cell_volume   1391.09053989
_cell_formula_units_Z   4
loop_
 _symmetry_equiv_pos_site_id
 _symmetry_equiv_pos_as_xyz
  1  'x, y, z'
loop_
 _atom_site_type_symbol
 _atom_site_label
 _atom_site_symmetry_multiplicity
 _atom_site_fract_x
 _atom_site_fract_y
 _atom_site_fract_z
 _atom_site_occupancy
  Er  Er0  1  0.19414823  0.33744227  0.74349662  1.0
  Er  Er1  1  0.30614188  0.08062112  0.25658837  1.0
  Er  Er2  1  0.80587419  0.66257094  0.25651679  1.0
  Er  Er3  1  0.69386950  0.91936624  0.74341232  1.0
  H  H4  1  0.53734914  0.21730369  0.96779593  1.0
  H  H5  1  0.96323688  0.18513596  0.03227286  1.0
  H  H6  1  0.46264105  0.78262417  0.03221513  1.0
  H  H7  1  0.03674871  0.81486610  0.96773009  1.0
  H  H8  1  0.39172220  0.98014790  0.93364117  1.0
  H  H9  1  0.10796396  0.91363285  0.06635433  1.0
  H  H10  1  0.60823299  0.01979857  0.06635037  1.0
  H  H11  1  0.89200811  0.08636730  0.93364895  1.0
  H  H12  1  0.53080715  0.17054737  0.56356564  1.0
  H  H13  1  0.96918749  0.73375365  0.43632642  1.0
  H  H14  1  0.46916041  0.82945276  0.43643765  1.0
  H  H15  1  0.03078440  0.26626410  0.56367756  1.0
  H  H16  1  0.36209528  0.42015715  0.57388035  1.0
  H  H17  1  0.13775617  0.99378094  0.42595317  1.0
  H  H18  1  0.63791465  0.57985154  0.42611682  1.0
  H  H19  1  0.86222933  0.00623687  0.57404924  1.0
  H  H20  1  0.39122136  0.30192260  0.44666171  1.0
  H  H21  1  0.10855441  0.74861777  0.55334885  1.0
  H  H22  1  0.60876715  0.69807018  0.55334379  1.0
  H  H23  1  0.89140829  0.25141012  0.44665657  1.0
  H  H24  1  0.17511159  0.53022496  0.47019352  1.0
  H  H25  1  0.32491142  0.00033390  0.52955636  1.0
  H  H26  1  0.82489526  0.46977907  0.52980546  1.0
  H  H27  1  0.67510315  0.99968040  0.47043781  1.0
  H  H28  1  0.30660697  0.61236019  0.68118855  1.0
  H  H29  1  0.19331219  0.29329508  0.31876358  1.0
  H  H30  1  0.69340552  0.38764752  0.31881599  1.0
  H  H31  1  0.80669904  0.70670709  0.68123776  1.0
  H  H32  1  0.50644632  0.53385185  0.68400495  1.0
  H  H33  1  0.99342735  0.21765362  0.31604422  1.0
  H  H34  1  0.49358432  0.46615501  0.31599764  1.0
  H  H35  1  0.00658824  0.78235412  0.68395876  1.0
  H  H36  1  0.90784000  0.52160429  0.75353175  1.0
  H  H37  1  0.59204326  0.27514264  0.24664153  1.0
  H  H38  1  0.09217150  0.47839143  0.24646601  1.0
  H  H39  1  0.40796799  0.72487160  0.75335781  1.0
  H  H40  1  0.07259693  0.55091961  0.80510597  1.0
  H  H41  1  0.42729233  0.35591598  0.19493496  1.0
  H  H42  1  0.92742777  0.44907705  0.19489676  1.0
  H  H43  1  0.57274519  0.64409570  0.80505290  1.0
  H  H44  1  0.75142046  0.28124635  0.76304130  1.0
  H  H45  1  0.74882233  0.04403699  0.23692933  1.0
  H  H46  1  0.24857918  0.71875214  0.23695344  1.0
  H  H47  1  0.25117598  0.95596430  0.76306238  1.0
  H  H48  1  0.85635021  0.16042292  0.80756879  1.0
  H  H49  1  0.64386125  0.96774008  0.19240828  1.0
  H  H50  1  0.14364779  0.83958296  0.19242732  1.0
  H  H51  1  0.35612046  0.03225743  0.80758511  1.0
  C  C52  1  0.37566915  0.22266019  0.87020400  1.0
  C  C53  1  0.12483133  0.09262828  0.12983385  1.0
  C  C54  1  0.62432868  0.77729928  0.12980079  1.0
  C  C55  1  0.87516494  0.90737385  0.87016649  1.0
  C  C56  1  0.46930612  0.15863657  0.93866238  1.0
  C  C57  1  0.03104750  0.09726194  0.06138000  1.0
  C  C58  1  0.53067681  0.84130431  0.06134293  1.0
  C  C59  1  0.96892898  0.90273914  0.93862467  1.0
  C  C60  1  0.46173325  0.03353017  0.96559484  1.0
  C  C61  1  0.03821187  0.99907918  0.03442053  1.0
  C  C62  1  0.53824452  0.96640805  0.03439700  1.0
  C  C63  1  0.96174795  0.00091903  0.96558670  1.0
  C  C64  1  0.55010237  0.22265947  0.66315159  1.0
  C  C65  1  0.94983845  0.88542194  0.33676423  1.0
  C  C66  1  0.44989989  0.77734731  0.33684849  1.0
  C  C67  1  0.05016385  0.11459135  0.66323425  1.0
  C  C68  1  0.49461991  0.24523434  0.58694794  1.0
  C  C69  1  0.00540213  0.83179729  0.41296058  1.0
  C  C70  1  0.50537315  0.75476496  0.41305596  1.0
  C  C71  1  0.99457310  0.16821682  0.58703833  1.0
  C  C72  1  0.40111489  0.34842894  0.54820526  1.0
  C  C73  1  0.09879650  0.89637852  0.45166495  1.0
  C  C74  1  0.59887687  0.65157316  0.45179509  1.0
  C  C75  1  0.90117420  0.10363649  0.54833434  1.0
  C  C76  1  0.34284491  0.36871174  0.47479624  1.0
  C  C77  1  0.15702563  0.84344724  0.52509934  1.0
  C  C78  1  0.65714235  0.63128942  0.52520427  1.0
  C  C79  1  0.84294327  0.15657886  0.47490327  1.0
  C  C80  1  0.22706185  0.46579831  0.44111466  1.0
  C  C81  1  0.27292957  0.90691164  0.55869673  1.0
  C  C82  1  0.77293755  0.53420664  0.55888314  1.0
  C  C83  1  0.72707125  0.09310813  0.44130069  1.0
  C  C84  1  0.15449218  0.49213281  0.36705638  1.0
  C  C85  1  0.34554968  0.85935188  0.63274998  1.0
  C  C86  1  0.84551753  0.50787585  0.63294440  1.0
  C  C87  1  0.65446035  0.14065869  0.36724533  1.0
  O  O88  1  0.28602359  0.15905423  0.83400811  1.0
  O  O89  1  0.21404009  0.99266932  0.16604283  1.0
  O  O90  1  0.71398059  0.84092479  0.16598881  1.0
  O  O91  1  0.78595317  0.00732907  0.83395813  1.0
  O  O92  1  0.37586917  0.34116834  0.84665218  1.0
  O  O93  1  0.12509915  0.18762803  0.15336634  1.0
  O  O94  1  0.62414796  0.65880136  0.15335502  1.0
  O  O95  1  0.87491972  0.81237512  0.84663276  1.0
  O  O96  1  0.50742669  0.30288248  0.69673482  1.0
  O  O97  1  0.99282334  0.99914082  0.30319043  1.0
  O  O98  1  0.49258897  0.69712711  0.30326683  1.0
  O  O99  1  0.00717792  0.00086698  0.69680123  1.0
  O  O100  1  0.64333503  0.12361212  0.69184975  1.0
  O  O101  1  0.85610358  0.81526556  0.30806886  1.0
  O  O102  1  0.35667032  0.87639469  0.30814877  1.0
  O  O103  1  0.14393214  0.18474143  0.69192442  1.0
  O  O104  1  0.00847144  0.56662048  0.35138764  1.0
  O  O105  1  0.49156317  0.91818543  0.64839428  1.0
  O  O106  1  0.99153843  0.43338913  0.64861041  1.0
  O  O107  1  0.50845749  0.08182149  0.35159955  1.0
  O  O108  1  0.23873120  0.44102428  0.32210463  1.0
  O  O109  1  0.26126132  0.76341358  0.67775859  1.0
  O  O110  1  0.76128432  0.55898250  0.67789955  1.0
  O  O111  1  0.73876658  0.23659610  0.32223942  1.0
  O  O112  1  0.35740400  0.52705051  0.68870616  1.0
  O  O113  1  0.14246839  0.21545032  0.31134107  1.0
  O  O114  1  0.64261996  0.47295436  0.31130759  1.0
  O  O115  1  0.85754428  0.78455093  0.68866144  1.0
  O  O116  1  0.01326363  0.48493278  0.78913279  1.0
  O  O117  1  0.48658017  0.27395406  0.21109167  1.0
  O  O118  1  0.98675064  0.51507033  0.21086787  1.0
  O  O119  1  0.51343564  0.72605279  0.78890785  1.0
  O  O120  1  0.87364932  0.25249379  0.79027794  1.0
  O  O121  1  0.62658471  0.04254216  0.20969193  1.0
  O  O122  1  0.12635188  0.74751214  0.20971506  1.0
  O  O123  1  0.37341820  0.95745824  0.79029837  1.0
