# generated using pymatgen
data_ZnH10C18Br2NO4
_symmetry_space_group_name_H-M   'P 1'
_cell_length_a   11.13090327
_cell_length_b   16.22282039
_cell_length_c   17.57170931
_cell_angle_alpha   83.97772259
_cell_angle_beta   89.77274802
_cell_angle_gamma   87.57990824
_symmetry_Int_Tables_number   1
_chemical_formula_structural   ZnH10C18Br2NO4
_chemical_formula_sum   'Zn2 H20 C36 Br4 N2 O8'
_cell_volume   3152.67913355
_cell_formula_units_Z   2
loop_
 _symmetry_equiv_pos_site_id
 _symmetry_equiv_pos_as_xyz
  1  'x, y, z'
loop_
 _atom_site_type_symbol
 _atom_site_label
 _atom_site_symmetry_multiplicity
 _atom_site_fract_x
 _atom_site_fract_y
 _atom_site_fract_z
 _atom_site_occupancy
  Zn  Zn0  1  0.50490984  0.41501099  0.50392004  1.0
  Zn  Zn1  1  0.49437891  0.58571861  0.49599853  1.0
  H  H2  1  0.61897955  0.71058317  0.57381943  1.0
  H  H3  1  0.61663270  0.86408526  0.57294493  1.0
  H  H4  1  0.33892471  0.87838319  0.39937969  1.0
  H  H5  1  0.35296507  0.72297040  0.40885946  1.0
  H  H6  1  0.64924390  0.12175263  0.60792104  1.0
  H  H7  1  0.39705362  0.13640485  0.41936069  1.0
  H  H8  1  0.39638148  0.29009357  0.41718179  1.0
  H  H9  1  0.63135115  0.27707452  0.60003626  1.0
  H  H10  1  0.40217889  0.00474201  0.43802373  1.0
  H  H11  1  0.59759901  0.99552943  0.56271679  1.0
  H  H12  1  0.48829854  0.61732195  0.73429672  1.0
  H  H13  1  0.48903495  0.61098834  0.87576190  1.0
  H  H14  1  0.51658726  0.34358704  0.88997357  1.0
  H  H15  1  0.52079579  0.35199481  0.74736785  1.0
  H  H16  1  0.49400393  0.65470955  0.11034202  1.0
  H  H17  1  0.49938377  0.38734532  0.12393072  1.0
  H  H18  1  0.49571949  0.38056323  0.26536560  1.0
  H  H19  1  0.49529093  0.64583732  0.25303491  1.0
  H  H20  1  0.50587227  0.40390538  0.00390231  1.0
  H  H21  1  0.49527283  0.59451077  0.99614227  1.0
  C  C22  1  0.50556695  0.49033444  0.64686184  1.0
  C  C23  1  0.73317994  0.50238376  0.49696959  1.0
  C  C24  1  0.49440649  0.50793584  0.35313955  1.0
  C  C25  1  0.26604887  0.50144595  0.50295712  1.0
  C  C26  1  0.55825141  0.75080431  0.53652430  1.0
  C  C27  1  0.55612223  0.83640763  0.53524227  1.0
  C  C28  1  0.47669683  0.88554305  0.48538816  1.0
  C  C29  1  0.40245238  0.84365720  0.43895018  1.0
  C  C30  1  0.40968068  0.75759536  0.44347759  1.0
  C  C31  1  0.46803799  0.97582508  0.47962962  1.0
  C  C32  1  0.53256769  0.02444152  0.52056688  1.0
  C  C33  1  0.59080432  0.15654339  0.56521106  1.0
  C  C34  1  0.52379297  0.11471842  0.51468707  1.0
  C  C35  1  0.45141777  0.16399796  0.46059211  1.0
  C  C36  1  0.44950260  0.24964270  0.45896990  1.0
  C  C37  1  0.58231126  0.24258386  0.56107032  1.0
  C  C38  1  0.50554746  0.48513577  0.73219909  1.0
  C  C39  1  0.49578868  0.55775091  0.76927673  1.0
  C  C40  1  0.49573630  0.55358849  0.84851345  1.0
  C  C41  1  0.50328180  0.47636883  0.89391700  1.0
  C  C42  1  0.51170444  0.40393187  0.85587462  1.0
  C  C43  1  0.51388307  0.40811500  0.77644779  1.0
  C  C44  1  0.50229071  0.46800574  0.97720017  1.0
  C  C45  1  0.49786149  0.53040196  0.02280069  1.0
  C  C46  1  0.49491823  0.59429110  0.14428956  1.0
  C  C47  1  0.49665606  0.52195604  0.10608574  1.0
  C  C48  1  0.49738556  0.44465550  0.15133474  1.0
  C  C49  1  0.49548865  0.44028059  0.23058866  1.0
  C  C50  1  0.49473228  0.51278378  0.26781959  1.0
  C  C51  1  0.49508712  0.58989515  0.22371345  1.0
  C  C52  1  0.87049544  0.50156714  0.49720956  1.0
  C  C53  1  0.12886533  0.50081122  0.50280030  1.0
  C  C54  1  0.93277237  0.57598731  0.49310582  1.0
  C  C55  1  0.06738046  0.42707890  0.49915000  1.0
  C  C56  1  0.05789651  0.57477122  0.50427817  1.0
  C  C57  1  0.94099656  0.42675893  0.50357460  1.0
  Br  Br58  1  0.85251380  0.68089065  0.46579417  1.0
  Br  Br59  1  0.15195797  0.32556241  0.48436672  1.0
  Br  Br60  1  0.12731327  0.67433843  0.52787793  1.0
  Br  Br61  1  0.86989763  0.32189671  0.52249576  1.0
  N  N62  1  0.48641104  0.71200399  0.49138196  1.0
  N  N63  1  0.51318028  0.28838539  0.50863946  1.0
  O  O64  1  0.54214819  0.42584201  0.61607946  1.0
  O  O65  1  0.46856326  0.55902528  0.61082252  1.0
  O  O66  1  0.67825918  0.56365131  0.52268891  1.0
  O  O67  1  0.68365666  0.44179365  0.47194881  1.0
  O  O68  1  0.52292309  0.57274994  0.38307478  1.0
  O  O69  1  0.46590330  0.43941612  0.39001075  1.0
  O  O70  1  0.32297823  0.43742583  0.53370353  1.0
  O  O71  1  0.31310617  0.56618410  0.47140860  1.0
