# generated using pymatgen
data_ZnH18C25(NO4)2
_symmetry_space_group_name_H-M   'P 1'
_cell_length_a   12.62671071
_cell_length_b   13.82826296
_cell_length_c   23.72346213
_cell_angle_alpha   87.32373201
_cell_angle_beta   85.74355738
_cell_angle_gamma   86.19652129
_symmetry_Int_Tables_number   1
_chemical_formula_structural   ZnH18C25(NO4)2
_chemical_formula_sum   'Zn2 H36 C50 N4 O16'
_cell_volume   4118.09003962
_cell_formula_units_Z   2
loop_
 _symmetry_equiv_pos_site_id
 _symmetry_equiv_pos_as_xyz
  1  'x, y, z'
loop_
 _atom_site_type_symbol
 _atom_site_label
 _atom_site_symmetry_multiplicity
 _atom_site_fract_x
 _atom_site_fract_y
 _atom_site_fract_z
 _atom_site_occupancy
  Zn  Zn0  1  0.60913020  0.50773530  0.49508206  1.0
  Zn  Zn1  1  0.39290015  0.48898481  0.50584582  1.0
  H  H2  1  0.49621737  0.26676589  0.06578166  1.0
  H  H3  1  0.37930256  0.02568080  0.50366151  1.0
  H  H4  1  0.98874822  0.41389299  0.54606293  1.0
  H  H5  1  0.01351099  0.58042682  0.45379793  1.0
  H  H6  1  0.34990687  0.25264010  0.92605735  1.0
  H  H7  1  0.35228475  0.19191060  0.99447664  1.0
  H  H8  1  0.46315463  0.05187475  0.94941856  1.0
  H  H9  1  0.33633733  0.07171617  0.92113216  1.0
  H  H10  1  0.45212605  0.11264591  0.88184617  1.0
  H  H11  1  0.35204687  0.79374031  0.07403313  1.0
  H  H12  1  0.38125094  0.84763436  0.00482349  1.0
  H  H13  1  0.51389957  0.74376881  0.93480164  1.0
  H  H14  1  0.49447564  0.96549317  0.04817157  1.0
  H  H15  1  0.35998037  0.97484789  0.07701530  1.0
  H  H16  1  0.46000607  0.91199625  0.11643811  1.0
  H  H17  1  0.27041113  0.32697679  0.83141881  1.0
  H  H18  1  0.31946474  0.32765877  0.75927445  1.0
  H  H19  1  0.12033962  0.44654026  0.80564265  1.0
  H  H20  1  0.16533751  0.44049819  0.73354653  1.0
  H  H21  1  0.13907050  0.25958369  0.73771795  1.0
  H  H22  1  0.01830019  0.32642918  0.75793715  1.0
  H  H23  1  0.09466993  0.26577416  0.81022212  1.0
  H  H24  1  0.34656419  0.45485147  0.68734674  1.0
  H  H25  1  0.19663332  0.55461852  0.16695879  1.0
  H  H26  1  0.29794042  0.63101132  0.18347426  1.0
  H  H27  1  0.11784196  0.56052345  0.26605672  1.0
  H  H28  1  0.22039937  0.63233306  0.28422104  1.0
  H  H29  1  0.16101775  0.76612903  0.21596213  1.0
  H  H30  1  0.05423608  0.73737589  0.26538535  1.0
  H  H31  1  0.05883758  0.69538503  0.19570482  1.0
  H  H32  1  0.32569534  0.48638509  0.32776422  1.0
  H  H33  1  0.67279874  0.52755127  0.67107496  1.0
  H  H34  1  0.65962184  0.53428152  0.31474808  1.0
  H  H35  1  0.67275581  0.53220193  0.77688472  1.0
  H  H36  1  0.65928865  0.53894178  0.20868163  1.0
  H  H37  1  0.62110647  0.97137826  0.49698369  1.0
  C  C38  1  0.54727513  0.31197081  0.49825547  1.0
  C  C39  1  0.58696128  0.52574404  0.29400662  1.0
  C  C40  1  0.60196100  0.51465850  0.75680096  1.0
  C  C41  1  0.58650152  0.52848452  0.23535941  1.0
  C  C42  1  0.51056943  0.49450669  0.79075047  1.0
  C  C43  1  0.49249537  0.51672630  0.20988583  1.0
  C  C44  1  0.44382116  0.78946717  0.50285172  1.0
  C  C45  1  0.55847092  0.20752959  0.49805901  1.0
  C  C46  1  0.45221825  0.97833199  0.50178823  1.0
  C  C47  1  0.54829974  0.01886975  0.49886821  1.0
  C  C48  1  0.55638887  0.11944309  0.49832614  1.0
  C  C49  1  0.45608806  0.68507334  0.50258519  1.0
  C  C50  1  0.44465574  0.87766246  0.50250609  1.0
  C  C51  1  0.97366012  0.52888548  0.48304908  1.0
  C  C52  1  0.02857538  0.46548776  0.51683828  1.0
  C  C53  1  0.50764773  0.49094569  0.61033181  1.0
  C  C54  1  0.49329314  0.50641322  0.39067737  1.0
  C  C55  1  0.14067517  0.46410011  0.51558501  1.0
  C  C56  1  0.86152344  0.53079005  0.48451534  1.0
  C  C57  1  0.48476364  0.60442642  0.11851940  1.0
  C  C58  1  0.49954556  0.40785695  0.88241645  1.0
  C  C59  1  0.49846028  0.42229199  0.12636386  1.0
  C  C60  1  0.41775195  0.47185347  0.76633098  1.0
  C  C61  1  0.51199085  0.58881594  0.87420560  1.0
  C  C62  1  0.49579948  0.42150780  0.06409197  1.0
  C  C63  1  0.50569496  0.58981739  0.93676514  1.0
  C  C64  1  0.49649069  0.50893867  0.03044362  1.0
  C  C65  1  0.49956451  0.50263230  0.97044041  1.0
  C  C66  1  0.49490847  0.60033439  0.05595494  1.0
  C  C67  1  0.49738319  0.41153918  0.94494506  1.0
  C  C68  1  0.49540038  0.33317864  0.03913309  1.0
  C  C69  1  0.50707481  0.67808419  0.96174196  1.0
  C  C70  1  0.49514395  0.32669047  0.98005406  1.0
  C  C71  1  0.39723448  0.50286195  0.24289077  1.0
  C  C72  1  0.50158513  0.68486865  0.02096480  1.0
  C  C73  1  0.39534877  0.19942363  0.95237473  1.0
  C  C74  1  0.41326297  0.10313497  0.92447870  1.0
  C  C75  1  0.41092201  0.83391750  0.04729327  1.0
  C  C76  1  0.43311441  0.92706042  0.07381381  1.0
  C  C77  1  0.27318080  0.37097666  0.79143063  1.0
  C  C78  1  0.16129369  0.39841874  0.77414840  1.0
  C  C79  1  0.09986100  0.30771982  0.76966015  1.0
  C  C80  1  0.24384751  0.57598257  0.20096295  1.0
  C  C81  1  0.17151199  0.61655321  0.24962202  1.0
  C  C82  1  0.41800647  0.47007099  0.70753938  1.0
  C  C83  1  0.10786416  0.70880383  0.23064317  1.0
  C  C84  1  0.39844828  0.49925620  0.30167947  1.0
  C  C85  1  0.50976416  0.49020791  0.67347392  1.0
  C  C86  1  0.49283337  0.51057653  0.32741124  1.0
  C  C87  1  0.60217793  0.51203304  0.69825697  1.0
  N  N88  1  0.49424645  0.51463322  0.14920133  1.0
  N  N89  1  0.51004940  0.49718533  0.85126224  1.0
  N  N90  1  0.76936246  0.53237662  0.48579837  1.0
  N  N91  1  0.23275146  0.46344303  0.51468307  1.0
  O  O92  1  0.63141005  0.35851356  0.49547982  1.0
  O  O93  1  0.49358044  0.33325229  0.85704264  1.0
  O  O94  1  0.50438877  0.34811996  0.15677859  1.0
  O  O95  1  0.51805465  0.66299034  0.84380090  1.0
  O  O96  1  0.49847409  0.23583125  0.95966972  1.0
  O  O97  1  0.50968285  0.77388265  0.04210132  1.0
  O  O98  1  0.33008021  0.45495348  0.80188366  1.0
  O  O99  1  0.30555819  0.48811643  0.21724421  1.0
  O  O100  1  0.37231910  0.63780950  0.50734661  1.0
  O  O101  1  0.45120936  0.34740458  0.50133214  1.0
  O  O102  1  0.55225967  0.65035530  0.49743197  1.0
  O  O103  1  0.59595399  0.50013232  0.58141199  1.0
  O  O104  1  0.40403845  0.50021082  0.41908933  1.0
  O  O105  1  0.41780217  0.48297543  0.59029612  1.0
  O  O106  1  0.58343522  0.50951892  0.41123223  1.0
  O  O107  1  0.46754212  0.67966097  0.14428094  1.0
