# generated using pymatgen
data_AlH9C24(ClO)6
_symmetry_space_group_name_H-M   'P 1'
_cell_length_a   3.99051077
_cell_length_b   28.79694991
_cell_length_c   28.79691753
_cell_angle_alpha   119.99994339
_cell_angle_beta   90.00000400
_cell_angle_gamma   89.99957577
_symmetry_Int_Tables_number   1
_chemical_formula_structural   AlH9C24(ClO)6
_chemical_formula_sum   'Al2 H18 C48 Cl12 O12'
_cell_volume   2865.83947363
_cell_formula_units_Z   2
loop_
 _symmetry_equiv_pos_site_id
 _symmetry_equiv_pos_as_xyz
  1  'x, y, z'
loop_
 _atom_site_type_symbol
 _atom_site_label
 _atom_site_symmetry_multiplicity
 _atom_site_fract_x
 _atom_site_fract_y
 _atom_site_fract_z
 _atom_site_occupancy
  Al  Al0  1  0.99993466  0.00000090  0.50000075  1.0
  Al  Al1  1  0.99993178  0.33333529  0.16666770  1.0
  H  H2  1  0.49854586  0.58662542  0.35669486  1.0
  H  H3  1  0.50172107  0.57747830  0.20203996  1.0
  H  H4  1  0.50172656  0.75586421  0.46464971  1.0
  H  H5  1  0.49854920  0.74670345  0.30998973  1.0
  H  H6  1  0.50001485  0.66244875  0.27790270  1.0
  H  H7  1  0.50002219  0.67088975  0.38879364  1.0
  H  H8  1  0.49855141  0.14330754  0.22993102  1.0
  H  H9  1  0.50172249  0.29796146  0.37543852  1.0
  H  H10  1  0.50172175  0.03535088  0.29121365  1.0
  H  H11  1  0.49855780  0.19001043  0.43671320  1.0
  H  H12  1  0.50002042  0.22209846  0.38454644  1.0
  H  H13  1  0.50002325  0.11120828  0.28209529  1.0
  H  H14  1  0.49855339  0.27006999  0.91337616  1.0
  H  H15  1  0.50171967  0.12456398  0.92252361  1.0
  H  H16  1  0.50172494  0.20878906  0.74413858  1.0
  H  H17  1  0.49855870  0.06328867  0.75329821  1.0
  H  H18  1  0.50001583  0.11545574  0.83755255  1.0
  H  H19  1  0.50002570  0.21790693  0.82911306  1.0
  C  C20  1  0.49994990  0.04515078  0.58260225  1.0
  C  C21  1  0.49994816  0.91740018  0.46254804  1.0
  C  C22  1  0.49994504  0.03745279  0.45485145  1.0
  C  C23  1  0.49993100  0.41593590  0.20412904  1.0
  C  C24  1  0.49992911  0.29587528  0.21180912  1.0
  C  C25  1  0.49993427  0.28819453  0.08406590  1.0
  C  C26  1  0.49986430  0.47606805  0.23126042  1.0
  C  C27  1  0.50170535  0.50848085  0.28763604  1.0
  C  C28  1  0.50057123  0.56413125  0.31304118  1.0
  C  C29  1  0.50021469  0.59032527  0.28291759  1.0
  C  C30  1  0.49968925  0.55860858  0.22676362  1.0
  C  C31  1  0.49821218  0.50285553  0.20166309  1.0
  C  C32  1  0.50018563  0.64843208  0.30688676  1.0
  C  C33  1  0.50019222  0.68490440  0.35981031  1.0
  C  C34  1  0.49970126  0.77473272  0.43992718  1.0
  C  C35  1  0.50023583  0.74300961  0.38377139  1.0
  C  C36  1  0.50057344  0.76920042  0.35364272  1.0
  C  C37  1  0.50171472  0.82485002  0.37904711  1.0
  C  C38  1  0.49988205  0.85726603  0.43542261  1.0
  C  C39  1  0.49823384  0.83048337  0.46502269  1.0
  C  C40  1  0.49986467  0.26874336  0.24481030  1.0
  C  C41  1  0.50171212  0.21236711  0.22084606  1.0
  C  C42  1  0.50056757  0.18696182  0.25108968  1.0
  C  C43  1  0.50021598  0.21708582  0.30740956  1.0
  C  C44  1  0.49969330  0.27323946  0.33184640  1.0
  C  C45  1  0.49821914  0.29833961  0.30119289  1.0
  C  C46  1  0.50019156  0.19311484  0.34154568  1.0
  C  C47  1  0.50019793  0.14019109  0.32509391  1.0
  C  C48  1  0.49969632  0.06007370  0.33480375  1.0
  C  C49  1  0.50023866  0.11622892  0.35923721  1.0
  C  C50  1  0.50057621  0.14635695  0.41555668  1.0
  C  C51  1  0.50171458  0.12095205  0.44580119  1.0
  C  C52  1  0.49987917  0.06457709  0.42184160  1.0
  C  C53  1  0.49823101  0.03497796  0.36545981  1.0
  C  C54  1  0.49986745  0.25519309  0.02393343  1.0
  C  C55  1  0.50171318  0.27915658  0.99152004  1.0
  C  C56  1  0.50057123  0.24891349  0.93587159  1.0
  C  C57  1  0.50021935  0.19259265  0.90967597  1.0
  C  C58  1  0.49969374  0.16815573  0.94139347  1.0
  C  C59  1  0.49821947  0.19880982  0.99714706  1.0
  C  C60  1  0.50019766  0.15845603  0.85156925  1.0
  C  C61  1  0.50019722  0.17490825  0.81509752  1.0
  C  C62  1  0.49969875  0.16519813  0.72527017  1.0
  C  C63  1  0.50023818  0.14076442  0.75699205  1.0
  C  C64  1  0.50057292  0.08444438  0.73080100  1.0
  C  C65  1  0.50171389  0.05420128  0.67515289  1.0
  C  C66  1  0.49987890  0.07816104  0.64273566  1.0
  C  C67  1  0.49823355  0.13454323  0.66951861  1.0
  Cl  Cl68  1  0.50813661  0.46729102  0.13254410  1.0
  Cl  Cl69  1  0.49114607  0.47944790  0.32749206  1.0
  Cl  Cl70  1  0.49114137  0.85387898  0.33918528  1.0
  Cl  Cl71  1  0.50815649  0.86605308  0.53414185  1.0
  Cl  Cl72  1  0.50814429  0.36745860  0.33474829  1.0
  Cl  Cl73  1  0.49115146  0.17251180  0.15195676  1.0
  Cl  Cl74  1  0.49114099  0.16081386  0.51469219  1.0
  Cl  Cl75  1  0.50815132  0.96585824  0.33191014  1.0
  Cl  Cl76  1  0.50813940  0.16525489  0.03271107  1.0
  Cl  Cl77  1  0.49115187  0.34804442  0.02055271  1.0
  Cl  Cl78  1  0.49114058  0.98531012  0.64612179  1.0
  Cl  Cl79  1  0.50815120  0.16809283  0.63394891  1.0
  O  O80  1  0.26308899  0.00480677  0.44694740  1.0
  O  O81  1  0.26308778  0.05305427  0.55785995  1.0
  O  O82  1  0.26309063  0.94214162  0.49519419  1.0
  O  O83  1  0.73683924  0.04891302  0.48835051  1.0
  O  O84  1  0.73684207  0.93943829  0.45108795  1.0
  O  O85  1  0.73684024  0.01165234  0.56056358  1.0
  O  O86  1  0.26309513  0.28028576  0.10880695  1.0
  O  O87  1  0.26309228  0.39119601  0.17147950  1.0
  O  O88  1  0.26308891  0.32852403  0.21971766  1.0
  O  O89  1  0.73684043  0.32169102  0.10610707  1.0
  O  O90  1  0.73683641  0.28441952  0.17831195  1.0
  O  O91  1  0.73683609  0.39389546  0.21558449  1.0
