# generated using pymatgen
data_AlH6C11SO6
_symmetry_space_group_name_H-M   'P 1'
_cell_length_a   6.59827003
_cell_length_b   12.41838432
_cell_length_c   15.22945773
_cell_angle_alpha   73.39328206
_cell_angle_beta   78.77039024
_cell_angle_gamma   79.25002639
_symmetry_Int_Tables_number   1
_chemical_formula_structural   AlH6C11SO6
_chemical_formula_sum   'Al2 H12 C22 S2 O12'
_cell_volume   1161.52936592
_cell_formula_units_Z   2
loop_
 _symmetry_equiv_pos_site_id
 _symmetry_equiv_pos_as_xyz
  1  'x, y, z'
loop_
 _atom_site_type_symbol
 _atom_site_label
 _atom_site_symmetry_multiplicity
 _atom_site_fract_x
 _atom_site_fract_y
 _atom_site_fract_z
 _atom_site_occupancy
  Al  Al0  1  0.49995311  0.50003892  0.49997483  1.0
  Al  Al1  1  0.99996434  0.50006749  0.49998680  1.0
  H  H2  1  0.23978048  0.63707692  0.42512375  1.0
  H  H3  1  0.76018833  0.36302333  0.57486027  1.0
  H  H4  1  0.18204385  0.53050826  0.22914312  1.0
  H  H5  1  0.27525184  0.53214244  0.06424742  1.0
  H  H6  1  0.81811133  0.46941687  0.77088628  1.0
  H  H7  1  0.72496935  0.46768777  0.93579639  1.0
  H  H8  1  0.43263460  0.53736940  0.76974949  1.0
  H  H9  1  0.34410800  0.53692836  0.93443992  1.0
  H  H10  1  0.56752086  0.46252410  0.23024954  1.0
  H  H11  1  0.65614800  0.46287506  0.06557406  1.0
  H  H12  1  0.85576747  0.10721224  0.55218894  1.0
  H  H13  1  0.14403786  0.89285941  0.44783086  1.0
  C  C14  1  0.68925621  0.70013428  0.48486820  1.0
  C  C15  1  0.81287864  0.50007117  0.33895801  1.0
  C  C16  1  0.31064176  0.29996384  0.51510815  1.0
  C  C17  1  0.18706801  0.49998971  0.66102360  1.0
  C  C18  1  0.86859132  0.49734879  0.23994174  1.0
  C  C19  1  0.13150672  0.50259033  0.76008029  1.0
  C  C20  1  0.06829473  0.51589004  0.19207901  1.0
  C  C21  1  0.11896832  0.51656283  0.09901589  1.0
  C  C22  1  0.93186557  0.48397528  0.80794305  1.0
  C  C23  1  0.88126287  0.48328034  0.90100838  1.0
  C  C24  1  0.27790798  0.52201328  0.80723093  1.0
  C  C25  1  0.22608941  0.52136248  0.90028741  1.0
  C  C26  1  0.72224488  0.47787075  0.19278163  1.0
  C  C27  1  0.77416663  0.47843749  0.09973921  1.0
  C  C28  1  0.97327176  0.49864537  0.04988898  1.0
  C  C29  1  0.02698602  0.50117311  0.95014883  1.0
  C  C30  1  0.57314486  0.11768959  0.52968131  1.0
  C  C31  1  0.42666571  0.88238430  0.47033525  1.0
  C  C32  1  0.38054892  0.18202156  0.51249618  1.0
  C  C33  1  0.61933676  0.81807771  0.48749984  1.0
  C  C34  1  0.41097629  0.99168561  0.48562546  1.0
  C  C35  1  0.58879462  0.00838415  0.51439067  1.0
  S  S36  1  0.22343042  0.10996902  0.47546640  1.0
  S  S37  1  0.77636499  0.89011676  0.52453450  1.0
  O  O38  1  0.55967403  0.65100400  0.46384163  1.0
  O  O39  1  0.95084681  0.52534873  0.37512588  1.0
  O  O40  1  0.12859650  0.34527101  0.49629233  1.0
  O  O41  1  0.36857564  0.52116943  0.62024727  1.0
  O  O42  1  0.44024892  0.34907321  0.53614488  1.0
  O  O43  1  0.04899137  0.47478966  0.62485177  1.0
  O  O44  1  0.87132608  0.65487853  0.50368435  1.0
  O  O45  1  0.63133814  0.47889652  0.37969902  1.0
  O  O46  1  0.25136405  0.55566226  0.45183089  1.0
  O  O47  1  0.74854587  0.44444673  0.54812339  1.0
  O  O48  1  0.72126564  0.15606709  0.55790458  1.0
  O  O49  1  0.27855402  0.84399623  0.44208757  1.0
