# generated using pymatgen
data_Al2H15C22Cl3O10
_symmetry_space_group_name_H-M   'P 1'
_cell_length_a   6.73533732
_cell_length_b   17.92937655
_cell_length_c   20.78914632
_cell_angle_alpha   72.42231106
_cell_angle_beta   89.99842530
_cell_angle_gamma   89.99948697
_symmetry_Int_Tables_number   1
_chemical_formula_structural   Al2H15C22Cl3O10
_chemical_formula_sum   'Al4 H30 C44 Cl6 O20'
_cell_volume   2393.28592647
_cell_formula_units_Z   2
loop_
 _symmetry_equiv_pos_site_id
 _symmetry_equiv_pos_as_xyz
  1  'x, y, z'
loop_
 _atom_site_type_symbol
 _atom_site_label
 _atom_site_symmetry_multiplicity
 _atom_site_fract_x
 _atom_site_fract_y
 _atom_site_fract_z
 _atom_site_occupancy
  Al  Al0  1  0.09961041  0.50015288  0.49892400  1.0
  Al  Al1  1  0.59961051  0.49984863  0.50107861  1.0
  Al  Al2  1  0.65899890  0.99987906  0.00094511  1.0
  Al  Al3  1  0.15899855  0.00012534  0.99904993  1.0
  H  H4  1  0.83061104  0.11200231  0.29725890  1.0
  H  H5  1  0.33061198  0.88799869  0.70273773  1.0
  H  H6  1  0.19959569  0.24571579  0.20083473  1.0
  H  H7  1  0.69958997  0.75428566  0.79914542  1.0
  H  H8  1  0.15698131  0.15649346  0.26421628  1.0
  H  H9  1  0.65699407  0.84350886  0.73576674  1.0
  H  H10  1  0.11004411  0.22047002  0.34464989  1.0
  H  H11  1  0.61001616  0.77952852  0.65533658  1.0
  H  H12  1  0.65969158  0.28313230  0.15408452  1.0
  H  H13  1  0.15970595  0.71687181  0.84592962  1.0
  H  H14  1  0.66156895  0.36688796  0.22070481  1.0
  H  H15  1  0.16155816  0.63311430  0.77930984  1.0
  H  H16  1  0.56750758  0.24485618  0.30176003  1.0
  H  H17  1  0.06749087  0.75514347  0.69825344  1.0
  H  H18  1  0.91674599  0.38797395  0.20381541  1.0
  H  H19  1  0.41673715  0.61202877  0.79618348  1.0
  H  H20  1  0.39986882  0.15885550  0.40336782  1.0
  H  H21  1  0.51493818  0.07866491  0.38495201  1.0
  H  H22  1  0.54101192  0.09065734  0.46639006  1.0
  H  H23  1  0.85304912  0.13593662  0.40129160  1.0
  H  H24  1  0.72948583  0.21471383  0.41832483  1.0
  H  H25  1  0.89983576  0.84112567  0.59664554  1.0
  H  H26  1  0.01487177  0.92132378  0.61505649  1.0
  H  H27  1  0.04096766  0.90933077  0.53361823  1.0
  H  H28  1  0.35301353  0.86406952  0.59870277  1.0
  H  H29  1  0.22946819  0.78528359  0.58168025  1.0
  H  H30  1  0.35071234  0.40208956  0.50093495  1.0
  H  H31  1  0.85070614  0.59791066  0.49907207  1.0
  H  H32  1  0.40784343  0.09745031  0.00045203  1.0
  H  H33  1  0.90784105  0.90255387  0.99954591  1.0
  C  C34  1  0.34716772  0.57810800  0.57617207  1.0
  C  C35  1  0.84718059  0.42188130  0.42383761  1.0
  C  C36  1  0.35167833  0.60688648  0.39622671  1.0
  C  C37  1  0.85168216  0.39311361  0.60377075  1.0
  C  C38  1  0.85791431  0.33210652  0.66753775  1.0
  C  C39  1  0.35791473  0.66788937  0.33245720  1.0
  C  C40  1  0.87217464  0.27969216  0.72096092  1.0
  C  C41  1  0.37218008  0.72030438  0.27903691  1.0
  C  C42  1  0.88723652  0.22173621  0.77986090  1.0
  C  C43  1  0.38723547  0.77826625  0.22013573  1.0
  C  C44  1  0.90119991  0.16911524  0.83315217  1.0
  C  C45  1  0.40117714  0.83089488  0.16684476  1.0
  C  C46  1  0.75576915  0.16626311  0.26852612  1.0
  C  C47  1  0.25577021  0.83373945  0.73147666  1.0
  C  C48  1  0.09653337  0.21514125  0.24081438  1.0
  C  C49  1  0.59653344  0.78486049  0.75917268  1.0
  C  C50  1  0.07611591  0.25864926  0.29381228  1.0
  C  C51  1  0.57610217  0.74135250  0.70617495  1.0
  C  C52  1  0.84427602  0.37656734  0.37720136  1.0
  C  C53  1  0.34425076  0.62342094  0.62281138  1.0
  C  C54  1  0.89408213  0.20762833  0.20854929  1.0
  C  C55  1  0.39408480  0.79237616  0.79144626  1.0
  C  C56  1  0.71571816  0.21872485  0.31397152  1.0
  C  C57  1  0.21570345  0.78127668  0.68603312  1.0
  C  C58  1  0.86184314  0.29027943  0.29318540  1.0
  C  C59  1  0.36182367  0.70972024  0.70681651  1.0
  C  C60  1  0.80832655  0.34044213  0.22052349  1.0
  C  C61  1  0.30831816  0.65956122  0.77948135  1.0
  C  C62  1  0.80917692  0.28999367  0.17232593  1.0
  C  C63  1  0.30918113  0.71001057  0.82767789  1.0
  C  C64  1  0.84557869  0.33723286  0.33882179  1.0
  C  C65  1  0.34555820  0.66276233  0.66118533  1.0
  C  C66  1  0.91084992  0.16134604  0.16231078  1.0
  C  C67  1  0.41085802  0.83865820  0.83768362  1.0
  C  C68  1  0.91351554  0.12195456  0.12404092  1.0
  C  C69  1  0.41353733  0.87804513  0.87595703  1.0
  C  C70  1  0.40720716  0.89239006  0.10326328  1.0
  C  C71  1  0.90722571  0.10761692  0.89673464  1.0
  C  C72  1  0.41119790  0.92281830  0.92306328  1.0
  C  C73  1  0.91117073  0.07718538  0.07693112  1.0
  C  C74  1  0.71869370  0.17271583  0.38931622  1.0
  C  C75  1  0.53383241  0.12202337  0.41217358  1.0
  C  C76  1  0.21866377  0.82728026  0.61068795  1.0
  C  C77  1  0.03379153  0.87796698  0.58783475  1.0
  Cl  Cl78  1  0.53030913  0.13376576  0.23956382  1.0
  Cl  Cl79  1  0.03030997  0.86624071  0.76044637  1.0
  Cl  Cl80  1  0.25595970  0.33652993  0.27987798  1.0
  Cl  Cl81  1  0.75594340  0.66347225  0.72010269  1.0
  Cl  Cl82  1  0.95007536  0.33686180  0.09757019  1.0
  Cl  Cl83  1  0.45010080  0.66314645  0.90242183  1.0
  O  O84  1  0.51990508  0.58357236  0.42259648  1.0
  O  O85  1  0.01991031  0.41642941  0.57740128  1.0
  O  O86  1  0.17921133  0.56126176  0.55610384  1.0
  O  O87  1  0.67922508  0.43873013  0.44390825  1.0
  O  O88  1  0.18070318  0.58347127  0.41998629  1.0
  O  O89  1  0.68071749  0.41652899  0.58001917  1.0
  O  O90  1  0.01757012  0.43974793  0.44135130  1.0
  O  O91  1  0.51755805  0.56024827  0.55865308  1.0
  O  O92  1  0.34961587  0.45400464  0.50608793  1.0
  O  O93  1  0.84961267  0.54599750  0.49391506  1.0
  O  O94  1  0.24097533  0.94040180  0.94094073  1.0
  O  O95  1  0.74096046  0.05959634  0.05906374  1.0
  O  O96  1  0.57807392  0.91594734  0.07960366  1.0
  O  O97  1  0.07810684  0.08405558  0.92038505  1.0
  O  O98  1  0.57925526  0.93974327  0.94297381  1.0
  O  O99  1  0.07924461  0.06027121  0.05700873  1.0
  O  O100  1  0.73882198  0.08411589  0.92276161  1.0
  O  O101  1  0.23878737  0.91589211  0.07724176  1.0
  O  O102  1  0.40896794  0.04595784  0.99435490  1.0
  O  O103  1  0.90896735  0.95404561  0.00564355  1.0
