# generated using pymatgen
data_Zn6H34C58O27
_symmetry_space_group_name_H-M   'P 1'
_cell_length_a   18.59309055
_cell_length_b   18.78145331
_cell_length_c   18.84809830
_cell_angle_alpha   109.65214526
_cell_angle_beta   109.24433562
_cell_angle_gamma   109.11199346
_symmetry_Int_Tables_number   1
_chemical_formula_structural   Zn6H34C58O27
_chemical_formula_sum   'Zn6 H34 C58 O27'
_cell_volume   5091.80076356
_cell_formula_units_Z   1
loop_
 _symmetry_equiv_pos_site_id
 _symmetry_equiv_pos_as_xyz
  1  'x, y, z'
loop_
 _atom_site_type_symbol
 _atom_site_label
 _atom_site_symmetry_multiplicity
 _atom_site_fract_x
 _atom_site_fract_y
 _atom_site_fract_z
 _atom_site_occupancy
  Zn  Zn0  1  0.43464345  0.00032987  0.93964416  1.0
  Zn  Zn1  1  0.55978119  0.99893376  0.06268911  1.0
  Zn  Zn2  1  0.44097960  0.44055112  0.50320277  1.0
  Zn  Zn3  1  0.56252654  0.56450350  0.50023084  1.0
  Zn  Zn4  1  0.99543986  0.56411987  0.06050529  1.0
  Zn  Zn5  1  0.99767286  0.43836815  0.93929109  1.0
  H  H6  1  0.43421387  0.18985674  0.33953146  1.0
  H  H7  1  0.09517919  0.81504464  0.99490776  1.0
  H  H8  1  0.50535569  0.32082736  0.28299975  1.0
  H  H9  1  0.15956876  0.87490455  0.11030132  1.0
  H  H10  1  0.21752230  0.91191437  0.98483044  1.0
  H  H11  1  0.28014362  0.97407115  0.10014393  1.0
  H  H12  1  0.79668741  0.52104951  0.61752145  1.0
  H  H13  1  0.89272606  0.49128414  0.71625313  1.0
  H  H14  1  0.68076284  0.43492003  0.84757205  1.0
  H  H15  1  0.74772981  0.55001737  0.91877224  1.0
  H  H16  1  0.57831284  0.45782167  0.74367366  1.0
  H  H17  1  0.44104934  0.72420988  0.85216944  1.0
  H  H18  1  0.64537258  0.57277071  0.81323989  1.0
  H  H19  1  0.39170294  0.64542725  0.34510763  1.0
  H  H20  1  0.48939050  0.11528727  0.24375296  1.0
  H  H21  1  0.26658725  0.62950917  0.22704725  1.0
  H  H22  1  0.08708121  0.29240158  0.12320802  1.0
  H  H23  1  0.13725988  0.28356777  0.05685229  1.0
  H  H24  1  0.21294800  0.30374292  0.23927309  1.0
  H  H25  1  0.40555385  0.18741707  0.13629366  1.0
  H  H26  1  0.81351567  0.24034737  0.16007176  1.0
  H  H27  1  0.91677006  0.36593615  0.16323926  1.0
  H  H28  1  0.43411663  0.59979806  0.74257114  1.0
  H  H29  1  0.66048555  0.32452448  0.88904500  1.0
  H  H30  1  0.55715811  0.21417157  0.90054397  1.0
  H  H31  1  0.58886475  0.08039172  0.82561625  1.0
  H  H32  1  0.30268066  0.32427485  0.12842187  1.0
  H  H33  1  0.71279381  0.18876436  0.80984101  1.0
  H  H34  1  0.55211134  0.79843984  0.61531243  1.0
  H  H35  1  0.43716398  0.74933367  0.54591280  1.0
  H  H36  1  0.54919224  0.92057487  0.71989127  1.0
  H  H37  1  0.43407244  0.87213456  0.65145448  1.0
  H  H38  1  0.38648261  0.73717355  0.03876805  1.0
  H  H39  1  0.25835377  0.63243773  0.03241927  1.0
  C  C40  1  0.63894935  0.12310116  0.03458386  1.0
  C  C41  1  0.46086792  0.80353858  0.79251310  1.0
  C  C42  1  0.44831368  0.72775433  0.79816682  1.0
  C  C43  1  0.45729793  0.10234707  0.09035986  1.0
  C  C44  1  0.44528799  0.65782436  0.73682294  1.0
  C  C45  1  0.45992008  0.66178082  0.66908698  1.0
  C  C46  1  0.47172482  0.73671281  0.66395117  1.0
  C  C47  1  0.48899207  0.78211786  0.61359468  1.0
  C  C48  1  0.48677613  0.85908175  0.67970731  1.0
  C  C49  1  0.27285936  0.84518824  0.04380325  1.0
  C  C50  1  0.33968208  0.82856670  0.04030716  1.0
  C  C51  1  0.70430171  0.19842395  0.03899041  1.0
  C  C52  1  0.33487748  0.75211649  0.04025416  1.0
  C  C53  1  0.26335291  0.69370902  0.03782648  1.0
  C  C54  1  0.19582504  0.71105940  0.04133631  1.0
  C  C55  1  0.40864108  0.88664766  0.03158306  1.0
  C  C56  1  0.20441199  0.78969545  0.04749304  1.0
  C  C57  1  0.16103560  0.84566657  0.04995390  1.0
  C  C58  1  0.23790690  0.90778258  0.04435861  1.0
  C  C59  1  0.64729223  0.52874028  0.61276368  1.0
  C  C60  1  0.47747633  0.36073911  0.38753526  1.0
  C  C61  1  0.40673380  0.51760938  0.37743594  1.0
  C  C62  1  0.79148579  0.25356905  0.10713000  1.0
  C  C63  1  0.46768551  0.59332877  0.60896015  1.0
  C  C64  1  0.11915810  0.48224741  0.09280201  1.0
  C  C65  1  0.88805956  0.41109238  0.03388185  1.0
  C  C66  1  0.88803421  0.48049072  0.85879911  1.0
  C  C67  1  0.46956953  0.87952322  0.86176842  1.0
  C  C68  1  0.11845613  0.64398199  0.03251221  1.0
  C  C69  1  0.70260148  0.51223456  0.74213403  1.0
  C  C70  1  0.71357121  0.52065873  0.67517884  1.0
  C  C71  1  0.78510451  0.51469579  0.66872107  1.0
  C  C72  1  0.83974989  0.49823313  0.72488404  1.0
  C  C73  1  0.85000940  0.32474497  0.10876568  1.0
  C  C74  1  0.82885575  0.49178420  0.79353262  1.0
  C  C75  1  0.75974312  0.50073288  0.80080565  1.0
  C  C76  1  0.71073643  0.49784708  0.85091147  1.0
  C  C77  1  0.64607477  0.51161335  0.78460677  1.0
  C  C78  1  0.26599562  0.42758394  0.23459824  1.0
  C  C79  1  0.45466062  0.21302163  0.29974168  1.0
  C  C80  1  0.33727299  0.50840527  0.30145581  1.0
  C  C81  1  0.33678413  0.58083745  0.29500986  1.0
  C  C82  1  0.26662898  0.57175498  0.22789911  1.0
  C  C83  1  0.19502734  0.48952710  0.16066267  1.0
  C  C84  1  0.82539364  0.34301078  0.04076495  1.0
  C  C85  1  0.19813364  0.41815769  0.16538285  1.0
  C  C86  1  0.14865866  0.32009549  0.12251731  1.0
  C  C87  1  0.22873822  0.33001462  0.19918820  1.0
  C  C88  1  0.47799162  0.29551178  0.31786920  1.0
  C  C89  1  0.46278622  0.15668265  0.23161811  1.0
  C  C90  1  0.44027117  0.15406466  0.15459130  1.0
  C  C91  1  0.68016500  0.21933024  0.97352117  1.0
  C  C92  1  0.27933718  0.29470742  0.16468207  1.0
  C  C93  1  0.69571468  0.24160045  0.81598807  1.0
  C  C94  1  0.73906166  0.28799663  0.97381901  1.0
  C  C95  1  0.67526171  0.27218447  0.88767698  1.0
  C  C96  1  0.60455108  0.19553342  0.88993292  1.0
  C  C97  1  0.46965749  0.80446557  0.72227684  1.0
  O  O98  1  0.55997007  0.09111063  0.97796145  1.0
  O  O99  1  0.08631904  0.42348977  0.01362311  1.0
  O  O100  1  0.91560841  0.49127040  0.08478739  1.0
  O  O101  1  0.66465394  0.09468790  0.08599469  1.0
  O  O102  1  0.90740570  0.38243186  0.97581778  1.0
  O  O103  1  0.90298597  0.52124008  0.93603004  1.0
  O  O104  1  0.92015120  0.43137852  0.83542351  1.0
  O  O105  1  0.08246467  0.66912926  0.07667802  1.0
  O  O106  1  0.09252487  0.56528445  0.98162802  1.0
  O  O107  1  0.41114832  0.08141931  0.01059859  1.0
  O  O108  1  0.51559291  0.08166426  0.11632867  1.0
  O  O109  1  0.67080460  0.57813711  0.58166782  1.0
  O  O110  1  0.38229549  0.91034298  0.97708734  1.0
  O  O111  1  0.48917054  0.90979119  0.07946468  1.0
  O  O112  1  0.42105199  0.91192027  0.83785327  1.0
  O  O113  1  0.52480804  0.90716397  0.93929827  1.0
  O  O114  1  0.56882542  0.48503057  0.59466287  1.0
  O  O115  1  0.55579687  0.11065986  0.81824413  1.0
  O  O116  1  0.29391621  0.23818927  0.17238300  1.0
  O  O117  1  0.69490469  0.27107343  0.76730913  1.0
  O  O118  1  0.42996593  0.33646665  0.42069641  1.0
  O  O119  1  0.52558004  0.43942766  0.41018043  1.0
  O  O120  1  0.38125001  0.46652023  0.40492927  1.0
  O  O121  1  0.48628265  0.57584136  0.40917001  1.0
  O  O122  1  0.42122621  0.51353209  0.58725588  1.0
  O  O123  1  0.52050117  0.61910776  0.58257750  1.0
  O  O124  1  0.09205370  0.53429424  0.11815327  1.0
