# generated using pymatgen
data_AlH9(C5O2)3
_symmetry_space_group_name_H-M   'P 1'
_cell_length_a   6.70775298
_cell_length_b   15.31322365
_cell_length_c   17.65157213
_cell_angle_alpha   85.39519277
_cell_angle_beta   80.92058671
_cell_angle_gamma   77.54387816
_symmetry_Int_Tables_number   1
_chemical_formula_structural   AlH9(C5O2)3
_chemical_formula_sum   'Al2 H18 C30 O12'
_cell_volume   1746.24941670
_cell_formula_units_Z   2
loop_
 _symmetry_equiv_pos_site_id
 _symmetry_equiv_pos_as_xyz
  1  'x, y, z'
loop_
 _atom_site_type_symbol
 _atom_site_label
 _atom_site_symmetry_multiplicity
 _atom_site_fract_x
 _atom_site_fract_y
 _atom_site_fract_z
 _atom_site_occupancy
  Al  Al0  1  0.49998673  0.50000252  0.50001129  1.0
  Al  Al1  1  0.99997978  0.50000412  0.49999727  1.0
  H  H2  1  0.26453106  0.40931116  0.56980180  1.0
  H  H3  1  0.73544705  0.59064618  0.43014916  1.0
  H  H4  1  0.67343178  0.49915514  0.27802436  1.0
  H  H5  1  0.76569708  0.49893948  0.13540169  1.0
  H  H6  1  0.04754062  0.48871299  0.25836811  1.0
  H  H7  1  0.95241899  0.51150223  0.74161252  1.0
  H  H8  1  0.32677290  0.50060905  0.72199989  1.0
  H  H9  1  0.23451446  0.50085477  0.86462594  1.0
  H  H10  1  0.79886617  0.76945334  0.50224379  1.0
  H  H11  1  0.71372179  0.93416915  0.49621327  1.0
  H  H12  1  0.20109201  0.23055552  0.49774898  1.0
  H  H13  1  0.28625675  0.06583552  0.50374950  1.0
  H  H14  1  0.57277633  0.22769151  0.47976785  1.0
  H  H15  1  0.65311598  0.06287890  0.48548061  1.0
  H  H16  1  0.42715193  0.77230898  0.52024441  1.0
  H  H17  1  0.34683795  0.93712323  0.51451398  1.0
  H  H18  1  0.17122854  0.48798717  0.05360219  1.0
  H  H19  1  0.82875429  0.51232661  0.94636860  1.0
  C  C20  1  0.82791119  0.33922950  0.49175570  1.0
  C  C21  1  0.69558639  0.50070667  0.63862759  1.0
  C  C22  1  0.17204126  0.66077101  0.50825609  1.0
  C  C23  1  0.30444000  0.49928733  0.36137630  1.0
  C  C24  1  0.35542586  0.49534192  0.27610745  1.0
  C  C25  1  0.55808945  0.49731040  0.24148675  1.0
  C  C26  1  0.60890334  0.49727291  0.16233806  1.0
  C  C27  1  0.45716337  0.49543302  0.11602469  1.0
  C  C28  1  0.25382972  0.49129704  0.15154081  1.0
  C  C29  1  0.20369222  0.49128670  0.23114853  1.0
  C  C30  1  0.49576511  0.49831366  0.03507126  1.0
  C  C31  1  0.50438942  0.50171705  0.96494343  1.0
  C  C32  1  0.54294793  0.50459244  0.88398242  1.0
  C  C33  1  0.74620051  0.50887045  0.84845505  1.0
  C  C34  1  0.79632159  0.50884537  0.76884322  1.0
  C  C35  1  0.64465129  0.50464134  0.72389996  1.0
  C  C36  1  0.44206135  0.50254015  0.75853410  1.0
  C  C37  1  0.39126622  0.50259509  0.83768104  1.0
  C  C38  1  0.11911427  0.76029334  0.51011746  1.0
  C  C39  1  0.88084406  0.23970667  0.48988491  1.0
  C  C40  1  0.91781360  0.80727526  0.50447629  1.0
  C  C41  1  0.87173530  0.90026612  0.50102519  1.0
  C  C42  1  0.08215171  0.19273431  0.49551426  1.0
  C  C43  1  0.12822362  0.09974298  0.49895278  1.0
  C  C44  1  0.72859704  0.19116376  0.48546407  1.0
  C  C45  1  0.77567121  0.09818186  0.48893647  1.0
  C  C46  1  0.27134608  0.80884289  0.51454060  1.0
  C  C47  1  0.22426137  0.90182363  0.51105707  1.0
  C  C48  1  0.02407858  0.95037414  0.50298713  1.0
  C  C49  1  0.97588645  0.04963220  0.49699626  1.0
  O  O50  1  0.64209575  0.37765816  0.48607538  1.0
  O  O51  1  0.87682039  0.50687298  0.60726219  1.0
  O  O52  1  0.02802534  0.62185854  0.49896862  1.0
  O  O53  1  0.44895427  0.51033205  0.39635367  1.0
  O  O54  1  0.35785439  0.62234213  0.51395017  1.0
  O  O55  1  0.12318651  0.49312918  0.39273229  1.0
  O  O56  1  0.97194232  0.37814358  0.50102790  1.0
  O  O57  1  0.55105563  0.48966246  0.60365922  1.0
  O  O58  1  0.25620136  0.45919069  0.53236858  1.0
  O  O59  1  0.74377183  0.54081604  0.46763239  1.0
  O  O60  1  0.10580942  0.48789977  0.10746804  1.0
  O  O61  1  0.89414787  0.51244208  0.89250500  1.0
