# generated using pymatgen
data_Zn4H5C24S4N2O17F
_symmetry_space_group_name_H-M   'P 1'
_cell_length_a   19.61951429
_cell_length_b   19.62694419
_cell_length_c   33.34893786
_cell_angle_alpha   79.16777032
_cell_angle_beta   79.14338006
_cell_angle_gamma   63.86602910
_symmetry_Int_Tables_number   1
_chemical_formula_structural   Zn4H5C24S4N2O17F
_chemical_formula_sum   'Zn16 H20 C96 S16 N8 O68 F4'
_cell_volume   11241.98322644
_cell_formula_units_Z   4
loop_
 _symmetry_equiv_pos_site_id
 _symmetry_equiv_pos_as_xyz
  1  'x, y, z'
loop_
 _atom_site_type_symbol
 _atom_site_label
 _atom_site_symmetry_multiplicity
 _atom_site_fract_x
 _atom_site_fract_y
 _atom_site_fract_z
 _atom_site_occupancy
  Zn  Zn0  1  0.59881581  0.94556858  0.52253487  1.0
  Zn  Zn1  1  0.51669443  0.01234911  0.43977299  1.0
  Zn  Zn2  1  0.43699681  0.94216889  0.51811432  1.0
  Zn  Zn3  1  0.44578401  0.10001939  0.52041046  1.0
  Zn  Zn4  1  0.65029783  0.30655547  0.72858957  1.0
  Zn  Zn5  1  0.80977499  0.31138798  0.73459287  1.0
  Zn  Zn6  1  0.73531287  0.22899897  0.81019679  1.0
  Zn  Zn7  1  0.80426681  0.15282992  0.72650911  1.0
  Zn  Zn8  1  0.23394947  0.73112027  0.31108731  1.0
  Zn  Zn9  1  0.30409537  0.64948108  0.22922202  1.0
  Zn  Zn10  1  0.15166717  0.80573858  0.22921990  1.0
  Zn  Zn11  1  0.31304235  0.80788138  0.23496934  1.0
  Zn  Zn12  1  0.94047127  0.43845007  0.01797133  1.0
  Zn  Zn13  1  0.94514224  0.59878082  0.02200732  1.0
  Zn  Zn14  1  0.09975191  0.44402231  0.02244871  1.0
  Zn  Zn15  1  0.01687224  0.51500254  0.94021017  1.0
  H  H16  1  0.75183127  0.05109609  0.64637726  1.0
  H  H17  1  0.53972671  0.25408041  0.65090310  1.0
  H  H18  1  0.70210715  0.00339486  0.59872581  1.0
  H  H19  1  0.40897321  0.89620990  0.30171838  1.0
  H  H20  1  0.29750868  0.79704195  0.40368256  1.0
  H  H21  1  0.45061357  0.94748616  0.35143703  1.0
  H  H22  1  0.76178576  0.53718014  0.65767529  1.0
  H  H23  1  0.29688265  0.51603022  0.39944994  1.0
  H  H24  1  0.02077974  0.79667343  0.39936563  1.0
  H  H25  1  0.03560766  0.04806941  0.65644599  1.0
  H  H26  1  0.94630759  0.45087072  0.84851014  1.0
  H  H27  1  0.84501387  0.34678284  0.95316688  1.0
  H  H28  1  0.89490947  0.40325087  0.80176278  1.0
  H  H29  1  0.23071957  0.45395177  0.85156606  1.0
  H  H30  1  0.85806128  0.83844442  0.95806678  1.0
  H  H31  1  0.20808957  0.49944816  0.10017763  1.0
  H  H32  1  0.99843388  0.70523407  0.09976371  1.0
  H  H33  1  0.25328831  0.55033655  0.14837514  1.0
  H  H34  1  0.71684133  0.70195833  0.09682027  1.0
  H  H35  1  0.99047895  0.21256633  0.09361632  1.0
  C  C36  1  0.68256234  0.93566419  0.44015088  1.0
  C  C37  1  0.42801755  0.92985204  0.43316694  1.0
  C  C38  1  0.55920006  0.81998500  0.56230894  1.0
  C  C39  1  0.31747802  0.06468558  0.56140241  1.0
  C  C40  1  0.56906088  0.07181280  0.56782173  1.0
  C  C41  1  0.44051535  0.17811394  0.43748110  1.0
  C  C42  1  0.69014878  0.43435125  0.68824505  1.0
  C  C43  1  0.81275747  0.32188809  0.82106721  1.0
  C  C44  1  0.56877617  0.30590343  0.81130898  1.0
  C  C45  1  0.81554265  0.06459140  0.80842603  1.0
  C  C46  1  0.67832847  0.18446434  0.67968347  1.0
  C  C47  1  0.93573030  0.18748005  0.69110093  1.0
  C  C48  1  0.30803458  0.56401604  0.31240592  1.0
  C  C49  1  0.18113195  0.68149371  0.18108881  1.0
  C  C50  1  0.06643505  0.81372713  0.31246525  1.0
  C  C51  1  0.19080486  0.93233219  0.19126479  1.0
  C  C52  1  0.32486389  0.81274580  0.32058805  1.0
  C  C53  1  0.43104393  0.68929551  0.18872903  1.0
  C  C54  1  0.81597525  0.56237729  0.06200970  1.0
  C  C55  1  0.07189495  0.56979731  0.06850884  1.0
  C  C56  1  0.06191607  0.31523900  0.06287419  1.0
  C  C57  1  0.18431683  0.43706023  0.93857162  1.0
  C  C58  1  0.92955545  0.42945505  0.93198491  1.0
  C  C59  1  0.93719618  0.68337562  0.93860012  1.0
  C  C60  1  0.59480995  0.10176830  0.59726746  1.0
  C  C61  1  0.64922460  0.15555569  0.65129117  1.0
  C  C62  1  0.54997244  0.17231176  0.61268946  1.0
  C  C63  1  0.69514392  0.08464501  0.63669693  1.0
  C  C64  1  0.57605990  0.19933785  0.63945143  1.0
  C  C65  1  0.66764734  0.05839255  0.61029692  1.0
  C  C66  1  0.39956260  0.89992938  0.40506511  1.0
  C  C67  1  0.35130617  0.84301620  0.34960573  1.0
  C  C68  1  0.35586793  0.85746891  0.41896500  1.0
  C  C69  1  0.39447079  0.88555006  0.33474213  1.0
  C  C70  1  0.33160461  0.82933436  0.39190610  1.0
  C  C71  1  0.41761649  0.91377303  0.36229888  1.0
  C  C72  1  0.54566277  0.69494267  0.59771400  1.0
  C  C73  1  0.70449954  0.55409830  0.65016374  1.0
  C  C74  1  0.58399168  0.74193468  0.58470058  1.0
  C  C75  1  0.66451962  0.50924102  0.66295579  1.0
  C  C76  1  0.66034965  0.62237633  0.62674714  1.0
  C  C77  1  0.58808342  0.62748084  0.62237008  1.0
  C  C78  1  0.42090010  0.27019143  0.36849695  1.0
  C  C79  1  0.32549112  0.47199256  0.37889857  1.0
  C  C80  1  0.41269050  0.25207853  0.41105997  1.0
  C  C81  1  0.33431575  0.48812175  0.33654405  1.0
  C  C82  1  0.35811309  0.39219314  0.39042441  1.0
  C  C83  1  0.39112455  0.34995700  0.35649487  1.0
  C  C84  1  0.77344959  0.92830498  0.37138964  1.0
  C  C85  1  0.97595551  0.82684463  0.37937529  1.0
  C  C86  1  0.75666653  0.91698276  0.41391189  1.0
  C  C87  1  0.99081895  0.83881607  0.33705355  1.0
  C  C88  1  0.89635434  0.85904408  0.39167087  1.0
  C  C89  1  0.85284674  0.89435640  0.35835303  1.0
  C  C90  1  0.19644694  0.16234977  0.60149253  1.0
  C  C91  1  0.05393295  0.09421268  0.65094956  1.0
  C  C92  1  0.24086971  0.09326293  0.58543323  1.0
  C  C93  1  0.01104036  0.16354351  0.66630642  1.0
  C  C94  1  0.12235596  0.09365792  0.62788856  1.0
  C  C95  1  0.12953011  0.16253370  0.62638038  1.0
  C  C96  1  0.84126129  0.34903377  0.85061938  1.0
  C  C97  1  0.89897012  0.40184385  0.90364388  1.0
  C  C98  1  0.82814780  0.33387498  0.89364993  1.0
  C  C99  1  0.91303611  0.41790937  0.86087388  1.0
  C  C100  1  0.85629922  0.35963468  0.92004371  1.0
  C  C101  1  0.88445376  0.39163073  0.83504935  1.0
  C  C102  1  0.47763964  0.32447605  0.88063443  1.0
  C  C103  1  0.27528447  0.42331235  0.87168310  1.0
  C  C104  1  0.49509698  0.33425730  0.83806028  1.0
  C  C105  1  0.25997775  0.41171604  0.91400987  1.0
  C  C106  1  0.35498588  0.39021269  0.85961842  1.0
  C  C107  1  0.39797943  0.35468934  0.89312431  1.0
  C  C108  1  0.88347272  0.91507822  0.82024845  1.0
  C  C109  1  0.87524104  0.82947601  0.92584029  1.0
  C  C110  1  0.84483388  0.98811881  0.83249879  1.0
  C  C111  1  0.91329951  0.75771590  0.91276840  1.0
  C  C112  1  0.86321049  0.88672928  0.89179634  1.0
  C  C113  1  0.89269840  0.85693137  0.85376323  1.0
  C  C114  1  0.15196489  0.65495933  0.15158342  1.0
  C  C115  1  0.10048692  0.59896878  0.09705052  1.0
  C  C116  1  0.08024363  0.69767935  0.13708021  1.0
  C  C117  1  0.17256103  0.55517366  0.11068558  1.0
  C  C118  1  0.05434147  0.67069128  0.11024365  1.0
  C  C119  1  0.19749091  0.58330635  0.13746189  1.0
  C  C120  1  0.54701226  0.59569059  0.14407358  1.0
  C  C121  1  0.69726072  0.65684720  0.10134187  1.0
  C  C122  1  0.50359912  0.66429007  0.16082405  1.0
  C  C123  1  0.73978537  0.58744166  0.08597034  1.0
  C  C124  1  0.62733337  0.65906179  0.12311115  1.0
  C  C125  1  0.61839986  0.59145985  0.12341900  1.0
  C  C126  1  0.20941187  0.05140990  0.15009216  1.0
  C  C127  1  0.04790751  0.19556804  0.10093624  1.0
  C  C128  1  0.17008357  0.00556414  0.16407182  1.0
  C  C129  1  0.08812254  0.24015306  0.08787441  1.0
  C  C130  1  0.09202633  0.12730722  0.12435435  1.0
  C  C131  1  0.16473978  0.12169849  0.12825506  1.0
  S  S132  1  0.67329422  0.70175582  0.60162412  1.0
  S  S133  1  0.57359153  0.54933266  0.64720574  1.0
  S  S134  1  0.36624491  0.33306722  0.43623397  1.0
  S  S135  1  0.38285583  0.40755928  0.31050480  1.0
  S  S136  1  0.83864840  0.86665132  0.43800032  1.0
  S  S137  1  0.90918735  0.88779010  0.31193353  1.0
  S  S138  1  0.19916941  0.02950936  0.59987176  1.0
  S  S139  1  0.05338069  0.22764995  0.65363439  1.0
  S  S140  1  0.41341688  0.38317328  0.81355543  1.0
  S  S141  1  0.34117110  0.36044994  0.93933010  1.0
  S  S142  1  0.82220793  0.98522501  0.88533357  1.0
  S  S143  1  0.93388256  0.75894687  0.85951221  1.0
  S  S144  1  0.54924337  0.72482583  0.14965502  1.0
  S  S145  1  0.69596474  0.52458351  0.09784573  1.0
  S  S146  1  0.07916847  0.04768392  0.14907637  1.0
  S  S147  1  0.17864908  0.20054215  0.10409271  1.0
  N  N148  1  0.47259175  0.70651717  0.58656194  1.0
  N  N149  1  0.45057481  0.21736628  0.33746551  1.0
  N  N150  1  0.71926977  0.97341620  0.34173917  1.0
  N  N151  1  0.20974194  0.23134161  0.59281355  1.0
  N  N152  1  0.53126499  0.29208097  0.91127593  1.0
  N  N153  1  0.91702497  0.89558109  0.77884376  1.0
  N  N154  1  0.52444441  0.53417976  0.14394156  1.0
  N  N155  1  0.28913509  0.03160134  0.15354503  1.0
  O  O156  1  0.50041135  0.99933392  0.50035346  1.0
  O  O157  1  0.68458415  0.93546234  0.47835545  1.0
  O  O158  1  0.45454651  0.97874748  0.41626722  1.0
  O  O159  1  0.48805664  0.85947425  0.56079650  1.0
  O  O160  1  0.62502533  0.94759238  0.42312098  1.0
  O  O161  1  0.61314958  0.84093927  0.54763266  1.0
  O  O162  1  0.42467796  0.90414652  0.47118856  1.0
  O  O163  1  0.33421857  0.00611078  0.54345045  1.0
  O  O164  1  0.51310497  0.11928179  0.54868909  1.0
  O  O165  1  0.35995568  0.09804841  0.56170862  1.0
  O  O166  1  0.60650387  0.00061333  0.56388757  1.0
  O  O167  1  0.49413656  0.12072002  0.42204206  1.0
  O  O168  1  0.40826179  0.18041649  0.47472880  1.0
  O  O169  1  0.74980742  0.25052909  0.74978422  1.0
  O  O170  1  0.64398162  0.40234963  0.69492221  1.0
  O  O171  1  0.83557970  0.33424596  0.78300773  1.0
  O  O172  1  0.62617763  0.25199587  0.82664403  1.0
  O  O173  1  0.75535359  0.40849034  0.70104870  1.0
  O  O174  1  0.56644459  0.33780149  0.77406537  1.0
  O  O175  1  0.76851424  0.28907499  0.83574213  1.0
  O  O176  1  0.79594514  0.12056473  0.82905613  1.0
  O  O177  1  0.74764982  0.14477907  0.68653610  1.0
  O  O178  1  0.80995674  0.06849888  0.77068777  1.0
  O  O179  1  0.63172927  0.24622900  0.69462151  1.0
  O  O180  1  0.90684499  0.25494087  0.70164674  1.0
  O  O181  1  0.90621857  0.13926071  0.69949307  1.0
  O  O182  1  0.25077501  0.74900574  0.25091429  1.0
  O  O183  1  0.27660231  0.62198062  0.33240080  1.0
  O  O184  1  0.25063536  0.64074058  0.18784368  1.0
  O  O185  1  0.06659743  0.83436655  0.27370582  1.0
  O  O186  1  0.31911640  0.56445205  0.27331988  1.0
  O  O187  1  0.12435110  0.77410271  0.33195045  1.0
  O  O188  1  0.13487142  0.74150195  0.19737328  1.0
  O  O189  1  0.14853412  0.89758944  0.19180893  1.0
  O  O190  1  0.34876552  0.82190188  0.28248134  1.0
  O  O191  1  0.24576664  0.91185785  0.21222117  1.0
  O  O192  1  0.28046570  0.78037608  0.33636402  1.0
  O  O193  1  0.40847639  0.63863433  0.20673234  1.0
  O  O194  1  0.39919147  0.76062499  0.19308335  1.0
  O  O195  1  0.00050180  0.49929887  0.00057249  1.0
  O  O196  1  0.84446196  0.49486659  0.05152871  1.0
  O  O197  1  0.00550887  0.61297381  0.05780088  1.0
  O  O198  1  0.10796103  0.34744599  0.05567707  1.0
  O  O199  1  0.84646164  0.60976899  0.05387111  1.0
  O  O200  1  0.99621341  0.34109897  0.05062797  1.0
  O  O201  1  0.11615384  0.50416712  0.05726394  1.0
  O  O202  1  0.18436353  0.41924211  0.97748457  1.0
  O  O203  1  0.96971802  0.46600081  0.91522777  1.0
  O  O204  1  0.12614473  0.47424622  0.91897746  1.0
  O  O205  1  0.91301877  0.41411870  0.97048488  1.0
  O  O206  1  0.92218242  0.68457683  0.97745390  1.0
  O  O207  1  0.97130764  0.62436376  0.91932415  1.0
  O  O208  1  0.43595120  0.67647213  0.61238525  1.0
  O  O209  1  0.45348275  0.74113505  0.55272954  1.0
  O  O210  1  0.47786565  0.24072792  0.30383112  1.0
  O  O211  1  0.44393484  0.15641622  0.34543878  1.0
  O  O212  1  0.73827899  0.95219853  0.30680559  1.0
  O  O213  1  0.66148257  0.02977554  0.35221782  1.0
  O  O214  1  0.18139609  0.27484698  0.62020399  1.0
  O  O215  1  0.24410011  0.24404626  0.55931848  1.0
  O  O216  1  0.50883038  0.26192734  0.94422237  1.0
  O  O217  1  0.59208751  0.29900900  0.90376526  1.0
  O  O218  1  0.92179131  0.83356293  0.77145887  1.0
  O  O219  1  0.94102931  0.93847391  0.75484026  1.0
  O  O220  1  0.57806296  0.46931818  0.14263301  1.0
  O  O221  1  0.45642249  0.54982200  0.14322509  1.0
  O  O222  1  0.30405580  0.08647083  0.15504361  1.0
  O  O223  1  0.33614734  0.96433098  0.15287585  1.0
  F  F224  1  0.47842384  0.21640191  0.60254641  1.0
  F  F225  1  0.33445723  0.84338702  0.45954766  1.0
  F  F226  1  0.78794377  0.29270700  0.91121372  1.0
  F  F227  1  0.03326703  0.76782515  0.14844336  1.0
