# generated using pymatgen
data_Zn2H19C26N3O8
_symmetry_space_group_name_H-M   'P 1'
_cell_length_a   9.74862900
_cell_length_b   10.89724628
_cell_length_c   11.09468564
_cell_angle_alpha   83.84722313
_cell_angle_beta   89.33091394
_cell_angle_gamma   87.60978624
_symmetry_Int_Tables_number   1
_chemical_formula_structural   Zn2H19C26N3O8
_chemical_formula_sum   'Zn2 H19 C26 N3 O8'
_cell_volume   1170.78442945
_cell_formula_units_Z   1
loop_
 _symmetry_equiv_pos_site_id
 _symmetry_equiv_pos_as_xyz
  1  'x, y, z'
loop_
 _atom_site_type_symbol
 _atom_site_label
 _atom_site_symmetry_multiplicity
 _atom_site_fract_x
 _atom_site_fract_y
 _atom_site_fract_z
 _atom_site_occupancy
  Zn  Zn0  1  0.63794845  0.49338451  0.49795647  1.0
  Zn  Zn1  1  0.35393055  0.50066383  0.50068307  1.0
  H  H2  1  0.67323631  0.93907223  0.35874260  1.0
  H  H3  1  0.81432150  0.57408202  0.87203279  1.0
  H  H4  1  0.82206739  0.40384633  0.11245010  1.0
  H  H5  1  0.81884196  0.56847528  0.10038113  1.0
  H  H6  1  0.11495340  0.68585599  0.52310713  1.0
  H  H7  1  0.85472055  0.68416750  0.52168878  1.0
  H  H8  1  0.89784223  0.20479904  0.54285522  1.0
  H  H9  1  0.13237724  0.26007894  0.35839354  1.0
  H  H10  1  0.71673818  0.04000110  0.58071215  1.0
  H  H11  1  0.31155319  0.05352184  0.64277230  1.0
  H  H12  1  0.26726598  0.95301769  0.41899813  1.0
  H  H13  1  0.45761198  0.12019686  0.30467939  1.0
  H  H14  1  0.27913691  0.49766709  0.11574626  1.0
  H  H15  1  0.27583156  0.50249025  0.89054089  1.0
  H  H16  1  0.81931573  0.40954912  0.88551234  1.0
  H  H17  1  0.87768046  0.28328919  0.28171201  1.0
  H  H18  1  0.75576982  0.23155095  0.37508711  1.0
  H  H19  1  0.15306223  0.20691258  0.51520220  1.0
  H  H20  1  0.52682736  0.87253201  0.69570220  1.0
  C  C21  1  0.49963064  0.49195893  0.26395106  1.0
  C  C22  1  0.36668783  0.97308268  0.45560860  1.0
  C  C23  1  0.47262691  0.06318883  0.39131054  1.0
  C  C24  1  0.49689894  0.11805854  0.51584457  1.0
  C  C25  1  0.61915166  0.49157194  0.05989971  1.0
  C  C26  1  0.49910231  0.49293167  0.12935501  1.0
  C  C27  1  0.37510546  0.49634743  0.06438055  1.0
  C  C28  1  0.37327903  0.49881634  0.93839767  1.0
  C  C29  1  0.49542328  0.49674870  0.86892420  1.0
  C  C30  1  0.61733810  0.49312423  0.93381899  1.0
  C  C31  1  0.77251617  0.49127560  0.92217716  1.0
  C  C32  1  0.49951771  0.25364366  0.52091808  1.0
  C  C33  1  0.77467182  0.48857206  0.06496907  1.0
  C  C34  1  0.07347958  0.40116404  0.47818529  1.0
  C  C35  1  0.06136794  0.60213331  0.51135662  1.0
  C  C36  1  0.91817195  0.60114137  0.51125247  1.0
  C  C37  1  0.93066014  0.39910777  0.48255840  1.0
  C  C38  1  0.92951366  0.26217813  0.46039586  1.0
  C  C39  1  0.09230048  0.26898369  0.45017015  1.0
  C  C40  1  0.49277840  0.49813094  0.73432913  1.0
  C  C41  1  0.48662856  0.73918206  0.47933072  1.0
  C  C42  1  0.61707015  0.01968936  0.54474934  1.0
  C  C43  1  0.59297519  0.96551749  0.42184669  1.0
  C  C44  1  0.48644110  0.87476289  0.48509998  1.0
  C  C45  1  0.51152700  0.92953204  0.60916332  1.0
  C  C46  1  0.39101589  0.02719569  0.57881626  1.0
  N  N47  1  0.14244912  0.50038304  0.49535241  1.0
  N  N48  1  0.84967217  0.49725240  0.49807763  1.0
  N  N49  1  0.85919561  0.22450806  0.35774116  1.0
  O  O50  1  0.61608012  0.50039656  0.31309298  1.0
  O  O51  1  0.38470895  0.48270623  0.31961854  1.0
  O  O52  1  0.61564800  0.30319964  0.50332559  1.0
  O  O53  1  0.38533035  0.31077653  0.53691728  1.0
  O  O54  1  0.60834792  0.48164512  0.68191016  1.0
  O  O55  1  0.37672410  0.51556300  0.68222678  1.0
  O  O56  1  0.60385518  0.68238050  0.48908410  1.0
  O  O57  1  0.37158463  0.68973909  0.46966058  1.0
