# generated using pymatgen
data_Zn2H2C12S2Br2O7
_symmetry_space_group_name_H-M   'P 1'
_cell_length_a   19.65140996
_cell_length_b   19.74496322
_cell_length_c   33.32527699
_cell_angle_alpha   78.94893365
_cell_angle_beta   79.21203963
_cell_angle_gamma   63.98924835
_symmetry_Int_Tables_number   1
_chemical_formula_structural   Zn2H2C12S2Br2O7
_chemical_formula_sum   'Zn16 H16 C96 S16 Br16 O56'
_cell_volume   11327.32424033
_cell_formula_units_Z   8
loop_
 _symmetry_equiv_pos_site_id
 _symmetry_equiv_pos_as_xyz
  1  'x, y, z'
loop_
 _atom_site_type_symbol
 _atom_site_label
 _atom_site_symmetry_multiplicity
 _atom_site_fract_x
 _atom_site_fract_y
 _atom_site_fract_z
 _atom_site_occupancy
  Zn  Zn0  1  0.05641751  0.39995158  0.47827064  1.0
  Zn  Zn1  1  0.98495478  0.48321186  0.56034063  1.0
  Zn  Zn2  1  0.05808395  0.56112654  0.48237160  1.0
  Zn  Zn3  1  0.90069050  0.55432074  0.47975398  1.0
  Zn  Zn4  1  0.69331244  0.35006780  0.27182000  1.0
  Zn  Zn5  1  0.69117687  0.18844333  0.26671789  1.0
  Zn  Zn6  1  0.76907718  0.26596782  0.19047344  1.0
  Zn  Zn7  1  0.84780352  0.19740549  0.27284477  1.0
  Zn  Zn8  1  0.26514298  0.76574509  0.68991345  1.0
  Zn  Zn9  1  0.34926031  0.69634924  0.77129144  1.0
  Zn  Zn10  1  0.19266990  0.84818526  0.77122228  1.0
  Zn  Zn11  1  0.19082148  0.68743519  0.76659623  1.0
  Zn  Zn12  1  0.55876588  0.06191074  0.98344691  1.0
  Zn  Zn13  1  0.40271052  0.05269306  0.97754673  1.0
  Zn  Zn14  1  0.55588859  0.90058040  0.97827098  1.0
  Zn  Zn15  1  0.48262381  0.98522211  0.06053078  1.0
  H  H16  1  0.95354972  0.24958643  0.35144884  1.0
  H  H17  1  0.74645868  0.45550376  0.35038876  1.0
  H  H18  1  0.00014202  0.29873955  0.39967181  1.0
  H  H19  1  0.09681316  0.59663889  0.70020488  1.0
  H  H20  1  0.20156236  0.70096627  0.59752675  1.0
  H  H21  1  0.04976442  0.55017979  0.65078959  1.0
  H  H22  1  0.54973702  0.05020646  0.15308780  1.0
  H  H23  1  0.65233302  0.15318583  0.04861606  1.0
  H  H24  1  0.59951406  0.09836082  0.20021907  1.0
  H  H25  1  0.50222963  0.79493407  0.89852648  1.0
  H  H26  1  0.29658335  0.00220771  0.89908637  1.0
  H  H27  1  0.45146435  0.74973934  0.85039454  1.0
  H  H28  1  0.80881267  0.52782045  0.41833038  1.0
  H  H29  1  0.13682895  0.63710604  0.52641673  1.0
  H  H30  1  0.72371670  0.22284250  0.11342660  1.0
  H  H31  1  0.22190594  0.94144580  0.83148867  1.0
  C  C32  1  0.06185569  0.31634276  0.56190332  1.0
  C  C33  1  0.07024802  0.57048822  0.56910940  1.0
  C  C34  1  0.18352073  0.44000008  0.43862902  1.0
  C  C35  1  0.93659010  0.68393245  0.43872530  1.0
  C  C36  1  0.92967413  0.43052445  0.43056576  1.0
  C  C37  1  0.81677670  0.56069769  0.56232775  1.0
  C  C38  1  0.56613233  0.30994578  0.31117374  1.0
  C  C39  1  0.68171240  0.17957107  0.18010830  1.0
  C  C40  1  0.68940879  0.43306008  0.18793531  1.0
  C  C41  1  0.93493600  0.18815531  0.18960022  1.0
  C  C42  1  0.81856675  0.32103616  0.31966324  1.0
  C  C43  1  0.81246719  0.06651885  0.31156417  1.0
  C  C44  1  0.43300261  0.68967805  0.68818639  1.0
  C  C45  1  0.31882474  0.82095347  0.81937656  1.0
  C  C46  1  0.18848784  0.93294143  0.68829692  1.0
  C  C47  1  0.06582553  0.80947158  0.81117813  1.0
  C  C48  1  0.18050650  0.67960721  0.68042523  1.0
  C  C49  1  0.31308204  0.56605301  0.81104029  1.0
  C  C50  1  0.43730240  0.18375324  0.93855665  1.0
  C  C51  1  0.43131186  0.92954529  0.93022761  1.0
  C  C52  1  0.68319695  0.94027772  0.93870124  1.0
  C  C53  1  0.56072094  0.81735125  0.06200321  1.0
  C  C54  1  0.56895969  0.07063969  0.06956245  1.0
  C  C55  1  0.31601690  0.06165921  0.06075733  1.0
  C  C56  1  0.90019984  0.40396704  0.40207210  1.0
  C  C57  1  0.84720748  0.34990637  0.34822479  1.0
  C  C58  1  0.82759642  0.44904582  0.38800257  1.0
  C  C59  1  0.91924162  0.30495427  0.36194291  1.0
  C  C60  1  0.80206813  0.42101820  0.36105488  1.0
  C  C61  1  0.94475093  0.33222942  0.38853567  1.0
  C  C62  1  0.09900333  0.59907392  0.59689909  1.0
  C  C63  1  0.15192214  0.65141198  0.65152778  1.0
  C  C64  1  0.14236120  0.64223062  0.58145372  1.0
  C  C65  1  0.10896461  0.60877845  0.66707613  1.0
  C  C66  1  0.16835337  0.66795952  0.60929052  1.0
  C  C67  1  0.08313595  0.58325736  0.63977825  1.0
  C  C68  1  0.30519993  0.45435629  0.40064821  1.0
  C  C69  1  0.44460643  0.29542490  0.34945972  1.0
  C  C70  1  0.25844133  0.41609612  0.41390047  1.0
  C  C71  1  0.49126318  0.33370118  0.33611798  1.0
  C  C72  1  0.37673681  0.33939879  0.37292679  1.0
  C  C73  1  0.37300643  0.41047148  0.37709656  1.0
  C  C74  1  0.72543513  0.57604983  0.63035048  1.0
  C  C75  1  0.52430166  0.67388134  0.62011685  1.0
  C  C76  1  0.74263710  0.58503234  0.58774909  1.0
  C  C77  1  0.50723305  0.66497314  0.66271696  1.0
  C  C78  1  0.60388667  0.64143893  0.60830355  1.0
  C  C79  1  0.64589288  0.60840578  0.64217135  1.0
  C  C80  1  0.07673105  0.22465652  0.62998903  1.0
  C  C81  1  0.17387906  0.02444682  0.62016196  1.0
  C  C82  1  0.08590116  0.24217788  0.58738760  1.0
  C  C83  1  0.16467927  0.00710329  0.66276208  1.0
  C  C84  1  0.14183114  0.10377623  0.60817467  1.0
  C  C85  1  0.10884630  0.14534269  0.64194602  1.0
  C  C86  1  0.84258083  0.80154340  0.39669989  1.0
  C  C87  1  0.90698716  0.94829802  0.35302607  1.0
  C  C88  1  0.91082989  0.75837208  0.41358037  1.0
  C  C89  1  0.83861636  0.99150657  0.33629392  1.0
  C  C90  1  0.90852701  0.87898175  0.37503107  1.0
  C  C91  1  0.84121394  0.87070266  0.37459350  1.0
  C  C92  1  0.65348845  0.15239919  0.15125782  1.0
  C  C93  1  0.59831655  0.09896133  0.09809624  1.0
  C  C94  1  0.66862385  0.16827420  0.10788611  1.0
  C  C95  1  0.58297861  0.08309274  0.14101714  1.0
  C  C96  1  0.64060442  0.14101238  0.08178500  1.0
  C  C97  1  0.61048734  0.10975828  0.16692512  1.0
  C  C98  1  0.67353592  0.52506174  0.11982539  1.0
  C  C99  1  0.57632031  0.72514518  0.13010066  1.0
  C  C100  1  0.66485324  0.50727088  0.16241957  1.0
  C  C101  1  0.58505022  0.74299339  0.08753198  1.0
  C  C102  1  0.60860292  0.64574274  0.14190043  1.0
  C  C103  1  0.64130293  0.60445706  0.10801264  1.0
  C  C104  1  0.08261869  0.12339244  0.17803238  1.0
  C  C105  1  0.16831945  0.12615275  0.07237193  1.0
  C  C106  1  0.01022800  0.16245353  0.16526716  1.0
  C  C107  1  0.24065366  0.08717740  0.08515186  1.0
  C  C108  1  0.11068514  0.13927411  0.10622665  1.0
  C  C109  1  0.14027182  0.11005107  0.14420999  1.0
  C  C110  1  0.34637326  0.84981881  0.84772887  1.0
  C  C111  1  0.40220842  0.90136486  0.90151405  1.0
  C  C112  1  0.30189021  0.92207345  0.86162876  1.0
  C  C113  1  0.44660682  0.82967940  0.88794311  1.0
  C  C114  1  0.33076255  0.94688961  0.88850570  1.0
  C  C115  1  0.41845424  0.80488227  0.86139819  1.0
  C  C116  1  0.40726034  0.44831480  0.85293924  1.0
  C  C117  1  0.34283219  0.30171776  0.89693271  1.0
  C  C118  1  0.33902151  0.49142546  0.83607842  1.0
  C  C119  1  0.41118011  0.25862413  0.91369013  1.0
  C  C120  1  0.34135031  0.37089580  0.87475837  1.0
  C  C121  1  0.40870806  0.37916150  0.87509595  1.0
  C  C122  1  0.94436881  0.79501563  0.84958455  1.0
  C  C123  1  0.80500729  0.95435528  0.90047067  1.0
  C  C124  1  0.99108623  0.83325395  0.83613209  1.0
  C  C125  1  0.75820219  0.91624748  0.91386067  1.0
  C  C126  1  0.87284213  0.91019454  0.87703388  1.0
  C  C127  1  0.87650891  0.83907026  0.87302760  1.0
  S  S128  1  0.29767075  0.32626275  0.39759901  1.0
  S  S129  1  0.45211194  0.42354834  0.35237466  1.0
  S  S130  1  0.66136948  0.63297328  0.56218155  1.0
  S  S131  1  0.58842429  0.61696031  0.68829615  1.0
  S  S132  1  0.13373406  0.16141225  0.56197774  1.0
  S  S133  1  0.11692791  0.08781339  0.68816351  1.0
  S  S134  1  0.97331698  0.80251918  0.40233414  1.0
  S  S135  1  0.77630119  0.94726891  0.34738775  1.0
  S  S136  1  0.61713858  0.58783426  0.18800629  1.0
  S  S137  1  0.63268628  0.66247753  0.06191494  1.0
  S  S138  1  0.01281987  0.18270544  0.11181043  1.0
  S  S139  1  0.23816963  0.06673138  0.13858312  1.0
  S  S140  1  0.27652681  0.44731091  0.84741763  1.0
  S  S141  1  0.47358635  0.30277349  0.90239508  1.0
  S  S142  1  0.95191808  0.92319899  0.85228382  1.0
  S  S143  1  0.79729378  0.82624571  0.89780027  1.0
  Br  Br144  1  0.28651179  0.55150288  0.41102709  1.0
  Br  Br145  1  0.46379315  0.19791367  0.33947113  1.0
  Br  Br146  1  0.79437371  0.52800412  0.66978644  1.0
  Br  Br147  1  0.45550634  0.72177793  0.58061155  1.0
  Br  Br148  1  0.02867499  0.29278459  0.66938568  1.0
  Br  Br149  1  0.22153232  0.95609607  0.58086521  1.0
  Br  Br150  1  0.75955133  0.77653577  0.40081400  1.0
  Br  Br151  1  0.99027383  0.97306099  0.34862293  1.0
  Br  Br152  1  0.72070862  0.45698033  0.08036709  1.0
  Br  Br153  1  0.52880562  0.79319074  0.16956241  1.0
  Br  Br154  1  0.10709308  0.08973415  0.23228358  1.0
  Br  Br155  1  0.14386375  0.15994763  0.01816223  1.0
  Br  Br156  1  0.49042247  0.47321136  0.84865134  1.0
  Br  Br157  1  0.25968114  0.27675660  0.90137685  1.0
  Br  Br158  1  0.96354174  0.69742235  0.83965867  1.0
  Br  Br159  1  0.78622786  0.05175143  0.91043918  1.0
  O  O160  1  0.00062251  0.49872165  0.49985080  1.0
  O  O161  1  0.07798103  0.31474725  0.52287480  1.0
  O  O162  1  0.03244378  0.53161900  0.58492356  1.0
  O  O163  1  0.15486870  0.50573173  0.45034601  1.0
  O  O164  1  0.02753209  0.37509667  0.58060707  1.0
  O  O165  1  0.15380894  0.39191909  0.44610895  1.0
  O  O166  1  0.08545951  0.58702939  0.52982499  1.0
  O  O167  1  0.00318007  0.65860056  0.45018148  1.0
  O  O168  1  0.88591764  0.49668694  0.44242436  1.0
  O  O169  1  0.89152362  0.65112191  0.44700806  1.0
  O  O170  1  0.99517538  0.38807384  0.44192577  1.0
  O  O171  1  0.87628803  0.52685885  0.58082655  1.0
  O  O172  1  0.81448438  0.57620318  0.52324827  1.0
  O  O173  1  0.74916106  0.25097892  0.25052922  1.0
  O  O174  1  0.59535289  0.35838869  0.30359830  1.0
  O  O175  1  0.66629957  0.16356762  0.21857674  1.0
  O  O176  1  0.72511659  0.37409595  0.16940702  1.0
  O  O177  1  0.59490400  0.24425889  0.29947609  1.0
  O  O178  1  0.67236072  0.43482839  0.22690579  1.0
  O  O179  1  0.72107750  0.21859175  0.16416259  1.0
  O  O180  1  0.87750514  0.22212501  0.16891887  1.0
  O  O181  1  0.86256502  0.25538242  0.30903155  1.0
  O  O182  1  0.93294492  0.17492188  0.22861949  1.0
  O  O183  1  0.75285853  0.36387008  0.30828474  1.0
  O  O184  1  0.74621775  0.09166313  0.29979254  1.0
  O  O185  1  0.85722742  0.09952938  0.30414511  1.0
  O  O186  1  0.24938151  0.74976843  0.75036356  1.0
  O  O187  1  0.37383081  0.72394035  0.66944890  1.0
  O  O188  1  0.36167677  0.75611687  0.80782674  1.0
  O  O189  1  0.17209004  0.93462584  0.72731635  1.0
  O  O190  1  0.43512234  0.67413468  0.72722179  1.0
  O  O191  1  0.22276858  0.87422442  0.66964266  1.0
  O  O192  1  0.25181883  0.86411973  0.80787545  1.0
  O  O193  1  0.09534050  0.85781186  0.80374714  1.0
  O  O194  1  0.16498685  0.66242624  0.71889861  1.0
  O  O195  1  0.09450711  0.74406150  0.79919096  1.0
  O  O196  1  0.21825231  0.71869415  0.66418387  1.0
  O  O197  1  0.35819218  0.59879453  0.80288011  1.0
  O  O198  1  0.24647884  0.59126414  0.79970081  1.0
  O  O199  1  0.50098226  0.99908478  0.00003716  1.0
  O  O200  1  0.50369249  0.15858245  0.95012962  1.0
  O  O201  1  0.38776890  0.99501373  0.94120337  1.0
  O  O202  1  0.65380713  0.89196336  0.94625028  1.0
  O  O203  1  0.39241500  0.15085080  0.94625968  1.0
  O  O204  1  0.65459616  0.00599481  0.95029751  1.0
  O  O205  1  0.49704561  0.88616831  0.94146883  1.0
  O  O206  1  0.57748977  0.81535856  0.02303868  1.0
  O  O207  1  0.53021949  0.03263551  0.08608810  1.0
  O  O208  1  0.52571759  0.87616352  0.08058297  1.0
  O  O209  1  0.58490444  0.08678105  0.03101709  1.0
  O  O210  1  0.31761563  0.07529798  0.02177201  1.0
  O  O211  1  0.37338745  0.02769668  0.08138530  1.0
  O  O212  1  0.78119490  0.51825080  0.39931338  1.0
  O  O213  1  0.16015813  0.65995888  0.54093242  1.0
  O  O214  1  0.70900109  0.20877055  0.09019452  1.0
  O  O215  1  0.23233982  0.96877447  0.85020991  1.0
