# generated using pymatgen
data_Zr3H24C49(BrO13)2
_symmetry_space_group_name_H-M   'P 1'
_cell_length_a   19.06627972
_cell_length_b   19.09857026
_cell_length_c   19.06661035
_cell_angle_alpha   60.10706023
_cell_angle_beta   89.55604822
_cell_angle_gamma   119.89002296
_symmetry_Int_Tables_number   1
_chemical_formula_structural   Zr3H24C49(BrO13)2
_chemical_formula_sum   'Zr6 H48 C98 Br4 O52'
_cell_volume   4906.26167845
_cell_formula_units_Z   2
loop_
 _symmetry_equiv_pos_site_id
 _symmetry_equiv_pos_as_xyz
  1  'x, y, z'
loop_
 _atom_site_type_symbol
 _atom_site_label
 _atom_site_symmetry_multiplicity
 _atom_site_fract_x
 _atom_site_fract_y
 _atom_site_fract_z
 _atom_site_occupancy
  Zr  Zr0  1  0.40896903  0.50552323  0.58971023  1.0
  Zr  Zr1  1  0.58937785  0.49415039  0.40930900  1.0
  Zr  Zr2  1  0.40299635  0.31431730  0.59590687  1.0
  Zr  Zr3  1  0.59556293  0.68535117  0.40333453  1.0
  Zr  Zr4  1  0.59162509  0.49984370  0.59195568  1.0
  Zr  Zr5  1  0.40685157  0.49982980  0.40719615  1.0
  H  H6  1  0.42541742  0.35851889  0.71867403  1.0
  H  H7  1  0.71832210  0.64118444  0.42573204  1.0
  H  H8  1  0.42174767  0.34929506  0.43184291  1.0
  H  H9  1  0.43150729  0.65036578  0.42210682  1.0
  H  H10  1  0.62346945  0.52473354  0.03489289  1.0
  H  H11  1  0.41245251  0.54679169  0.92902496  1.0
  H  H12  1  0.60510389  0.49175983  0.82299315  1.0
  H  H13  1  0.59967678  0.47878243  0.95823022  1.0
  H  H14  1  0.38271395  0.49112420  0.18346142  1.0
  H  H15  1  0.37960573  0.48764909  0.05627445  1.0
  H  H16  1  0.92880034  0.45304911  0.41272579  1.0
  H  H17  1  0.03465081  0.47512807  0.62371954  1.0
  H  H18  1  0.18321956  0.50872906  0.38295836  1.0
  H  H19  1  0.05612128  0.51236617  0.37979378  1.0
  H  H20  1  0.82277307  0.50817948  0.60526663  1.0
  H  H21  1  0.95801538  0.52120777  0.59985560  1.0
  H  H22  1  0.02873752  0.16015361  0.40717643  1.0
  H  H23  1  0.93013417  0.83934489  0.62927433  1.0
  H  H24  1  0.82816544  0.93238661  0.38117064  1.0
  H  H25  1  0.95682446  0.06266390  0.37943071  1.0
  H  H26  1  0.17811410  0.06793266  0.60979365  1.0
  H  H27  1  0.05365126  0.93783760  0.60678349  1.0
  H  H28  1  0.62909807  0.16035775  0.93030937  1.0
  H  H29  1  0.40690804  0.83946178  0.02900692  1.0
  H  H30  1  0.60957978  0.93175035  0.17830645  1.0
  H  H31  1  0.60666056  0.06185075  0.05373520  1.0
  H  H32  1  0.38101383  0.06734631  0.82833654  1.0
  H  H33  1  0.37929014  0.93703863  0.95694974  1.0
  H  H34  1  0.82301426  0.70653973  0.17079177  1.0
  H  H35  1  0.81513897  0.92082853  0.18290424  1.0
  H  H36  1  0.17047672  0.29312970  0.82337723  1.0
  H  H37  1  0.18255561  0.07880577  0.81548475  1.0
  H  H38  1  0.40251954  0.93143359  0.63162204  1.0
  H  H39  1  0.63128198  0.06816562  0.40294792  1.0
  H  H40  1  0.39233321  0.71276418  0.60319939  1.0
  H  H41  1  0.38490540  0.83487647  0.60808195  1.0
  H  H42  1  0.60281319  0.28684144  0.39275893  1.0
  H  H43  1  0.60776189  0.16479163  0.38530279  1.0
  H  H44  1  0.57694315  0.38020683  0.25240844  1.0
  H  H45  1  0.30907354  0.42552966  0.83399023  1.0
  H  H46  1  0.83366112  0.57423844  0.30934179  1.0
  H  H47  1  0.25204084  0.61936106  0.57738789  1.0
  H  H48  1  0.25264863  0.34253708  0.31238890  1.0
  H  H49  1  0.84850958  0.65985799  0.58208059  1.0
  H  H50  1  0.58186664  0.33982872  0.84879524  1.0
  H  H51  1  0.31215849  0.65729182  0.25297980  1.0
  H  H52  1  0.30426225  0.05921016  0.58270718  1.0
  H  H53  1  0.58240573  0.94025844  0.30468039  1.0
  C  C54  1  0.50586564  0.51351689  0.72777105  1.0
  C  C55  1  0.72746735  0.48621741  0.50616301  1.0
  C  C56  1  0.49766743  0.49808812  0.26504454  1.0
  C  C57  1  0.26472563  0.50159794  0.49801347  1.0
  C  C58  1  0.26103817  0.27213080  0.73382853  1.0
  C  C59  1  0.50875575  0.74210043  0.49496692  1.0
  C  C60  1  0.73350483  0.72750789  0.26140480  1.0
  C  C61  1  0.49463526  0.25756534  0.50911601  1.0
  C  C62  1  0.49822830  0.26384105  0.73490329  1.0
  C  C63  1  0.25662012  0.26382753  0.50748227  1.0
  C  C64  1  0.50716802  0.73585987  0.25695360  1.0
  C  C65  1  0.73463108  0.73586673  0.49849456  1.0
  C  C66  1  0.49948584  0.49976250  0.18634955  1.0
  C  C67  1  0.50560139  0.51522337  0.80477288  1.0
  C  C68  1  0.56760842  0.50914212  0.14377445  1.0
  C  C69  1  0.56816575  0.51281319  0.06886883  1.0
  C  C70  1  0.45153084  0.53184918  0.83468454  1.0
  C  C71  1  0.45179310  0.52942345  0.90906082  1.0
  C  C72  1  0.55992502  0.49873648  0.84937870  1.0
  C  C73  1  0.55785408  0.49388460  0.92444113  1.0
  C  C74  1  0.43313670  0.49367888  0.15265730  1.0
  C  C75  1  0.43308345  0.49439588  0.07954814  1.0
  C  C76  1  0.50101773  0.50464424  0.03566883  1.0
  C  C77  1  0.50320639  0.50855260  0.95626212  1.0
  C  C78  1  0.80453212  0.48462083  0.50584263  1.0
  C  C79  1  0.18605089  0.49996897  0.49981197  1.0
  C  C80  1  0.83444961  0.46798726  0.45178688  1.0
  C  C81  1  0.90884654  0.47045423  0.45202713  1.0
  C  C82  1  0.14346247  0.49057649  0.56794143  1.0
  C  C83  1  0.06861325  0.48703053  0.56842669  1.0
  C  C84  1  0.15242138  0.50616943  0.43339884  1.0
  C  C85  1  0.07936185  0.50555687  0.43329791  1.0
  C  C86  1  0.84915448  0.50117619  0.56012299  1.0
  C  C87  1  0.92422653  0.50605772  0.55804791  1.0
  C  C88  1  0.95606057  0.49138559  0.50340458  1.0
  C  C89  1  0.03546328  0.49528531  0.50123652  1.0
  C  C90  1  0.17825695  0.18752671  0.50636219  1.0
  C  C91  1  0.81063279  0.81232305  0.50163258  1.0
  C  C92  1  0.13570354  0.21320788  0.44851565  1.0
  C  C93  1  0.06258350  0.13878018  0.44993257  1.0
  C  C94  1  0.84042950  0.78646576  0.57180087  1.0
  C  C95  1  0.91089518  0.86105984  0.57256652  1.0
  C  C96  1  0.85301812  0.91271623  0.43395308  1.0
  C  C97  1  0.92471482  0.98586590  0.43426588  1.0
  C  C98  1  0.14598237  0.08729719  0.56391310  1.0
  C  C99  1  0.07501757  0.01439116  0.56271742  1.0
  C  C100  1  0.03143495  0.03856065  0.50553562  1.0
  C  C101  1  0.95532551  0.96158616  0.50384787  1.0
  C  C102  1  0.50143556  0.18740338  0.81083481  1.0
  C  C103  1  0.50608813  0.81213903  0.17852622  1.0
  C  C104  1  0.57159920  0.21324605  0.84063477  1.0
  C  C105  1  0.57237981  0.13863647  0.91108398  1.0
  C  C106  1  0.44822596  0.78643216  0.13599062  1.0
  C  C107  1  0.44969562  0.86086832  0.06281537  1.0
  C  C108  1  0.56369383  0.91237886  0.14618440  1.0
  C  C109  1  0.56253981  0.98527988  0.07517154  1.0
  C  C110  1  0.43378214  0.08701352  0.85319334  1.0
  C  C111  1  0.43409768  0.01384642  0.92486841  1.0
  C  C112  1  0.50367591  0.03810630  0.95549132  1.0
  C  C113  1  0.50534593  0.96110109  0.03160232  1.0
  C  C114  1  0.85300030  0.78373654  0.14599743  1.0
  C  C115  1  0.92902328  0.85935170  0.07438310  1.0
  C  C116  1  0.97366631  0.83857797  0.03440398  1.0
  C  C117  1  0.84772339  0.90551981  0.15142963  1.0
  C  C118  1  0.92278147  0.98334719  0.07955983  1.0
  C  C119  1  0.96096567  0.08576571  0.04536502  1.0
  C  C120  1  0.14564234  0.21591930  0.85333935  1.0
  C  C121  1  0.07403450  0.14030847  0.92936679  1.0
  C  C122  1  0.03406410  0.16105988  0.97403595  1.0
  C  C123  1  0.15105341  0.09411402  0.84804786  1.0
  C  C124  1  0.07918782  0.01630335  0.92310953  1.0
  C  C125  1  0.04498317  0.91387398  0.96129257  1.0
  C  C126  1  0.81319507  0.80713071  0.18390329  1.0
  C  C127  1  0.96414131  0.96087360  0.03919631  1.0
  C  C128  1  0.18352577  0.19251341  0.81351236  1.0
  C  C129  1  0.03885196  0.03880009  0.96446775  1.0
  C  C130  1  0.49516873  0.17911469  0.51075574  1.0
  C  C131  1  0.51038234  0.82051506  0.49554353  1.0
  C  C132  1  0.43825353  0.07765680  0.57859248  1.0
  C  C133  1  0.44462467  0.00878050  0.57672022  1.0
  C  C134  1  0.57821526  0.92196829  0.43864991  1.0
  C  C135  1  0.57635936  0.99083381  0.44503941  1.0
  C  C136  1  0.44238847  0.79148738  0.55682530  1.0
  C  C137  1  0.43981781  0.86092385  0.56038175  1.0
  C  C138  1  0.55645171  0.20812676  0.44278279  1.0
  C  C139  1  0.56002598  0.13870461  0.44021363  1.0
  C  C140  1  0.50406340  0.03713853  0.50723441  1.0
  C  C141  1  0.50685788  0.96247862  0.50445299  1.0
  C  C142  1  0.64482664  0.52171497  0.17079742  1.0
  C  C143  1  0.39765790  0.56201474  0.78770471  1.0
  C  C144  1  0.78739532  0.43774908  0.39798465  1.0
  C  C145  1  0.17042968  0.47788813  0.64521576  1.0
  C  C146  1  0.16061811  0.31709332  0.38547720  1.0
  C  C147  1  0.80027193  0.68252875  0.65065484  1.0
  C  C148  1  0.65045427  0.31719877  0.80050224  1.0
  C  C149  1  0.38507901  0.68253522  0.16097350  1.0
  C  C150  1  0.36997709  0.03592385  0.65626613  1.0
  C  C151  1  0.65591304  0.96373086  0.37040043  1.0
  Br  Br152  1  0.10274885  0.88614027  0.90834734  1.0
  Br  Br153  1  0.93234516  0.70472435  0.08710523  1.0
  Br  Br154  1  0.08677580  0.29490241  0.93277372  1.0
  Br  Br155  1  0.90802767  0.11348821  0.10316116  1.0
  O  O156  1  0.44762009  0.51585851  0.69588177  1.0
  O  O157  1  0.69554865  0.48382851  0.44794242  1.0
  O  O158  1  0.55704219  0.49796044  0.29575792  1.0
  O  O159  1  0.29542218  0.50171740  0.55739597  1.0
  O  O160  1  0.29055508  0.24300522  0.70193531  1.0
  O  O161  1  0.56841206  0.76966096  0.43574381  1.0
  O  O162  1  0.70159305  0.75661970  0.29092197  1.0
  O  O163  1  0.43545102  0.23002959  0.56878798  1.0
  O  O164  1  0.55830009  0.35437983  0.70298882  1.0
  O  O165  1  0.28827521  0.35431001  0.44791167  1.0
  O  O166  1  0.44756835  0.64537350  0.28865155  1.0
  O  O167  1  0.70270621  0.64532930  0.55860163  1.0
  O  O168  1  0.28766320  0.23381565  0.56584829  1.0
  O  O169  1  0.56552866  0.76589987  0.28799816  1.0
  O  O170  1  0.70747389  0.76513934  0.43616516  1.0
  O  O171  1  0.43586743  0.23455510  0.70779471  1.0
  O  O172  1  0.29387718  0.36244538  0.70414446  1.0
  O  O173  1  0.55280977  0.34714753  0.44679450  1.0
  O  O174  1  0.70382203  0.63719484  0.29424652  1.0
  O  O175  1  0.44644785  0.65251793  0.55313610  1.0
  O  O176  1  0.29700972  0.50467918  0.43671950  1.0
  O  O177  1  0.56189090  0.50648972  0.70065323  1.0
  O  O178  1  0.70032439  0.49319094  0.56222244  1.0
  O  O179  1  0.43635982  0.49498357  0.29733771  1.0
  O  O180  1  0.45107727  0.60787905  0.44351836  1.0
  O  O181  1  0.44318196  0.39179474  0.45139851  1.0
  O  O182  1  0.65597808  0.60066722  0.44694262  1.0
  O  O183  1  0.44660651  0.39899142  0.65632978  1.0
  O  O184  1  0.53489384  0.42043677  0.54033840  1.0
  O  O185  1  0.54000432  0.57925627  0.53523562  1.0
  O  O186  1  0.53806887  0.57412661  0.38399713  1.0
  O  O187  1  0.38365233  0.42554706  0.53841269  1.0
  O  O188  1  0.63711061  0.43635998  0.22890287  1.0
  O  O189  1  0.71333384  0.60157233  0.13731602  1.0
  O  O190  1  0.31645910  0.48900251  0.80430305  1.0
  O  O191  1  0.42192143  0.64802055  0.74346667  1.0
  O  O192  1  0.80394091  0.51073793  0.31677154  1.0
  O  O193  1  0.74313215  0.35173748  0.42231042  1.0
  O  O194  1  0.22856469  0.56318936  0.63754176  1.0
  O  O195  1  0.13687178  0.39798789  0.71370199  1.0
  O  O196  1  0.22274070  0.37294690  0.30830897  1.0
  O  O197  1  0.12166445  0.34677298  0.39762627  1.0
  O  O198  1  0.82251531  0.62835960  0.64299909  1.0
  O  O199  1  0.75867931  0.65153875  0.72027923  1.0
  O  O200  1  0.64278699  0.37133711  0.82278837  1.0
  O  O201  1  0.72008297  0.34822736  0.75888017  1.0
  O  O202  1  0.30795933  0.62681582  0.22310896  1.0
  O  O203  1  0.39709242  0.65275415  0.12205720  1.0
  O  O204  1  0.29519927  0.02411111  0.64425716  1.0
  O  O205  1  0.37507840  0.00447621  0.72775031  1.0
  O  O206  1  0.64395839  0.97550437  0.29560704  1.0
  O  O207  1  0.72740922  0.99529034  0.37547984  1.0
