# generated using pymatgen
data_AlH4C14Cl3O5
_symmetry_space_group_name_H-M   'P 1'
_cell_length_a   6.64640391
_cell_length_b   21.41219159
_cell_length_c   25.55646789
_cell_angle_alpha   83.95296687
_cell_angle_beta   89.95566682
_cell_angle_gamma   89.44628511
_symmetry_Int_Tables_number   1
_chemical_formula_structural   AlH4C14Cl3O5
_chemical_formula_sum   'Al4 H16 C56 Cl12 O20'
_cell_volume   3616.63864398
_cell_formula_units_Z   4
loop_
 _symmetry_equiv_pos_site_id
 _symmetry_equiv_pos_as_xyz
  1  'x, y, z'
loop_
 _atom_site_type_symbol
 _atom_site_label
 _atom_site_symmetry_multiplicity
 _atom_site_fract_x
 _atom_site_fract_y
 _atom_site_fract_z
 _atom_site_occupancy
  Al  Al0  1  0.20105365  0.75025534  0.25054214  1.0
  Al  Al1  1  0.79892938  0.24974384  0.74945699  1.0
  Al  Al2  1  0.70108252  0.74983715  0.25148060  1.0
  Al  Al3  1  0.29898169  0.25016584  0.74851695  1.0
  H  H4  1  0.30404133  0.55732987  0.46502902  1.0
  H  H5  1  0.69592235  0.44265621  0.53497055  1.0
  H  H6  1  0.80442743  0.96132582  0.05063535  1.0
  H  H7  1  0.19556604  0.03867862  0.94936651  1.0
  H  H8  1  0.33212489  0.47765772  0.54344252  1.0
  H  H9  1  0.66784027  0.52232971  0.45655744  1.0
  H  H10  1  0.83804443  0.03961952  0.97158289  1.0
  H  H11  1  0.16194600  0.96038675  0.02841935  1.0
  H  H12  1  0.22758627  0.67329718  0.11211988  1.0
  H  H13  1  0.77243123  0.32671041  0.88787883  1.0
  H  H14  1  0.73203179  0.89813644  0.33598398  1.0
  H  H15  1  0.26797214  0.10187290  0.66401589  1.0
  H  H16  1  0.45444497  0.67147516  0.23767149  1.0
  H  H17  1  0.54558320  0.32852367  0.76233001  1.0
  H  H18  1  0.94670325  0.82826972  0.22510031  1.0
  H  H19  1  0.05333396  0.17172930  0.77489568  1.0
  C  C20  1  0.45087230  0.81825263  0.31990285  1.0
  C  C21  1  0.54915560  0.18176172  0.68010173  1.0
  C  C22  1  0.94840578  0.67636959  0.18438448  1.0
  C  C23  1  0.05162379  0.32363466  0.81562250  1.0
  C  C24  1  0.44680849  0.82969006  0.17513799  1.0
  C  C25  1  0.55318054  0.17031113  0.82485602  1.0
  C  C26  1  0.95779281  0.67229746  0.32604532  1.0
  C  C27  1  0.04221421  0.32770632  0.67395418  1.0
  C  C28  1  0.18760959  0.48762566  0.52409321  1.0
  C  C29  1  0.81236302  0.51236653  0.47590595  1.0
  C  C30  1  0.69077224  0.02195847  0.98424512  1.0
  C  C31  1  0.30921666  0.97804893  0.01575555  1.0
  C  C32  1  0.01574881  0.45506314  0.54421727  1.0
  C  C33  1  0.98422235  0.54492474  0.45578662  1.0
  C  C34  1  0.51887223  0.04414369  0.95534599  1.0
  C  C35  1  0.48111822  0.95586127  0.04465547  1.0
  C  C36  1  0.82793051  0.46810494  0.51942110  1.0
  C  C37  1  0.17203610  0.53188581  0.48057845  1.0
  C  C38  1  0.32776547  0.02148455  0.97184884  1.0
  C  C39  1  0.67222647  0.97852191  0.02815183  1.0
  C  C40  1  0.03012643  0.41031443  0.58888931  1.0
  C  C41  1  0.96984321  0.58967472  0.41111575  1.0
  C  C42  1  0.53624668  0.08825541  0.91034945  1.0
  C  C43  1  0.46373628  0.91174779  0.08965123  1.0
  C  C44  1  0.96098106  0.62790618  0.37234574  1.0
  C  C45  1  0.03901701  0.37209186  0.62765890  1.0
  C  C46  1  0.45272432  0.87393949  0.12864637  1.0
  C  C47  1  0.54726320  0.12606058  0.87135314  1.0
  C  C48  1  0.82155059  0.54753214  0.09646932  1.0
  C  C49  1  0.17847763  0.45246338  0.90353257  1.0
  C  C50  1  0.31934389  0.89777522  0.44342935  1.0
  C  C51  1  0.68065432  0.10221732  0.55655879  1.0
  C  C52  1  0.80495063  0.58634292  0.13734076  1.0
  C  C53  1  0.19506999  0.41365719  0.86265798  1.0
  C  C54  1  0.30169239  0.85776602  0.40344826  1.0
  C  C55  1  0.69830884  0.14222600  0.59654027  1.0
  C  C56  1  0.95252724  0.63212842  0.14260224  1.0
  C  C57  1  0.04749337  0.36787215  0.85740042  1.0
  C  C58  1  0.45199247  0.85854597  0.36440114  1.0
  C  C59  1  0.54800854  0.14145772  0.63559521  1.0
  C  C60  1  0.11303287  0.63846492  0.10698265  1.0
  C  C61  1  0.88699378  0.36153453  0.89301766  1.0
  C  C62  1  0.61492223  0.89934560  0.36564209  1.0
  C  C63  1  0.38508181  0.10065762  0.63435033  1.0
  C  C64  1  0.12585768  0.60169860  0.06554782  1.0
  C  C65  1  0.87416604  0.39829533  0.93445566  1.0
  C  C66  1  0.62712584  0.94089017  0.40355650  1.0
  C  C67  1  0.37287675  0.05911025  0.59643594  1.0
  C  C68  1  0.98096847  0.55493326  0.05929938  1.0
  C  C69  1  0.01907480  0.44506036  0.94071040  1.0
  C  C70  1  0.48030401  0.94095031  0.44378722  1.0
  C  C71  1  0.51969548  0.05905441  0.55620834  1.0
  C  C72  1  0.99408359  0.51658149  0.01797270  1.0
  C  C73  1  0.00597633  0.48340447  0.98204615  1.0
  C  C74  1  0.49346229  0.98203205  0.48307771  1.0
  C  C75  1  0.50651158  0.01797471  0.51692453  1.0
  Cl  Cl76  1  0.64993131  0.48962608  0.09045357  1.0
  Cl  Cl77  1  0.35007721  0.51037797  0.90954750  1.0
  Cl  Cl78  1  0.14671954  0.89530272  0.49336035  1.0
  Cl  Cl79  1  0.85324996  0.10469493  0.50663996  1.0
  Cl  Cl80  1  0.60959279  0.57363178  0.18129991  1.0
  Cl  Cl81  1  0.39039761  0.42637688  0.81869800  1.0
  Cl  Cl82  1  0.10283382  0.80709529  0.40509068  1.0
  Cl  Cl83  1  0.89720485  0.19290672  0.59490372  1.0
  Cl  Cl84  1  0.32065166  0.61313432  0.02134626  1.0
  Cl  Cl85  1  0.67935839  0.38686823  0.97865561  1.0
  Cl  Cl86  1  0.82330241  0.99288326  0.40149760  1.0
  Cl  Cl87  1  0.17669857  0.00712164  0.59850426  1.0
  O  O88  1  0.61607284  0.81517197  0.19678304  1.0
  O  O89  1  0.38392372  0.18482832  0.80321451  1.0
  O  O90  1  0.12764864  0.69288310  0.30940882  1.0
  O  O91  1  0.87240654  0.30711891  0.69059699  1.0
  O  O92  1  0.28412057  0.80755435  0.29865725  1.0
  O  O93  1  0.71593916  0.19244763  0.70133715  1.0
  O  O94  1  0.77816721  0.69693397  0.19751445  1.0
  O  O95  1  0.22182630  0.30306870  0.80248270  1.0
  O  O96  1  0.27431886  0.80958185  0.19045129  1.0
  O  O97  1  0.72569884  0.19041346  0.80954471  1.0
  O  O98  1  0.78699016  0.68659678  0.30537632  1.0
  O  O99  1  0.21301241  0.31340322  0.69462359  1.0
  O  O100  1  0.11904263  0.69050347  0.20228226  1.0
  O  O101  1  0.88098865  0.30948783  0.79772359  1.0
  O  O102  1  0.62284510  0.79999038  0.30538314  1.0
  O  O103  1  0.37713182  0.20001438  0.69461242  1.0
  O  O104  1  0.45204065  0.71236484  0.25078693  1.0
  O  O105  1  0.54798298  0.28763540  0.74921456  1.0
  O  O106  1  0.94971836  0.78858766  0.24724009  1.0
  O  O107  1  0.05030077  0.21141264  0.75275707  1.0
