# generated using pymatgen
data_Hf3H33C42S10N3O16
_symmetry_space_group_name_H-M   'P 1'
_cell_length_a   11.36366512
_cell_length_b   20.47622591
_cell_length_c   33.47623995
_cell_angle_alpha   89.66298681
_cell_angle_beta   98.58412620
_cell_angle_gamma   89.90534520
_symmetry_Int_Tables_number   1
_chemical_formula_structural   Hf3H33C42S10N3O16
_chemical_formula_sum   'Hf6 H66 C84 S20 N6 O32'
_cell_volume   7702.00073935
_cell_formula_units_Z   2
loop_
 _symmetry_equiv_pos_site_id
 _symmetry_equiv_pos_as_xyz
  1  'x, y, z'
loop_
 _atom_site_type_symbol
 _atom_site_label
 _atom_site_symmetry_multiplicity
 _atom_site_fract_x
 _atom_site_fract_y
 _atom_site_fract_z
 _atom_site_occupancy
  Hf  Hf0  1  0.02321066  0.08310675  0.04410066  1.0
  Hf  Hf1  1  0.96459859  0.88415283  0.96367546  1.0
  Hf  Hf2  1  0.16451494  0.93115625  0.04684304  1.0
  Hf  Hf3  1  0.82690996  0.03412268  0.96042064  1.0
  Hf  Hf4  1  0.13577778  0.02816301  0.95508060  1.0
  Hf  Hf5  1  0.85032702  0.93808901  0.04891541  1.0
  H  H6  1  0.99083565  0.13214233  0.95525992  1.0
  H  H7  1  0.21073169  0.89743972  0.96419163  1.0
  H  H8  1  0.72528649  0.91234082  0.96913660  1.0
  H  H9  1  0.03183582  0.98469920  0.10684786  1.0
  H  H10  1  0.34735755  0.97963191  0.00223956  1.0
  H  H11  1  0.14344709  0.82370940  0.09590298  1.0
  H  H12  1  0.86933892  0.83951911  0.10351867  1.0
  H  H13  1  0.11345788  0.08934889  0.88311204  1.0
  H  H14  1  0.70825489  0.08197763  0.88435923  1.0
  H  H15  1  0.59863236  0.06640909  0.97777708  1.0
  H  H16  1  0.60416988  0.92095446  0.03542170  1.0
  H  H17  1  0.18456422  0.97864422  0.88445519  1.0
  H  H18  1  0.95753736  0.82501260  0.89078138  1.0
  H  H19  1  0.99687847  0.11429701  0.12174715  1.0
  H  H20  1  0.72167551  0.02000130  0.08851649  1.0
  H  H21  1  0.72967301  0.13957730  0.91662666  1.0
  H  H22  1  0.05615566  0.78908939  0.92273612  1.0
  H  H23  1  0.39327520  0.95065315  0.06054782  1.0
  H  H24  1  0.35253895  0.98808403  0.95397993  1.0
  H  H25  1  0.63842935  0.99736140  0.00067345  1.0
  H  H26  1  0.03783853  0.87251114  0.10344008  1.0
  H  H27  1  0.85558056  0.05119679  0.09892308  1.0
  H  H28  1  0.70973658  0.48652607  0.00085256  1.0
  H  H29  1  0.27840689  0.47614109  0.00942946  1.0
  H  H30  1  0.23869714  0.03065908  0.50702247  1.0
  H  H31  1  0.80396462  0.00018598  0.49001031  1.0
  H  H32  1  0.85015308  0.98246739  0.70168348  1.0
  H  H33  1  0.85292220  0.89173348  0.49103795  1.0
  H  H34  1  0.66330878  0.87589845  0.58158351  1.0
  H  H35  1  0.00531974  0.02537222  0.60738315  1.0
  H  H36  1  0.39679347  0.81643430  0.65311270  1.0
  H  H37  1  0.09322141  0.10473115  0.56518757  1.0
  H  H38  1  0.36209813  0.04927102  0.65028531  1.0
  H  H39  1  0.16555547  0.87766693  0.55992751  1.0
  H  H40  1  0.18372972  0.04956568  0.29423587  1.0
  H  H41  1  0.18269269  0.14348164  0.50255211  1.0
  H  H42  1  0.37304895  0.15582531  0.41214198  1.0
  H  H43  1  0.02987700  0.00714201  0.38896636  1.0
  H  H44  1  0.58390906  0.20274099  0.35878486  1.0
  H  H45  1  0.96286546  0.92562587  0.42887711  1.0
  H  H46  1  0.67921967  0.97519409  0.34841465  1.0
  H  H47  1  0.86522849  0.15001334  0.43817862  1.0
  H  H48  1  0.82633040  0.18426903  0.08282441  1.0
  H  H49  1  0.64250486  0.44038284  0.93335724  1.0
  H  H50  1  0.74825720  0.25773649  0.94164900  1.0
  H  H51  1  0.62857356  0.34560930  0.06694060  1.0
  H  H52  1  0.35585171  0.54604786  0.93179237  1.0
  H  H53  1  0.30568635  0.76826211  0.09331237  1.0
  H  H54  1  0.36248845  0.59654649  0.07067013  1.0
  H  H55  1  0.21823894  0.72044380  0.94580316  1.0
  H  H56  1  0.69284170  0.80823746  0.06968148  1.0
  H  H57  1  0.56572191  0.57674378  0.91467200  1.0
  H  H58  1  0.77691862  0.70433468  0.94969775  1.0
  H  H59  1  0.56341989  0.63175776  0.05972314  1.0
  H  H60  1  0.27920773  0.15876623  0.93451284  1.0
  H  H61  1  0.39272636  0.42503480  0.07676400  1.0
  H  H62  1  0.22629223  0.25282624  0.06097301  1.0
  H  H63  1  0.41750603  0.33500976  0.94761877  1.0
  H  H64  1  0.81584296  0.86346948  0.71752047  1.0
  H  H65  1  0.55237126  0.99759001  0.88649701  1.0
  H  H66  1  0.50978561  0.99030355  0.76767981  1.0
  H  H67  1  0.84403590  0.85661282  0.83448616  1.0
  H  H68  1  0.18827599  0.16325746  0.11922861  1.0
  H  H69  1  0.56737065  0.97668105  0.26952243  1.0
  H  H70  1  0.39068694  0.96245052  0.15861591  1.0
  H  H71  1  0.30230095  0.15593223  0.23609531  1.0
  C  C72  1  0.20598776  0.16767532  0.00322446  1.0
  C  C73  1  0.80580771  0.17641360  0.00306336  1.0
  C  C74  1  0.24650492  0.04103061  0.11341072  1.0
  C  C75  1  0.16737795  0.78284499  0.00983503  1.0
  C  C76  1  0.78685559  0.79430019  0.00494207  1.0
  C  C77  1  0.76012381  0.92876858  0.88774952  1.0
  C  C78  1  0.56025006  0.42343355  0.00398950  1.0
  C  C79  1  0.43764339  0.42013547  0.00666071  1.0
  C  C80  1  0.37343650  0.47837977  0.00770964  1.0
  C  C81  1  0.42763933  0.53933734  0.00571826  1.0
  C  C82  1  0.55036641  0.54258546  0.00277702  1.0
  C  C83  1  0.61447105  0.48431352  0.00211075  1.0
  C  C84  1  0.42137401  0.07064312  0.28293757  1.0
  C  C85  1  0.35651062  0.09788411  0.34221895  1.0
  C  C86  1  0.55364229  0.08294108  0.33990653  1.0
  C  C87  1  0.61767038  0.93114277  0.71445230  1.0
  C  C88  1  0.48078559  0.93663004  0.65807121  1.0
  C  C89  1  0.67673038  0.93010563  0.65183144  1.0
  C  C90  1  0.07458797  0.04257606  0.46606983  1.0
  C  C91  1  0.95058291  0.03201664  0.46163470  1.0
  C  C92  1  0.90043275  0.00560252  0.49379132  1.0
  C  C93  1  0.96800947  0.98756355  0.53071446  1.0
  C  C94  1  0.09213371  0.99776356  0.53524482  1.0
  C  C95  1  0.14234590  0.02462029  0.50312877  1.0
  C  C96  1  0.76744726  0.93640731  0.62520373  1.0
  C  C97  1  0.74194703  0.90691491  0.58716340  1.0
  C  C98  1  0.81154206  0.91668888  0.55675674  1.0
  C  C99  1  0.90536287  0.96307830  0.56344475  1.0
  C  C100  1  0.93323641  0.98999620  0.60195536  1.0
  C  C101  1  0.87007029  0.97613088  0.63386119  1.0
  C  C102  1  0.36025775  0.94755223  0.63466335  1.0
  C  C103  1  0.31824702  0.01165992  0.63042320  1.0
  C  C104  1  0.22716047  0.02907556  0.59918841  1.0
  C  C105  1  0.17537221  0.98046772  0.57243458  1.0
  C  C106  1  0.20981465  0.91537122  0.57962086  1.0
  C  C107  1  0.30255713  0.89803483  0.61016559  1.0
  C  C108  1  0.26576188  0.09565221  0.36900078  1.0
  C  C109  1  0.29443854  0.12474325  0.40719225  1.0
  C  C110  1  0.22886502  0.11407116  0.43854486  1.0
  C  C111  1  0.13480945  0.06762167  0.43278345  1.0
  C  C112  1  0.10240957  0.04219078  0.39409487  1.0
  C  C113  1  0.16142307  0.05682623  0.36119363  1.0
  C  C114  1  0.67278498  0.07636604  0.36439658  1.0
  C  C115  1  0.72092416  0.01337915  0.36828736  1.0
  C  C116  1  0.81502583  0.99785839  0.39870890  1.0
  C  C117  1  0.86525486  0.04778839  0.42474659  1.0
  C  C118  1  0.82387346  0.11171803  0.41831417  1.0
  C  C119  1  0.72678863  0.12719815  0.38886749  1.0
  C  C120  1  0.74541301  0.24071575  0.00492177  1.0
  C  C121  1  0.72161348  0.27727829  0.96922755  1.0
  C  C122  1  0.66676666  0.33851034  0.96799965  1.0
  C  C123  1  0.63048496  0.36232239  0.00373608  1.0
  C  C124  1  0.65659296  0.32629712  0.03950945  1.0
  C  C125  1  0.71580023  0.26588396  0.04138718  1.0
  C  C126  1  0.35511006  0.59970190  0.00624746  1.0
  C  C127  1  0.33058094  0.62389893  0.04308860  1.0
  C  C128  1  0.27383116  0.68395726  0.04629282  1.0
  C  C129  1  0.23206087  0.71898225  0.01047987  1.0
  C  C130  1  0.25189421  0.69349671  0.97336418  1.0
  C  C131  1  0.31430296  0.63518364  0.97064924  1.0
  C  C132  1  0.72567665  0.73028364  0.00652340  1.0
  C  C133  1  0.72988679  0.68764644  0.97390083  1.0
  C  C134  1  0.67428934  0.62698762  0.97094978  1.0
  C  C135  1  0.61260453  0.60617881  0.00255727  1.0
  C  C136  1  0.60961195  0.64781920  0.03513725  1.0
  C  C137  1  0.66227003  0.70993379  0.03791052  1.0
  C  C138  1  0.26887778  0.23137434  0.00241810  1.0
  C  C139  1  0.26945548  0.27155370  0.03630267  1.0
  C  C140  1  0.32392489  0.33267370  0.03952070  1.0
  C  C141  1  0.37725732  0.35598379  0.00665561  1.0
  C  C142  1  0.37624842  0.31641203  0.97285269  1.0
  C  C143  1  0.32559663  0.25386805  0.96987385  1.0
  C  C144  1  0.65043956  0.92526196  0.75866399  1.0
  C  C145  1  0.58495444  0.96195093  0.78288753  1.0
  C  C146  1  0.61383826  0.96465769  0.82498302  1.0
  C  C147  1  0.70992054  0.92557730  0.84383699  1.0
  C  C148  1  0.77039275  0.88620807  0.81961900  1.0
  C  C149  1  0.74609364  0.88565017  0.77745466  1.0
  C  C150  1  0.30348836  0.05520620  0.15559420  1.0
  C  C151  1  0.37510210  0.00574737  0.17588340  1.0
  C  C152  1  0.42370001  0.00915923  0.21667099  1.0
  C  C153  1  0.39179111  0.06359254  0.23870133  1.0
  C  C154  1  0.32355804  0.11386757  0.21858155  1.0
  C  C155  1  0.28170273  0.11267553  0.17705157  1.0
  S  S156  1  0.77349680  0.86787233  0.51350349  1.0
  S  S157  1  0.92110882  0.01600850  0.67950413  1.0
  S  S158  1  0.18436175  0.11210100  0.59567090  1.0
  S  S159  1  0.34659493  0.81532699  0.61396693  1.0
  S  S160  1  0.27284960  0.16032856  0.48263008  1.0
  S  S161  1  0.10246352  0.02076183  0.31527875  1.0
  S  S162  1  0.86163983  0.91538182  0.40299809  1.0
  S  S163  1  0.68393828  0.20984959  0.38554983  1.0
  S  S164  1  0.63517180  0.37781522  0.92035412  1.0
  S  S165  1  0.73668207  0.22593219  0.08858902  1.0
  S  S166  1  0.25705241  0.70852830  0.09595921  1.0
  S  S167  1  0.33869162  0.60989096  0.92221034  1.0
  S  S168  1  0.68467553  0.57909802  0.92736758  1.0
  S  S169  1  0.63843472  0.75350723  0.08096551  1.0
  S  S170  1  0.32457049  0.37459706  0.08553757  1.0
  S  S171  1  0.33894543  0.21275646  0.92486364  1.0
  S  S172  1  0.52477167  0.01948220  0.84813712  1.0
  S  S173  1  0.83420978  0.83177586  0.75371524  1.0
  S  S174  1  0.51053685  0.94264008  0.23772592  1.0
  S  S175  1  0.20581502  0.18384757  0.15815326  1.0
  N  N176  1  0.32979854  0.08705715  0.30221974  1.0
  N  N177  1  0.46969713  0.10480817  0.36060560  1.0
  N  N178  1  0.53361338  0.06116397  0.30149258  1.0
  N  N179  1  0.50229235  0.93994741  0.69860072  1.0
  N  N180  1  0.56325025  0.92820571  0.63372809  1.0
  N  N181  1  0.70722902  0.92902075  0.69234555  1.0
  O  O182  1  0.94674543  0.10587642  0.09613934  1.0
  O  O183  1  0.13773089  0.16047629  0.03026555  1.0
  O  O184  1  0.18015897  0.08467038  0.09402801  1.0
  O  O185  1  0.76002339  0.13596460  0.97590600  1.0
  O  O186  1  0.26189213  0.98422438  0.09941152  1.0
  O  O187  1  0.89893141  0.16641762  0.02804547  1.0
  O  O188  1  0.22048674  0.12417244  0.97748305  1.0
  O  O189  1  0.13061023  0.01908282  0.01919755  1.0
  O  O190  1  0.98438625  0.09343987  0.97189031  1.0
  O  O191  1  0.02343589  0.98371685  0.07754331  1.0
  O  O192  1  0.87426020  0.02911585  0.02090489  1.0
  O  O193  1  0.63652864  0.02475195  0.97361719  1.0
  O  O194  1  0.33577499  0.01160001  0.97795730  1.0
  O  O195  1  0.96725201  0.97936711  0.94545389  1.0
  O  O196  1  0.15002507  0.91786430  0.97758308  1.0
  O  O197  1  0.99182280  0.89939360  0.02290791  1.0
  O  O198  1  0.80087656  0.93223207  0.97966841  1.0
  O  O199  1  0.34292843  0.93136843  0.03760569  1.0
  O  O200  1  0.20256107  0.82358376  0.03734906  1.0
  O  O201  1  0.08239120  0.79233629  0.98069954  1.0
  O  O202  1  0.80517658  0.00891387  0.09694010  1.0
  O  O203  1  0.84513426  0.80445853  0.97556044  1.0
  O  O204  1  0.12871307  0.86967138  0.10127654  1.0
  O  O205  1  0.90484245  0.88202207  0.10052358  1.0
  O  O206  1  0.66245196  0.95592563  0.03795265  1.0
  O  O207  1  0.77754005  0.83654887  0.03245175  1.0
  O  O208  1  0.03064973  0.83107322  0.90992575  1.0
  O  O209  1  0.76665602  0.10202665  0.90533989  1.0
  O  O210  1  0.82687746  0.88256934  0.90364697  1.0
  O  O211  1  0.73538254  0.97995338  0.90638051  1.0
  O  O212  1  0.08149189  0.09030698  0.90831908  1.0
  O  O213  1  0.21493576  0.97684201  0.91303353  1.0
