# generated using pymatgen
data_ZnH9C19N4Cl3O4
_symmetry_space_group_name_H-M   'P 1'
_cell_length_a   17.26353142
_cell_length_b   22.65942872
_cell_length_c   24.14125315
_cell_angle_alpha   86.07448666
_cell_angle_beta   89.53864467
_cell_angle_gamma   85.72345219
_symmetry_Int_Tables_number   1
_chemical_formula_structural   ZnH9C19N4Cl3O4
_chemical_formula_sum   'Zn4 H36 C76 N16 Cl12 O16'
_cell_volume   9395.18913356
_cell_formula_units_Z   4
loop_
 _symmetry_equiv_pos_site_id
 _symmetry_equiv_pos_as_xyz
  1  'x, y, z'
loop_
 _atom_site_type_symbol
 _atom_site_label
 _atom_site_symmetry_multiplicity
 _atom_site_fract_x
 _atom_site_fract_y
 _atom_site_fract_z
 _atom_site_occupancy
  Zn  Zn0  1  0.98563391  0.95286594  0.54217349  1.0
  Zn  Zn1  1  0.99591098  0.03687740  0.45028719  1.0
  Zn  Zn2  1  0.05911570  0.53090274  0.94736679  1.0
  Zn  Zn3  1  0.05017779  0.44277427  0.03518917  1.0
  H  H4  1  0.97655302  0.64350254  0.91943813  1.0
  H  H5  1  0.96028150  0.72363850  0.84171087  1.0
  H  H6  1  0.13012116  0.62070611  0.74885896  1.0
  H  H7  1  0.90785490  0.85758794  0.73745667  1.0
  H  H8  1  0.09149309  0.76309213  0.64943617  1.0
  H  H9  1  0.07372343  0.84313283  0.57179943  1.0
  H  H10  1  0.96629503  0.42095722  0.13668581  1.0
  H  H11  1  0.95496965  0.34413004  0.21647094  1.0
  H  H12  1  0.13746390  0.23768650  0.13884516  1.0
  H  H13  1  0.90407000  0.24042769  0.34415245  1.0
  H  H14  1  0.09554591  0.13836962  0.27183401  1.0
  H  H15  1  0.08303357  0.06116727  0.35108264  1.0
  H  H16  1  0.23612928  0.05187076  0.44113326  1.0
  H  H17  1  0.38164541  0.05177247  0.44177261  1.0
  H  H18  1  0.38872436  0.91586052  0.57520312  1.0
  H  H19  1  0.59817249  0.03989397  0.39511475  1.0
  H  H20  1  0.60118604  0.96875626  0.56490836  1.0
  H  H21  1  0.74688984  0.96776509  0.56382545  1.0
  H  H22  1  0.05951008  0.55355553  0.17004572  1.0
  H  H23  1  0.04777800  0.62776044  0.24290639  1.0
  H  H24  1  0.00063801  0.76646212  0.11442437  1.0
  H  H25  1  0.03520812  0.71194561  0.37523094  1.0
  H  H26  1  0.99690246  0.85197329  0.24683553  1.0
  H  H27  1  0.99109664  0.92610567  0.31974755  1.0
  H  H28  1  0.01162995  0.43050517  0.81384065  1.0
  H  H29  1  0.97625924  0.36176188  0.74216990  1.0
  H  H30  1  0.93548673  0.22933552  0.87326362  1.0
  H  H31  1  0.02183851  0.26854381  0.62042261  1.0
  H  H32  1  0.90780346  0.14949829  0.73511652  1.0
  H  H33  1  0.92474955  0.07070958  0.66659542  1.0
  H  H34  1  0.29826844  0.51871679  0.92206321  1.0
  H  H35  1  0.44363194  0.52058291  0.92189296  1.0
  H  H36  1  0.44860068  0.43334572  0.08575491  1.0
  H  H37  1  0.65964766  0.55886409  0.90476579  1.0
  H  H38  1  0.66241330  0.44066481  0.05192556  1.0
  H  H39  1  0.80756100  0.44239816  0.05514439  1.0
  C  C40  1  0.14257940  0.98812246  0.50114241  1.0
  C  C41  1  0.00318693  0.91042538  0.42783710  1.0
  C  C42  1  0.84182319  0.99979010  0.48492131  1.0
  C  C43  1  0.98623575  0.07553364  0.56700770  1.0
  C  C44  1  0.04829788  0.56899579  0.06178101  1.0
  C  C45  1  0.90253848  0.50006969  0.99016522  1.0
  C  C46  1  0.02787994  0.41099667  0.92085716  1.0
  C  C47  1  0.20412179  0.47763171  0.99791320  1.0
  C  C48  1  0.00966925  0.64107681  0.88091119  1.0
  C  C49  1  0.00075174  0.68493255  0.83814157  1.0
  C  C50  1  0.04554911  0.67778426  0.78986344  1.0
  C  C51  1  0.09576381  0.62710068  0.78623218  1.0
  C  C52  1  0.10044749  0.58511691  0.83141277  1.0
  C  C53  1  0.94502425  0.85303982  0.70116550  1.0
  C  C54  1  0.99977677  0.80485108  0.69900990  1.0
  C  C55  1  0.04782038  0.79997554  0.65201861  1.0
  C  C56  1  0.03797734  0.84376737  0.60921382  1.0
  C  C57  1  0.93888410  0.89459711  0.65571351  1.0
  C  C58  1  0.00266510  0.37937641  0.13921947  1.0
  C  C59  1  0.99653495  0.33727217  0.18300896  1.0
  C  C60  1  0.04597617  0.28503310  0.18284127  1.0
  C  C61  1  0.09872406  0.27776094  0.13948199  1.0
  C  C62  1  0.10070541  0.32277205  0.09697176  1.0
  C  C63  1  0.94438065  0.20114438  0.34448450  1.0
  C  C64  1  0.00018621  0.19535457  0.30287932  1.0
  C  C65  1  0.05169835  0.14417463  0.30400325  1.0
  C  C66  1  0.04471405  0.10174835  0.34742482  1.0
  C  C67  1  0.94096372  0.15550111  0.38628446  1.0
  C  C68  1  0.22990725  0.98360524  0.50614096  1.0
  C  C69  1  0.27090721  0.02174572  0.46979202  1.0
  C  C70  1  0.35097463  0.02202268  0.47004566  1.0
  C  C71  1  0.39362735  0.98309072  0.50831694  1.0
  C  C72  1  0.35483601  0.94532327  0.54545512  1.0
  C  C73  1  0.27398482  0.94509450  0.54431849  1.0
  C  C74  1  0.63126610  0.02405027  0.43209529  1.0
  C  C75  1  0.59136749  0.00410646  0.47960038  1.0
  C  C76  1  0.63272645  0.98370973  0.52797496  1.0
  C  C77  1  0.71285912  0.98330818  0.52717351  1.0
  C  C78  1  0.75489271  0.00242533  0.47969118  1.0
  C  C79  1  0.71225325  0.02283894  0.43164651  1.0
  C  C80  1  0.03855000  0.61744888  0.10157540  1.0
  C  C81  1  0.04708753  0.60066270  0.15869647  1.0
  C  C82  1  0.04044102  0.64132232  0.19902848  1.0
  C  C83  1  0.02373454  0.70173788  0.18279363  1.0
  C  C84  1  0.01414171  0.71962675  0.12643082  1.0
  C  C85  1  0.02158404  0.67810339  0.08622166  1.0
  C  C86  1  0.02482909  0.75909336  0.36329781  1.0
  C  C87  1  0.01628668  0.77732240  0.30693050  1.0
  C  C88  1  0.00349230  0.83808117  0.29070226  1.0
  C  C89  1  0.00022363  0.87872871  0.33106374  1.0
  C  C90  1  0.00845396  0.86170198  0.38817316  1.0
  C  C91  1  0.02076304  0.80062667  0.40354173  1.0
  C  C92  1  0.99809391  0.36809617  0.88298354  1.0
  C  C93  1  0.99567124  0.38578943  0.82581695  1.0
  C  C94  1  0.97576944  0.34835925  0.78631364  1.0
  C  C95  1  0.95664560  0.29072706  0.80370646  1.0
  C  C96  1  0.95270517  0.27350492  0.86039245  1.0
  C  C97  1  0.97372714  0.31164419  0.89985181  1.0
  C  C98  1  0.99905609  0.22539668  0.62964157  1.0
  C  C99  1  0.96406096  0.21355165  0.68138233  1.0
  C  C100  1  0.93508934  0.15795696  0.69483656  1.0
  C  C101  1  0.94434901  0.11486859  0.65692247  1.0
  C  C102  1  0.98017170  0.12542302  0.60488864  1.0
  C  C103  1  0.00697172  0.18178829  0.59155401  1.0
  C  C104  1  0.29107596  0.47560094  0.00313999  1.0
  C  C105  1  0.33262592  0.50018314  0.95762367  1.0
  C  C106  1  0.41260984  0.50136175  0.95733769  1.0
  C  C107  1  0.45455203  0.47707739  0.00424707  1.0
  C  C108  1  0.41512923  0.45197918  0.04982202  1.0
  C  C109  1  0.33432735  0.45133681  0.04974527  1.0
  C  C110  1  0.69244737  0.53397660  0.93816918  1.0
  C  C111  1  0.65251816  0.50045793  0.97832792  1.0
  C  C112  1  0.69389327  0.46714861  0.02126183  1.0
  C  C113  1  0.77375957  0.46856795  0.02301966  1.0
  C  C114  1  0.81560578  0.50274116  0.98372106  1.0
  C  C115  1  0.77307303  0.53544172  0.94084460  1.0
  N  N116  1  0.05919035  0.59204014  0.87810636  1.0
  N  N117  1  0.04461096  0.71797894  0.74205555  1.0
  N  N118  1  0.00109299  0.76461855  0.74674118  1.0
  N  N119  1  0.98415132  0.89040737  0.61059010  1.0
  N  N120  1  0.05353454  0.37264214  0.09664494  1.0
  N  N121  1  0.04782973  0.23686868  0.22371536  1.0
  N  N122  1  0.99867672  0.24364666  0.26215848  1.0
  N  N123  1  0.99058410  0.10688585  0.38819399  1.0
  N  N124  1  0.47540032  0.97901262  0.51334970  1.0
  N  N125  1  0.50978688  0.00675158  0.47422171  1.0
  N  N126  1  0.01572705  0.74803608  0.21937360  1.0
  N  N127  1  0.02279307  0.73101099  0.27033070  1.0
  N  N128  1  0.94516167  0.24596668  0.76722397  1.0
  N  N129  1  0.96652925  0.25935084  0.71786395  1.0
  N  N130  1  0.53595716  0.47537964  0.01045734  1.0
  N  N131  1  0.57102697  0.50289161  0.97150915  1.0
  Cl  Cl132  1  0.16084626  0.52226367  0.82623606  1.0
  Cl  Cl133  1  0.86999010  0.95282465  0.65847053  1.0
  Cl  Cl134  1  0.16571147  0.31295834  0.04425702  1.0
  Cl  Cl135  1  0.87031214  0.16311099  0.43562866  1.0
  Cl  Cl136  1  0.23405664  0.89614725  0.59297445  1.0
  Cl  Cl137  1  0.75394140  0.04663425  0.36936716  1.0
  Cl  Cl138  1  0.00616871  0.70564533  0.01807433  1.0
  Cl  Cl139  1  0.03457925  0.77251549  0.47168253  1.0
  Cl  Cl140  1  0.96647457  0.28605011  0.96882544  1.0
  Cl  Cl141  1  0.05492254  0.19915554  0.52994593  1.0
  Cl  Cl142  1  0.29387628  0.42014963  0.10973164  1.0
  Cl  Cl143  1  0.81587554  0.57714474  0.88771011  1.0
  O  O144  1  0.10481238  0.94973063  0.52838723  1.0
  O  O145  1  0.11309774  0.03089897  0.46898637  1.0
  O  O146  1  0.01951045  0.96147050  0.40740826  1.0
  O  O147  1  0.98179168  0.89767880  0.47740793  1.0
  O  O148  1  0.88080791  0.02196994  0.44502168  1.0
  O  O149  1  0.86997946  0.97550174  0.53032643  1.0
  O  O150  1  0.99778922  0.02345232  0.58998326  1.0
  O  O151  1  0.97685627  0.08897955  0.51553909  1.0
  O  O152  1  0.07209346  0.58269411  0.01293552  1.0
  O  O153  1  0.03293084  0.51742886  0.08123658  1.0
  O  O154  1  0.93244701  0.45462569  0.01884453  1.0
  O  O155  1  0.93934431  0.54176872  0.96754389  1.0
  O  O156  1  0.05500541  0.39145892  0.96778139  1.0
  O  O157  1  0.02502516  0.46500337  0.90175665  1.0
  O  O158  1  0.17488178  0.50382308  0.95364302  1.0
  O  O159  1  0.16592462  0.45335320  0.03720346  1.0
