# generated using pymatgen
data_Al3H24C48(NO7)2
_symmetry_space_group_name_H-M   'P 1'
_cell_length_a   12.02947226
_cell_length_b   12.09378324
_cell_length_c   27.93807353
_cell_angle_alpha   90.16652183
_cell_angle_beta   90.40937391
_cell_angle_gamma   60.91745562
_symmetry_Int_Tables_number   1
_chemical_formula_structural   Al3H24C48(NO7)2
_chemical_formula_sum   'Al6 H48 C96 N4 O28'
_cell_volume   3551.94216933
_cell_formula_units_Z   2
loop_
 _symmetry_equiv_pos_site_id
 _symmetry_equiv_pos_as_xyz
  1  'x, y, z'
loop_
 _atom_site_type_symbol
 _atom_site_label
 _atom_site_symmetry_multiplicity
 _atom_site_fract_x
 _atom_site_fract_y
 _atom_site_fract_z
 _atom_site_occupancy
  Al  Al0  1  0.60757478  0.59985794  0.50264377  1.0
  Al  Al1  1  0.58628102  0.34611638  0.50274541  1.0
  Al  Al2  1  0.34395211  0.59351277  0.49906381  1.0
  Al  Al3  1  0.06804975  0.08964935  0.01644731  1.0
  Al  Al4  1  0.33439509  0.09093633  0.01633063  1.0
  Al  Al5  1  0.09514126  0.34056813  0.01636247  1.0
  H  H6  1  0.55305151  0.19973819  0.78903968  1.0
  H  H7  1  0.40602462  0.15068597  0.72109635  1.0
  H  H8  1  0.52846697  0.00978711  0.22325223  1.0
  H  H9  1  0.55191922  0.02511286  0.30863788  1.0
  H  H10  1  0.13623029  0.64899444  0.21068263  1.0
  H  H11  1  0.15778750  0.66288278  0.29630114  1.0
  H  H12  1  0.24636277  0.56265004  0.37434626  1.0
  H  H13  1  0.12372643  0.94124542  0.13851588  1.0
  H  H14  1  0.17884132  0.82077431  0.37825408  1.0
  H  H15  1  0.48930125  0.42910668  0.74059080  1.0
  H  H16  1  0.51250897  0.85511676  0.13508140  1.0
  H  H17  1  0.50778973  0.68947798  0.79264021  1.0
  H  H18  1  0.67030242  0.72973092  0.29484568  1.0
  H  H19  1  0.57298251  0.72264278  0.37269939  1.0
  H  H20  1  0.96970286  0.46690588  0.15079933  1.0
  H  H21  1  0.82919093  0.50598421  0.38716916  1.0
  H  H22  1  0.96592360  0.55577933  0.23144693  1.0
  H  H23  1  0.91812864  0.56779313  0.31780007  1.0
  H  H24  1  0.83937727  0.19781779  0.13042899  1.0
  H  H25  1  0.27329328  0.55776641  0.80049448  1.0
  H  H26  1  0.68314005  0.16179803  0.28562084  1.0
  H  H27  1  0.69672924  0.23659536  0.36731552  1.0
  H  H28  1  0.81055061  0.55344580  0.78066629  1.0
  H  H29  1  0.12588014  0.50865965  0.73248521  1.0
  H  H30  1  0.18921336  0.28005224  0.78106733  1.0
  H  H31  1  0.12748811  0.86715727  0.78624558  1.0
  H  H32  1  0.13165619  0.03636918  0.71646362  1.0
  H  H33  1  0.32528226  0.66278003  0.73523737  1.0
  H  H34  1  0.51132672  0.85918887  0.72299390  1.0
  H  H35  1  0.31372820  0.06326264  0.77390987  1.0
  H  H36  1  0.56688197  0.05323552  0.37541135  1.0
  H  H37  1  0.53993212  0.15375505  0.42422362  1.0
  H  H38  1  0.12010101  0.62136357  0.14523664  1.0
  H  H39  1  0.99900157  0.37480503  0.71831928  1.0
  H  H40  1  0.14781010  0.52283193  0.09550946  1.0
  H  H41  1  0.98422015  0.96975273  0.17980002  1.0
  H  H42  1  0.92243468  0.95988993  0.23174812  1.0
  H  H43  1  0.04318240  0.89533174  0.30508929  1.0
  H  H44  1  0.64953497  0.77232424  0.20789465  1.0
  H  H45  1  0.65400902  0.11512993  0.20520949  1.0
  H  H46  1  0.70368734  0.16302706  0.15750695  1.0
  H  H47  1  0.62671371  0.50714829  0.73417776  1.0
  H  H48  1  0.67708160  0.31267030  0.80243615  1.0
  H  H49  1  0.86557330  0.13406056  0.74013591  1.0
  H  H50  1  0.04915356  0.18109101  0.78674675  1.0
  H  H51  1  0.44090328  0.11133207  0.14435872  1.0
  H  H52  1  0.70637687  0.70988655  0.53428000  1.0
  H  H53  1  0.95185606  0.99354048  0.98794717  1.0
  C  C54  1  0.73377579  0.37878107  0.57114205  1.0
  C  C55  1  0.34799063  0.38053654  0.66176678  1.0
  C  C56  1  0.21466673  0.95979607  0.73412703  1.0
  C  C57  1  0.38860447  0.40585150  0.57042017  1.0
  C  C58  1  0.21263738  0.86508472  0.77169002  1.0
  C  C59  1  0.30553039  0.91773261  0.89646603  1.0
  C  C60  1  0.34321047  0.79716332  0.61373584  1.0
  C  C61  1  0.31638522  0.97425971  0.76464184  1.0
  C  C62  1  0.31432224  0.87976441  0.80340337  1.0
  C  C63  1  0.42636737  0.86102500  0.73762535  1.0
  C  C64  1  0.32487233  0.84614514  0.70597649  1.0
  C  C65  1  0.35947633  0.38846733  0.61874552  1.0
  C  C66  1  0.42454014  0.76608899  0.77508279  1.0
  C  C67  1  0.32264939  0.75172366  0.74470046  1.0
  C  C68  1  0.31029882  0.89899938  0.85344221  1.0
  C  C69  1  0.37696943  0.74136030  0.56691016  1.0
  C  C70  1  0.33177480  0.82350699  0.65618205  1.0
  C  C71  1  0.92776881  0.36136715  0.73767007  1.0
  C  C72  1  0.82275595  0.46040157  0.77121620  1.0
  C  C73  1  0.88883238  0.34641747  0.90189617  1.0
  C  C74  1  0.78477117  0.34394989  0.61887823  1.0
  C  C75  1  0.95542210  0.25309908  0.77416557  1.0
  C  C76  1  0.25616508  0.31290467  0.77136033  1.0
  C  C77  1  0.85051430  0.35263508  0.80891802  1.0
  C  C78  1  0.85320132  0.22722826  0.74953356  1.0
  C  C79  1  0.82513300  0.33516773  0.71179825  1.0
  C  C80  1  0.74812836  0.32629794  0.78306563  1.0
  C  C81  1  0.72417881  0.38582565  0.43280207  1.0
  C  C82  1  0.72042932  0.43469512  0.74662583  1.0
  C  C83  1  0.86828189  0.35376124  0.85891207  1.0
  C  C84  1  0.80678033  0.33458905  0.66177981  1.0
  C  C85  1  0.44681694  0.24381414  0.36284413  1.0
  C  C86  1  0.43038668  0.23180849  0.31256215  1.0
  C  C87  1  0.33853018  0.33990051  0.80965331  1.0
  C  C88  1  0.40523419  0.21115220  0.21144949  1.0
  C  C89  1  0.48143185  0.10244052  0.24032791  1.0
  C  C90  1  0.49366792  0.11202239  0.28864909  1.0
  C  C91  1  0.39189451  0.20290616  0.16213551  1.0
  C  C92  1  0.31158112  0.30882071  0.13423055  1.0
  C  C93  1  0.39137548  0.39089435  0.43534947  1.0
  C  C94  1  0.29659142  0.47098611  0.35673811  1.0
  C  C95  1  0.28351874  0.46239487  0.30741222  1.0
  C  C96  1  0.35122971  0.34140885  0.28483613  1.0
  C  C97  1  0.20642599  0.57094924  0.27886023  1.0
  C  C98  1  0.22073223  0.44013718  0.74540066  1.0
  C  C99  1  0.19508442  0.56195330  0.23049917  1.0
  C  C100  1  0.25942172  0.44222095  0.20665760  1.0
  C  C101  1  0.33851624  0.33238164  0.23416257  1.0
  C  C102  1  0.24287433  0.43069025  0.15629574  1.0
  C  C103  1  0.37681528  0.36581001  0.38475376  1.0
  C  C104  1  0.25876432  0.81229423  0.35730138  1.0
  C  C105  1  0.39722006  0.72563207  0.43027454  1.0
  C  C106  1  0.24349467  0.84100739  0.30820304  1.0
  C  C107  1  0.22105402  0.88463308  0.20763616  1.0
  C  C108  1  0.11303894  0.89891513  0.23522234  1.0
  C  C109  1  0.34068452  0.36839872  0.71187191  1.0
  C  C110  1  0.12523343  0.88158669  0.28408934  1.0
  C  C111  1  0.21179630  0.91038010  0.15863909  1.0
  C  C112  1  0.31525539  0.90249845  0.13311922  1.0
  C  C113  1  0.48222951  0.75667459  0.35410928  1.0
  C  C114  1  0.47170837  0.78182976  0.30489056  1.0
  C  C115  1  0.35207429  0.82314117  0.28146435  1.0
  C  C116  1  0.57856422  0.76411552  0.27692682  1.0
  C  C117  1  0.37645352  0.24077796  0.73930773  1.0
  C  C118  1  0.56711179  0.78721843  0.22885632  1.0
  C  C119  1  0.44755520  0.83093183  0.20450868  1.0
  C  C120  1  0.30259749  0.46771449  0.78228371  1.0
  C  C121  1  0.33994948  0.84631736  0.23141805  1.0
  C  C122  1  0.43284419  0.86156701  0.15564529  1.0
  C  C123  1  0.37690369  0.76962932  0.37974547  1.0
  C  C124  1  0.81261743  0.44424653  0.36310474  1.0
  C  C125  1  0.84078787  0.43848791  0.31425834  1.0
  C  C126  1  0.89531346  0.42511907  0.21457645  1.0
  C  C127  1  0.92194837  0.50304917  0.24623762  1.0
  C  C128  1  0.89597308  0.50933650  0.29396611  1.0
  C  C129  1  0.45828536  0.26842886  0.77610319  1.0
  C  C130  1  0.92572597  0.41442519  0.16578225  1.0
  C  C131  1  0.42274868  0.39574404  0.75015808  1.0
  C  C132  1  0.90583108  0.33158855  0.13657542  1.0
  C  C133  1  0.73714144  0.29185380  0.35191147  1.0
  C  C134  1  0.76017914  0.28650794  0.30250826  1.0
  C  C135  1  0.81336798  0.36010332  0.28345427  1.0
  C  C136  1  0.72917964  0.21263036  0.27087538  1.0
  C  C137  1  0.75128187  0.20774039  0.22241343  1.0
  C  C138  1  0.81308912  0.27466830  0.20280381  1.0
  C  C139  1  0.83965800  0.35372488  0.23374364  1.0
  C  C140  1  0.84980446  0.26272187  0.15485972  1.0
  C  C141  1  0.32241464  0.31043836  0.90226785  1.0
  C  C142  1  0.33217481  0.32451780  0.85956275  1.0
  C  C143  1  0.76195785  0.37079154  0.38165683  1.0
  C  C144  1  0.28259817  0.96078707  0.94532249  1.0
  C  C145  1  0.29229236  0.28687123  0.94950145  1.0
  C  C146  1  0.93937459  0.31350741  0.94967800  1.0
  C  C147  1  0.29089843  0.95029445  0.08314108  1.0
  C  C148  1  0.29407604  0.28514840  0.08380738  1.0
  C  C149  1  0.95434123  0.30598836  0.08681318  1.0
  N  N150  1  0.52865672  0.14151608  0.38893039  1.0
  N  N151  1  0.16232355  0.53416568  0.13056110  1.0
  N  N152  1  0.00218757  0.92329639  0.21150039  1.0
  N  N153  1  0.72181852  0.13397135  0.19213354  1.0
  O  O154  1  0.48647418  0.71326584  0.55212229  1.0
  O  O155  1  0.18335112  0.36806770  0.96558253  1.0
  O  O156  1  0.96253464  0.39343210  0.97231797  1.0
  O  O157  1  0.70273964  0.48994275  0.55815878  1.0
  O  O158  1  0.96711429  0.20651633  0.06690133  1.0
  O  O159  1  0.18277064  0.98114959  0.06544661  1.0
  O  O160  1  0.37859398  0.96377466  0.06167768  1.0
  O  O161  1  0.36934580  0.17609424  0.06607844  1.0
  O  O162  1  0.20021205  0.37161114  0.05929718  1.0
  O  O163  1  0.98497681  0.38479570  0.06779194  1.0
  O  O164  1  0.16689324  0.17461777  0.01553918  1.0
  O  O165  1  0.48534590  0.30680991  0.46051499  1.0
  O  O166  1  0.71881152  0.29620276  0.54652227  1.0
  O  O167  1  0.49726890  0.32290633  0.55470018  1.0
  O  O168  1  0.30790567  0.50478744  0.54803183  1.0
  O  O169  1  0.29450317  0.71963385  0.54515991  1.0
  O  O170  1  0.50184994  0.70032325  0.44987181  1.0
  O  O171  1  0.71807468  0.47932014  0.45538890  1.0
  O  O172  1  0.69433719  0.30505740  0.45055812  1.0
  O  O173  1  0.31273341  0.49955759  0.45248384  1.0
  O  O174  1  0.30880500  0.71034410  0.45019737  1.0
  O  O175  1  0.51117266  0.51234794  0.50216979  1.0
  O  O176  1  0.96233951  0.20603042  0.96465819  1.0
  O  O177  1  0.17718565  0.98386521  0.96300399  1.0
  O  O178  1  0.36994976  0.97686497  0.96604211  1.0
  O  O179  1  0.37202410  0.18491877  0.97065438  1.0
  O  O180  1  0.69660369  0.67967946  0.50331290  1.0
  O  O181  1  0.97788738  0.01093202  0.01858908  1.0
