# generated using pymatgen
data_Dy2H30C45(SO8)3
_symmetry_space_group_name_H-M   'P 1'
_cell_length_a   9.23499923
_cell_length_b   15.59204936
_cell_length_c   21.81171274
_cell_angle_alpha   102.84966815
_cell_angle_beta   101.60101974
_cell_angle_gamma   104.70021073
_symmetry_Int_Tables_number   1
_chemical_formula_structural   Dy2H30C45(SO8)3
_chemical_formula_sum   'Dy4 H60 C90 S6 O48'
_cell_volume   2849.26057099
_cell_formula_units_Z   2
loop_
 _symmetry_equiv_pos_site_id
 _symmetry_equiv_pos_as_xyz
  1  'x, y, z'
loop_
 _atom_site_type_symbol
 _atom_site_label
 _atom_site_symmetry_multiplicity
 _atom_site_fract_x
 _atom_site_fract_y
 _atom_site_fract_z
 _atom_site_occupancy
  Dy  Dy0  1  0.50701500  0.86338198  0.81600226  1.0
  Dy  Dy1  1  0.03347161  0.90667686  0.85291399  1.0
  Dy  Dy2  1  0.49297804  0.13661716  0.18399665  1.0
  Dy  Dy3  1  0.96652955  0.09332089  0.14708493  1.0
  H  H4  1  0.87569008  0.83610489  0.67543845  1.0
  H  H5  1  0.73250029  0.84049734  0.56780303  1.0
  H  H6  1  0.30635714  0.90244759  0.62208957  1.0
  H  H7  1  0.65075090  0.78643597  0.45203267  1.0
  H  H8  1  0.66820248  0.90531576  0.48883965  1.0
  H  H9  1  0.67849080  0.86808920  0.40627529  1.0
  H  H10  1  0.97307942  0.84413708  0.36448730  1.0
  H  H11  1  0.95865699  0.91091423  0.26943771  1.0
  H  H12  1  0.45704697  0.01580559  0.32069156  1.0
  H  H13  1  0.47408635  0.95186031  0.41729348  1.0
  H  H14  1  0.97526741  0.66742095  0.91512144  1.0
  H  H15  1  0.89785740  0.50866713  0.92910500  1.0
  H  H16  1  0.26045119  0.44773925  0.84647220  1.0
  H  H17  1  0.33997798  0.60865885  0.83535497  1.0
  H  H18  1  0.04884273  0.22873803  0.00945861  1.0
  H  H19  1  0.48139769  0.16737603  0.02913298  1.0
  H  H20  1  0.58289175  0.29036570  0.97983879  1.0
  H  H21  1  0.66202791  0.44685714  0.98242958  1.0
  H  H22  1  0.59216493  0.36403635  0.90258115  1.0
  H  H23  1  0.58712422  0.48017187  0.91200074  1.0
  H  H24  1  0.55890251  0.56277610  0.79456205  1.0
  H  H25  1  0.00408691  0.55532416  0.69935994  1.0
  H  H26  1  0.93113858  0.69860414  0.72395425  1.0
  H  H27  1  0.95457560  0.39332712  0.64744418  1.0
  H  H28  1  0.09643451  0.44354202  0.72636624  1.0
  H  H29  1  0.99648681  0.32190300  0.69797003  1.0
  H  H30  1  0.22972084  0.27319475  0.79233660  1.0
  H  H31  1  0.19145317  0.15027120  0.84910297  1.0
  H  H32  1  0.60773681  0.09665793  0.81518924  1.0
  H  H33  1  0.64723572  0.21934047  0.75730331  1.0
  H  H34  1  0.12431511  0.16389633  0.32456181  1.0
  H  H35  1  0.26750158  0.15950597  0.43219820  1.0
  H  H36  1  0.69364178  0.09755224  0.37790811  1.0
  H  H37  1  0.34924620  0.21356456  0.54796772  1.0
  H  H38  1  0.33179827  0.09468753  0.51116056  1.0
  H  H39  1  0.32150812  0.13191271  0.59372410  1.0
  H  H40  1  0.02692435  0.15585930  0.63551345  1.0
  H  H41  1  0.04133905  0.08908214  0.73056285  1.0
  H  H42  1  0.54295013  0.98419495  0.67930975  1.0
  H  H43  1  0.52591370  0.04813952  0.58270659  1.0
  H  H44  1  0.02473776  0.33258234  0.08487869  1.0
  H  H45  1  0.10214445  0.49133825  0.07089793  1.0
  H  H46  1  0.73954042  0.55225921  0.15353015  1.0
  H  H47  1  0.66002282  0.39133821  0.16464335  1.0
  H  H48  1  0.95115439  0.77126042  0.99054146  1.0
  H  H49  1  0.51860052  0.83262242  0.97086580  1.0
  H  H50  1  0.41710903  0.70963552  0.02016202  1.0
  H  H51  1  0.33797064  0.55314616  0.01757183  1.0
  H  H52  1  0.40783399  0.63596765  0.09742132  1.0
  H  H53  1  0.41287029  0.51983005  0.08800057  1.0
  H  H54  1  0.44109749  0.43722580  0.20543514  1.0
  H  H55  1  0.99592053  0.44467499  0.30064202  1.0
  H  H56  1  0.06886846  0.30139431  0.27604252  1.0
  H  H57  1  0.04542558  0.60667064  0.35255658  1.0
  H  H58  1  0.90356852  0.55645505  0.27363410  1.0
  H  H59  1  0.00351694  0.67809546  0.30203060  1.0
  H  H60  1  0.77027366  0.72680925  0.20766596  1.0
  H  H61  1  0.80853988  0.84972793  0.15089548  1.0
  H  H62  1  0.39225475  0.90334259  0.18481023  1.0
  H  H63  1  0.35276319  0.78066353  0.24269870  1.0
  C  C64  1  0.18619744  0.86466910  0.71990439  1.0
  C  C65  1  0.10010448  0.86854373  0.65613682  1.0
  C  C66  1  0.93868108  0.85226823  0.64010377  1.0
  C  C67  1  0.85818219  0.85512961  0.57973814  1.0
  C  C68  1  0.93910730  0.87712777  0.53430704  1.0
  C  C69  1  0.10235026  0.89633982  0.55203672  1.0
  C  C70  1  0.18126890  0.89020654  0.61089622  1.0
  C  C71  1  0.70710477  0.85880803  0.45500555  1.0
  C  C72  1  0.22455345  0.89317564  0.39444252  1.0
  C  C73  1  0.07804502  0.88092839  0.35394266  1.0
  C  C74  1  0.07042577  0.91795987  0.30140576  1.0
  C  C75  1  0.20727115  0.96566899  0.28929245  1.0
  C  C76  1  0.35255738  0.97770997  0.33080812  1.0
  C  C77  1  0.36228076  0.94193990  0.38403335  1.0
  C  C78  1  0.20062877  0.00624665  0.23290338  1.0
  C  C79  1  0.20658308  0.74300927  0.86689603  1.0
  C  C80  1  0.16308449  0.64753853  0.87536404  1.0
  C  C81  1  0.03851143  0.61949949  0.90145764  1.0
  C  C82  1  0.99425139  0.53090419  0.90868251  1.0
  C  C83  1  0.07519539  0.47021967  0.88869349  1.0
  C  C84  1  0.20014021  0.49657331  0.86231894  1.0
  C  C85  1  0.24402958  0.58586219  0.85608839  1.0
  C  C86  1  0.22452921  0.31391217  0.97794208  1.0
  C  C87  1  0.16577703  0.24255433  0.00310181  1.0
  C  C88  1  0.25956978  0.19030625  0.02294946  1.0
  C  C89  1  0.40956157  0.20873490  0.01424551  1.0
  C  C90  1  0.46682672  0.27812495  0.98688320  1.0
  C  C91  1  0.37523269  0.33249222  0.96858744  1.0
  C  C92  1  0.20727134  0.12343041  0.05903150  1.0
  C  C93  1  0.57561819  0.42370145  0.93461931  1.0
  C  C94  1  0.70110348  0.72777601  0.77753693  1.0
  C  C95  1  0.74014056  0.64069663  0.76057462  1.0
  C  C96  1  0.65717518  0.56194845  0.77426159  1.0
  C  C97  1  0.70310066  0.48339799  0.76347063  1.0
  C  C98  1  0.82815373  0.47825041  0.73615795  1.0
  C  C99  1  0.90763687  0.55673682  0.72072865  1.0
  C  C100  1  0.86571276  0.63711256  0.73410112  1.0
  C  C101  1  0.98583925  0.39011305  0.69799520  1.0
  C  C102  1  0.43913499  0.25147120  0.77144805  1.0
  C  C103  1  0.31121001  0.23391487  0.79694532  1.0
  C  C104  1  0.29065767  0.16568454  0.82902917  1.0
  C  C105  1  0.39748500  0.11636407  0.83525847  1.0
  C  C106  1  0.52597823  0.13564401  0.80960462  1.0
  C  C107  1  0.54770818  0.20329950  0.77719771  1.0
  C  C108  1  0.37102943  0.04005378  0.86707441  1.0
  C  C109  1  0.81380001  0.13533211  0.28009522  1.0
  C  C110  1  0.89989960  0.13145749  0.34386243  1.0
  C  C111  1  0.06131787  0.14772952  0.35989450  1.0
  C  C112  1  0.14181931  0.14487091  0.42026078  1.0
  C  C113  1  0.06089384  0.12287206  0.46569221  1.0
  C  C114  1  0.89764867  0.10366001  0.44796234  1.0
  C  C115  1  0.81872711  0.10978982  0.38910113  1.0
  C  C116  1  0.29289341  0.14119457  0.54499480  1.0
  C  C117  1  0.77545103  0.10682421  0.60555885  1.0
  C  C118  1  0.92195618  0.11906730  0.64605777  1.0
  C  C119  1  0.92957468  0.08203650  0.69859471  1.0
  C  C120  1  0.79272154  0.03432945  0.71070725  1.0
  C  C121  1  0.64744301  0.02229264  0.66919288  1.0
  C  C122  1  0.63772077  0.05805854  0.61596525  1.0
  C  C123  1  0.79938419  0.99375251  0.76709813  1.0
  C  C124  1  0.79341108  0.25698987  0.13310389  1.0
  C  C125  1  0.83691411  0.35245854  0.12463501  1.0
  C  C126  1  0.96148858  0.38050450  0.09854309  1.0
  C  C127  1  0.00575231  0.46910049  0.09131909  1.0
  C  C128  1  0.92479990  0.52977948  0.11130975  1.0
  C  C129  1  0.79985913  0.50342515  0.13768268  1.0
  C  C130  1  0.75596903  0.41413488  0.14391249  1.0
  C  C131  1  0.77546974  0.68608767  0.02205882  1.0
  C  C132  1  0.83422046  0.75744273  0.99689761  1.0
  C  C133  1  0.74043065  0.80969220  0.97705043  1.0
  C  C134  1  0.59043702  0.79126216  0.98575263  1.0
  C  C135  1  0.53316963  0.72187627  0.01311632  1.0
  C  C136  1  0.62476773  0.66750832  0.03141414  1.0
  C  C137  1  0.79273278  0.87656666  0.94096802  1.0
  C  C138  1  0.42438734  0.57630254  0.06538142  1.0
  C  C139  1  0.29891273  0.27222520  0.22245876  1.0
  C  C140  1  0.25986351  0.35930458  0.23942233  1.0
  C  C141  1  0.34282629  0.43805206  0.22573320  1.0
  C  C142  1  0.29690272  0.51660186  0.23653064  1.0
  C  C143  1  0.17184963  0.52174943  0.26384194  1.0
  C  C144  1  0.09237018  0.44326163  0.27927088  1.0
  C  C145  1  0.13429649  0.36288588  0.26589630  1.0
  C  C146  1  0.01416303  0.60988471  0.30200519  1.0
  C  C147  1  0.56086061  0.74853279  0.22855413  1.0
  C  C148  1  0.68878632  0.76608842  0.20305544  1.0
  C  C149  1  0.70933720  0.83431806  0.17097182  1.0
  C  C150  1  0.60250549  0.88363229  0.16473933  1.0
  C  C151  1  0.47401151  0.86435513  0.19039585  1.0
  C  C152  1  0.45228674  0.79669895  0.22280401  1.0
  C  C153  1  0.62895735  0.95994813  0.13292808  1.0
  S  S154  1  0.23499381  0.84643179  0.46141549  1.0
  S  S155  1  0.01533955  0.35722663  0.89733806  1.0
  S  S156  1  0.46325981  0.33803860  0.73089140  1.0
  S  S157  1  0.76501251  0.15356737  0.53858546  1.0
  S  S158  1  0.98465903  0.64277668  0.10266702  1.0
  S  S159  1  0.53673985  0.66196471  0.26911057  1.0
  O  O160  1  0.12005897  0.86799496  0.76601886  1.0
  O  O161  1  0.32389393  0.85879209  0.72688947  1.0
  O  O162  1  0.87382191  0.88131137  0.47447906  1.0
  O  O163  1  0.18479419  0.92499892  0.50900533  1.0
  O  O164  1  0.11621377  0.75858707  0.44495432  1.0
  O  O165  1  0.39458810  0.85644773  0.49141459  1.0
  O  O166  1  0.06844884  0.99789010  0.19659538  1.0
  O  O167  1  0.33022685  0.04742415  0.22499416  1.0
  O  O168  1  0.12190377  0.79313121  0.88092680  1.0
  O  O169  1  0.32554085  0.76825883  0.84646192  1.0
  O  O170  1  0.86432957  0.33944487  0.90916093  1.0
  O  O171  1  0.04564210  0.29116977  0.84794552  1.0
  O  O172  1  0.14062139  0.37536651  0.96815507  1.0
  O  O173  1  0.46268393  0.99179780  0.86728584  1.0
  O  O174  1  0.25475591  0.02519334  0.89103607  1.0
  O  O175  1  0.06556875  0.09957146  0.06083580  1.0
  O  O176  1  0.31013474  0.09571387  0.09016011  1.0
  O  O177  1  0.34490984  0.38262531  0.73491066  1.0
  O  O178  1  0.62866369  0.40748246  0.78272682  1.0
  O  O179  1  0.56459831  0.72635750  0.78158541  1.0
  O  O180  1  0.42034086  0.40217239  0.94228747  1.0
  O  O181  1  0.80978484  0.80394127  0.78909510  1.0
  O  O182  1  0.86306170  0.39839249  0.72824464  1.0
  O  O183  1  0.49114737  0.30525227  0.66864775  1.0
  O  O184  1  0.87994987  0.13200694  0.23397723  1.0
  O  O185  1  0.67611713  0.14120982  0.27310864  1.0
  O  O186  1  0.12617849  0.11868915  0.52552070  1.0
  O  O187  1  0.81519959  0.07499951  0.49099170  1.0
  O  O188  1  0.88379663  0.24140932  0.55504562  1.0
  O  O189  1  0.60541819  0.14355766  0.50859101  1.0
  O  O190  1  0.93154644  0.00210697  0.80340340  1.0
  O  O191  1  0.66976736  0.95257085  0.77500741  1.0
  O  O192  1  0.87811613  0.20687070  0.11906976  1.0
  O  O193  1  0.67446587  0.23173060  0.15352973  1.0
  O  O194  1  0.13566752  0.66055983  0.09084516  1.0
  O  O195  1  0.95434983  0.70883353  0.15205717  1.0
  O  O196  1  0.85938086  0.62463542  0.03184735  1.0
  O  O197  1  0.53731284  0.00819788  0.13271238  1.0
  O  O198  1  0.74524411  0.97481066  0.10896603  1.0
  O  O199  1  0.93442211  0.90042560  0.93916260  1.0
  O  O200  1  0.68985939  0.90428734  0.90983876  1.0
  O  O201  1  0.65509350  0.61737869  0.26509217  1.0
  O  O202  1  0.37134148  0.59252084  0.21727377  1.0
  O  O203  1  0.43540685  0.27364580  0.21841335  1.0
  O  O204  1  0.57965476  0.59782952  0.05771394  1.0
  O  O205  1  0.19021966  0.19605441  0.21090332  1.0
  O  O206  1  0.13694426  0.60160805  0.27175879  1.0
  O  O207  1  0.50884976  0.69474619  0.33135415  1.0
