# generated using pymatgen
data_CuH5C15NO6
_symmetry_space_group_name_H-M   'P 1'
_cell_length_a   10.95253206
_cell_length_b   15.13399049
_cell_length_c   20.49597559
_cell_angle_alpha   111.66933528
_cell_angle_beta   105.51057077
_cell_angle_gamma   89.98919872
_symmetry_Int_Tables_number   1
_chemical_formula_structural   CuH5C15NO6
_chemical_formula_sum   'Cu4 H20 C60 N4 O24'
_cell_volume   3023.76962544
_cell_formula_units_Z   4
loop_
 _symmetry_equiv_pos_site_id
 _symmetry_equiv_pos_as_xyz
  1  'x, y, z'
loop_
 _atom_site_type_symbol
 _atom_site_label
 _atom_site_symmetry_multiplicity
 _atom_site_fract_x
 _atom_site_fract_y
 _atom_site_fract_z
 _atom_site_occupancy
  Cu  Cu0  1  0.44568872  0.52397522  0.04791147  1.0
  Cu  Cu1  1  0.89776941  0.97602028  0.95208234  1.0
  Cu  Cu2  1  0.10223084  0.02397963  0.04791835  1.0
  Cu  Cu3  1  0.55431048  0.47602397  0.95208838  1.0
  H  H4  1  0.26662161  0.24931929  0.78025576  1.0
  H  H5  1  0.24272847  0.87136442  0.56970417  1.0
  H  H6  1  0.98658682  0.25072930  0.21974424  1.0
  H  H7  1  0.17294120  0.62869577  0.43038121  1.0
  H  H8  1  0.01332659  0.03117582  0.78024888  1.0
  H  H9  1  0.82701598  0.19828245  0.56972640  1.0
  H  H10  1  0.73327826  0.46890587  0.21970671  1.0
  H  H11  1  0.75746645  0.30158573  0.43019631  1.0
  H  H12  1  0.73337296  0.75068061  0.21974216  1.0
  H  H13  1  0.75727157  0.12863405  0.43029561  1.0
  H  H14  1  0.01341143  0.74926990  0.78025597  1.0
  H  H15  1  0.82705842  0.37130628  0.56961899  1.0
  H  H16  1  0.98667260  0.96882338  0.21975098  1.0
  H  H17  1  0.17298416  0.80171673  0.43027310  1.0
  H  H18  1  0.26671999  0.53109333  0.78029204  1.0
  H  H19  1  0.24253790  0.69841633  0.56980409  1.0
  H  H20  1  0.24259116  0.24244583  0.98490817  1.0
  H  H21  1  0.75762454  0.25747100  0.01506437  1.0
  H  H22  1  0.75740814  0.75755408  0.01509092  1.0
  H  H23  1  0.24237540  0.74252677  0.98493521  1.0
  C  C24  1  0.35205811  0.34525957  0.92762519  1.0
  C  C25  1  0.26166552  0.25606996  0.88674406  1.0
  C  C26  1  0.22581829  0.21659860  0.81004365  1.0
  C  C27  1  0.15549931  0.01699257  0.65843464  1.0
  C  C28  1  0.11441138  0.97821683  0.57709967  1.0
  C  C29  1  0.16942010  0.90085333  0.53849602  1.0
  C  C30  1  0.92459702  0.15474452  0.07239273  1.0
  C  C31  1  0.87501697  0.24390767  0.11323832  1.0
  C  C32  1  0.91599819  0.28345599  0.18993569  1.0
  C  C33  1  0.99723949  0.48300537  0.34161810  1.0
  C  C34  1  0.03725322  0.52185283  0.42295394  1.0
  C  C35  1  0.13081682  0.59924379  0.46157778  1.0
  C  C36  1  0.07545370  0.08247899  0.92763532  1.0
  C  C37  1  0.12494562  0.13079249  0.88675034  1.0
  C  C38  1  0.08397583  0.09364598  0.81004386  1.0
  C  C39  1  0.00276245  0.14135796  0.65839218  1.0
  C  C40  1  0.96271350  0.09884888  0.57708316  1.0
  C  C41  1  0.86906897  0.13760407  0.53848916  1.0
  C  C42  1  0.64792508  0.41752933  0.07232051  1.0
  C  C43  1  0.73830109  0.36920005  0.11321656  1.0
  C  C44  1  0.77413489  0.40643107  0.18991587  1.0
  C  C45  1  0.84455862  0.35862019  0.34156125  1.0
  C  C46  1  0.88575473  0.40108564  0.42288131  1.0
  C  C47  1  0.83073266  0.36227365  0.46144343  1.0
  C  C48  1  0.64794024  0.65474034  0.07237425  1.0
  C  C49  1  0.73833094  0.74392995  0.11325560  1.0
  C  C50  1  0.77417911  0.78340130  0.18995565  1.0
  C  C51  1  0.84449894  0.98300663  0.34156509  1.0
  C  C52  1  0.88558781  0.02178237  0.42289970  1.0
  C  C53  1  0.83057900  0.09914514  0.46150362  1.0
  C  C54  1  0.07540238  0.84525610  0.92760852  1.0
  C  C55  1  0.12498117  0.75609081  0.88676217  1.0
  C  C56  1  0.08399911  0.71654321  0.81006487  1.0
  C  C57  1  0.00276392  0.51699669  0.65838265  1.0
  C  C58  1  0.96274649  0.47814994  0.57704696  1.0
  C  C59  1  0.86918448  0.40075684  0.53842179  1.0
  C  C60  1  0.92454560  0.91752092  0.07236426  1.0
  C  C61  1  0.87505357  0.86920670  0.11324903  1.0
  C  C62  1  0.91602063  0.90635392  0.18995482  1.0
  C  C63  1  0.99723675  0.85864123  0.34160719  1.0
  C  C64  1  0.03728580  0.90115103  0.42291691  1.0
  C  C65  1  0.13093202  0.86239441  0.46151076  1.0
  C  C66  1  0.35207622  0.58247129  0.92768003  1.0
  C  C67  1  0.26169600  0.63079771  0.88678310  1.0
  C  C68  1  0.22586346  0.59356883  0.81008357  1.0
  C  C69  1  0.15544563  0.64138115  0.65844040  1.0
  C  C70  1  0.11424941  0.59891500  0.57711965  1.0
  C  C71  1  0.16927243  0.63772698  0.53855620  1.0
  C  C72  1  0.13623718  0.13637970  0.77262922  1.0
  C  C73  1  0.21264606  0.21261378  0.92521262  1.0
  C  C74  1  0.01951906  0.01951301  0.53904310  1.0
  C  C75  1  0.86379618  0.36367721  0.22734739  1.0
  C  C76  1  0.78742789  0.28732519  0.07475492  1.0
  C  C77  1  0.98050091  0.48048469  0.46096142  1.0
  C  C78  1  0.86376107  0.86361950  0.22737050  1.0
  C  C79  1  0.78735208  0.78738470  0.07478543  1.0
  C  C80  1  0.98048013  0.98048619  0.46095676  1.0
  C  C81  1  0.13620322  0.63632342  0.77265289  1.0
  C  C82  1  0.21257120  0.71267329  0.92524522  1.0
  C  C83  1  0.01950429  0.51951666  0.53904037  1.0
  N  N84  1  0.09672251  0.09678202  0.69350479  1.0
  N  N85  1  0.90335362  0.40326276  0.30648051  1.0
  N  N86  1  0.90327574  0.90321717  0.30649493  1.0
  N  N87  1  0.09664778  0.59673857  0.69352024  1.0
  O  O88  1  0.33789933  0.40116599  0.98881563  1.0
  O  O89  1  0.43543043  0.35853943  0.89786388  1.0
  O  O90  1  0.23562355  0.98307748  0.69422893  1.0
  O  O91  1  0.84922687  0.09884323  0.01119611  1.0
  O  O92  1  0.03775841  0.14150466  0.10218680  1.0
  O  O93  1  0.04179845  0.51686782  0.30589047  1.0
  O  O94  1  0.15083672  0.08786806  0.98886204  1.0
  O  O95  1  0.96235062  0.03933874  0.89783244  1.0
  O  O96  1  0.95811545  0.21093627  0.69411413  1.0
  O  O97  1  0.66210852  0.41217807  0.01111892  1.0
  O  O98  1  0.56451999  0.46058370  0.10205160  1.0
  O  O99  1  0.76435178  0.28895321  0.30577454  1.0
  O  O100  1  0.66210092  0.59883392  0.01118409  1.0
  O  O101  1  0.56456982  0.64146047  0.10213583  1.0
  O  O102  1  0.76437670  0.01692243  0.30577078  1.0
  O  O103  1  0.15077338  0.90115668  0.98880409  1.0
  O  O104  1  0.96223995  0.85849525  0.89781313  1.0
  O  O105  1  0.95820159  0.48313709  0.69410959  1.0
  O  O106  1  0.84916268  0.91213256  0.01113823  1.0
  O  O107  1  0.03764878  0.96066188  0.10216735  1.0
  O  O108  1  0.04188469  0.78906292  0.30588586  1.0
  O  O109  1  0.33789257  0.58782113  0.98888121  1.0
  O  O110  1  0.43547931  0.53941621  0.89794749  1.0
  O  O111  1  0.23565511  0.71104672  0.69422711  1.0
