# generated using pymatgen
data_Zn2H5C24Br(NO3)8
_symmetry_space_group_name_H-M   'P 1'
_cell_length_a   9.16495959
_cell_length_b   10.85044938
_cell_length_c   35.62708510
_cell_angle_alpha   89.77092246
_cell_angle_beta   90.61687118
_cell_angle_gamma   89.93006048
_symmetry_Int_Tables_number   1
_chemical_formula_structural   Zn2H5C24Br(NO3)8
_chemical_formula_sum   'Zn4 H10 C48 Br2 N16 O48'
_cell_volume   3542.66087842
_cell_formula_units_Z   2
loop_
 _symmetry_equiv_pos_site_id
 _symmetry_equiv_pos_as_xyz
  1  'x, y, z'
loop_
 _atom_site_type_symbol
 _atom_site_label
 _atom_site_symmetry_multiplicity
 _atom_site_fract_x
 _atom_site_fract_y
 _atom_site_fract_z
 _atom_site_occupancy
  Zn  Zn0  1  0.64381611  0.99946624  0.50062110  1.0
  Zn  Zn1  1  0.36026397  0.99608778  0.49946519  1.0
  Zn  Zn2  1  0.26613886  0.99607623  0.99943207  1.0
  Zn  Zn3  1  0.54972602  0.99196041  0.00057179  1.0
  H  H4  1  0.28705497  0.99608655  0.75282852  1.0
  H  H5  1  0.62024761  0.99565669  0.74715598  1.0
  H  H6  1  0.28835794  0.00555521  0.24668509  1.0
  H  H7  1  0.62172559  0.99930955  0.25337722  1.0
  H  H8  1  0.73355666  0.60737192  0.49507544  1.0
  H  H9  1  0.26753142  0.61988161  0.50769493  1.0
  H  H10  1  0.72268388  0.37680021  0.49545945  1.0
  H  H11  1  0.17772949  0.60401189  0.00450710  1.0
  H  H12  1  0.64408770  0.61572752  0.99259668  1.0
  H  H13  1  0.18842532  0.37344053  0.00393502  1.0
  C  C14  1  0.50214995  0.76408220  0.50117859  1.0
  C  C15  1  0.50279408  0.00046288  0.57264701  1.0
  C  C16  1  0.49579458  0.23099779  0.49942814  1.0
  C  C17  1  0.50837851  0.99552006  0.42746705  1.0
  C  C18  1  0.40950215  0.76034470  0.99896819  1.0
  C  C19  1  0.40501035  0.99813116  0.92735723  1.0
  C  C20  1  0.41532035  0.22720105  0.00029579  1.0
  C  C21  1  0.40026068  0.99126254  0.07258173  1.0
  C  C22  1  0.40643261  0.99842436  0.88506918  1.0
  C  C23  1  0.53668016  0.99430864  0.86487053  1.0
  C  C24  1  0.53887762  0.00063900  0.82588701  1.0
  C  C25  1  0.41041592  0.99785953  0.80361445  1.0
  C  C26  1  0.28000418  0.99717910  0.82459311  1.0
  C  C27  1  0.27791488  0.00369566  0.86354615  1.0
  C  C28  1  0.39916467  0.99725200  0.76269421  1.0
  C  C29  1  0.50813064  0.99729483  0.73729647  1.0
  C  C30  1  0.62746593  0.99807632  0.67543212  1.0
  C  C31  1  0.49695130  0.99845033  0.69637748  1.0
  C  C32  1  0.36854149  0.00138074  0.67406928  1.0
  C  C33  1  0.37090706  0.99549814  0.63509489  1.0
  C  C34  1  0.50120943  0.99998112  0.61493291  1.0
  C  C35  1  0.62963404  0.00498084  0.63647375  1.0
  C  C36  1  0.40239191  0.99427326  0.11485887  1.0
  C  C37  1  0.53347742  0.99902517  0.13539961  1.0
  C  C38  1  0.53717755  0.99463864  0.17440165  1.0
  C  C39  1  0.40959500  0.99884836  0.19629572  1.0
  C  C40  1  0.27830203  0.99894170  0.17494379  1.0
  C  C41  1  0.27473855  0.99076721  0.13601046  1.0
  C  C42  1  0.40002169  0.00148928  0.23716504  1.0
  C  C43  1  0.50996446  0.00015511  0.26288651  1.0
  C  C44  1  0.63115613  0.00060281  0.32514480  1.0
  C  C45  1  0.50001129  0.99999596  0.30375132  1.0
  C  C46  1  0.37223929  0.99714712  0.32558634  1.0
  C  C47  1  0.37572460  0.00275184  0.36456350  1.0
  C  C48  1  0.50664162  0.99793843  0.38518199  1.0
  C  C49  1  0.63447244  0.99358648  0.36411927  1.0
  C  C50  1  0.49000218  0.36821146  0.50047036  1.0
  C  C51  1  0.50036339  0.62686140  0.50105294  1.0
  C  C52  1  0.36067790  0.43774709  0.50401066  1.0
  C  C53  1  0.62989984  0.55927938  0.49760315  1.0
  C  C54  1  0.36677108  0.56602337  0.50452783  1.0
  C  C55  1  0.62352169  0.43162272  0.49769034  1.0
  C  C56  1  0.42123027  0.36442629  0.99921704  1.0
  C  C57  1  0.41111438  0.62311358  0.99894593  1.0
  C  C58  1  0.55066501  0.43373531  0.99585154  1.0
  C  C59  1  0.28141058  0.55575277  0.00209610  1.0
  C  C60  1  0.54471394  0.56204976  0.99554448  1.0
  C  C61  1  0.28769433  0.42808212  0.00188112  1.0
  Br  Br62  1  0.17183083  0.36866715  0.51032892  1.0
  Br  Br63  1  0.73940487  0.36438800  0.98942511  1.0
  N  N64  1  0.13401740  0.01707058  0.88207367  1.0
  N  N65  1  0.13732691  0.99230585  0.80449880  1.0
  N  N66  1  0.67915540  0.98215486  0.88502141  1.0
  N  N67  1  0.68421760  0.01117453  0.80833850  1.0
  N  N68  1  0.22299338  0.01154611  0.69152994  1.0
  N  N69  1  0.22866460  0.98335777  0.61488623  1.0
  N  N70  1  0.77014046  0.99315726  0.69554195  1.0
  N  N71  1  0.77355562  0.01844275  0.61795162  1.0
  N  N72  1  0.13027332  0.97786431  0.11700755  1.0
  N  N73  1  0.13634070  0.00458323  0.19458189  1.0
  N  N74  1  0.67516436  0.01031742  0.11562270  1.0
  N  N75  1  0.68325310  0.98492614  0.19240772  1.0
  N  N76  1  0.22626574  0.98706118  0.30757659  1.0
  N  N77  1  0.23405243  0.01519130  0.38426823  1.0
  N  N78  1  0.77314823  0.00573758  0.30551247  1.0
  N  N79  1  0.77884656  0.98078878  0.38324092  1.0
  O  O80  1  0.62228156  0.81777044  0.49339524  1.0
  O  O81  1  0.38194756  0.81834122  0.50910048  1.0
  O  O82  1  0.38568349  0.03344136  0.55612676  1.0
  O  O83  1  0.62122426  0.96795873  0.55732232  1.0
  O  O84  1  0.38072925  0.17333240  0.48909955  1.0
  O  O85  1  0.61744938  0.18021696  0.50853869  1.0
  O  O86  1  0.62571643  0.02946642  0.44370972  1.0
  O  O87  1  0.39218065  0.95919124  0.44301627  1.0
  O  O88  1  0.28939992  0.81411489  0.00671949  1.0
  O  O89  1  0.52988281  0.81451116  0.99116054  1.0
  O  O90  1  0.52226230  0.03029577  0.94381954  1.0
  O  O91  1  0.28651619  0.96577327  0.94274470  1.0
  O  O92  1  0.53045721  0.16907410  0.01063282  1.0
  O  O93  1  0.29359406  0.17692592  0.99129637  1.0
  O  O94  1  0.28284016  0.02544153  0.05626617  1.0
  O  O95  1  0.51629964  0.95456903  0.05709081  1.0
  O  O96  1  0.10917455  0.11773127  0.89638573  1.0
  O  O97  1  0.05315189  0.92655592  0.88050061  1.0
  O  O98  1  0.10997835  0.89644260  0.78736373  1.0
  O  O99  1  0.06010267  0.08510633  0.80672316  1.0
  O  O100  1  0.70510192  0.88080657  0.89919714  1.0
  O  O101  1  0.75811164  0.07389697  0.88470838  1.0
  O  O102  1  0.71441110  0.11282983  0.79494324  1.0
  O  O103  1  0.76079650  0.91758864  0.80864785  1.0
  O  O104  1  0.19226499  0.11299574  0.70479277  1.0
  O  O105  1  0.14674679  0.91794157  0.69126000  1.0
  O  O106  1  0.20355926  0.88223794  0.60074189  1.0
  O  O107  1  0.14904167  0.07486086  0.61510896  1.0
  O  O108  1  0.79801027  0.89710232  0.71278788  1.0
  O  O109  1  0.84686566  0.08610969  0.69318575  1.0
  O  O110  1  0.79817706  0.11910913  0.60340849  1.0
  O  O111  1  0.85467750  0.92790760  0.61974139  1.0
  O  O112  1  0.10428016  0.87710082  0.10278549  1.0
  O  O113  1  0.05023348  0.06909840  0.11802405  1.0
  O  O114  1  0.10971164  0.10072179  0.21153821  1.0
  O  O115  1  0.05887641  0.91201989  0.19219351  1.0
  O  O116  1  0.69928811  0.11050443  0.10067940  1.0
  O  O117  1  0.75552600  0.91927537  0.11703217  1.0
  O  O118  1  0.71463405  0.88366851  0.20613219  1.0
  O  O119  1  0.75915796  0.07869840  0.19213526  1.0
  O  O120  1  0.19536636  0.88577316  0.29411887  1.0
  O  O121  1  0.14990948  0.08077646  0.30759666  1.0
  O  O122  1  0.21039197  0.11582251  0.39877512  1.0
  O  O123  1  0.15335051  0.92453477  0.38327882  1.0
  O  O124  1  0.79923293  0.10127542  0.28799698  1.0
  O  O125  1  0.85115561  0.91340732  0.30845929  1.0
  O  O126  1  0.80491628  0.88012836  0.39781212  1.0
  O  O127  1  0.85871550  0.07193351  0.38196315  1.0
