# generated using pymatgen
data_Zn3H21(C23O15)2
_symmetry_space_group_name_H-M   'P 1'
_cell_length_a   18.17900432
_cell_length_b   18.37462389
_cell_length_c   18.70802991
_cell_angle_alpha   109.56038986
_cell_angle_beta   108.10550578
_cell_angle_gamma   107.90634017
_symmetry_Int_Tables_number   1
_chemical_formula_structural   Zn3H21(C23O15)2
_chemical_formula_sum   'Zn6 H42 C92 O60'
_cell_volume   4971.14639185
_cell_formula_units_Z   2
loop_
 _symmetry_equiv_pos_site_id
 _symmetry_equiv_pos_as_xyz
  1  'x, y, z'
loop_
 _atom_site_type_symbol
 _atom_site_label
 _atom_site_symmetry_multiplicity
 _atom_site_fract_x
 _atom_site_fract_y
 _atom_site_fract_z
 _atom_site_occupancy
  Zn  Zn0  1  0.43476780  0.48480282  0.43721141  1.0
  Zn  Zn1  1  0.58217273  0.49303079  0.56362686  1.0
  Zn  Zn2  1  0.99165593  0.94498821  0.43335441  1.0
  Zn  Zn3  1  0.98356640  0.06958484  0.55607741  1.0
  Zn  Zn4  1  0.55048376  0.06159570  0.98269554  1.0
  Zn  Zn5  1  0.42923715  0.92473323  0.99569665  1.0
  H  H6  1  0.89070998  0.74104522  0.52088158  1.0
  H  H7  1  0.60579778  0.73208762  0.64614393  1.0
  H  H8  1  0.71282484  0.88790028  0.71979955  1.0
  H  H9  1  0.68114161  0.99999949  0.80626413  1.0
  H  H10  1  0.96779906  0.04125499  0.31835332  1.0
  H  H11  1  0.87726031  0.96593066  0.05301057  1.0
  H  H12  1  0.63316300  0.05537582  0.24857871  1.0
  H  H13  1  0.02927698  0.72802400  0.56568605  1.0
  H  H14  1  0.22168271  0.86425835  0.82938289  1.0
  H  H15  1  0.70047616  0.79427022  0.59680616  1.0
  H  H16  1  0.80618067  0.89702938  0.59144787  1.0
  H  H17  1  0.77564805  0.75789476  0.63660247  1.0
  H  H18  1  0.82646900  0.69369778  0.41102203  1.0
  H  H19  1  0.48769075  0.75228826  0.37490901  1.0
  H  H20  1  0.95878236  0.92832851  0.65381968  1.0
  H  H21  1  0.38211497  0.31295661  0.10953230  1.0
  H  H22  1  0.73992083  0.47317636  0.47867894  1.0
  H  H23  1  0.57096519  0.05579653  0.50584951  1.0
  H  H24  1  0.41651123  0.19375247  0.35734284  1.0
  H  H25  1  0.53645257  0.45142461  0.75960613  1.0
  H  H26  1  0.04585928  0.31317428  0.58848004  1.0
  H  H27  1  0.20309616  0.95780441  0.33201688  1.0
  H  H28  1  0.62793914  0.25175275  0.50900717  1.0
  H  H29  1  0.47993350  0.96923723  0.79174586  1.0
  H  H30  1  0.76061975  0.75847531  0.31519234  1.0
  H  H31  1  0.20646208  0.70348730  0.75324327  1.0
  H  H32  1  0.70118811  0.95919267  0.37972320  1.0
  H  H33  1  0.06266102  0.02596950  0.26131024  1.0
  H  H34  1  0.80292724  0.03820446  0.00421948  1.0
  H  H35  1  0.25983996  0.25710824  0.71836499  1.0
  H  H36  1  0.15072461  0.89359942  0.52610914  1.0
  H  H37  1  0.69988750  0.95164402  0.48068715  1.0
  H  H38  1  0.00042354  0.67300794  0.66843616  1.0
  H  H39  1  0.48497894  0.04727314  0.24944639  1.0
  H  H40  1  0.48209337  0.28032992  0.91881303  1.0
  H  H41  1  0.84183073  0.69342784  0.60845332  1.0
  H  H42  1  0.58592016  0.47845908  0.29866068  1.0
  H  H43  1  0.42617194  0.19232914  0.08336829  1.0
  H  H44  1  0.60836668  0.64732727  0.36645869  1.0
  H  H45  1  0.31221718  0.50243302  0.71786026  1.0
  H  H46  1  0.15439869  0.41705756  0.62436031  1.0
  H  H47  1  0.32940591  0.57412046  0.62363815  1.0
  C  C48  1  0.48131112  0.38255808  0.35355302  1.0
  C  C49  1  0.52517788  0.26218896  0.32714887  1.0
  C  C50  1  0.49228373  0.31278958  0.29568721  1.0
  C  C51  1  0.62495365  0.61633388  0.50602267  1.0
  C  C52  1  0.45681336  0.28690090  0.20822856  1.0
  C  C53  1  0.44736861  0.20838773  0.15028513  1.0
  C  C54  1  0.46626135  0.15242347  0.17807185  1.0
  C  C55  1  0.34179316  0.40837076  0.64385298  1.0
  C  C56  1  0.28643297  0.43818902  0.66467369  1.0
  C  C57  1  0.19577927  0.38643857  0.61465547  1.0
  C  C58  1  0.16045486  0.30023269  0.55417806  1.0
  C  C59  1  0.81024651  0.80173489  0.48912325  1.0
  C  C60  1  0.21755191  0.26424618  0.53925279  1.0
  C  C61  1  0.30669430  0.32403034  0.57330705  1.0
  C  C62  1  0.35481958  0.29847476  0.53076268  1.0
  C  C63  1  0.46452250  0.59767497  0.58881657  1.0
  C  C64  1  0.32555641  0.21093781  0.47920541  1.0
  C  C65  1  0.24860360  0.14752529  0.46876911  1.0
  C  C66  1  0.19186452  0.17315576  0.49259970  1.0
  C  C67  1  0.59603468  0.78115044  0.68860492  1.0
  C  C68  1  0.65492163  0.86769540  0.72890193  1.0
  C  C69  1  0.63825450  0.93093976  0.77875306  1.0
  C  C70  1  0.81556521  0.83859401  0.57986404  1.0
  C  C71  1  0.56565827  0.90734503  0.79200594  1.0
  C  C72  1  0.50724732  0.81738792  0.75786581  1.0
  C  C73  1  0.52068042  0.75393193  0.70044062  1.0
  C  C74  1  0.45575546  0.66532963  0.65348492  1.0
  C  C75  1  0.42249837  0.36948526  0.52773784  1.0
  C  C76  1  0.38135724  0.64065741  0.66364098  1.0
  C  C77  1  0.37337291  0.69989209  0.72782582  1.0
  C  C78  1  0.43759722  0.78652236  0.77820254  1.0
  C  C79  1  0.87797551  0.03769642  0.40122712  1.0
  C  C80  1  0.87690449  0.87160215  0.48270724  1.0
  C  C81  1  0.82543698  0.72140636  0.47228080  1.0
  C  C82  1  0.10688264  0.03085020  0.63269103  1.0
  C  C83  1  0.11175932  0.10593724  0.48120065  1.0
  C  C84  1  0.62665195  0.01021687  0.09911461  1.0
  C  C85  1  0.46358704  0.07573943  0.11286029  1.0
  C  C86  1  0.36959017  0.01659570  0.89422920  1.0
  C  C87  1  0.64589981  0.70669719  0.42885121  1.0
  C  C88  1  0.44028811  0.84354946  0.85799376  1.0
  C  C89  1  0.91640917  0.02505195  0.25829814  1.0
  C  C90  1  0.93129150  0.00666417  0.18789965  1.0
  C  C91  1  0.86570737  0.98540775  0.10875725  1.0
  C  C92  1  0.57967250  0.29014800  0.41571327  1.0
  C  C93  1  0.78826243  0.98657791  0.10177474  1.0
  C  C94  1  0.77316074  0.01076014  0.17544924  1.0
  C  C95  1  0.83725593  0.02554621  0.25413630  1.0
  C  C96  1  0.82194814  0.04324018  0.32755573  1.0
  C  C97  1  0.75041813  0.05670181  0.32554463  1.0
  C  C98  1  0.68990019  0.04631419  0.24948550  1.0
  C  C99  1  0.71567838  0.77055629  0.41738995  1.0
  C  C100  1  0.69871070  0.02147613  0.17533928  1.0
  C  C101  1  0.10796543  0.86314287  0.61487626  1.0
  C  C102  1  0.07662276  0.78970785  0.62352067  1.0
  C  C103  1  0.58710511  0.22993097  0.44197784  1.0
  C  C104  1  0.11243094  0.79202010  0.70355051  1.0
  C  C105  1  0.18789496  0.86499832  0.77064543  1.0
  C  C106  1  0.21881662  0.94343387  0.76578158  1.0
  C  C107  1  0.16850041  0.94529742  0.69058639  1.0
  C  C108  1  0.17823720  0.02768678  0.69696110  1.0
  C  C109  1  0.24742366  0.10397961  0.76764543  1.0
  C  C110  1  0.31034464  0.10000952  0.83189316  1.0
  C  C111  1  0.74550477  0.77008578  0.58417836  1.0
  C  C112  1  0.29666292  0.02133270  0.83208607  1.0
  C  C113  1  0.75296149  0.64917734  0.47357091  1.0
  C  C114  1  0.54644004  0.14033794  0.38185294  1.0
  C  C115  1  0.69102408  0.68535308  0.49797211  1.0
  C  C116  1  0.57921834  0.73694038  0.44049770  1.0
  C  C117  1  0.90749323  0.87139219  0.64813206  1.0
  C  C118  1  0.44047902  0.34448679  0.17219741  1.0
  C  C119  1  0.64579070  0.38344146  0.47655856  1.0
  C  C120  1  0.54481587  0.07252668  0.40887680  1.0
  C  C121  1  0.37315508  0.17925614  0.43416161  1.0
  C  C122  1  0.43672494  0.46265626  0.70575419  1.0
  C  C123  1  0.06451787  0.25187902  0.49506260  1.0
  C  C124  1  0.23223220  0.05398189  0.43396592  1.0
  C  C125  1  0.51011748  0.11499601  0.29557880  1.0
  C  C126  1  0.54474348  0.97772000  0.83146867  1.0
  C  C127  1  0.70928326  0.72154040  0.32716086  1.0
  C  C128  1  0.29188116  0.66752461  0.73654716  1.0
  C  C129  1  0.73123621  0.07965745  0.40052889  1.0
  C  C130  1  0.01533357  0.00791001  0.19589025  1.0
  C  C131  1  0.71980197  0.95139122  0.01240521  1.0
  C  C132  1  0.25754390  0.19164484  0.77792865  1.0
  C  C133  1  0.09455404  0.84847293  0.52718588  1.0
  C  C134  1  0.70418522  0.84887337  0.41629771  1.0
  C  C135  1  0.07182906  0.71382040  0.71113397  1.0
  C  C136  1  0.50027867  0.17514970  0.26629122  1.0
  C  C137  1  0.38888557  0.18378456  0.90201622  1.0
  C  C138  1  0.80432961  0.63478297  0.54489426  1.0
  C  C139  1  0.70661275  0.56634150  0.38575524  1.0
  O  O140  1  0.41892067  0.40025411  0.32485132  1.0
  O  O141  1  0.55109049  0.95407296  0.07596970  1.0
  O  O142  1  0.51083840  0.09783684  0.07876975  1.0
  O  O143  1  0.53170410  0.41813967  0.43275940  1.0
  O  O144  1  0.41722396  0.99776018  0.09493551  1.0
  O  O145  1  0.44580902  0.06692066  0.90999688  1.0
  O  O146  1  0.35068496  0.96261956  0.92151716  1.0
  O  O147  1  0.48711571  0.92561332  0.89049493  1.0
  O  O148  1  0.40184335  0.81465320  0.89656637  1.0
  O  O149  1  0.54480903  0.58900613  0.46226890  1.0
  O  O150  1  0.66034184  0.59305699  0.55972740  1.0
  O  O151  1  0.89781856  0.08862620  0.47832476  1.0
  O  O152  1  0.40547049  0.56257602  0.51102245  1.0
  O  O153  1  0.52657499  0.57986932  0.61356479  1.0
  O  O154  1  0.38717646  0.39199221  0.47515956  1.0
  O  O155  1  0.50377237  0.40038734  0.57546528  1.0
  O  O156  1  0.90041946  0.97762284  0.38118062  1.0
  O  O157  1  0.57024445  0.76482917  0.50439331  1.0
  O  O158  1  0.52815744  0.73003230  0.36506326  1.0
  O  O159  1  0.92660057  0.84062492  0.69555003  1.0
  O  O160  1  0.49227605  0.42156337  0.20443892  1.0
  O  O161  1  0.66259754  0.42572278  0.55241283  1.0
  O  O162  1  0.90514273  0.84610193  0.42940671  1.0
  O  O163  1  0.69198568  0.41109217  0.44023938  1.0
  O  O164  1  0.51685932  0.99565102  0.35974081  1.0
  O  O165  1  0.57647034  0.10511703  0.49476140  1.0
  O  O166  1  0.39742130  0.12582797  0.44068444  1.0
  O  O167  1  0.38361365  0.21567049  0.38387503  1.0
  O  O168  1  0.47444559  0.54183117  0.74412804  1.0
  O  O169  1  0.47454039  0.41202680  0.72012358  1.0
  O  O170  1  0.03292865  0.19968989  0.41972324  1.0
  O  O171  1  0.01208748  0.27291642  0.52718006  1.0
  O  O172  1  0.24446431  0.01923195  0.47853599  1.0
  O  O173  1  0.89745174  0.95007988  0.53035463  1.0
  O  O174  1  0.20592390  0.01559337  0.34872373  1.0
  O  O175  1  0.60101786  0.05141389  0.89429516  1.0
  O  O176  1  0.65241512  0.64857469  0.27433780  1.0
  O  O177  1  0.25951803  0.59788041  0.73572158  1.0
  O  O178  1  0.25592503  0.72153700  0.73950371  1.0
  O  O179  1  0.73408041  0.14941721  0.43819255  1.0
  O  O180  1  0.70474228  0.01448107  0.41989746  1.0
  O  O181  1  0.03336672  0.99051160  0.13634726  1.0
  O  O182  1  0.64734512  0.89124517  0.97945618  1.0
  O  O183  1  0.74666149  0.98645012  0.96589074  1.0
  O  O184  1  0.07978082  0.97989030  0.55458507  1.0
  O  O185  1  0.26878925  0.24924056  0.84271414  1.0
  O  O186  1  0.25483652  0.19935596  0.70776151  1.0
  O  O187  1  0.03266938  0.78592187  0.46118273  1.0
  O  O188  1  0.70054916  0.86425925  0.35619703  1.0
  O  O189  1  0.70192035  0.89984757  0.48522105  1.0
  O  O190  1  0.11104712  0.69165311  0.75955241  1.0
  O  O191  1  0.40640149  0.21411139  0.97738523  1.0
  O  O192  1  0.43534876  0.22417553  0.87050703  1.0
  O  O193  1  0.81467710  0.57006738  0.53654823  1.0
  O  O194  1  0.74507803  0.54580512  0.34595836  1.0
  O  O195  1  0.07472129  0.08080916  0.65975614  1.0
  O  O196  1  0.62188543  0.52306038  0.36097686  1.0
  O  O197  1  0.08009203  0.02731350  0.42224381  1.0
  O  O198  1  0.08206511  0.12941084  0.53325511  1.0
  O  O199  1  0.64746977  0.06166670  0.06850009  1.0
