# generated using pymatgen
data_ZnH9C18NO6
_symmetry_space_group_name_H-M   'P 1'
_cell_length_a   11.80602506
_cell_length_b   13.15664807
_cell_length_c   13.15904512
_cell_angle_alpha   88.52135435
_cell_angle_beta   85.90000996
_cell_angle_gamma   85.17107535
_symmetry_Int_Tables_number   1
_chemical_formula_structural   ZnH9C18NO6
_chemical_formula_sum   'Zn2 H18 C36 N2 O12'
_cell_volume   2031.09443082
_cell_formula_units_Z   2
loop_
 _symmetry_equiv_pos_site_id
 _symmetry_equiv_pos_as_xyz
  1  'x, y, z'
loop_
 _atom_site_type_symbol
 _atom_site_label
 _atom_site_symmetry_multiplicity
 _atom_site_fract_x
 _atom_site_fract_y
 _atom_site_fract_z
 _atom_site_occupancy
  Zn  Zn0  1  0.38111972  0.49878807  0.49639639  1.0
  Zn  Zn1  1  0.61888519  0.50121430  0.50360917  1.0
  H  H2  1  0.17109205  0.59372236  0.58852278  1.0
  H  H3  1  0.72542048  0.48347857  0.17297736  1.0
  H  H4  1  0.71326953  0.16967298  0.55181531  1.0
  H  H5  1  0.28673870  0.83032110  0.44816741  1.0
  H  H6  1  0.96143743  0.65270227  0.64514123  1.0
  H  H7  1  0.03856811  0.34730316  0.35486119  1.0
  H  H8  1  0.24519386  0.36834411  0.37391516  1.0
  H  H9  1  0.75481089  0.63166058  0.62608580  1.0
  H  H10  1  0.82891134  0.40627775  0.41148215  1.0
  H  H11  1  0.63943778  0.48454261  0.82013509  1.0
  H  H12  1  0.36055666  0.51548505  0.17986756  1.0
  H  H13  1  0.37066876  0.18190003  0.46108056  1.0
  H  H14  1  0.62933481  0.81810928  0.53891430  1.0
  H  H15  1  0.83969980  0.46994185  0.03514977  1.0
  H  H16  1  0.16029637  0.53010713  0.96485236  1.0
  H  H17  1  0.18292358  0.96958325  0.41128037  1.0
  H  H18  1  0.81708074  0.03040628  0.58870724  1.0
  H  H19  1  0.27457573  0.51655898  0.82702574  1.0
  C  C20  1  0.53469829  0.30087937  0.50198459  1.0
  C  C21  1  0.01842449  0.53565869  0.53397445  1.0
  C  C22  1  0.98158128  0.46434369  0.46602801  1.0
  C  C23  1  0.82240228  0.58625882  0.58315747  1.0
  C  C24  1  0.17760173  0.41374434  0.41684584  1.0
  C  C25  1  0.93581806  0.59722971  0.59301131  1.0
  C  C26  1  0.06418675  0.40277421  0.40699042  1.0
  C  C27  1  0.46531160  0.69912448  0.49801912  1.0
  C  C28  1  0.86283634  0.45918549  0.46183155  1.0
  C  C29  1  0.13716772  0.54081689  0.53817406  1.0
  C  C30  1  0.45837023  0.50060410  0.81294640  1.0
  C  C31  1  0.54161995  0.49942358  0.18706030  1.0
  C  C32  1  0.54104596  0.18640238  0.50543900  1.0
  C  C33  1  0.45896260  0.81359775  0.49455346  1.0
  C  C34  1  0.46658045  0.49873648  0.69856892  1.0
  C  C35  1  0.65641766  0.48707450  0.02569583  1.0
  C  C36  1  0.34357351  0.51296232  0.97430911  1.0
  C  C37  1  0.35369937  0.97666101  0.45963176  1.0
  C  C38  1  0.64630924  0.02333919  0.54034777  1.0
  C  C39  1  0.53341571  0.50127969  0.30143916  1.0
  C  C40  1  0.64820563  0.48924664  0.13142522  1.0
  C  C41  1  0.35178988  0.51078941  0.86857339  1.0
  C  C42  1  0.35953484  0.87083128  0.46635849  1.0
  C  C43  1  0.64047636  0.12916809  0.53362699  1.0
  C  C44  1  0.44238815  0.50742753  0.13617821  1.0
  C  C45  1  0.55760457  0.49260012  0.86382986  1.0
  C  C46  1  0.55265070  0.86290250  0.51794909  1.0
  C  C47  1  0.44735418  0.13710150  0.48203896  1.0
  C  C48  1  0.44564989  0.50519003  0.02859405  1.0
  C  C49  1  0.55434601  0.49484064  0.97141073  1.0
  C  C50  1  0.55039465  0.97059526  0.51511397  1.0
  C  C51  1  0.44960881  0.02940576  0.48486510  1.0
  C  C52  1  0.77389512  0.47763967  0.97757792  1.0
  C  C53  1  0.22609957  0.52239561  0.02242456  1.0
  C  C54  1  0.24574139  0.02614120  0.42481941  1.0
  C  C55  1  0.75426446  0.97385062  0.57516578  1.0
  N  N56  1  0.21247215  0.48232957  0.48184639  1.0
  N  N57  1  0.78753196  0.51767205  0.51815923  1.0
  O  O58  1  0.43559512  0.34631956  0.49818726  1.0
  O  O59  1  0.37221853  0.65712635  0.49655324  1.0
  O  O60  1  0.37396446  0.50119558  0.65415687  1.0
  O  O61  1  0.62603248  0.49883281  0.34584485  1.0
  O  O62  1  0.62779175  0.34287378  0.50343380  1.0
  O  O63  1  0.80387473  0.47804249  0.88627502  1.0
  O  O64  1  0.19611465  0.52197378  0.11373043  1.0
  O  O65  1  0.22052897  0.11755817  0.40979749  1.0
  O  O66  1  0.56441209  0.65368416  0.50184321  1.0
  O  O67  1  0.77946797  0.88243908  0.59018737  1.0
  O  O68  1  0.56661005  0.49497984  0.65535989  1.0
  O  O69  1  0.43339382  0.50501417  0.34464437  1.0
