# generated using pymatgen
data_ZnH17C24NCl7O4
_symmetry_space_group_name_H-M   'P 1'
_cell_length_a   14.64857831
_cell_length_b   15.14168869
_cell_length_c   15.87447778
_cell_angle_alpha   91.70213259
_cell_angle_beta   89.56809986
_cell_angle_gamma   89.93597352
_symmetry_Int_Tables_number   1
_chemical_formula_structural   ZnH17C24NCl7O4
_chemical_formula_sum   'Zn2 H34 C48 N2 Cl14 O8'
_cell_volume   3519.36924729
_cell_formula_units_Z   2
loop_
 _symmetry_equiv_pos_site_id
 _symmetry_equiv_pos_as_xyz
  1  'x, y, z'
loop_
 _atom_site_type_symbol
 _atom_site_label
 _atom_site_symmetry_multiplicity
 _atom_site_fract_x
 _atom_site_fract_y
 _atom_site_fract_z
 _atom_site_occupancy
  Zn  Zn0  1  0.39500320  0.49632296  0.50282404  1.0
  Zn  Zn1  1  0.60256130  0.49940735  0.49801054  1.0
  H  H2  1  0.93629369  0.52380582  0.62471921  1.0
  H  H3  1  0.64413285  0.16881195  0.32556859  1.0
  H  H4  1  0.68778161  0.64106776  0.92592762  1.0
  H  H5  1  0.57671948  0.68655110  0.92071638  1.0
  H  H6  1  0.61643050  0.61277935  0.83896692  1.0
  H  H7  1  0.32503035  0.55180803  0.83708420  1.0
  H  H8  1  0.28074094  0.48259314  0.91569433  1.0
  H  H9  1  0.26535197  0.59876261  0.92531748  1.0
  H  H10  1  0.71825780  0.58100569  0.08169334  1.0
  H  H11  1  0.65161815  0.54731250  0.16878664  1.0
  H  H12  1  0.69118829  0.46839310  0.09147602  1.0
  H  H13  1  0.06109026  0.62944502  0.53809775  1.0
  H  H14  1  0.24870364  0.54261871  0.06274660  1.0
  H  H15  1  0.29761956  0.43869443  0.03644146  1.0
  H  H16  1  0.30804937  0.48535771  0.14114026  1.0
  H  H17  1  0.43336296  0.27338797  0.06836677  1.0
  H  H18  1  0.44586208  0.33763733  0.16279506  1.0
  H  H19  1  0.35360473  0.35698938  0.09479340  1.0
  H  H20  1  0.64221938  0.37530937  0.03455202  1.0
  H  H21  1  0.59879458  0.37240369  0.14042266  1.0
  H  H22  1  0.57598784  0.28558844  0.06643561  1.0
  H  H23  1  0.40639720  0.01546356  0.38466947  1.0
  H  H24  1  0.42255739  0.07160657  0.61732749  1.0
  H  H25  1  0.46481400  0.94518959  0.31043865  1.0
  H  H26  1  0.35890676  0.91163628  0.35170826  1.0
  H  H27  1  0.59408408  0.02447280  0.64083078  1.0
  H  H28  1  0.52925690  0.95704967  0.70847343  1.0
  H  H29  1  0.64005619  0.92347430  0.67750591  1.0
  H  H30  1  0.59557913  0.04648179  0.39811982  1.0
  H  H31  1  0.36697666  0.28746219  0.61183260  1.0
  H  H32  1  0.39690617  0.20592282  0.68564725  1.0
  H  H33  1  0.47076032  0.29615007  0.66657803  1.0
  H  H34  1  0.59218155  0.27416033  0.34447339  1.0
  H  H35  1  0.69113675  0.24639764  0.39999048  1.0
  C  C36  1  0.52015731  0.66504002  0.50348707  1.0
  C  C37  1  0.54180801  0.81380265  0.57669671  1.0
  C  C38  1  0.51366990  0.76425264  0.50585005  1.0
  C  C39  1  0.50417737  0.94983712  0.50969615  1.0
  C  C40  1  0.46336146  0.10195440  0.56818859  1.0
  C  C41  1  0.56035918  0.08803305  0.44546506  1.0
  C  C42  1  0.47407810  0.49742269  0.66101952  1.0
  C  C43  1  0.47044417  0.19403307  0.56796925  1.0
  C  C44  1  0.56976219  0.17976671  0.44286129  1.0
  C  C45  1  0.52408018  0.23257071  0.50452514  1.0
  C  C46  1  0.50789673  0.04797080  0.50769778  1.0
  C  C47  1  0.49277320  0.40154443  0.05070393  1.0
  C  C48  1  0.90061662  0.51372393  0.56535960  1.0
  C  C49  1  0.09726830  0.56867892  0.52095165  1.0
  C  C50  1  0.80552847  0.51711245  0.56354594  1.0
  C  C51  1  0.19216513  0.56523795  0.52626685  1.0
  C  C52  1  0.80328709  0.48612571  0.42053361  1.0
  C  C53  1  0.19586274  0.42048260  0.47693747  1.0
  C  C54  1  0.89933295  0.48505477  0.41553575  1.0
  C  C55  1  0.09993754  0.41655928  0.47271442  1.0
  C  C56  1  0.94881938  0.49651611  0.49056130  1.0
  C  C57  1  0.04990116  0.49359351  0.49321662  1.0
  C  C58  1  0.47856521  0.40249090  0.95196492  1.0
  C  C59  1  0.52926240  0.33123156  0.50087775  1.0
  C  C60  1  0.46837462  0.49956186  0.34141458  1.0
  C  C61  1  0.40299794  0.56203404  0.95213831  1.0
  C  C62  1  0.58475024  0.54526018  0.95328138  1.0
  C  C63  1  0.57734872  0.55641228  0.05291584  1.0
  C  C64  1  0.39435932  0.54997637  0.05084547  1.0
  C  C65  1  0.47290905  0.50259254  0.25061418  1.0
  C  C66  1  0.48991853  0.50205477  0.91872455  1.0
  C  C67  1  0.48711592  0.50512945  0.08376277  1.0
  C  C68  1  0.42359856  0.24859867  0.63653569  1.0
  C  C69  1  0.48270992  0.50531087  0.17474205  1.0
  C  C70  1  0.62723886  0.21916519  0.37439064  1.0
  C  C71  1  0.61720745  0.62777477  0.90698718  1.0
  C  C72  1  0.31259035  0.54603938  0.90481010  1.0
  C  C73  1  0.66505838  0.53505641  0.10141707  1.0
  C  C74  1  0.30702211  0.49941663  0.07386090  1.0
  C  C75  1  0.42547952  0.33997508  0.09656894  1.0
  C  C76  1  0.58442365  0.35726651  0.07384196  1.0
  C  C77  1  0.42241974  0.94648607  0.36799760  1.0
  C  C78  1  0.57808280  0.95599281  0.65535510  1.0
  C  C79  1  0.48879233  0.49948138  0.82782518  1.0
  C  C80  1  0.48038019  0.49838711  0.75187251  1.0
  C  C81  1  0.46906646  0.90181857  0.43935120  1.0
  C  C82  1  0.54009331  0.90651184  0.57994926  1.0
  C  C83  1  0.47697146  0.80942142  0.43830165  1.0
  N  N84  1  0.75743814  0.50204320  0.49297063  1.0
  N  N85  1  0.24092737  0.49325209  0.50335724  1.0
  Cl  Cl86  1  0.37002022  0.65345173  0.10820875  1.0
  Cl  Cl87  1  0.68213596  0.47320717  0.92423699  1.0
  Cl  Cl88  1  0.36945797  0.35510793  0.92073090  1.0
  Cl  Cl89  1  0.55220012  0.32499975  0.89539933  1.0
  Cl  Cl90  1  0.44189941  0.74888240  0.34964652  1.0
  Cl  Cl91  1  0.57903763  0.75735583  0.66405665  1.0
  Cl  Cl92  1  0.56965653  0.67415914  0.08172869  1.0
  Cl  Cl93  1  0.74716893  0.54084162  0.65490194  1.0
  Cl  Cl94  1  0.24929651  0.65624014  0.56365281  1.0
  Cl  Cl95  1  0.74090387  0.46686687  0.33184194  1.0
  Cl  Cl96  1  0.25904670  0.32979176  0.44874945  1.0
  Cl  Cl97  1  0.95394164  0.47317501  0.32021935  1.0
  Cl  Cl98  1  0.04599829  0.31946714  0.44680222  1.0
  Cl  Cl99  1  0.42080014  0.67629451  0.92424414  1.0
  O  O100  1  0.44526218  0.62398708  0.50715780  1.0
  O  O101  1  0.60005481  0.63170987  0.49831240  1.0
  O  O102  1  0.39373270  0.49496782  0.63007955  1.0
  O  O103  1  0.54932212  0.49897168  0.62135447  1.0
  O  O104  1  0.45353505  0.37182093  0.49957716  1.0
  O  O105  1  0.60825403  0.36729243  0.49846656  1.0
  O  O106  1  0.38924953  0.49757853  0.37572307  1.0
  O  O107  1  0.54492331  0.49844131  0.37800008  1.0
