# generated using pymatgen
data_ZnH12C26N3(OF)4
_symmetry_space_group_name_H-M   'P 1'
_cell_length_a   18.30216157
_cell_length_b   19.22620716
_cell_length_c   19.72070915
_cell_angle_alpha   90.31696556
_cell_angle_beta   90.00619626
_cell_angle_gamma   89.90996880
_symmetry_Int_Tables_number   1
_chemical_formula_structural   ZnH12C26N3(OF)4
_chemical_formula_sum   'Zn2 H24 C52 N6 O8 F8'
_cell_volume   6939.23102401
_cell_formula_units_Z   2
loop_
 _symmetry_equiv_pos_site_id
 _symmetry_equiv_pos_as_xyz
  1  'x, y, z'
loop_
 _atom_site_type_symbol
 _atom_site_label
 _atom_site_symmetry_multiplicity
 _atom_site_fract_x
 _atom_site_fract_y
 _atom_site_fract_z
 _atom_site_occupancy
  Zn  Zn0  1  0.57737096  0.49982615  0.49939810  1.0
  Zn  Zn1  1  0.42263498  0.49996227  0.49935389  1.0
  H  H2  1  0.61709675  0.27938588  0.51399990  1.0
  H  H3  1  0.61793906  0.50004813  0.28222412  1.0
  H  H4  1  0.38209737  0.49946535  0.28217355  1.0
  H  H5  1  0.61789037  0.50053988  0.71693880  1.0
  H  H6  1  0.69336700  0.57514899  0.57507502  1.0
  H  H7  1  0.30621389  0.42461633  0.42444310  1.0
  H  H8  1  0.69396545  0.42466020  0.42447466  1.0
  H  H9  1  0.30647765  0.57510191  0.57505265  1.0
  H  H10  1  0.83003293  0.57915843  0.57835890  1.0
  H  H11  1  0.16956646  0.42072510  0.42170909  1.0
  H  H12  1  0.83061648  0.42070066  0.42168915  1.0
  H  H13  1  0.38291131  0.72067122  0.51457165  1.0
  H  H14  1  0.16979975  0.57918486  0.57838042  1.0
  H  H15  1  0.93267951  0.48597276  0.39148133  1.0
  H  H16  1  0.06732726  0.51417016  0.60862512  1.0
  H  H17  1  0.93260568  0.51414613  0.60862605  1.0
  H  H18  1  0.06739782  0.48599473  0.39148547  1.0
  H  H19  1  0.61712759  0.72047415  0.51453468  1.0
  H  H20  1  0.38287172  0.27958786  0.51396385  1.0
  H  H21  1  0.61758203  0.15039668  0.53294861  1.0
  H  H22  1  0.38240704  0.84991915  0.53337328  1.0
  H  H23  1  0.61751339  0.84970479  0.53334245  1.0
  H  H24  1  0.38248277  0.15061076  0.53291302  1.0
  H  H25  1  0.38206344  0.49995462  0.71692170  1.0
  C  C26  1  0.49999990  0.49917802  0.36635176  1.0
  C  C27  1  0.47245397  0.44383182  0.96382073  1.0
  C  C28  1  0.50005966  0.49984386  0.07186057  1.0
  C  C29  1  0.49995704  0.50017020  0.92725484  1.0
  C  C30  1  0.72648751  0.54191722  0.54221909  1.0
  C  C31  1  0.27329277  0.45790980  0.45741527  1.0
  C  C32  1  0.72682130  0.45792151  0.45744477  1.0
  C  C33  1  0.27342668  0.54190050  0.54219520  1.0
  C  C34  1  0.80231786  0.54335798  0.54392742  1.0
  C  C35  1  0.19745855  0.45652279  0.45600620  1.0
  C  C36  1  0.80265504  0.45649869  0.45600578  1.0
  C  C37  1  0.49998628  0.50073559  0.63286897  1.0
  C  C38  1  0.19759401  0.54337346  0.54394257  1.0
  C  C39  1  0.84238554  0.49996699  0.50000905  1.0
  C  C40  1  0.15762574  0.50000918  0.50002311  1.0
  C  C41  1  0.96206427  0.49103255  0.43936022  1.0
  C  C42  1  0.03793925  0.50909166  0.56075178  1.0
  C  C43  1  0.96201839  0.50907037  0.56075421  1.0
  C  C44  1  0.03798459  0.49104294  0.43936183  1.0
  C  C45  1  0.07714446  0.50007124  0.50006364  1.0
  C  C46  1  0.92286126  0.50003165  0.50004985  1.0
  C  C47  1  0.49997386  0.36413516  0.50318385  1.0
  C  C48  1  0.49995188  0.50031899  0.85238243  1.0
  C  C49  1  0.50002521  0.63565287  0.50508562  1.0
  C  C50  1  0.56619830  0.25038311  0.51776971  1.0
  C  C51  1  0.43380721  0.74967774  0.51877980  1.0
  C  C52  1  0.56618626  0.74955082  0.51875282  1.0
  C  C53  1  0.43380559  0.25051658  0.51774092  1.0
  C  C54  1  0.56644146  0.17898539  0.52826208  1.0
  C  C55  1  0.43355131  0.82122772  0.52902289  1.0
  C  C56  1  0.56640079  0.82109940  0.52899493  1.0
  C  C57  1  0.43358978  0.17912548  0.52824188  1.0
  C  C58  1  0.50002846  0.14270693  0.53386022  1.0
  C  C59  1  0.50005549  0.49973725  0.14674420  1.0
  C  C60  1  0.49996450  0.85758480  0.53459950  1.0
  C  C61  1  0.49999132  0.28677135  0.51254332  1.0
  C  C62  1  0.50001078  0.71316666  0.51398043  1.0
  C  C63  1  0.49997858  0.93305719  0.54570156  1.0
  C  C64  1  0.50001038  0.06743175  0.54534404  1.0
  C  C65  1  0.43361529  0.50008303  0.74438454  1.0
  C  C66  1  0.56637189  0.49995001  0.25478870  1.0
  C  C67  1  0.43368109  0.49913034  0.25476654  1.0
  C  C68  1  0.56633396  0.50088961  0.74439046  1.0
  C  C69  1  0.43509193  0.49970767  0.81457937  1.0
  C  C70  1  0.49997614  0.50063158  0.70916280  1.0
  C  C71  1  0.56489907  0.50032474  0.18456751  1.0
  C  C72  1  0.43521648  0.49905971  0.18455554  1.0
  C  C73  1  0.56481003  0.50097164  0.81459184  1.0
  C  C74  1  0.50001815  0.49939894  0.29003224  1.0
  C  C75  1  0.52746090  0.55632297  0.96468861  1.0
  C  C76  1  0.47252410  0.44369110  0.03442375  1.0
  C  C77  1  0.52753322  0.55619109  0.03529165  1.0
  N  N78  1  0.43514686  0.03463337  0.55364941  1.0
  N  N79  1  0.56483636  0.96598933  0.55383153  1.0
  N  N80  1  0.43514326  0.96621923  0.55384011  1.0
  N  N81  1  0.56484325  0.03440096  0.55366212  1.0
  N  N82  1  0.68933256  0.49992774  0.49974361  1.0
  N  N83  1  0.31067826  0.49992894  0.49968138  1.0
  O  O84  1  0.56208789  0.49906751  0.39533377  1.0
  O  O85  1  0.43790547  0.50076230  0.60387517  1.0
  O  O86  1  0.56207664  0.50075041  0.60389134  1.0
  O  O87  1  0.43790524  0.49907735  0.39532216  1.0
  O  O88  1  0.56199602  0.39396112  0.50001959  1.0
  O  O89  1  0.43801004  0.60578692  0.50198529  1.0
  O  O90  1  0.56206601  0.60566891  0.50197441  1.0
  O  O91  1  0.43792911  0.39408213  0.49999852  1.0
  F  F92  1  0.37063024  0.49988852  0.84904377  1.0
  F  F93  1  0.62937173  0.50009875  0.15013143  1.0
  F  F94  1  0.37076342  0.49940453  0.15007133  1.0
  F  F95  1  0.62926697  0.50056275  0.84905314  1.0
  F  F96  1  0.55320945  0.61287865  0.93200213  1.0
  F  F97  1  0.44674822  0.38715370  0.06712395  1.0
  F  F98  1  0.55329218  0.61259813  0.06879425  1.0
  F  F99  1  0.44663708  0.38744413  0.93033134  1.0
