# generated using pymatgen
data_ZnH12C18(N7O)2
_symmetry_space_group_name_H-M   'P 1'
_cell_length_a   13.15943135
_cell_length_b   13.15943059
_cell_length_c   15.62838782
_cell_angle_alpha   109.55900768
_cell_angle_beta   109.55911215
_cell_angle_gamma   101.80334068
_symmetry_Int_Tables_number   1
_chemical_formula_structural   ZnH12C18(N7O)2
_chemical_formula_sum   'Zn2 H24 C36 N28 O4'
_cell_volume   2245.07643714
_cell_formula_units_Z   2
loop_
 _symmetry_equiv_pos_site_id
 _symmetry_equiv_pos_as_xyz
  1  'x, y, z'
loop_
 _atom_site_type_symbol
 _atom_site_label
 _atom_site_symmetry_multiplicity
 _atom_site_fract_x
 _atom_site_fract_y
 _atom_site_fract_z
 _atom_site_occupancy
  Zn  Zn0  1  0.62502704  0.87497320  0.75000005  1.0
  Zn  Zn1  1  0.37497276  0.12502707  0.24999971  1.0
  H  H2  1  0.90771792  0.94849109  0.90080107  1.0
  H  H3  1  0.54772883  0.00695959  0.59919194  1.0
  H  H4  1  0.55150853  0.59228133  0.59919864  1.0
  H  H5  1  0.49303995  0.95227116  0.90080838  1.0
  H  H6  1  0.09228187  0.05150918  0.09919997  1.0
  H  H7  1  0.45227007  0.99303811  0.40080620  1.0
  H  H8  1  0.44849068  0.40771723  0.40079791  1.0
  H  H9  1  0.50696176  0.04772997  0.09919537  1.0
  H  H10  1  0.73217816  0.82826129  0.58534450  1.0
  H  H11  1  0.74283216  0.14662891  0.91464333  1.0
  H  H12  1  0.67173703  0.76782369  0.91465618  1.0
  H  H13  1  0.35337117  0.75716758  0.58535711  1.0
  H  H14  1  0.26782456  0.17173813  0.41465777  1.0
  H  H15  1  0.25716654  0.85337051  0.08535460  1.0
  H  H16  1  0.32826116  0.23217658  0.08534185  1.0
  H  H17  1  0.64663196  0.24283529  0.41464561  1.0
  H  H18  1  0.96313691  0.85063400  0.63683427  1.0
  H  H19  1  0.71370965  0.32617645  0.86324721  1.0
  H  H20  1  0.64936449  0.53686344  0.86316810  1.0
  H  H21  1  0.17382269  0.78628983  0.63675274  1.0
  H  H22  1  0.03686389  0.14936455  0.36316785  1.0
  H  H23  1  0.28628873  0.67382210  0.13675102  1.0
  H  H24  1  0.35063419  0.46313596  0.13683110  1.0
  H  H25  1  0.82617902  0.21371130  0.36324973  1.0
  C  C26  1  0.88927398  0.91883228  0.82160287  1.0
  C  C27  1  0.59722080  0.06764481  0.67838958  1.0
  C  C28  1  0.58116633  0.61072594  0.67839675  1.0
  C  C29  1  0.43235512  0.90277959  0.82161096  1.0
  C  C30  1  0.11072633  0.08116714  0.17839808  1.0
  C  C31  1  0.40277921  0.93235375  0.32160912  1.0
  C  C32  1  0.41883287  0.38927263  0.32160044  1.0
  C  C33  1  0.56764659  0.09722154  0.17839215  1.0
  C  C34  1  0.80334217  0.85653064  0.65815462  1.0
  C  C35  1  0.69828942  0.14502767  0.84184992  1.0
  C  C36  1  0.64346599  0.69665764  0.84184375  1.0
  C  C37  1  0.35497130  0.80171007  0.65815010  1.0
  C  C38  1  0.19665722  0.14346619  0.34184405  1.0
  C  C39  1  0.30170867  0.85497001  0.15814734  1.0
  C  C40  1  0.35653161  0.30334092  0.15815234  1.0
  C  C41  1  0.64503152  0.19829193  0.34185357  1.0
  C  C42  1  0.91568192  0.86653962  0.68144914  1.0
  C  C43  1  0.68499980  0.23411913  0.81860744  1.0
  C  C44  1  0.63345864  0.58432453  0.81855293  1.0
  C  C45  1  0.26588019  0.81500020  0.68139276  1.0
  C  C46  1  0.08432393  0.13345723  0.31855137  1.0
  C  C47  1  0.31499890  0.76588028  0.18139049  1.0
  C  C48  1  0.36654138  0.41568093  0.18144645  1.0
  C  C49  1  0.73412101  0.18500179  0.31861109  1.0
  C  C50  1  0.08808338  0.92726958  0.84201311  1.0
  C  C51  1  0.58509009  0.24598528  0.65802993  1.0
  C  C52  1  0.57272907  0.41191605  0.65798588  1.0
  C  C53  1  0.25401421  0.91490940  0.84196945  1.0
  C  C54  1  0.91191743  0.07272897  0.15798837  1.0
  C  C55  1  0.41490962  0.75401242  0.34196716  1.0
  C  C56  1  0.42727094  0.58808251  0.34201154  1.0
  C  C57  1  0.74598609  0.08509001  0.15803277  1.0
  C  C58  1  0.24628734  0.99624278  0.99250662  1.0
  C  C59  1  0.50375831  0.25371426  0.50749503  1.0
  C  C60  1  0.75371508  0.00376267  0.00749792  1.0
  C  C61  1  0.49623716  0.74628514  0.49250198  1.0
  N  N62  1  0.78804220  0.88871584  0.74570718  1.0
  N  N63  1  0.64299348  0.04224839  0.75426701  1.0
  N  N64  1  0.61128376  0.71195889  0.75429428  1.0
  N  N65  1  0.45775177  0.85700721  0.74573373  1.0
  N  N66  1  0.21195921  0.11128443  0.25429560  1.0
  N  N67  1  0.35700633  0.95775189  0.24573148  1.0
  N  N68  1  0.38871494  0.28804053  0.24570365  1.0
  N  N69  1  0.54225024  0.14299478  0.25426971  1.0
  N  N70  1  0.97019842  0.90635465  0.78565448  1.0
  N  N71  1  0.62062438  0.18449625  0.71440415  1.0
  N  N72  1  0.59364460  0.52980346  0.71434787  1.0
  N  N73  1  0.31550442  0.87937626  0.78559596  1.0
  N  N74  1  0.02980399  0.09364390  0.21434810  1.0
  N  N75  1  0.37937482  0.81550231  0.28559368  1.0
  N  N76  1  0.40635633  0.47019770  0.28565119  1.0
  N  N77  1  0.68449729  0.12062488  0.21440715  1.0
  N  N78  1  0.14273919  0.89284549  0.78534484  1.0
  N  N79  1  0.60715441  0.35726153  0.71465622  1.0
  N  N80  1  0.85726332  0.10715565  0.21465914  1.0
  N  N81  1  0.39284480  0.64273703  0.28534033  1.0
  N  N82  1  0.13032225  0.97707140  0.94123067  1.0
  N  N83  1  0.53587596  0.18905368  0.55881317  1.0
  N  N84  1  0.52292740  0.36967724  0.55876902  1.0
  N  N85  1  0.31094762  0.96412460  0.94118703  1.0
  N  N86  1  0.86967724  0.02292801  0.05877068  1.0
  N  N87  1  0.46412213  0.81094401  0.44118345  1.0
  N  N88  1  0.47707039  0.63031959  0.44122856  1.0
  N  N89  1  0.68905328  0.03587653  0.05881649  1.0
  O  O90  1  0.29368515  0.04362186  0.08727065  1.0
  O  O91  1  0.45638125  0.20631747  0.41272986  1.0
  O  O92  1  0.70631721  0.95639482  0.91273194  1.0
  O  O93  1  0.54360522  0.79367928  0.58726704  1.0
