# generated using pymatgen
data_Zn3H8C14(NO)6
_symmetry_space_group_name_H-M   'P 1'
_cell_length_a   11.04239727
_cell_length_b   11.04943894
_cell_length_c   11.04943902
_cell_angle_alpha   69.25194277
_cell_angle_beta   88.32388183
_cell_angle_gamma   88.32421068
_symmetry_Int_Tables_number   1
_chemical_formula_structural   Zn3H8C14(NO)6
_chemical_formula_sum   'Zn6 H16 C28 N12 O12'
_cell_volume   1259.93845347
_cell_formula_units_Z   2
loop_
 _symmetry_equiv_pos_site_id
 _symmetry_equiv_pos_as_xyz
  1  'x, y, z'
loop_
 _atom_site_type_symbol
 _atom_site_label
 _atom_site_symmetry_multiplicity
 _atom_site_fract_x
 _atom_site_fract_y
 _atom_site_fract_z
 _atom_site_occupancy
  Zn  Zn0  1  0.00018510  0.64028868  0.52488844  1.0
  Zn  Zn1  1  0.49981581  0.47510993  0.35970987  1.0
  Zn  Zn2  1  0.99981452  0.35970988  0.47511004  1.0
  Zn  Zn3  1  0.50018461  0.52489151  0.64028855  1.0
  Zn  Zn4  1  0.75000097  0.59795156  0.40204715  1.0
  Zn  Zn5  1  0.25000136  0.40204603  0.59795258  1.0
  H  H6  1  0.94272918  0.06412241  0.44434059  1.0
  H  H7  1  0.55726996  0.55566619  0.93587436  1.0
  H  H8  1  0.05726686  0.93587320  0.55565976  1.0
  H  H9  1  0.44273302  0.44433911  0.06412460  1.0
  H  H10  1  0.49504011  0.15306390  0.35873642  1.0
  H  H11  1  0.00495978  0.64127286  0.84692622  1.0
  H  H12  1  0.50495753  0.84693063  0.64127065  1.0
  H  H13  1  0.99504237  0.35873346  0.15306967  1.0
  H  H14  1  0.59584659  0.94679721  0.35809859  1.0
  H  H15  1  0.90415459  0.64190389  0.05319989  1.0
  H  H16  1  0.40415022  0.05320128  0.64190262  1.0
  H  H17  1  0.09584855  0.35809463  0.94680135  1.0
  H  H18  1  0.95920747  0.61842011  0.30565942  1.0
  H  H19  1  0.54079669  0.69433899  0.38157681  1.0
  H  H20  1  0.04079568  0.38157939  0.69434058  1.0
  H  H21  1  0.45920921  0.30566055  0.61842229  1.0
  C  C22  1  0.82372565  0.86409165  0.40634183  1.0
  C  C23  1  0.67627438  0.59365624  0.13590635  1.0
  C  C24  1  0.17627404  0.13590694  0.59365483  1.0
  C  C25  1  0.32372704  0.40634134  0.86409338  1.0
  C  C26  1  0.77331796  0.99405674  0.40159193  1.0
  C  C27  1  0.72667853  0.59841255  0.00594290  1.0
  C  C28  1  0.22667889  0.00593981  0.59840992  1.0
  C  C29  1  0.27332091  0.40158787  0.99405857  1.0
  C  C30  1  0.84673629  0.08304715  0.42538283  1.0
  C  C31  1  0.65326197  0.57462265  0.91695334  1.0
  C  C32  1  0.15325867  0.91695032  0.57462051  1.0
  C  C33  1  0.34673835  0.42537875  0.08304782  1.0
  C  C34  1  0.79084049  0.19881320  0.42528444  1.0
  C  C35  1  0.70915916  0.57472593  0.80117831  1.0
  C  C36  1  0.20915716  0.80117938  0.57472419  1.0
  C  C37  1  0.29084207  0.42528234  0.19881602  1.0
  C  C38  1  0.66539716  0.22347583  0.40134844  1.0
  C  C39  1  0.83459983  0.59866191  0.77651791  1.0
  C  C40  1  0.33459857  0.77651863  0.59866135  1.0
  C  C41  1  0.16539946  0.40134726  0.22347881  1.0
  C  C42  1  0.59151004  0.13398646  0.37645471  1.0
  C  C43  1  0.90848680  0.62355544  0.86600627  1.0
  C  C44  1  0.40848483  0.86600606  0.62355573  1.0
  C  C45  1  0.09151258  0.37644986  0.13399176  1.0
  C  C46  1  0.64752701  0.02057043  0.37663746  1.0
  C  C47  1  0.85247322  0.62336800  0.97942465  1.0
  C  C48  1  0.35246984  0.97942613  0.62336439  1.0
  C  C49  1  0.14752896  0.37663440  0.02057437  1.0
  N  N50  1  0.83426355  0.30577115  0.44476276  1.0
  N  N51  1  0.66573454  0.55524343  0.69422447  1.0
  N  N52  1  0.16573506  0.69422637  0.55523969  1.0
  N  N53  1  0.33426393  0.44476480  0.30577075  1.0
  N  N54  1  0.74157198  0.38843862  0.43405076  1.0
  N  N55  1  0.75842645  0.56595207  0.61155862  1.0
  N  N56  1  0.25842758  0.61155990  0.56594955  1.0
  N  N57  1  0.24157295  0.43405421  0.38843817  1.0
  N  N58  1  0.63982312  0.34244914  0.40785647  1.0
  N  N59  1  0.86017522  0.59214956  0.65754544  1.0
  N  N60  1  0.36017450  0.65754734  0.59214903  1.0
  N  N61  1  0.13982509  0.40785771  0.34245012  1.0
  O  O62  1  0.93172602  0.83310347  0.44593597  1.0
  O  O63  1  0.56827571  0.55405874  0.16689533  1.0
  O  O64  1  0.06827460  0.16689514  0.55405979  1.0
  O  O65  1  0.43172754  0.44593689  0.83310597  1.0
  O  O66  1  0.75196711  0.79445968  0.37245306  1.0
  O  O67  1  0.74803480  0.62754133  0.20553728  1.0
  O  O68  1  0.24803356  0.20554092  0.62753931  1.0
  O  O69  1  0.25196671  0.37245532  0.79446095  1.0
  O  O70  1  0.93751868  0.57115746  0.39567579  1.0
  O  O71  1  0.56248325  0.60432304  0.42883965  1.0
  O  O72  1  0.06248455  0.42884013  0.60432395  1.0
  O  O73  1  0.43751991  0.39567746  0.57115912  1.0
