# generated using pymatgen
data_CdH14C24(NO2)2
_symmetry_space_group_name_H-M   'P 1'
_cell_length_a   7.81586015
_cell_length_b   14.23758143
_cell_length_c   14.23762951
_cell_angle_alpha   65.91952154
_cell_angle_beta   77.24521788
_cell_angle_gamma   77.24484600
_symmetry_Int_Tables_number   1
_chemical_formula_structural   CdH14C24(NO2)2
_chemical_formula_sum   'Cd2 H28 C48 N4 O8'
_cell_volume   1395.49378692
_cell_formula_units_Z   2
loop_
 _symmetry_equiv_pos_site_id
 _symmetry_equiv_pos_as_xyz
  1  'x, y, z'
loop_
 _atom_site_type_symbol
 _atom_site_label
 _atom_site_symmetry_multiplicity
 _atom_site_fract_x
 _atom_site_fract_y
 _atom_site_fract_z
 _atom_site_occupancy
  Cd  Cd0  1  0.24920147  0.13394482  0.08204246  1.0
  Cd  Cd1  1  0.74920244  0.08203856  0.13395066  1.0
  H  H2  1  0.15489478  0.83819288  0.37735256  1.0
  H  H3  1  0.65491167  0.37735364  0.83818708  1.0
  H  H4  1  0.05414166  0.71642967  0.55369145  1.0
  H  H5  1  0.55414084  0.55368894  0.71642726  1.0
  H  H6  1  0.77488995  0.08620877  0.42924199  1.0
  H  H7  1  0.27489473  0.42924059  0.08620227  1.0
  H  H8  1  0.67860669  0.96500608  0.61101972  1.0
  H  H9  1  0.17860039  0.61101115  0.96500312  1.0
  H  H10  1  0.99315610  0.63019029  0.70249071  1.0
  H  H11  1  0.49315440  0.70248720  0.63019484  1.0
  H  H12  1  0.08147806  0.47811861  0.76334686  1.0
  H  H13  1  0.58147774  0.76334784  0.47811560  1.0
  H  H14  1  0.23048077  0.30069851  0.85690177  1.0
  H  H15  1  0.73047629  0.85690837  0.30069502  1.0
  H  H16  1  0.93992725  0.29264177  0.13947964  1.0
  H  H17  1  0.43993091  0.13948282  0.29264659  1.0
  H  H18  1  0.78583757  0.47196948  0.06067822  1.0
  H  H19  1  0.28585092  0.06067788  0.47198277  1.0
  H  H20  1  0.64924592  0.60466564  0.99002908  1.0
  H  H21  1  0.14924506  0.99002908  0.60467152  1.0
  H  H22  1  0.43002934  0.66337483  0.05710982  1.0
  H  H23  1  0.93003107  0.05710370  0.66337272  1.0
  H  H24  1  0.19157489  0.75433814  0.14904957  1.0
  H  H25  1  0.69157259  0.14904563  0.75433161  1.0
  H  H26  1  0.23046002  0.04149770  0.88551228  1.0
  H  H27  1  0.73046001  0.88551425  0.04149535  1.0
  H  H28  1  0.46958374  0.95025888  0.79108934  1.0
  H  H29  1  0.96959132  0.79108973  0.95026271  1.0
  C  C30  1  0.03237012  0.04209040  0.28459084  1.0
  C  C31  1  0.53237449  0.28459423  0.04208949  1.0
  C  C32  1  0.97250511  0.96984220  0.39273211  1.0
  C  C33  1  0.47251514  0.39273015  0.96983919  1.0
  C  C34  1  0.04952675  0.86508205  0.42891284  1.0
  C  C35  1  0.54953684  0.42890941  0.86507770  1.0
  C  C36  1  0.99155226  0.79740614  0.52832028  1.0
  C  C37  1  0.49155532  0.52831953  0.79740182  1.0
  C  C38  1  0.85824222  0.83270562  0.59577482  1.0
  C  C39  1  0.35825171  0.59577192  0.83270161  1.0
  C  C40  1  0.83712302  0.00523257  0.45856530  1.0
  C  C41  1  0.33713411  0.45856412  0.00522696  1.0
  C  C42  1  0.78227539  0.93800477  0.55884896  1.0
  C  C43  1  0.28227544  0.55884634  0.93800410  1.0
  C  C44  1  0.80025110  0.76400397  0.70446650  1.0
  C  C45  1  0.30025465  0.70446320  0.76400654  1.0
  C  C46  1  0.88379519  0.66135458  0.74853215  1.0
  C  C47  1  0.38380249  0.74853405  0.66134993  1.0
  C  C48  1  0.83193460  0.60126269  0.85301741  1.0
  C  C49  1  0.33193866  0.85301500  0.60126627  1.0
  C  C50  1  0.91955754  0.49350902  0.90348993  1.0
  C  C51  1  0.41956599  0.90349479  0.49350998  1.0
  C  C52  1  0.04526384  0.44157514  0.84713231  1.0
  C  C53  1  0.54526863  0.84713224  0.44157659  1.0
  C  C54  1  0.12901856  0.34190864  0.89817771  1.0
  C  C55  1  0.62901878  0.89818311  0.34191164  1.0
  C  C56  1  0.96914422  0.33823830  0.05656491  1.0
  C  C57  1  0.46914979  0.05657300  0.33824373  1.0
  C  C58  1  0.88249011  0.43827027  0.01096957  1.0
  C  C59  1  0.38249897  0.01097158  0.43828068  1.0
  C  C60  1  0.69509789  0.64773808  0.90876817  1.0
  C  C61  1  0.19510411  0.90876753  0.64773851  1.0
  C  C62  1  0.61457897  0.75005426  0.85991073  1.0
  C  C63  1  0.11458581  0.85990621  0.75005634  1.0
  C  C64  1  0.46910294  0.80127238  0.91704790  1.0
  C  C65  1  0.96910734  0.91704599  0.80127089  1.0
  C  C66  1  0.38948557  0.74666031  0.01859198  1.0
  C  C67  1  0.88949016  0.01858881  0.74665623  1.0
  C  C68  1  0.25540221  0.79708599  0.07116890  1.0
  C  C69  1  0.75540145  0.07116828  0.79708036  1.0
  C  C70  1  0.19886288  0.90395598  0.02392136  1.0
  C  C71  1  0.69886864  0.02391861  0.90395414  1.0
  C  C72  1  0.27613318  0.95872125  0.92239015  1.0
  C  C73  1  0.77614197  0.92239239  0.95871458  1.0
  C  C74  1  0.40858083  0.90789766  0.86968464  1.0
  C  C75  1  0.90858847  0.86968353  0.90789808  1.0
  C  C76  1  0.04988792  0.95833540  0.07715635  1.0
  C  C77  1  0.54988648  0.07715896  0.95832901  1.0
  N  N78  1  0.66748283  0.80645823  0.75955053  1.0
  N  N79  1  0.16748392  0.75954957  0.80645903  1.0
  N  N80  1  0.09217252  0.29098540  0.00148105  1.0
  N  N81  1  0.59217870  0.00148514  0.29099159  1.0
  O  O82  1  0.19186608  0.01952975  0.24472988  1.0
  O  O83  1  0.69186167  0.24472337  0.01954151  1.0
  O  O84  1  0.92421593  0.12048655  0.23851249  1.0
  O  O85  1  0.42419784  0.23852597  0.12048872  1.0
  O  O86  1  0.03257725  0.05930249  0.04184394  1.0
  O  O87  1  0.53257935  0.04184164  0.05930197  1.0
  O  O88  1  0.94095509  0.90808692  0.15044379  1.0
  O  O89  1  0.44096505  0.15043878  0.90808625  1.0
