# generated using pymatgen
data_Zn4H29C48Br5(NO4)4
_symmetry_space_group_name_H-M   'P 1'
_cell_length_a   9.63867025
_cell_length_b   11.04784739
_cell_length_c   21.98197424
_cell_angle_alpha   89.50758139
_cell_angle_beta   88.95041279
_cell_angle_gamma   89.75175306
_symmetry_Int_Tables_number   1
_chemical_formula_structural   Zn4H29C48Br5(NO4)4
_chemical_formula_sum   'Zn4 H29 C48 Br5 N4 O16'
_cell_volume   2340.28518792
_cell_formula_units_Z   1
loop_
 _symmetry_equiv_pos_site_id
 _symmetry_equiv_pos_as_xyz
  1  'x, y, z'
loop_
 _atom_site_type_symbol
 _atom_site_label
 _atom_site_symmetry_multiplicity
 _atom_site_fract_x
 _atom_site_fract_y
 _atom_site_fract_z
 _atom_site_occupancy
  Zn  Zn0  1  0.35766574  0.49521412  0.50166391  1.0
  Zn  Zn1  1  0.64055888  0.50139380  0.50185976  1.0
  Zn  Zn2  1  0.64353548  0.49583863  0.99985986  1.0
  Zn  Zn3  1  0.36026743  0.50588319  0.00492886  1.0
  H  H4  1  0.87933321  0.64310818  0.43932556  1.0
  H  H5  1  0.84988029  0.35263878  0.56017217  1.0
  H  H6  1  0.14466653  0.62907850  0.44232291  1.0
  H  H7  1  0.27424242  0.89780393  0.50207639  1.0
  H  H8  1  0.71859167  0.87294119  0.49432653  1.0
  H  H9  1  0.29272265  0.12412280  0.49865897  1.0
  H  H10  1  0.33109223  0.33939381  0.13983055  1.0
  H  H11  1  0.32871056  0.33411185  0.36561031  1.0
  H  H12  1  0.71538903  0.48555728  0.80688591  1.0
  H  H13  1  0.27304864  0.53375115  0.81215554  1.0
  H  H14  1  0.71075832  0.48818502  0.69273678  1.0
  H  H15  1  0.11583710  0.62762585  0.07484396  1.0
  H  H16  1  0.15735057  0.38294578  0.93309709  1.0
  H  H17  1  0.85114795  0.61321582  0.06842054  1.0
  H  H18  1  0.72685485  0.89862919  0.01023522  1.0
  H  H19  1  0.28432568  0.87514974  0.99649860  1.0
  H  H20  1  0.70681232  0.12512617  0.01077091  1.0
  H  H21  1  0.65567512  0.76939847  0.30097929  1.0
  H  H22  1  0.65520759  0.67541729  0.36676010  1.0
  H  H23  1  0.78610043  0.65837639  0.30957197  1.0
  H  H24  1  0.78914236  0.66040016  0.19361283  1.0
  H  H25  1  0.66057079  0.68040031  0.13733139  1.0
  H  H26  1  0.65852397  0.77110666  0.20346769  1.0
  H  H27  1  0.04278226  0.19117669  0.19673971  1.0
  H  H28  1  0.16939607  0.18530528  0.13684484  1.0
  H  H29  1  0.17419737  0.07967729  0.19826549  1.0
  H  H30  1  0.17333462  0.07694288  0.30807652  1.0
  H  H31  1  0.16797725  0.17987716  0.36987823  1.0
  H  H32  1  0.04168749  0.18825585  0.31185048  1.0
  C  C33  1  0.49077832  0.73578824  0.49955834  1.0
  C  C34  1  0.49928690  0.50291039  0.38411308  1.0
  C  C35  1  0.51134300  0.26307003  0.49916407  1.0
  C  C36  1  0.50029133  0.50656077  0.61971117  1.0
  C  C37  1  0.51205442  0.73752597  0.00131315  1.0
  C  C38  1  0.50568801  0.50819711  0.12043951  1.0
  C  C39  1  0.48758006  0.26466563  0.00596103  1.0
  C  C40  1  0.49427021  0.50167489  0.88434998  1.0
  C  C41  1  0.06122742  0.40722697  0.53554840  1.0
  C  C42  1  0.93339016  0.57617851  0.46691020  1.0
  C  C43  1  0.91612940  0.41498122  0.53445588  1.0
  C  C44  1  0.07707359  0.56855693  0.46858016  1.0
  C  C45  1  0.51437431  0.12708739  0.49713635  1.0
  C  C46  1  0.49592104  0.87160957  0.49851462  1.0
  C  C47  1  0.63459673  0.05428311  0.49547725  1.0
  C  C48  1  0.37498442  0.94212606  0.49988862  1.0
  C  C49  1  0.62520918  0.92853363  0.49582989  1.0
  C  C50  1  0.38542325  0.06740185  0.49843753  1.0
  C  C51  1  0.50530877  0.50742424  0.18859627  1.0
  C  C52  1  0.41627897  0.42357060  0.21989565  1.0
  C  C53  1  0.58847826  0.58786469  0.21958950  1.0
  C  C54  1  0.33043979  0.34006780  0.18943223  1.0
  C  C55  1  0.24472668  0.25975485  0.22051188  1.0
  C  C56  1  0.50178348  0.50503939  0.31592880  1.0
  C  C57  1  0.58671470  0.58673727  0.28466589  1.0
  C  C58  1  0.41490886  0.42230145  0.28491970  1.0
  C  C59  1  0.32857264  0.33721316  0.31601385  1.0
  C  C60  1  0.24398784  0.25819884  0.28560212  1.0
  C  C61  1  0.49095774  0.51198991  0.68790916  1.0
  C  C62  1  0.49388958  0.50650958  0.81625753  1.0
  C  C63  1  0.36764558  0.52741554  0.72247091  1.0
  C  C64  1  0.61825300  0.49576221  0.78279467  1.0
  C  C65  1  0.36900531  0.52295222  0.78586659  1.0
  C  C66  1  0.61547565  0.49766054  0.71971382  1.0
  C  C67  1  0.94372716  0.42545081  0.96050188  1.0
  C  C68  1  0.06450494  0.57061514  0.04198260  1.0
  C  C69  1  0.08840515  0.43380660  0.96331142  1.0
  C  C70  1  0.92117749  0.56243726  0.03860187  1.0
  C  C71  1  0.48559445  0.12855869  0.00579250  1.0
  C  C72  1  0.50614338  0.87324454  0.00357165  1.0
  C  C73  1  0.36624536  0.05614701  0.00215463  1.0
  C  C74  1  0.62607660  0.94331502  0.00799324  1.0
  C  C75  1  0.37672661  0.93046534  0.00057325  1.0
  C  C76  1  0.61475962  0.06859742  0.00850953  1.0
  C  C77  1  0.67477234  0.67672467  0.31755988  1.0
  C  C78  1  0.67822727  0.67926359  0.18638076  1.0
  C  C79  1  0.15347750  0.17492324  0.18616973  1.0
  C  C80  1  0.15229154  0.17156105  0.32075700  1.0
  Br  Br81  1  0.13955795  0.28402325  0.58319414  1.0
  Br  Br82  1  0.81987582  0.11560144  0.48984652  1.0
  Br  Br83  1  0.19105906  0.56302926  0.68822654  1.0
  Br  Br84  1  0.86985807  0.31977584  0.90314748  1.0
  Br  Br85  1  0.18087427  0.11783073  0.99633226  1.0
  N  N86  1  0.14058452  0.48428538  0.50330706  1.0
  N  N87  1  0.85482591  0.49934024  0.50037111  1.0
  N  N88  1  0.86121240  0.48975214  0.99766974  1.0
  N  N89  1  0.14612163  0.50618357  0.00389430  1.0
  O  O90  1  0.37483123  0.68522240  0.51089398  1.0
  O  O91  1  0.60593569  0.68158905  0.48878186  1.0
  O  O92  1  0.61153269  0.47488979  0.41060780  1.0
  O  O93  1  0.38439320  0.52892393  0.41085017  1.0
  O  O94  1  0.61847225  0.31801958  0.51728024  1.0
  O  O95  1  0.39820453  0.31398818  0.48383196  1.0
  O  O96  1  0.39111610  0.47748567  0.59170370  1.0
  O  O97  1  0.61805319  0.52798435  0.59487343  1.0
  O  O98  1  0.62787111  0.68530622  0.01090871  1.0
  O  O99  1  0.39829613  0.68483996  0.98972583  1.0
  O  O100  1  0.39146504  0.53444800  0.09498279  1.0
  O  O101  1  0.61904408  0.48176966  0.09260961  1.0
  O  O102  1  0.37580480  0.32145590  0.01850549  1.0
  O  O103  1  0.60414014  0.31353346  0.99340875  1.0
  O  O104  1  0.61008353  0.52077848  0.90952904  1.0
  O  O105  1  0.37993920  0.47874839  0.91199975  1.0
