# generated using pymatgen
data_AlH5C7O5
_symmetry_space_group_name_H-M   'P 1'
_cell_length_a   6.68881979
_cell_length_b   13.10848786
_cell_length_c   16.93679572
_cell_angle_alpha   90.00088693
_cell_angle_beta   90.00062483
_cell_angle_gamma   100.18687087
_symmetry_Int_Tables_number   1
_chemical_formula_structural   AlH5C7O5
_chemical_formula_sum   'Al4 H20 C28 O20'
_cell_volume   1461.61387696
_cell_formula_units_Z   4
loop_
 _symmetry_equiv_pos_site_id
 _symmetry_equiv_pos_as_xyz
  1  'x, y, z'
loop_
 _atom_site_type_symbol
 _atom_site_label
 _atom_site_symmetry_multiplicity
 _atom_site_fract_x
 _atom_site_fract_y
 _atom_site_fract_z
 _atom_site_occupancy
  Al  Al0  1  0.16400462  0.75286965  0.74999500  1.0
  Al  Al1  1  0.83600085  0.24713012  0.25000985  1.0
  Al  Al2  1  0.66355217  0.75128940  0.74999253  1.0
  Al  Al3  1  0.33645155  0.24870959  0.25000877  1.0
  H  H4  1  0.17671287  0.97298781  0.92386394  1.0
  H  H5  1  0.82329933  0.02699648  0.07614268  1.0
  H  H6  1  0.82328228  0.02702914  0.42387257  1.0
  H  H7  1  0.17669264  0.97297754  0.57613937  1.0
  H  H8  1  0.21444302  0.08330524  0.04653515  1.0
  H  H9  1  0.78556608  0.91668757  0.95347383  1.0
  H  H10  1  0.78554759  0.91669365  0.54653027  1.0
  H  H11  1  0.21441274  0.08330524  0.45347576  1.0
  H  H12  1  0.30532294  0.45955433  0.04786193  1.0
  H  H13  1  0.69468138  0.54045086  0.95213230  1.0
  H  H14  1  0.69469128  0.54045239  0.54786043  1.0
  H  H15  1  0.30531435  0.45955667  0.45213202  1.0
  H  H16  1  0.83982056  0.44164977  0.05964975  1.0
  H  H17  1  0.16019218  0.55836706  0.94034920  1.0
  H  H18  1  0.16018817  0.55836185  0.55964200  1.0
  H  H19  1  0.83980825  0.44163325  0.44034395  1.0
  H  H20  1  0.36480826  0.61494785  0.75007196  1.0
  H  H21  1  0.63519747  0.38505270  0.24988802  1.0
  H  H22  1  0.95910657  0.88963064  0.75008434  1.0
  H  H23  1  0.04089681  0.11036293  0.24987328  1.0
  C  C24  1  0.45636436  0.87326079  0.85925433  1.0
  C  C25  1  0.54364669  0.12672893  0.14075229  1.0
  C  C26  1  0.54363231  0.12674382  0.35925998  1.0
  C  C27  1  0.45634878  0.87325899  0.64074310  1.0
  C  C28  1  0.52062438  0.06075132  0.06829481  1.0
  C  C29  1  0.47939168  0.93923995  0.93171122  1.0
  C  C30  1  0.47937490  0.93925816  0.56829419  1.0
  C  C31  1  0.52059307  0.06075005  0.43171066  1.0
  C  C32  1  0.31731711  0.98535183  0.95784241  1.0
  C  C33  1  0.68269207  0.01464562  0.04216657  1.0
  C  C34  1  0.68267523  0.01464964  0.45783611  1.0
  C  C35  1  0.31729936  0.98535162  0.54216933  1.0
  C  C36  1  0.87263648  0.63027019  0.64101238  1.0
  C  C37  1  0.12736777  0.36973036  0.35898243  1.0
  C  C38  1  0.12737259  0.36974023  0.14102266  1.0
  C  C39  1  0.87264036  0.63025956  0.85897687  1.0
  C  C40  1  0.33779227  0.04585517  0.02577153  1.0
  C  C41  1  0.66221656  0.95413686  0.97423450  1.0
  C  C42  1  0.66221485  0.95414559  0.52577600  1.0
  C  C43  1  0.33775050  0.04585486  0.47422944  1.0
  C  C44  1  0.84902540  0.56314767  0.92966571  1.0
  C  C45  1  0.15098940  0.43685754  0.07033442  1.0
  C  C46  1  0.15097495  0.43683999  0.42966921  1.0
  C  C47  1  0.84902630  0.56316054  0.57032619  1.0
  C  C48  1  0.00901288  0.53231594  0.96544555  1.0
  C  C49  1  0.99099997  0.46769237  0.03455516  1.0
  C  C50  1  0.99097287  0.46767872  0.46544363  1.0
  C  C51  1  0.00901686  0.53231869  0.53455000  1.0
  O  O52  1  0.61650410  0.84664767  0.66848349  1.0
  O  O53  1  0.38349315  0.15336758  0.33152609  1.0
  O  O54  1  0.38348505  0.15333701  0.16850115  1.0
  O  O55  1  0.61651465  0.84664571  0.83151491  1.0
  O  O56  1  0.27810140  0.84888806  0.83065157  1.0
  O  O57  1  0.72191148  0.15110708  0.16935505  1.0
  O  O58  1  0.72189073  0.15111433  0.33066301  1.0
  O  O59  1  0.27809417  0.84887765  0.66934184  1.0
  O  O60  1  0.05094358  0.65751528  0.83087666  1.0
  O  O61  1  0.94906654  0.34249380  0.16912819  1.0
  O  O62  1  0.94906893  0.34246780  0.33087838  1.0
  O  O63  1  0.05094694  0.65752735  0.66912351  1.0
  O  O64  1  0.39191692  0.68991159  0.74999807  1.0
  O  O65  1  0.60809137  0.31009206  0.24999969  1.0
  O  O66  1  0.71012741  0.65533571  0.66858528  1.0
  O  O67  1  0.28987557  0.34467877  0.33140717  1.0
  O  O68  1  0.28988044  0.34467766  0.16858829  1.0
  O  O69  1  0.71012418  0.65531514  0.83140179  1.0
  O  O70  1  0.93471983  0.81465199  0.74999941  1.0
  O  O71  1  0.06527966  0.18534777  0.24999777  1.0
