# generated using pymatgen
data_Al2H20(C3O)11
_symmetry_space_group_name_H-M   'P 1'
_cell_length_a   6.66515263
_cell_length_b   22.46552099
_cell_length_c   23.81564385
_cell_angle_alpha   67.30259704
_cell_angle_beta   89.95164067
_cell_angle_gamma   89.80463917
_symmetry_Int_Tables_number   1
_chemical_formula_structural   Al2H20(C3O)11
_chemical_formula_sum   'Al4 H40 C66 O22'
_cell_volume   3289.87108014
_cell_formula_units_Z   2
loop_
 _symmetry_equiv_pos_site_id
 _symmetry_equiv_pos_as_xyz
  1  'x, y, z'
loop_
 _atom_site_type_symbol
 _atom_site_label
 _atom_site_symmetry_multiplicity
 _atom_site_fract_x
 _atom_site_fract_y
 _atom_site_fract_z
 _atom_site_occupancy
  Al  Al0  1  0.88477234  0.50080164  0.49954501  1.0
  Al  Al1  1  0.38584917  0.49841403  0.50282015  1.0
  Al  Al2  1  0.30602309  0.99922234  0.00093429  1.0
  Al  Al3  1  0.80590671  0.00171038  0.99754179  1.0
  H  H4  1  0.38435036  0.91061469  0.88288019  1.0
  H  H5  1  0.39786677  0.84688963  0.81754813  1.0
  H  H6  1  0.75640581  0.82243103  0.83359086  1.0
  H  H7  1  0.74488409  0.88950903  0.89589133  1.0
  H  H8  1  0.79870117  0.82030063  0.74100530  1.0
  H  H9  1  0.81325738  0.75323751  0.68062906  1.0
  H  H10  1  0.39122884  0.67999338  0.75843571  1.0
  H  H11  1  0.37649064  0.74708114  0.81878793  1.0
  H  H12  1  0.43399184  0.67851911  0.66567202  1.0
  H  H13  1  0.44740065  0.61185414  0.60299943  1.0
  H  H14  1  0.80764702  0.59067509  0.61520089  1.0
  H  H15  1  0.79250447  0.65383479  0.68104399  1.0
  H  H16  1  0.43529057  0.62037949  0.32382952  1.0
  H  H17  1  0.70758313  0.78915344  0.27333318  1.0
  H  H18  1  0.46505516  0.71425923  0.22488734  1.0
  H  H19  1  0.73861703  0.87877557  0.17209590  1.0
  H  H20  1  0.33145694  0.81504636  0.15029398  1.0
  H  H21  1  0.35053491  0.32328121  0.65262030  1.0
  H  H22  1  0.96187018  0.37287789  0.67200148  1.0
  H  H23  1  0.20265083  0.22317472  0.72964397  1.0
  H  H24  1  0.98955748  0.27866945  0.77120947  1.0
  H  H25  1  0.23051585  0.12904147  0.82883362  1.0
  H  H26  1  0.84152027  0.17900849  0.84819678  1.0
  H  H27  1  0.88434249  0.09948763  0.10684319  1.0
  H  H28  1  0.89998842  0.16647039  0.16898316  1.0
  H  H29  1  0.25396327  0.17010614  0.17409727  1.0
  H  H30  1  0.24184602  0.10470263  0.11028898  1.0
  H  H31  1  0.30866287  0.26594303  0.17606441  1.0
  H  H32  1  0.88214978  0.24505548  0.31493243  1.0
  H  H33  1  0.86872223  0.17600556  0.25646281  1.0
  H  H34  1  0.92239104  0.35844433  0.29967852  1.0
  H  H35  1  0.93919166  0.41738808  0.36978512  1.0
  H  H36  1  0.31585381  0.37755308  0.41333678  1.0
  H  H37  1  0.30197306  0.31376599  0.34822097  1.0
  H  H38  1  0.89175466  0.67536672  0.42114931  1.0
  H  H39  1  0.32505797  0.39160352  0.23890789  1.0
  H  H40  1  0.62472579  0.58330954  0.46120500  1.0
  H  H41  1  0.13428260  0.42183281  0.50080897  1.0
  H  H42  1  0.56181064  0.91554619  0.02599571  1.0
  H  H43  1  0.05954836  0.08498393  0.97935805  1.0
  C  C44  1  0.64067498  0.40907080  0.59762701  1.0
  C  C45  1  0.63442770  0.43685643  0.43703495  1.0
  C  C46  1  0.13888666  0.59278566  0.40432448  1.0
  C  C47  1  0.13469338  0.56083357  0.56490178  1.0
  C  C48  1  0.24794267  0.89106436  0.87152148  1.0
  C  C49  1  0.25441694  0.85488985  0.83560652  1.0
  C  C50  1  0.07823796  0.82931706  0.82121125  1.0
  C  C51  1  0.89434808  0.84275104  0.84312628  1.0
  C  C52  1  0.88691069  0.87960824  0.87844554  1.0
  C  C53  1  0.06394863  0.90351986  0.89353477  1.0
  C  C54  1  0.92805607  0.78883427  0.74582451  1.0
  C  C55  1  0.93623432  0.75076298  0.71165485  1.0
  C  C56  1  0.10343855  0.71120808  0.71463611  1.0
  C  C57  1  0.26189091  0.71148486  0.75354173  1.0
  C  C58  1  0.25363040  0.74953967  0.78772872  1.0
  C  C59  1  0.08664453  0.78919086  0.78465504  1.0
  C  C60  1  0.29642842  0.65815283  0.65593580  1.0
  C  C61  1  0.30502468  0.62149205  0.62044958  1.0
  C  C62  1  0.12823343  0.59762398  0.60513125  1.0
  C  C63  1  0.94377864  0.61003226  0.62693762  1.0
  C  C64  1  0.93628317  0.64594243  0.66309016  1.0
  C  C65  1  0.11222463  0.67132621  0.67785482  1.0
  C  C66  1  0.14782922  0.65026620  0.34557808  1.0
  C  C67  1  0.03879838  0.85254710  0.15546472  1.0
  C  C68  1  0.84339338  0.79450268  0.24647516  1.0
  C  C69  1  0.86067507  0.84426969  0.19037218  1.0
  C  C70  1  0.19433134  0.80879532  0.17698070  1.0
  C  C71  1  0.17691127  0.75504058  0.23293659  1.0
  C  C72  1  0.99985859  0.74811978  0.26962568  1.0
  C  C73  1  0.99187958  0.69565940  0.32791180  1.0
  C  C74  1  0.31699275  0.65655926  0.30799300  1.0
  C  C75  1  0.33210081  0.70826853  0.25329638  1.0
  C  C76  1  0.65321144  0.35291663  0.65695595  1.0
  C  C77  1  0.53876247  0.14923222  0.84406720  1.0
  C  C78  1  0.34085098  0.21398510  0.75618890  1.0
  C  C79  1  0.35611651  0.16180962  0.81064130  1.0
  C  C80  1  0.70181196  0.18961913  0.82229006  1.0
  C  C81  1  0.68813884  0.24475794  0.76740689  1.0
  C  C82  1  0.50382384  0.25731863  0.73346618  1.0
  C  C83  1  0.49006162  0.31253979  0.67861923  1.0
  C  C84  1  0.83604940  0.34021937  0.69028697  1.0
  C  C85  1  0.85129887  0.28797712  0.74467962  1.0
  C  C86  1  0.74741771  0.11531698  0.12203701  1.0
  C  C87  1  0.75479473  0.15224020  0.15724619  1.0
  C  C88  1  0.57785998  0.17342232  0.17612596  1.0
  C  C89  1  0.39298273  0.15532419  0.15900423  1.0
  C  C90  1  0.38499362  0.11850056  0.12367983  1.0
  C  C91  1  0.56234939  0.09847752  0.10447293  1.0
  C  C92  1  0.43382464  0.25902607  0.20746709  1.0
  C  C93  1  0.44114031  0.29918504  0.24015164  1.0
  C  C94  1  0.60368961  0.29455248  0.27998145  1.0
  C  C95  1  0.75688479  0.25002113  0.28401109  1.0
  C  C96  1  0.74855080  0.21085131  0.25102650  1.0
  C  C97  1  0.58593610  0.21426556  0.21205296  1.0
  C  C98  1  0.79135149  0.36109204  0.32610672  1.0
  C  C99  1  0.80024369  0.39462639  0.36447413  1.0
  C  C100  1  0.62853938  0.40080973  0.39593854  1.0
  C  C101  1  0.44837224  0.37257098  0.38868267  1.0
  C  C102  1  0.44059063  0.33798933  0.35135202  1.0
  C  C103  1  0.61133975  0.33207999  0.31898863  1.0
  C  C104  1  0.55635767  0.06114139  0.06456515  1.0
  C  C105  1  0.55140643  0.09315422  0.90352558  1.0
  C  C106  1  0.05813228  0.94037900  0.93379922  1.0
  C  C107  1  0.05266810  0.90765510  0.09530506  1.0
  C  C108  1  0.83504445  0.69242535  0.37355794  1.0
  C  C109  1  0.28430092  0.34950582  0.22759776  1.0
  O  O110  1  0.46524629  0.44987815  0.45473350  1.0
  O  O111  1  0.80695279  0.43311893  0.57323175  1.0
  O  O112  1  0.96704262  0.54945614  0.54540970  1.0
  O  O113  1  0.80623909  0.45132001  0.45166840  1.0
  O  O114  1  0.96548672  0.57065073  0.42457391  1.0
  O  O115  1  0.46768259  0.42830134  0.57509015  1.0
  O  O116  1  0.63382738  0.53912602  0.49055825  1.0
  O  O117  1  0.30604615  0.57021878  0.42920870  1.0
  O  O118  1  0.30613029  0.54441990  0.55182769  1.0
  O  O119  1  0.13467818  0.46136081  0.50808155  1.0
  O  O120  1  0.72487664  0.07309742  0.92531569  1.0
  O  O121  1  0.38464098  0.04583922  0.05073347  1.0
  O  O122  1  0.22620764  0.92706402  0.07343852  1.0
  O  O123  1  0.38489565  0.07010331  0.92856563  1.0
  O  O124  1  0.22662996  0.95314621  0.95171962  1.0
  O  O125  1  0.72505582  0.04846160  0.04645368  1.0
  O  O126  1  0.55735011  0.96214725  0.00692309  1.0
  O  O127  1  0.88634082  0.95530116  0.94818378  1.0
  O  O128  1  0.88590910  0.93074892  0.07016860  1.0
  O  O129  1  0.05664785  0.03856255  0.99219044  1.0
  O  O130  1  0.65928494  0.70938483  0.36263578  1.0
  O  O131  1  0.11980980  0.34745994  0.20510044  1.0
