# generated using pymatgen
data_Zn4H16C62O13F24
_symmetry_space_group_name_H-M   'P 1'
_cell_length_a   21.60785428
_cell_length_b   21.60788268
_cell_length_c   34.43930759
_cell_angle_alpha   89.99967852
_cell_angle_beta   89.99966073
_cell_angle_gamma   89.99984253
_symmetry_Int_Tables_number   1
_chemical_formula_structural   Zn4H16C62O13F24
_chemical_formula_sum   'Zn8 H32 C124 O26 F48'
_cell_volume   16079.71203296
_cell_formula_units_Z   2
loop_
 _symmetry_equiv_pos_site_id
 _symmetry_equiv_pos_as_xyz
  1  'x, y, z'
loop_
 _atom_site_type_symbol
 _atom_site_label
 _atom_site_symmetry_multiplicity
 _atom_site_fract_x
 _atom_site_fract_y
 _atom_site_fract_z
 _atom_site_occupancy
  Zn  Zn0  1  0.44849222  0.55210144  0.03350915  1.0
  Zn  Zn1  1  0.44849582  0.44789502  0.96648918  1.0
  Zn  Zn2  1  0.55150305  0.44789720  0.03351233  1.0
  Zn  Zn3  1  0.55150730  0.55210037  0.96649026  1.0
  Zn  Zn4  1  0.55210264  0.44849689  0.46649026  1.0
  Zn  Zn5  1  0.44789623  0.44849581  0.53351096  1.0
  Zn  Zn6  1  0.44789733  0.55150713  0.46648969  1.0
  Zn  Zn7  1  0.55210681  0.55150298  0.53351204  1.0
  H  H8  1  0.42909221  0.56804373  0.15079142  1.0
  H  H9  1  0.57090889  0.43195339  0.15079256  1.0
  H  H10  1  0.56804557  0.42909151  0.34920655  1.0
  H  H11  1  0.43195412  0.57091170  0.34920539  1.0
  H  H12  1  0.42909003  0.43195555  0.84920756  1.0
  H  H13  1  0.57091003  0.56804597  0.84920473  1.0
  H  H14  1  0.56804627  0.57091248  0.65079250  1.0
  H  H15  1  0.43195613  0.42909128  0.65079300  1.0
  H  H16  1  0.32655196  0.61597209  0.28317514  1.0
  H  H17  1  0.37826953  0.62243893  0.32267583  1.0
  H  H18  1  0.38402681  0.67377499  0.28293654  1.0
  H  H19  1  0.38402990  0.67344531  0.21682081  1.0
  H  H20  1  0.37755936  0.62173243  0.17731867  1.0
  H  H21  1  0.32622230  0.61597470  0.21705767  1.0
  H  H22  1  0.67344512  0.38403126  0.28317665  1.0
  H  H23  1  0.62173273  0.37756083  0.32267726  1.0
  H  H24  1  0.61597397  0.32622604  0.28293992  1.0
  H  H25  1  0.61597150  0.32655400  0.21682070  1.0
  H  H26  1  0.62243917  0.37826816  0.17732096  1.0
  H  H27  1  0.67377402  0.38402692  0.21705859  1.0
  H  H28  1  0.32655625  0.38402887  0.71682364  1.0
  H  H29  1  0.37826912  0.37755819  0.67732276  1.0
  H  H30  1  0.38402709  0.32622257  0.71706115  1.0
  H  H31  1  0.38402678  0.32655363  0.78317892  1.0
  H  H32  1  0.37756036  0.37826793  0.82267876  1.0
  H  H33  1  0.32622689  0.38402765  0.78293995  1.0
  H  H34  1  0.67344877  0.61597199  0.71682201  1.0
  H  H35  1  0.62173534  0.62243978  0.67732072  1.0
  H  H36  1  0.61597514  0.67377273  0.71705982  1.0
  H  H37  1  0.61597252  0.67344616  0.78317613  1.0
  H  H38  1  0.62244273  0.62173291  0.82267701  1.0
  H  H39  1  0.67377889  0.61597632  0.78293861  1.0
  C  C40  1  0.33571994  0.50000471  0.99999839  1.0
  C  C41  1  0.50000718  0.33483883  0.99999693  1.0
  C  C42  1  0.49999359  0.49999830  0.10484885  1.0
  C  C43  1  0.66428342  0.50000503  0.00000090  1.0
  C  C44  1  0.50000404  0.66516628  0.00000121  1.0
  C  C45  1  0.50000976  0.50000079  0.89514929  1.0
  C  C46  1  0.49999843  0.33571621  0.50000110  1.0
  C  C47  1  0.33483512  0.49999723  0.50000054  1.0
  C  C48  1  0.50000055  0.50000534  0.39514940  1.0
  C  C49  1  0.49999613  0.66428242  0.50000139  1.0
  C  C50  1  0.66516037  0.49999492  0.50000341  1.0
  C  C51  1  0.50000095  0.49999514  0.60485048  1.0
  C  C52  1  0.50001098  0.26549469  0.99999995  1.0
  C  C53  1  0.55037653  0.23188074  0.01468133  1.0
  C  C54  1  0.55020631  0.16744500  0.01460856  1.0
  C  C55  1  0.44963821  0.23188302  0.98532124  1.0
  C  C56  1  0.44979981  0.16744543  0.98539423  1.0
  C  C57  1  0.50000292  0.13395643  0.00000156  1.0
  C  C58  1  0.50000255  0.06566469  0.00000023  1.0
  C  C59  1  0.49979118  0.03221471  0.96524589  1.0
  C  C60  1  0.50021393  0.03221285  0.03475360  1.0
  C  C61  1  0.50000071  0.73451180  0.00000254  1.0
  C  C62  1  0.44963095  0.76812269  0.01467970  1.0
  C  C63  1  0.44979561  0.83255936  0.01460583  1.0
  C  C64  1  0.55036983  0.76812237  0.98532127  1.0
  C  C65  1  0.55020406  0.83255858  0.98539229  1.0
  C  C66  1  0.50000044  0.86604683  0.99999918  1.0
  C  C67  1  0.50000081  0.93433811  0.99999906  1.0
  C  C68  1  0.49978965  0.96778716  0.03475312  1.0
  C  C69  1  0.50021150  0.96778856  0.96524482  1.0
  C  C70  1  0.45960284  0.53903985  0.16802579  1.0
  C  C71  1  0.45884181  0.54069184  0.20874380  1.0
  C  C72  1  0.41803427  0.58170137  0.22993325  1.0
  C  C73  1  0.54038977  0.46095666  0.16802578  1.0
  C  C74  1  0.54115597  0.45930199  0.20874292  1.0
  C  C75  1  0.58196192  0.41829597  0.22993585  1.0
  C  C76  1  0.53904181  0.45961151  0.33197333  1.0
  C  C77  1  0.54069325  0.45884206  0.29125619  1.0
  C  C78  1  0.58170118  0.41803570  0.27006383  1.0
  C  C79  1  0.46095620  0.54039371  0.33197275  1.0
  C  C80  1  0.45930144  0.54115658  0.29125533  1.0
  C  C81  1  0.41829509  0.58196314  0.27006298  1.0
  C  C82  1  0.49999756  0.49999487  0.14802480  1.0
  C  C83  1  0.49999625  0.49999682  0.22941610  1.0
  C  C84  1  0.49999891  0.50000136  0.35197373  1.0
  C  C85  1  0.49999559  0.49999756  0.27058331  1.0
  C  C86  1  0.45961277  0.46095611  0.83197366  1.0
  C  C87  1  0.45884565  0.45930042  0.79125594  1.0
  C  C88  1  0.41803981  0.41829470  0.77006461  1.0
  C  C89  1  0.54039671  0.53904371  0.83197192  1.0
  C  C90  1  0.54115913  0.54069375  0.79125419  1.0
  C  C91  1  0.58196748  0.58170151  0.77006343  1.0
  C  C92  1  0.53904288  0.54039164  0.66802582  1.0
  C  C93  1  0.54070042  0.54115877  0.70874295  1.0
  C  C94  1  0.58170665  0.58196132  0.72993400  1.0
  C  C95  1  0.46095843  0.45960549  0.66802611  1.0
  C  C96  1  0.45930883  0.45884216  0.70874325  1.0
  C  C97  1  0.41830009  0.41803479  0.72993546  1.0
  C  C98  1  0.50000303  0.49999774  0.85197275  1.0
  C  C99  1  0.50000526  0.49999764  0.77058320  1.0
  C  C100  1  0.50000353  0.50000050  0.64802614  1.0
  C  C101  1  0.50000592  0.49999597  0.72941483  1.0
  C  C102  1  0.73378593  0.50000169  0.00000020  1.0
  C  C103  1  0.76759019  0.47697842  0.03164976  1.0
  C  C104  1  0.83208201  0.47706766  0.03153379  1.0
  C  C105  1  0.76758987  0.52302132  0.96834999  1.0
  C  C106  1  0.83208308  0.52293423  0.96846950  1.0
  C  C107  1  0.86576155  0.50000197  0.00000256  1.0
  C  C108  1  0.93418297  0.50000142  0.00000127  1.0
  C  C109  1  0.96776596  0.55537345  0.99985397  1.0
  C  C110  1  0.96776666  0.44462852  0.00014562  1.0
  C  C111  1  0.26621558  0.50000203  0.99999649  1.0
  C  C112  1  0.23241000  0.47697867  0.96834874  1.0
  C  C113  1  0.16791771  0.47706762  0.96846646  1.0
  C  C114  1  0.23241297  0.52302717  0.03164603  1.0
  C  C115  1  0.16791836  0.52293887  0.03152855  1.0
  C  C116  1  0.13423857  0.50000082  0.99999906  1.0
  C  C117  1  0.06581808  0.50000138  0.00000005  1.0
  C  C118  1  0.03223546  0.44462996  0.99985329  1.0
  C  C119  1  0.03223586  0.55537319  0.00014513  1.0
  C  C120  1  0.26548950  0.49999640  0.49999689  1.0
  C  C121  1  0.23187626  0.55036516  0.48531771  1.0
  C  C122  1  0.16744228  0.55020096  0.48539071  1.0
  C  C123  1  0.23188043  0.44962865  0.51467910  1.0
  C  C124  1  0.16744275  0.44979581  0.51460866  1.0
  C  C125  1  0.13395400  0.49999982  0.50000207  1.0
  C  C126  1  0.06566216  0.49999760  0.50000104  1.0
  C  C127  1  0.03221166  0.49978321  0.53475528  1.0
  C  C128  1  0.03221338  0.50021022  0.46524662  1.0
  C  C129  1  0.73450368  0.49998927  0.50000357  1.0
  C  C130  1  0.76811521  0.44962203  0.48532124  1.0
  C  C131  1  0.83255288  0.44978669  0.48539633  1.0
  C  C132  1  0.76811817  0.55035921  0.51468025  1.0
  C  C133  1  0.83255539  0.55019529  0.51460725  1.0
  C  C134  1  0.86604196  0.49999094  0.50000100  1.0
  C  C135  1  0.93433611  0.49999640  0.50000000  1.0
  C  C136  1  0.96778800  0.49978779  0.46524634  1.0
  C  C137  1  0.96778628  0.50020724  0.53475383  1.0
  C  C138  1  0.49999928  0.73378622  0.50000359  1.0
  C  C139  1  0.47697719  0.76758795  0.46835457  1.0
  C  C140  1  0.47706272  0.83208061  0.46847437  1.0
  C  C141  1  0.52302219  0.76759223  0.53165076  1.0
  C  C142  1  0.52293741  0.83208397  0.53153247  1.0
  C  C143  1  0.49999863  0.86576167  0.50000365  1.0
  C  C144  1  0.49999807  0.93418438  0.50000063  1.0
  C  C145  1  0.55536956  0.96776742  0.50014420  1.0
  C  C146  1  0.44462465  0.96776665  0.49985462  1.0
  C  C147  1  0.49999992  0.26621334  0.50000383  1.0
  C  C148  1  0.47697671  0.23241028  0.53165324  1.0
  C  C149  1  0.47705964  0.16791715  0.53153343  1.0
  C  C150  1  0.52302184  0.23241004  0.46835426  1.0
  C  C151  1  0.52293260  0.16791922  0.46847168  1.0
  C  C152  1  0.49999408  0.13424113  0.50000116  1.0
  C  C153  1  0.49999325  0.06581795  0.49999867  1.0
  C  C154  1  0.44462084  0.03223676  0.50014198  1.0
  C  C155  1  0.55536715  0.03223430  0.49985373  1.0
  C  C156  1  0.37503844  0.62532182  0.29107066  1.0
  C  C157  1  0.37467739  0.62495935  0.20892412  1.0
  C  C158  1  0.62495902  0.37467868  0.29107325  1.0
  C  C159  1  0.62532085  0.37504188  0.20892526  1.0
  C  C160  1  0.37504237  0.37467669  0.70892765  1.0
  C  C161  1  0.37467961  0.37504055  0.79107419  1.0
  C  C162  1  0.62496180  0.62532007  0.70892558  1.0
  C  C163  1  0.62532424  0.62495964  0.79107183  1.0
  O  O164  1  0.50000011  0.49999600  0.00000150  1.0
  O  O165  1  0.36169285  0.54647730  0.01571105  1.0
  O  O166  1  0.47528757  0.36076241  0.97073705  1.0
  O  O167  1  0.54416376  0.47119124  0.08786938  1.0
  O  O168  1  0.36169581  0.45351754  0.98428615  1.0
  O  O169  1  0.45583192  0.52880506  0.08787002  1.0
  O  O170  1  0.52472311  0.36076886  0.02925955  1.0
  O  O171  1  0.63830814  0.45352427  0.01571738  1.0
  O  O172  1  0.52472153  0.63923756  0.97074227  1.0
  O  O173  1  0.63830621  0.54647861  0.98428692  1.0
  O  O174  1  0.47528099  0.63923490  0.02926467  1.0
  O  O175  1  0.45584477  0.47118768  0.91213002  1.0
  O  O176  1  0.54416859  0.52881097  0.91212743  1.0
  O  O177  1  0.50000284  0.50000255  0.49999965  1.0
  O  O178  1  0.54647787  0.36169331  0.48428753  1.0
  O  O179  1  0.36076077  0.47528154  0.52926041  1.0
  O  O180  1  0.47119468  0.54416789  0.41212823  1.0
  O  O181  1  0.45352263  0.36169330  0.51571400  1.0
  O  O182  1  0.52880950  0.45583801  0.41213089  1.0
  O  O183  1  0.36076376  0.52472302  0.47073795  1.0
  O  O184  1  0.45352286  0.63830870  0.48428808  1.0
  O  O185  1  0.63923352  0.52471220  0.52926590  1.0
  O  O186  1  0.54647780  0.63830797  0.51571682  1.0
  O  O187  1  0.63923016  0.47528142  0.47074159  1.0
  O  O188  1  0.47119722  0.45583175  0.58787088  1.0
  O  O189  1  0.52880855  0.54416239  0.58787091  1.0
  F  F190  1  0.39881875  0.26091284  0.97190957  1.0
  F  F191  1  0.39976302  0.13698862  0.97169956  1.0
  F  F192  1  0.60119730  0.26091030  0.02809434  1.0
  F  F193  1  0.60023254  0.13698006  0.02830914  1.0
  F  F194  1  0.49998613  0.06262645  0.93101112  1.0
  F  F195  1  0.50001964  0.93738082  0.93100987  1.0
  F  F196  1  0.50002861  0.06262151  0.06898856  1.0
  F  F197  1  0.49997465  0.93737589  0.06898789  1.0
  F  F198  1  0.60023635  0.86301736  0.97169356  1.0
  F  F199  1  0.60119173  0.73909129  0.97191213  1.0
  F  F200  1  0.39976277  0.86301816  0.02829982  1.0
  F  F201  1  0.39880589  0.73908931  0.02808836  1.0
  F  F202  1  0.73868661  0.54408789  0.93632555  1.0
  F  F203  1  0.86242171  0.54451580  0.93696384  1.0
  F  F204  1  0.73868113  0.45590499  0.06367111  1.0
  F  F205  1  0.86241855  0.45547998  0.06303818  1.0
  F  F206  1  0.93744265  0.60999106  0.99992449  1.0
  F  F207  1  0.06256087  0.60999025  0.00007210  1.0
  F  F208  1  0.93744351  0.39001007  0.00007551  1.0
  F  F209  1  0.06256154  0.39001374  0.99992215  1.0
  F  F210  1  0.13758385  0.54452441  0.06303356  1.0
  F  F211  1  0.26131987  0.54410448  0.06366720  1.0
  F  F212  1  0.13757753  0.45547938  0.93696244  1.0
  F  F213  1  0.26131448  0.45590452  0.93632543  1.0
  F  F214  1  0.26091247  0.39880913  0.52809027  1.0
  F  F215  1  0.13698207  0.39976497  0.52830856  1.0
  F  F216  1  0.26090875  0.60118969  0.47191108  1.0
  F  F217  1  0.13698391  0.60023281  0.47169470  1.0
  F  F218  1  0.06261850  0.49996629  0.56899052  1.0
  F  F219  1  0.93737403  0.50001414  0.56898861  1.0
  F  F220  1  0.06262470  0.50001087  0.43101156  1.0
  F  F221  1  0.93737884  0.49997125  0.43101139  1.0
  F  F222  1  0.86301362  0.60022785  0.52830279  1.0
  F  F223  1  0.73909016  0.60118277  0.52808989  1.0
  F  F224  1  0.86301972  0.39975867  0.47170067  1.0
  F  F225  1  0.73908747  0.39880086  0.47190881  1.0
  F  F226  1  0.54409497  0.73868871  0.56367406  1.0
  F  F227  1  0.54453076  0.86242180  0.56303562  1.0
  F  F228  1  0.45590958  0.73868570  0.43633020  1.0
  F  F229  1  0.45547947  0.86241555  0.43696879  1.0
  F  F230  1  0.60999141  0.93744323  0.50006923  1.0
  F  F231  1  0.60998382  0.06256297  0.49992007  1.0
  F  F232  1  0.39000797  0.93744029  0.49992794  1.0
  F  F233  1  0.39000547  0.06256281  0.50006828  1.0
  F  F234  1  0.54451846  0.13758180  0.43696642  1.0
  F  F235  1  0.54409253  0.26131766  0.43633117  1.0
  F  F236  1  0.45547664  0.13757488  0.56303851  1.0
  F  F237  1  0.45590732  0.26131351  0.56367739  1.0
