# generated using pymatgen
data_ZnH14C23N3O5
_symmetry_space_group_name_H-M   'P 1'
_cell_length_a   16.24696759
_cell_length_b   17.21848118
_cell_length_c   19.17064552
_cell_angle_alpha   89.21487154
_cell_angle_beta   87.52684558
_cell_angle_gamma   87.78581427
_symmetry_Int_Tables_number   1
_chemical_formula_structural   ZnH14C23N3O5
_chemical_formula_sum   'Zn2 H28 C46 N6 O10'
_cell_volume   5353.56700853
_cell_formula_units_Z   2
loop_
 _symmetry_equiv_pos_site_id
 _symmetry_equiv_pos_as_xyz
  1  'x, y, z'
loop_
 _atom_site_type_symbol
 _atom_site_label
 _atom_site_symmetry_multiplicity
 _atom_site_fract_x
 _atom_site_fract_y
 _atom_site_fract_z
 _atom_site_occupancy
  Zn  Zn0  1  0.58403259  0.50543665  0.50182610  1.0
  Zn  Zn1  1  0.41435636  0.50140436  0.50713588  1.0
  H  H2  1  0.63045757  0.47937694  0.72048650  1.0
  H  H3  1  0.37028142  0.48279371  0.28766299  1.0
  H  H4  1  0.28446766  0.56336983  0.41999096  1.0
  H  H5  1  0.72015759  0.44096499  0.58763117  1.0
  H  H6  1  0.70899446  0.58859942  0.41573980  1.0
  H  H7  1  0.28362943  0.41096132  0.58776047  1.0
  H  H8  1  0.99196001  0.58516863  0.46851519  1.0
  H  H9  1  0.00597906  0.41785362  0.52619669  1.0
  H  H10  1  0.13111818  0.39651855  0.58365234  1.0
  H  H11  1  0.86278494  0.60255609  0.41080680  1.0
  H  H12  1  0.63405085  0.45371677  0.84921361  1.0
  H  H13  1  0.37149257  0.45090819  0.16018860  1.0
  H  H14  1  0.36911948  0.44838479  0.86126527  1.0
  H  H15  1  0.63624708  0.45942070  0.14956392  1.0
  H  H16  1  0.36642473  0.47387503  0.73228290  1.0
  H  H17  1  0.63386012  0.49027199  0.27728567  1.0
  H  H18  1  0.39408493  0.27069117  0.43141571  1.0
  H  H19  1  0.61125043  0.74786660  0.47449980  1.0
  H  H20  1  0.34816229  0.74610927  0.46455378  1.0
  H  H21  1  0.65099071  0.25815056  0.47469314  1.0
  H  H22  1  0.40817113  0.00632489  0.41993762  1.0
  H  H23  1  0.59783378  0.00396453  0.41653826  1.0
  H  H24  1  0.65886013  0.11817487  0.44201072  1.0
  H  H25  1  0.34491616  0.88589645  0.42864160  1.0
  H  H26  1  0.60957471  0.88670725  0.43994850  1.0
  H  H27  1  0.40080535  0.13195620  0.39702888  1.0
  H  H28  1  0.93861342  0.46953014  0.62631002  1.0
  H  H29  1  0.18475158  0.59136489  0.35418504  1.0
  C  C30  1  0.51472208  0.35372771  0.48328098  1.0
  C  C31  1  0.48336026  0.65457970  0.49415659  1.0
  C  C32  1  0.52117513  0.27185653  0.45809124  1.0
  C  C33  1  0.47993346  0.73833696  0.47225110  1.0
  C  C34  1  0.45151898  0.23617458  0.43412691  1.0
  C  C35  1  0.55328005  0.77877174  0.46387876  1.0
  C  C36  1  0.45569826  0.15856678  0.41521766  1.0
  C  C37  1  0.55179026  0.85651506  0.44419245  1.0
  C  C38  1  0.52963841  0.11354242  0.42085627  1.0
  C  C39  1  0.47661437  0.89735567  0.43208487  1.0
  C  C40  1  0.60059689  0.15170040  0.43959676  1.0
  C  C41  1  0.40361087  0.85555097  0.43855277  1.0
  C  C42  1  0.59655292  0.22950137  0.45823537  1.0
  C  C43  1  0.40504061  0.77753720  0.45857727  1.0
  C  C44  1  0.53505311  0.02925010  0.41589933  1.0
  C  C45  1  0.47102916  0.98105085  0.41981580  1.0
  C  C46  1  0.24702242  0.52894436  0.45663513  1.0
  C  C47  1  0.75415051  0.47524971  0.54860810  1.0
  C  C48  1  0.16160648  0.52636811  0.45003037  1.0
  C  C49  1  0.83990543  0.47981959  0.55087920  1.0
  C  C50  1  0.11617242  0.47959622  0.49889688  1.0
  C  C51  1  0.88152128  0.52546224  0.49954998  1.0
  C  C52  1  0.49718747  0.48956218  0.64093937  1.0
  C  C53  1  0.50083452  0.50407278  0.36634527  1.0
  C  C54  1  0.16242837  0.43540595  0.54677603  1.0
  C  C55  1  0.83324212  0.56656653  0.45108532  1.0
  C  C56  1  0.24701871  0.44286748  0.54966064  1.0
  C  C57  1  0.74856292  0.55876860  0.45297395  1.0
  C  C58  1  0.02679371  0.47352769  0.50529689  1.0
  C  C59  1  0.97071753  0.53098867  0.49156749  1.0
  C  C60  1  0.57365948  0.47243210  0.75184563  1.0
  C  C61  1  0.42788381  0.47796919  0.25652600  1.0
  C  C62  1  0.57568192  0.45838786  0.82328947  1.0
  C  C63  1  0.42860669  0.46030088  0.18604635  1.0
  C  C64  1  0.50179616  0.44898512  0.86300636  1.0
  C  C65  1  0.50396560  0.45341963  0.14720365  1.0
  C  C66  1  0.42605030  0.45526873  0.83003394  1.0
  C  C67  1  0.57823488  0.46499903  0.18006902  1.0
  C  C68  1  0.42458855  0.46920953  0.75849976  1.0
  C  C69  1  0.57696324  0.48228642  0.25067451  1.0
  C  C70  1  0.49829447  0.47726692  0.71864236  1.0
  C  C71  1  0.50190500  0.48882627  0.28945907  1.0
  C  C72  1  0.50487595  0.43534809  0.07274328  1.0
  C  C73  1  0.50373862  0.43351121  0.93828135  1.0
  C  C74  1  0.88049620  0.44277397  0.61150705  1.0
  C  C75  1  0.13242470  0.56787480  0.38672715  1.0
  N  N76  1  0.43227324  0.41974214  0.97463507  1.0
  N  N77  1  0.57829826  0.42652254  0.03686338  1.0
  N  N78  1  0.43286386  0.42070878  0.04324046  1.0
  N  N79  1  0.57768694  0.42563135  0.96828066  1.0
  N  N80  1  0.28859169  0.49045042  0.50580986  1.0
  N  N81  1  0.70986415  0.51336166  0.50091659  1.0
  O  O82  1  0.58154642  0.38653250  0.49556509  1.0
  O  O83  1  0.41538093  0.62092107  0.50577981  1.0
  O  O84  1  0.44237703  0.38509229  0.49062610  1.0
  O  O85  1  0.55502603  0.62229218  0.49884399  1.0
  O  O86  1  0.56639495  0.49863147  0.60872442  1.0
  O  O87  1  0.43049838  0.51163669  0.39806182  1.0
  O  O88  1  0.42734234  0.48933808  0.61285511  1.0
  O  O89  1  0.57044874  0.50647836  0.39425942  1.0
  O  O90  1  0.85192994  0.38879408  0.64558806  1.0
  O  O91  1  0.06184430  0.57639232  0.36732058  1.0
