# generated using pymatgen
data_AlH8C16BrO6
_symmetry_space_group_name_H-M   'P 1'
_cell_length_a   6.64300798
_cell_length_b   20.27073168
_cell_length_c   23.04197765
_cell_angle_alpha   86.70185977
_cell_angle_beta   89.99821256
_cell_angle_gamma   89.99883444
_symmetry_Int_Tables_number   1
_chemical_formula_structural   AlH8C16BrO6
_chemical_formula_sum   'Al4 H32 C64 Br4 O24'
_cell_volume   3097.66197653
_cell_formula_units_Z   4
loop_
 _symmetry_equiv_pos_site_id
 _symmetry_equiv_pos_as_xyz
  1  'x, y, z'
loop_
 _atom_site_type_symbol
 _atom_site_label
 _atom_site_symmetry_multiplicity
 _atom_site_fract_x
 _atom_site_fract_y
 _atom_site_fract_z
 _atom_site_occupancy
  Al  Al0  1  0.78490176  0.75258421  0.24846120  1.0
  Al  Al1  1  0.21509005  0.24741365  0.75154070  1.0
  Al  Al2  1  0.28489934  0.74741062  0.25153775  1.0
  Al  Al3  1  0.71509699  0.25258875  0.74846372  1.0
  H  H4  1  0.77958003  0.59853198  0.99747086  1.0
  H  H5  1  0.22043286  0.40148149  0.00251889  1.0
  H  H6  1  0.27958952  0.90147753  0.50253708  1.0
  H  H7  1  0.72043842  0.09852532  0.49745656  1.0
  H  H8  1  0.29011315  0.64693151  0.41115063  1.0
  H  H9  1  0.70988920  0.35307256  0.58885432  1.0
  H  H10  1  0.79013202  0.85306613  0.08885002  1.0
  H  H11  1  0.20987786  0.14692508  0.91114797  1.0
  H  H12  1  0.57288633  0.47000362  0.40744716  1.0
  H  H13  1  0.42710849  0.53000455  0.59256301  1.0
  H  H14  1  0.07287917  0.02999533  0.09255877  1.0
  H  H15  1  0.92710813  0.96999028  0.90743442  1.0
  H  H16  1  0.55932840  0.39542716  0.49538590  1.0
  H  H17  1  0.44068750  0.60457418  0.50462296  1.0
  H  H18  1  0.05931234  0.10456842  0.00462016  1.0
  H  H19  1  0.94069151  0.89542346  0.99537522  1.0
  H  H20  1  0.51698012  0.43918878  0.94772602  1.0
  H  H21  1  0.61477542  0.43548166  0.87537922  1.0
  H  H22  1  0.41713668  0.49268390  0.89021898  1.0
  H  H23  1  0.38516973  0.56447486  0.12469525  1.0
  H  H24  1  0.48285213  0.56090096  0.05232596  1.0
  H  H25  1  0.58289428  0.50734212  0.10975251  1.0
  H  H26  1  0.01677507  0.06071536  0.55221971  1.0
  H  H27  1  0.11469683  0.06459044  0.62453750  1.0
  H  H28  1  0.91719409  0.00728674  0.60981788  1.0
  H  H29  1  0.88507973  0.93555507  0.37523238  1.0
  H  H30  1  0.98268688  0.93903172  0.44761416  1.0
  H  H31  1  0.08289557  0.99263545  0.39023134  1.0
  H  H32  1  0.54743384  0.66641313  0.27092606  1.0
  H  H33  1  0.45255798  0.33358670  0.72908323  1.0
  H  H34  1  0.04743332  0.83358154  0.22907161  1.0
  H  H35  1  0.95256301  0.16641066  0.77091898  1.0
  C  C36  1  0.52908384  0.83660381  0.17291288  1.0
  C  C37  1  0.47092001  0.16339088  0.82708468  1.0
  C  C38  1  0.02906651  0.66339588  0.32708541  1.0
  C  C39  1  0.97093132  0.33660816  0.67291998  1.0
  C  C40  1  0.53299170  0.82343441  0.32965568  1.0
  C  C41  1  0.46698356  0.17656443  0.67034622  1.0
  C  C42  1  0.03300902  0.67656456  0.17034561  1.0
  C  C43  1  0.96699333  0.32343164  0.82965890  1.0
  C  C44  1  0.84256358  0.50784838  0.95835610  1.0
  C  C45  1  0.15746888  0.49216579  0.04163060  1.0
  C  C46  1  0.34259258  0.99215694  0.54164864  1.0
  C  C47  1  0.65746246  0.00783993  0.45835326  1.0
  C  C48  1  0.96971235  0.45122592  0.95928200  1.0
  C  C49  1  0.03032010  0.54878653  0.04070818  1.0
  C  C50  1  0.46975151  0.04878412  0.54071311  1.0
  C  C51  1  0.53031858  0.95122256  0.45928966  1.0
  C  C52  1  0.12246702  0.44458020  0.00167744  1.0
  C  C53  1  0.87755339  0.55543173  0.99831317  1.0
  C  C54  1  0.62247645  0.05542685  0.49830500  1.0
  C  C55  1  0.37756203  0.94457504  0.50168821  1.0
  C  C56  1  0.96106766  0.40460768  0.91611035  1.0
  C  C57  1  0.03892566  0.59540185  0.08387939  1.0
  C  C58  1  0.46111186  0.09539650  0.58388484  1.0
  C  C59  1  0.53890253  0.90459694  0.41611663  1.0
  C  C60  1  0.03366747  0.63449416  0.12211804  1.0
  C  C61  1  0.96632736  0.36550573  0.87788300  1.0
  C  C62  1  0.53364139  0.86549999  0.37788150  1.0
  C  C63  1  0.46635645  0.13449351  0.62211909  1.0
  C  C64  1  0.16848972  0.61110877  0.41747675  1.0
  C  C65  1  0.83150660  0.38890021  0.58253603  1.0
  C  C66  1  0.66849968  0.88889113  0.08252546  1.0
  C  C67  1  0.33150870  0.11109921  0.91747078  1.0
  C  C68  1  0.01717638  0.61066460  0.37529029  1.0
  C  C69  1  0.98282898  0.38934249  0.62472118  1.0
  C  C70  1  0.51717151  0.88933518  0.12471549  1.0
  C  C71  1  0.48283837  0.11065775  0.87527901  1.0
  C  C72  1  0.86102703  0.56389011  0.38185269  1.0
  C  C73  1  0.13898586  0.43611326  0.61815530  1.0
  C  C74  1  0.36102739  0.93610929  0.11815078  1.0
  C  C75  1  0.63899001  0.06388787  0.88184677  1.0
  C  C76  1  0.84933833  0.51915904  0.43114755  1.0
  C  C77  1  0.15065800  0.48084820  0.56886175  1.0
  C  C78  1  0.34934264  0.98084231  0.06885777  1.0
  C  C79  1  0.65066573  0.01914984  0.93114109  1.0
  C  C80  1  0.00334730  0.52192288  0.47467748  1.0
  C  C81  1  0.99666859  0.47807605  0.52533051  1.0
  C  C82  1  0.50335196  0.97807751  0.02532799  1.0
  C  C83  1  0.49666695  0.02192148  0.97467174  1.0
  C  C84  1  0.16459110  0.56815994  0.46721788  1.0
  C  C85  1  0.83540523  0.43184610  0.53279446  1.0
  C  C86  1  0.66459913  0.93184109  0.03278263  1.0
  C  C87  1  0.33540473  0.06815134  0.96721188  1.0
  C  C88  1  0.69061293  0.47173721  0.44016854  1.0
  C  C89  1  0.30938190  0.52826950  0.55984120  1.0
  C  C90  1  0.19061067  0.02826353  0.05983457  1.0
  C  C91  1  0.80939168  0.97172994  0.94015907  1.0
  C  C92  1  0.68341459  0.43036522  0.48895075  1.0
  C  C93  1  0.31657722  0.56964178  0.51106203  1.0
  C  C94  1  0.18340589  0.06963551  0.01105330  1.0
  C  C95  1  0.81659496  0.93035753  0.98893947  1.0
  C  C96  1  0.55362588  0.46821572  0.90732319  1.0
  C  C97  1  0.44635690  0.53181578  0.09269961  1.0
  C  C98  1  0.05359151  0.03177390  0.59265358  1.0
  C  C99  1  0.94629042  0.96817432  0.40725655  1.0
  Br  Br100  1  0.66696012  0.55444281  0.32155435  1.0
  Br  Br101  1  0.33305126  0.44555650  0.67845538  1.0
  Br  Br102  1  0.16694483  0.94555481  0.17845265  1.0
  Br  Br103  1  0.83306053  0.05444389  0.82154403  1.0
  O  O104  1  0.36148345  0.80386527  0.31287102  1.0
  O  O105  1  0.63850686  0.19611932  0.68713739  1.0
  O  O106  1  0.86149977  0.69612479  0.18713200  1.0
  O  O107  1  0.13850107  0.30386185  0.81288293  1.0
  O  O108  1  0.70406146  0.81854429  0.18982345  1.0
  O  O109  1  0.29594239  0.18144434  0.81016888  1.0
  O  O110  1  0.20406890  0.68145331  0.31017234  1.0
  O  O111  1  0.79590635  0.31854304  0.68982260  1.0
  O  O112  1  0.70428754  0.81102882  0.30783977  1.0
  O  O113  1  0.29567868  0.18897934  0.69214823  1.0
  O  O114  1  0.20432002  0.68896757  0.19215949  1.0
  O  O115  1  0.79567932  0.31103485  0.80784067  1.0
  O  O116  1  0.86450459  0.68764798  0.30804498  1.0
  O  O117  1  0.13548722  0.31236543  0.69196780  1.0
  O  O118  1  0.36449698  0.81235099  0.19195716  1.0
  O  O119  1  0.63551289  0.18765287  0.80805084  1.0
  O  O120  1  0.53766845  0.70998703  0.25108145  1.0
  O  O121  1  0.46232939  0.29001095  0.74892610  1.0
  O  O122  1  0.03766238  0.79000933  0.24892153  1.0
  O  O123  1  0.96232793  0.20998812  0.75107907  1.0
  O  O124  1  0.69094862  0.52093609  0.91935732  1.0
  O  O125  1  0.30909889  0.47907233  0.08061937  1.0
  O  O126  1  0.19103765  0.97907326  0.58066274  1.0
  O  O127  1  0.80910771  0.02092484  0.41936525  1.0
