# generated using pymatgen
data_AlH13C16N2O5
_symmetry_space_group_name_H-M   'P 1'
_cell_length_a   6.65673718
_cell_length_b   17.00317618
_cell_length_c   17.00365169
_cell_angle_alpha   87.25055037
_cell_angle_beta   81.91835352
_cell_angle_gamma   81.92318992
_symmetry_Int_Tables_number   1
_chemical_formula_structural   AlH13C16N2O5
_chemical_formula_sum   'Al2 H26 C32 N4 O10'
_cell_volume   1885.77368337
_cell_formula_units_Z   2
loop_
 _symmetry_equiv_pos_site_id
 _symmetry_equiv_pos_as_xyz
  1  'x, y, z'
loop_
 _atom_site_type_symbol
 _atom_site_label
 _atom_site_symmetry_multiplicity
 _atom_site_fract_x
 _atom_site_fract_y
 _atom_site_fract_z
 _atom_site_occupancy
  Al  Al0  1  0.50014852  0.49997754  0.49987776  1.0
  Al  Al1  1  0.99993697  0.50009740  0.49999829  1.0
  H  H2  1  0.74996549  0.42448230  0.57569186  1.0
  H  H3  1  0.24992148  0.57593983  0.42436603  1.0
  H  H4  1  0.39200471  0.73940932  0.45824704  1.0
  H  H5  1  0.32485272  0.88843603  0.45660379  1.0
  H  H6  1  0.85047694  0.89179307  0.57594880  1.0
  H  H7  1  0.14712799  0.10932428  0.42324267  1.0
  H  H8  1  0.67120425  0.11092244  0.54396358  1.0
  H  H9  1  0.60601421  0.25994391  0.54303175  1.0
  H  H10  1  0.89408229  0.45685868  0.74005807  1.0
  H  H11  1  0.82874452  0.45600036  0.88906459  1.0
  H  H12  1  0.35275392  0.57676437  0.89064709  1.0
  H  H13  1  0.64946861  0.42406438  0.10823929  1.0
  H  H14  1  0.17516305  0.54340034  0.11152846  1.0
  H  H15  1  0.10805606  0.54177884  0.26055460  1.0
  H  H16  1  0.09049864  0.70082510  0.54947975  1.0
  H  H17  1  0.91997677  0.69059488  0.63678404  1.0
  H  H18  1  0.03920632  0.77852042  0.61924828  1.0
  H  H19  1  0.97123250  0.22440148  0.37488256  1.0
  H  H20  1  0.07155494  0.31677594  0.37045011  1.0
  H  H21  1  0.89917465  0.29298180  0.45304674  1.0
  H  H22  1  0.52873952  0.62507255  0.77559644  1.0
  H  H23  1  0.42846718  0.62949744  0.68321505  1.0
  H  H24  1  0.60087426  0.54691711  0.70701795  1.0
  H  H25  1  0.40931756  0.45063295  0.29907207  1.0
  H  H26  1  0.57984012  0.36337997  0.30955541  1.0
  H  H27  1  0.46093538  0.38069636  0.22153046  1.0
  C  C28  1  0.19523601  0.50778931  0.64388701  1.0
  C  C29  1  0.30481716  0.35610604  0.49210398  1.0
  C  C30  1  0.80513031  0.49182025  0.35593974  1.0
  C  C31  1  0.69496070  0.64404767  0.50821843  1.0
  C  C32  1  0.66222704  0.73220601  0.51514040  1.0
  C  C33  1  0.49266942  0.77393502  0.48307740  1.0
  C  C34  1  0.45449857  0.85603952  0.48207360  1.0
  C  C35  1  0.58830058  0.89816438  0.51497698  1.0
  C  C36  1  0.75322885  0.85683865  0.54941501  1.0
  C  C37  1  0.79500109  0.77385525  0.55032405  1.0
  C  C38  1  0.24439772  0.14382843  0.45031412  1.0
  C  C39  1  0.40850577  0.10207964  0.48486762  1.0
  C  C40  1  0.54226641  0.14373726  0.51839337  1.0
  C  C41  1  0.50525247  0.22583977  0.51771666  1.0
  C  C42  1  0.33658360  0.26798041  0.48542737  1.0
  C  C43  1  0.20353902  0.22683900  0.44988870  1.0
  C  C44  1  0.16348017  0.51446330  0.73201407  1.0
  C  C45  1  0.99479554  0.48219084  0.77415975  1.0
  C  C46  1  0.95770463  0.48155225  0.85625505  1.0
  C  C47  1  0.09140312  0.51511208  0.89791501  1.0
  C  C48  1  0.25554285  0.54966112  0.85615415  1.0
  C  C49  1  0.29647913  0.55002953  0.77315294  1.0
  C  C50  1  0.74673959  0.45061797  0.14317275  1.0
  C  C51  1  0.91166781  0.48504895  0.10183209  1.0
  C  C52  1  0.04549743  0.51794560  0.14393424  1.0
  C  C53  1  0.00737585  0.51695521  0.22603681  1.0
  C  C54  1  0.83781431  0.48490236  0.26777678  1.0
  C  C55  1  0.70498670  0.44971419  0.22615237  1.0
  C  C56  1  0.97093807  0.73401234  0.59093738  1.0
  C  C57  1  0.02716802  0.26727653  0.40989460  1.0
  C  C58  1  0.47283581  0.59005249  0.73271603  1.0
  C  C59  1  0.52900702  0.40912435  0.26601896  1.0
  N  N60  1  0.56929341  0.98179672  0.51754699  1.0
  N  N61  1  0.42701370  0.01844027  0.48205605  1.0
  N  N62  1  0.07284795  0.51797034  0.98153708  1.0
  N  N63  1  0.93067403  0.48243822  0.01820497  1.0
  O  O64  1  0.37863332  0.50212803  0.60881631  1.0
  O  O65  1  0.12144875  0.39118385  0.49777612  1.0
  O  O66  1  0.96309656  0.49424619  0.38998779  1.0
  O  O67  1  0.53696607  0.60999934  0.50578590  1.0
  O  O68  1  0.62164007  0.49748089  0.39089491  1.0
  O  O69  1  0.87843018  0.60909326  0.50257254  1.0
  O  O70  1  0.03685512  0.50576807  0.60999784  1.0
  O  O71  1  0.46323984  0.38999193  0.49412881  1.0
  O  O72  1  0.75006693  0.46558215  0.53438742  1.0
  O  O73  1  0.24999924  0.53458252  0.46542261  1.0
