# generated using pymatgen
data_ZnH16C23(N3O2)2
_symmetry_space_group_name_H-M   'P 1'
_cell_length_a   8.06689704
_cell_length_b   14.63364260
_cell_length_c   14.63326043
_cell_angle_alpha   94.48700772
_cell_angle_beta   103.41601999
_cell_angle_gamma   103.41606961
_symmetry_Int_Tables_number   1
_chemical_formula_structural   ZnH16C23(N3O2)2
_chemical_formula_sum   'Zn2 H32 C46 N12 O8'
_cell_volume   1618.43509096
_cell_formula_units_Z   2
loop_
 _symmetry_equiv_pos_site_id
 _symmetry_equiv_pos_as_xyz
  1  'x, y, z'
loop_
 _atom_site_type_symbol
 _atom_site_label
 _atom_site_symmetry_multiplicity
 _atom_site_fract_x
 _atom_site_fract_y
 _atom_site_fract_z
 _atom_site_occupancy
  Zn  Zn0  1  0.59411186  0.73172827  0.74791163  1.0
  Zn  Zn1  1  0.40588779  0.25208745  0.26827140  1.0
  H  H2  1  0.13777034  0.60623391  0.50308534  1.0
  H  H3  1  0.86221780  0.49691682  0.39376320  1.0
  H  H4  1  0.13251080  0.40857799  0.70411221  1.0
  H  H5  1  0.86748712  0.29589671  0.59142505  1.0
  H  H6  1  0.29099538  0.85435031  0.89548441  1.0
  H  H7  1  0.70900088  0.10451034  0.14564707  1.0
  H  H8  1  0.82386369  0.00372911  0.04050112  1.0
  H  H9  1  0.17613158  0.95949891  0.99626831  1.0
  H  H10  1  0.89726743  0.92753197  0.76547198  1.0
  H  H11  1  0.10273999  0.23453060  0.07246206  1.0
  H  H12  1  0.61072064  0.96224230  0.49302055  1.0
  H  H13  1  0.38927747  0.50698122  0.03775783  1.0
  H  H14  1  0.45139036  0.79076568  0.54395497  1.0
  H  H15  1  0.54861387  0.45604328  0.20923628  1.0
  H  H16  1  0.02312722  0.08383456  0.78276900  1.0
  H  H17  1  0.97687442  0.21724054  0.91615851  1.0
  H  H18  1  0.30232701  0.12138870  0.88744255  1.0
  H  H19  1  0.69768252  0.11257120  0.87861233  1.0
  H  H20  1  0.53767864  0.26799435  0.01701173  1.0
  H  H21  1  0.46233684  0.98299944  0.73200442  1.0
  H  H22  1  0.36331952  0.37825109  0.76596938  1.0
  H  H23  1  0.63668018  0.23403402  0.62173375  1.0
  H  H24  1  0.29686728  0.27551073  0.62401306  1.0
  H  H25  1  0.70313384  0.37599002  0.72448410  1.0
  H  H26  1  0.37448089  0.20862210  0.47201019  1.0
  H  H27  1  0.62551423  0.52798783  0.79137787  1.0
  H  H28  1  0.97869104  0.22004843  0.23120160  1.0
  H  H29  1  0.02129846  0.76879091  0.77994715  1.0
  H  H30  1  0.82086853  0.17915777  0.37833243  1.0
  H  H31  1  0.17912969  0.62166660  0.82084288  1.0
  H  H32  1  0.85811275  0.04385344  0.47638636  1.0
  H  H33  1  0.14188465  0.52361286  0.95614638  1.0
  C  C34  1  0.31403153  0.57610863  0.67686106  1.0
  C  C35  1  0.68596904  0.32314381  0.42389496  1.0
  C  C36  1  0.15169942  0.51288803  0.60933340  1.0
  C  C37  1  0.84830211  0.39067312  0.48711707  1.0
  C  C38  1  0.07590757  0.53845260  0.52198133  1.0
  C  C39  1  0.92409277  0.47802268  0.46154868  1.0
  C  C40  1  0.07440440  0.42614915  0.63504849  1.0
  C  C41  1  0.92558626  0.36495802  0.57385656  1.0
  C  C42  1  0.62934308  0.86335021  0.89739901  1.0
  C  C43  1  0.37065944  0.10260094  0.13665147  1.0
  C  C44  1  0.56307647  0.92383253  0.96096170  1.0
  C  C45  1  0.43692529  0.03903699  0.07616668  1.0
  C  C46  1  0.38099826  0.91085313  0.94938573  1.0
  C  C47  1  0.61900384  0.05061330  0.08914521  1.0
  C  C48  1  0.68240742  0.99439563  0.03139054  1.0
  C  C49  1  0.31759279  0.96860918  0.00560268  1.0
  C  C50  1  0.80109462  0.91232044  0.69723928  1.0
  C  C51  1  0.19891033  0.30276194  0.08767432  1.0
  C  C52  1  0.64936663  0.92787829  0.55429279  1.0
  C  C53  1  0.35063384  0.44570470  0.07211820  1.0
  C  C54  1  0.57007437  0.84468613  0.58080789  1.0
  C  C55  1  0.42993008  0.41918961  0.15531222  1.0
  C  C56  1  0.92611310  0.05478071  0.62977541  1.0
  C  C57  1  0.07388626  0.37023073  0.94521560  1.0
  C  C58  1  0.04008534  0.10503778  0.71521526  1.0
  C  C59  1  0.95991476  0.28479192  0.89495689  1.0
  C  C60  1  0.17483591  0.18420054  0.71304900  1.0
  C  C61  1  0.82516725  0.28695763  0.81579032  1.0
  C  C62  1  0.34701555  0.19602072  0.88193297  1.0
  C  C63  1  0.65299624  0.11807993  0.80397461  1.0
  C  C64  1  0.46633043  0.26979250  0.94473388  1.0
  C  C65  1  0.53367177  0.05527537  0.73019934  1.0
  C  C66  1  0.38433420  0.32899435  0.81661077  1.0
  C  C67  1  0.61567160  0.18339438  0.67099429  1.0
  C  C68  1  0.19200324  0.21457295  0.62650537  1.0
  C  C69  1  0.80800057  0.37349895  0.78541874  1.0
  C  C70  1  0.07366710  0.16438783  0.54278454  1.0
  C  C71  1  0.92633355  0.45721871  0.83561007  1.0
  C  C72  1  0.24683697  0.20918311  0.42752460  1.0
  C  C73  1  0.75315549  0.57247383  0.79081732  1.0
  C  C74  1  0.03714478  0.21163015  0.30349779  1.0
  C  C75  1  0.96284574  0.69649817  0.78836708  1.0
  C  C76  1  0.95690857  0.19042317  0.37482618  1.0
  C  C77  1  0.04308420  0.62517127  0.80957404  1.0
  C  C78  1  0.94151317  0.08439492  0.54327599  1.0
  C  C79  1  0.05848796  0.45672888  0.91560172  1.0
  N  N80  1  0.66617953  0.83603637  0.66978736  1.0
  N  N81  1  0.33382552  0.33021117  0.16395947  1.0
  N  N82  1  0.79702404  0.97026664  0.62851254  1.0
  N  N83  1  0.20297700  0.37148958  0.02972910  1.0
  N  N84  1  0.48769733  0.35232819  0.90360917  1.0
  N  N85  1  0.51231083  0.09639480  0.64766735  1.0
  N  N86  1  0.29493829  0.23375928  0.79879789  1.0
  N  N87  1  0.70506771  0.20120973  0.76623196  1.0
  N  N88  1  0.21675057  0.22269723  0.33708043  1.0
  N  N89  1  0.78324305  0.66291579  0.77730122  1.0
  N  N90  1  0.09221776  0.19005702  0.45346414  1.0
  N  N91  1  0.90777286  0.54653503  0.80994309  1.0
  O  O92  1  0.38472971  0.65374501  0.64857204  1.0
  O  O93  1  0.61527227  0.35142687  0.34625414  1.0
  O  O94  1  0.37212753  0.55152875  0.75622675  1.0
  O  O95  1  0.62786383  0.24377842  0.44847149  1.0
  O  O96  1  0.50949611  0.79006812  0.84641990  1.0
  O  O97  1  0.49050407  0.15357025  0.20994242  1.0
  O  O98  1  0.78737016  0.88520514  0.89424245  1.0
  O  O99  1  0.21263520  0.10576409  0.11478790  1.0
