# generated using pymatgen
data_Zr3H26C54N9O16
_symmetry_space_group_name_H-M   'P 1'
_cell_length_a   19.01604536
_cell_length_b   19.02173820
_cell_length_c   19.16165884
_cell_angle_alpha   91.02883724
_cell_angle_beta   91.44358471
_cell_angle_gamma   91.41415808
_symmetry_Int_Tables_number   1
_chemical_formula_structural   Zr3H26C54N9O16
_chemical_formula_sum   'Zr6 H52 C108 N18 O32'
_cell_volume   6925.61433485
_cell_formula_units_Z   2
loop_
 _symmetry_equiv_pos_site_id
 _symmetry_equiv_pos_as_xyz
  1  'x, y, z'
loop_
 _atom_site_type_symbol
 _atom_site_label
 _atom_site_symmetry_multiplicity
 _atom_site_fract_x
 _atom_site_fract_y
 _atom_site_fract_z
 _atom_site_occupancy
  Zr  Zr0  1  0.81496172  0.94034927  0.85591839  1.0
  Zr  Zr1  1  0.76419822  0.84286167  0.00244296  1.0
  Zr  Zr2  1  0.98513227  0.96621216  0.93104170  1.0
  Zr  Zr3  1  0.91300945  0.79402987  0.90765168  1.0
  Zr  Zr4  1  0.83648139  0.01395524  0.02636066  1.0
  Zr  Zr5  1  0.93546088  0.86773666  0.07703246  1.0
  H  H6  1  0.77057253  0.79744636  0.86067268  1.0
  H  H7  1  0.88402933  0.06971149  0.90161883  1.0
  H  H8  1  0.04093047  0.84069648  0.97790068  1.0
  H  H9  1  0.80847207  0.91342695  0.13027785  1.0
  H  H10  1  0.25626575  0.75052613  0.74158912  1.0
  H  H11  1  0.19281255  0.94788537  0.65696008  1.0
  H  H12  1  0.09309803  0.95056148  0.74020041  1.0
  H  H13  1  0.14786748  0.74590668  0.81328446  1.0
  H  H14  1  0.55272072  0.88477594  0.64098079  1.0
  H  H15  1  0.42031915  0.82365072  0.80912052  1.0
  H  H16  1  0.52427715  0.83088750  0.89262724  1.0
  H  H17  1  0.65581870  0.89468778  0.72461286  1.0
  H  H18  1  0.19379460  0.93850394  0.29459737  1.0
  H  H19  1  0.32571157  0.99428319  0.12422223  1.0
  H  H20  1  0.22107190  0.98661747  0.04158231  1.0
  H  H21  1  0.08987736  0.92810564  0.21161682  1.0
  H  H22  1  0.55553589  0.86893656  0.27569829  1.0
  H  H23  1  0.48774567  0.06128126  0.18354037  1.0
  H  H24  1  0.59430651  0.06382728  0.10933727  1.0
  H  H25  1  0.65350100  0.86361903  0.19064275  1.0
  H  H26  1  0.66210975  0.29488058  0.81885031  1.0
  H  H27  1  0.55066260  0.21209506  0.99307587  1.0
  H  H28  1  0.63094765  0.10920941  0.99532618  1.0
  H  H29  1  0.73268002  0.18553261  0.81234497  1.0
  H  H30  1  0.54929863  0.58258313  0.94216073  1.0
  H  H31  1  0.72040559  0.44829329  0.89311493  1.0
  H  H32  1  0.80474393  0.55212948  0.90067852  1.0
  H  H33  1  0.63361805  0.68562038  0.95213914  1.0
  H  H34  1  0.11894892  0.11931311  0.99209992  1.0
  H  H35  1  0.94795369  0.25047124  0.04938548  1.0
  H  H36  1  0.03162363  0.35469225  0.05830108  1.0
  H  H37  1  0.20287094  0.22288524  0.00344886  1.0
  H  H38  1  0.08502076  0.51149598  0.12177117  1.0
  H  H39  1  0.19319852  0.59043812  0.94382092  1.0
  H  H40  1  0.11056255  0.69098590  0.93838744  1.0
  H  H41  1  0.01200782  0.61930160  0.12496897  1.0
  H  H42  1  0.73930914  0.70060807  0.36452716  1.0
  H  H43  1  0.90081657  0.57713949  0.27323023  1.0
  H  H44  1  0.90013054  0.65549092  0.16933056  1.0
  H  H45  1  0.72986804  0.77087427  0.25587873  1.0
  H  H46  1  0.80580527  0.75025853  0.51384436  1.0
  H  H47  1  0.86369408  0.57934042  0.64546365  1.0
  H  H48  1  0.87101630  0.66216220  0.74852066  1.0
  H  H49  1  0.81047606  0.83286681  0.61764821  1.0
  H  H50  1  0.89026478  0.14911603  0.18121700  1.0
  H  H51  1  0.95808247  0.97859224  0.30863126  1.0
  H  H52  1  0.96588954  0.06058855  0.41277272  1.0
  H  H53  1  0.90121848  0.23174203  0.28460283  1.0
  H  H54  1  0.87888643  0.23871722  0.66266358  1.0
  H  H55  1  0.00379868  0.08694693  0.55664079  1.0
  H  H56  1  0.00590612  0.01253347  0.66249305  1.0
  H  H57  1  0.87424135  0.16098842  0.76632222  1.0
  C  C58  1  0.93427810  0.20495823  0.53692637  1.0
  C  C59  1  0.93170900  0.19680137  0.41797887  1.0
  C  C60  1  0.90773669  0.30004970  0.47269542  1.0
  C  C61  1  0.83102810  0.60018938  0.39293136  1.0
  C  C62  1  0.83619194  0.61260773  0.51146639  1.0
  C  C63  1  0.86224572  0.50837150  0.45959255  1.0
  C  C64  1  0.17926252  0.47725924  0.02623217  1.0
  C  C65  1  0.27123332  0.41096596  0.99631102  1.0
  C  C66  1  0.16883382  0.35784673  0.02767242  1.0
  C  C67  1  0.56827934  0.32799222  0.91520984  1.0
  C  C68  1  0.47768292  0.39552032  0.94656650  1.0
  C  C69  1  0.58188146  0.44724250  0.91867540  1.0
  C  C70  1  0.44829704  0.95990573  0.27068446  1.0
  C  C71  1  0.38184342  0.93164582  0.36275463  1.0
  C  C72  1  0.32893187  0.96300663  0.26069584  1.0
  C  C73  1  0.29877330  0.85596826  0.65999358  1.0
  C  C74  1  0.36645745  0.88536692  0.56917939  1.0
  C  C75  1  0.41805386  0.85581408  0.67251586  1.0
  C  C76  1  0.93047066  0.03199207  0.77935080  1.0
  C  C77  1  0.65930464  0.87510666  0.86130165  1.0
  C  C78  1  0.85095403  0.79975039  0.75224895  1.0
  C  C79  1  0.73985804  0.08592850  0.91199000  1.0
  C  C80  1  0.82173031  0.76998742  0.14950318  1.0
  C  C81  1  0.08752323  0.94076949  0.07389735  1.0
  C  C82  1  0.77211871  0.68762451  0.93960209  1.0
  C  C83  1  0.68526335  0.95636425  0.09217736  1.0
  C  C84  1  0.97998685  0.11773995  0.00263210  1.0
  C  C85  1  0.05961660  0.85412093  0.83509081  1.0
  C  C86  1  0.00381115  0.71722165  0.02290863  1.0
  C  C87  1  0.90767115  0.01078432  0.17783336  1.0
  C  C88  1  0.21826121  0.79241617  0.73911083  1.0
  C  C89  1  0.23076482  0.84941736  0.69527681  1.0
  C  C90  1  0.18301583  0.90434188  0.69196061  1.0
  C  C91  1  0.12701380  0.90526028  0.73728431  1.0
  C  C92  1  0.11499456  0.84853261  0.78161825  1.0
  C  C93  1  0.15881438  0.79048737  0.77992355  1.0
  C  C94  1  0.54707339  0.87288569  0.69599652  1.0
  C  C95  1  0.48032243  0.85389345  0.72014794  1.0
  C  C96  1  0.47253528  0.83793099  0.79109128  1.0
  C  C97  1  0.53016725  0.84230137  0.83747773  1.0
  C  C98  1  0.59619046  0.86394625  0.81367003  1.0
  C  C99  1  0.60416466  0.87832422  0.74245953  1.0
  C  C100  1  0.19914875  0.94917926  0.23928142  1.0
  C  C101  1  0.26601742  0.96633916  0.21412939  1.0
  C  C102  1  0.27346268  0.98121668  0.14292388  1.0
  C  C103  1  0.21548266  0.97662945  0.09706009  1.0
  C  C104  1  0.14959218  0.95574560  0.12173030  1.0
  C  C105  1  0.14166922  0.94345138  0.19329687  1.0
  C  C106  1  0.56393359  0.91084179  0.23848801  1.0
  C  C107  1  0.51547899  0.96503174  0.23375490  1.0
  C  C108  1  0.52632934  0.02000939  0.18704939  1.0
  C  C109  1  0.58471136  0.02068141  0.14482305  1.0
  C  C110  1  0.62926103  0.96320112  0.14486523  1.0
  C  C111  1  0.61892178  0.90850230  0.19200329  1.0
  C  C112  1  0.37685079  0.91484738  0.43509619  1.0
  C  C113  1  0.37228019  0.90190882  0.49683174  1.0
  C  C114  1  0.65352688  0.25231855  0.85520370  1.0
  C  C115  1  0.60273447  0.25985553  0.90649777  1.0
  C  C116  1  0.59119451  0.20605742  0.95431526  1.0
  C  C117  1  0.63504528  0.14861761  0.95490729  1.0
  C  C118  1  0.68672205  0.14194822  0.90443225  1.0
  C  C119  1  0.69354613  0.19219531  0.85240919  1.0
  C  C120  1  0.60514838  0.57650475  0.93299236  1.0
  C  C121  1  0.63001680  0.50932068  0.91742057  1.0
  C  C122  1  0.70198544  0.50086735  0.90481185  1.0
  C  C123  1  0.74875766  0.55835930  0.90928264  1.0
  C  C124  1  0.72418715  0.62481631  0.92763811  1.0
  C  C125  1  0.65196790  0.63351963  0.93846515  1.0
  C  C126  1  0.10065398  0.17098999  0.00746086  1.0
  C  C127  1  0.02851445  0.17914533  0.01894927  1.0
  C  C128  1  0.00386083  0.24481342  0.03994597  1.0
  C  C129  1  0.05026684  0.30252394  0.04521662  1.0
  C  C130  1  0.12194494  0.29497976  0.03078018  1.0
  C  C131  1  0.14716585  0.22823596  0.01378028  1.0
  C  C132  1  0.09231354  0.55287638  0.08386237  1.0
  C  C133  1  0.14295677  0.54465904  0.03252300  1.0
  C  C134  1  0.15279202  0.59682320  0.98264516  1.0
  C  C135  1  0.10758338  0.65314780  0.98038323  1.0
  C  C136  1  0.05622402  0.66065218  0.03112211  1.0
  C  C137  1  0.05094011  0.61210013  0.08484435  1.0
  C  C138  1  0.34355097  0.40596910  0.97824097  1.0
  C  C139  1  0.40531278  0.40135697  0.96415712  1.0
  C  C140  1  0.77218884  0.68923301  0.32018680  1.0
  C  C141  1  0.82083024  0.63512301  0.32537548  1.0
  C  C142  1  0.86406669  0.62005693  0.26906060  1.0
  C  C143  1  0.86293142  0.66300273  0.21103295  1.0
  C  C144  1  0.81520583  0.71787403  0.20663042  1.0
  C  C145  1  0.76765553  0.72886341  0.26007189  1.0
  C  C146  1  0.81895747  0.73144502  0.56579803  1.0
  C  C147  1  0.83462567  0.65995374  0.57345861  1.0
  C  C148  1  0.85208263  0.63479676  0.63992725  1.0
  C  C149  1  0.85604954  0.68079456  0.69699953  1.0
  C  C150  1  0.84168082  0.75250142  0.68918306  1.0
  C  C151  1  0.82184516  0.77731930  0.62333263  1.0
  C  C152  1  0.90758918  0.13058506  0.23209936  1.0
  C  C153  1  0.92238440  0.05893249  0.23917273  1.0
  C  C154  1  0.94597918  0.03406130  0.30379727  1.0
  C  C155  1  0.95066704  0.07961577  0.36145450  1.0
  C  C156  1  0.93345148  0.15084726  0.35498883  1.0
  C  C157  1  0.91363195  0.17638092  0.28929328  1.0
  C  C158  1  0.90644591  0.18913763  0.66320221  1.0
  C  C159  1  0.94103084  0.16697404  0.60316197  1.0
  C  C160  1  0.97755177  0.10364526  0.60374134  1.0
  C  C161  1  0.97821985  0.06207014  0.66256705  1.0
  C  C162  1  0.93977109  0.08199947  0.72064175  1.0
  C  C163  1  0.90451155  0.14589793  0.72104329  1.0
  C  C164  1  0.87904631  0.43550272  0.46498546  1.0
  C  C165  1  0.89199290  0.37329103  0.46885642  1.0
  N  N166  1  0.94560038  0.16634083  0.47913385  1.0
  N  N167  1  0.91354044  0.26461606  0.41157280  1.0
  N  N168  1  0.91475907  0.27265517  0.53699385  1.0
  N  N169  1  0.81922719  0.64042236  0.44960765  1.0
  N  N170  1  0.85652940  0.54563383  0.51958915  1.0
  N  N171  1  0.85362854  0.53363095  0.39454252  1.0
  N  N172  1  0.24486289  0.47610139  0.00139571  1.0
  N  N173  1  0.23529562  0.35020308  0.00617876  1.0
  N  N174  1  0.14073016  0.42016422  0.04297931  1.0
  N  N175  1  0.50231682  0.32988910  0.93902967  1.0
  N  N176  1  0.51530019  0.45577399  0.93950596  1.0
  N  N177  1  0.60870936  0.38479384  0.90160348  1.0
  N  N178  1  0.44695784  0.93514990  0.33604864  1.0
  N  N179  1  0.32119043  0.94205753  0.32705657  1.0
  N  N180  1  0.39146591  0.97771946  0.23252457  1.0
  N  N181  1  0.30086021  0.88046876  0.59457557  1.0
  N  N182  1  0.42663337  0.87659287  0.60619675  1.0
  N  N183  1  0.35523992  0.83967628  0.69948534  1.0
  O  O184  1  0.98060927  0.02216239  0.82239706  1.0
  O  O185  1  0.66300637  0.84939214  0.92184124  1.0
  O  O186  1  0.82467722  0.86032039  0.75564383  1.0
  O  O187  1  0.75271499  0.04503625  0.86132138  1.0
  O  O188  1  0.77014126  0.08633713  0.97284337  1.0
  O  O189  1  0.88717586  0.77160535  0.80172763  1.0
  O  O190  1  0.70853049  0.91222019  0.83349676  1.0
  O  O191  1  0.86874300  0.00303150  0.78011578  1.0
  O  O192  1  0.78767525  0.93934965  0.96023270  1.0
  O  O193  1  0.91169407  0.89935808  0.88069527  1.0
  O  O194  1  0.80011583  0.82770476  0.89097322  1.0
  O  O195  1  0.88116391  0.02203840  0.91857282  1.0
  O  O196  1  0.77044561  0.78133053  0.10827733  1.0
  O  O197  1  0.08325788  0.96597698  0.01310968  1.0
  O  O198  1  0.83322405  0.69179902  0.91484367  1.0
  O  O199  1  0.72641592  0.00793399  0.08031441  1.0
  O  O200  1  0.91844559  0.11324256  0.02649864  1.0
  O  O201  1  0.01936533  0.80198774  0.84740977  1.0
  O  O202  1  0.99158433  0.75878279  0.07324216  1.0
  O  O203  1  0.93332070  0.94989573  0.17397059  1.0
  O  O204  1  0.97510474  0.71840844  0.96137396  1.0
  O  O205  1  0.86597068  0.03714374  0.13173142  1.0
  O  O206  1  0.74377537  0.73614948  0.97656389  1.0
  O  O207  1  0.05925575  0.91468631  0.86622724  1.0
  O  O208  1  0.00703268  0.07219720  0.96124296  1.0
  O  O209  1  0.68699924  0.89495144  0.06297838  1.0
  O  O210  1  0.88262508  0.80101834  0.14953283  1.0
  O  O211  1  0.04121248  0.89937980  0.10061000  1.0
  O  O212  1  0.93050110  0.96110164  0.02315036  1.0
  O  O213  1  0.86994500  0.81747842  0.00282210  1.0
  O  O214  1  0.99313610  0.85721107  0.97490579  1.0
  O  O215  1  0.82576882  0.91044751  0.08317095  1.0
