# generated using pymatgen
data_Al3H34C51N15O14
_symmetry_space_group_name_H-M   'P 1'
_cell_length_a   14.09086508
_cell_length_b   14.30720056
_cell_length_c   34.68477698
_cell_angle_alpha   90.07789561
_cell_angle_beta   90.03041936
_cell_angle_gamma   60.85236625
_symmetry_Int_Tables_number   1
_chemical_formula_structural   Al3H34C51N15O14
_chemical_formula_sum   'Al6 H68 C102 N30 O28'
_cell_volume   6106.99968325
_cell_formula_units_Z   2
loop_
 _symmetry_equiv_pos_site_id
 _symmetry_equiv_pos_as_xyz
  1  'x, y, z'
loop_
 _atom_site_type_symbol
 _atom_site_label
 _atom_site_symmetry_multiplicity
 _atom_site_fract_x
 _atom_site_fract_y
 _atom_site_fract_z
 _atom_site_occupancy
  Al  Al0  1  0.48143794  0.74341807  0.50159498  1.0
  Al  Al1  1  0.71649971  0.53706655  0.49934132  1.0
  Al  Al2  1  0.70342566  0.75203013  0.50005930  1.0
  Al  Al3  1  0.21581859  0.26372287  0.00276522  1.0
  Al  Al4  1  0.25005151  0.46838948  0.99945105  1.0
  Al  Al5  1  0.44786704  0.25310089  0.00188555  1.0
  H  H6  1  0.81752511  0.46464863  0.60143612  1.0
  H  H7  1  0.38368258  0.68051412  0.40074708  1.0
  H  H8  1  0.67679166  0.91830345  0.40135222  1.0
  H  H9  1  0.88288092  0.41535225  0.39948128  1.0
  H  H10  1  0.88871935  0.41358710  0.66845392  1.0
  H  H11  1  0.66789089  0.93359978  0.66947250  1.0
  H  H12  1  0.36556320  0.64900039  0.66505548  1.0
  H  H13  1  0.30497063  0.59090092  0.16956115  1.0
  H  H14  1  0.64030220  0.01760399  0.16297228  1.0
  H  H15  1  0.93834975  0.40099888  0.15592739  1.0
  H  H16  1  0.04271483  0.60824343  0.65807651  1.0
  H  H17  1  0.68276922  0.88902335  0.59931486  1.0
  H  H18  1  0.33324045  0.00779866  0.66666667  1.0
  H  H19  1  0.64046521  0.33182676  0.66430501  1.0
  H  H20  1  0.65074127  0.39765179  0.15638989  1.0
  H  H21  1  0.36698875  0.96199520  0.16753036  1.0
  H  H22  1  0.00669291  0.66089111  0.16957831  1.0
  H  H23  1  0.04516905  0.31920730  0.82938177  1.0
  H  H24  1  0.61652597  0.03207610  0.83643713  1.0
  H  H25  1  0.31967056  0.60423494  0.83056372  1.0
  H  H26  1  0.36512365  0.67363295  0.32899967  1.0
  H  H27  1  0.68395423  0.92661629  0.32920317  1.0
  H  H28  1  0.40590726  0.67162149  0.59642158  1.0
  H  H29  1  0.90763762  0.40477873  0.32770655  1.0
  H  H30  1  0.12469057  0.58455323  0.89375308  1.0
  H  H31  1  0.26727658  0.11933985  0.90081976  1.0
  H  H32  1  0.57226124  0.26585136  0.89766290  1.0
  H  H33  1  0.70818496  0.41649754  0.39457600  1.0
  H  H34  1  0.42012523  0.83965401  0.39286421  1.0
  H  H35  1  0.85236145  0.72885184  0.39950588  1.0
  H  H36  1  0.10090133  0.58899444  0.82202071  1.0
  H  H37  1  0.29239995  0.07583155  0.83007868  1.0
  H  H38  1  0.58695578  0.28232281  0.82629105  1.0
  H  H39  1  0.28022926  0.54328716  0.10249956  1.0
  H  H40  1  0.69200667  0.41118931  0.32261609  1.0
  H  H41  1  0.42887025  0.84418900  0.32056559  1.0
  H  H42  1  0.87776873  0.71864333  0.32780015  1.0
  H  H43  1  0.04910475  0.67067034  0.60016499  1.0
  H  H44  1  0.87701903  0.83225159  0.61273159  1.0
  H  H45  1  0.82767585  0.80103247  0.56980017  1.0
  H  H46  1  0.93605622  0.83053517  0.56677509  1.0
  H  H47  1  0.25468861  0.01596198  0.61072520  1.0
  H  H48  1  0.21066600  0.08709478  0.55095404  1.0
  H  H49  1  0.29821475  0.95236141  0.53478795  1.0
  H  H50  1  0.57148439  0.11159034  0.10028110  1.0
  H  H51  1  0.34952194  0.04379796  0.54033343  1.0
  H  H52  1  0.73428004  0.26677930  0.61236926  1.0
  H  H53  1  0.71565806  0.20456726  0.55538697  1.0
  H  H54  1  0.75441706  0.29607494  0.53530427  1.0
  H  H55  1  0.61497634  0.33489728  0.54087661  1.0
  H  H56  1  0.71575761  0.33761343  0.09777471  1.0
  H  H57  1  0.70933050  0.17398854  0.10897502  1.0
  H  H58  1  0.75447022  0.18119444  0.06127396  1.0
  H  H59  1  0.61843635  0.20974752  0.06891095  1.0
  H  H60  1  0.25051859  0.01564637  0.12114444  1.0
  H  H61  1  0.00738175  0.37712647  0.08803975  1.0
  H  H62  1  0.14519863  0.20249985  0.13612170  1.0
  H  H63  1  0.10648905  0.17391450  0.08995560  1.0
  H  H64  1  0.19213943  0.23093816  0.09216993  1.0
  H  H65  1  0.07814550  0.70499913  0.12302107  1.0
  H  H66  1  0.96382470  0.80732157  0.07397032  1.0
  H  H67  1  0.99906465  0.69032308  0.04604905  1.0
  H  H68  1  0.09399628  0.73705867  0.05095357  1.0
  H  H69  1  0.07203179  0.31387729  0.90118489  1.0
  H  H70  1  0.59035586  0.07612704  0.90708896  1.0
  H  H71  1  0.30537747  0.58700022  0.90201345  1.0
  H  H72  1  0.30280951  0.79342506  0.48251229  1.0
  H  H73  1  0.16570118  0.13463843  0.01688839  1.0
  C  C74  1  0.54405286  0.86881795  0.55510669  1.0
  C  C75  1  0.49672986  0.52360986  0.20639351  1.0
  C  C76  1  0.68541428  0.21764428  0.08125813  1.0
  C  C77  1  0.17273792  0.17448737  0.10640822  1.0
  C  C78  1  0.03055488  0.72767497  0.06598459  1.0
  C  C79  1  0.54327822  0.92843605  0.20604600  1.0
  C  C80  1  0.93768273  0.54485575  0.20775030  1.0
  C  C81  1  0.06181331  0.37739804  0.84376159  1.0
  C  C82  1  0.54060474  0.05071386  0.85080430  1.0
  C  C83  1  0.37529782  0.53099146  0.84560780  1.0
  C  C84  1  0.43962893  0.61730871  0.34363140  1.0
  C  C85  1  0.62612774  0.90816017  0.34339422  1.0
  C  C86  1  0.89691875  0.47476858  0.34374688  1.0
  C  C87  1  0.07626369  0.37455866  0.88345442  1.0
  C  C88  1  0.56700207  0.54860464  0.55346763  1.0
  C  C89  1  0.52623257  0.07473894  0.88995328  1.0
  C  C90  1  0.36754087  0.52148733  0.88518365  1.0
  C  C91  1  0.44966625  0.62073498  0.38332372  1.0
  C  C92  1  0.62177820  0.90406823  0.38332760  1.0
  C  C93  1  0.88333534  0.48060798  0.38352055  1.0
  C  C94  1  0.10649329  0.52745920  0.87935477  1.0
  C  C95  1  0.34344055  0.09912889  0.88631172  1.0
  C  C96  1  0.51853023  0.33995200  0.88273337  1.0
  C  C97  1  0.63335228  0.47183487  0.37989266  1.0
  C  C98  1  0.47676454  0.85928576  0.37843803  1.0
  C  C99  1  0.83872542  0.59076225  0.55292681  1.0
  C  C100  1  0.86658787  0.65760285  0.38356390  1.0
  C  C101  1  0.09320936  0.52994544  0.83957861  1.0
  C  C102  1  0.35732049  0.07543007  0.84722863  1.0
  C  C103  1  0.52649898  0.34899650  0.84316721  1.0
  C  C104  1  0.62431351  0.46886974  0.34000456  1.0
  C  C105  1  0.48179071  0.86177051  0.33847490  1.0
  C  C106  1  0.88027723  0.65210112  0.34382752  1.0
  C  C107  1  0.07164300  0.45428380  0.82139342  1.0
  C  C108  1  0.45590492  0.05146761  0.82905537  1.0
  C  C109  1  0.45389695  0.44418731  0.82417322  1.0
  C  C110  1  0.40104282  0.14651646  0.06014409  1.0
  C  C111  1  0.52785743  0.54274023  0.32148200  1.0
  C  C112  1  0.55776753  0.88463724  0.32060081  1.0
  C  C113  1  0.89363633  0.56137882  0.32344664  1.0
  C  C114  1  0.09955102  0.44900709  0.90148669  1.0
  C  C115  1  0.42747642  0.09961483  0.90788721  1.0
  C  C116  1  0.43808784  0.42549749  0.90394791  1.0
  C  C117  1  0.54705353  0.54924194  0.40173807  1.0
  C  C118  1  0.54825425  0.87809251  0.40111820  1.0
  C  C119  1  0.86612024  0.57277972  0.40366128  1.0
  C  C120  1  0.55422538  0.85703509  0.44338708  1.0
  C  C121  1  0.10668990  0.46384986  0.05331716  1.0
  C  C122  1  0.56117024  0.56582745  0.44335498  1.0
  C  C123  1  0.83294989  0.58702886  0.44485963  1.0
  C  C124  1  0.40566191  0.13700346  0.94859529  1.0
  C  C125  1  0.12728728  0.43671714  0.94333859  1.0
  C  C126  1  0.41977201  0.40944947  0.94496941  1.0
  C  C127  1  0.88674069  0.56731453  0.59214387  1.0
  C  C128  1  0.51805649  0.92343532  0.59278131  1.0
  C  C129  1  0.54412250  0.51572869  0.59124429  1.0
  C  C130  1  0.45058511  0.44121350  0.09173887  1.0
  C  C131  1  0.42931631  0.09412549  0.09863318  1.0
  C  C132  1  0.42301449  0.41970709  0.05265062  1.0
  C  C133  1  0.04642675  0.50355171  0.09025495  1.0
  C  C134  1  0.86656060  0.49636832  0.61434435  1.0
  C  C135  1  0.60582701  0.91770226  0.61430555  1.0
  C  C136  1  0.45558082  0.59695997  0.61175948  1.0
  C  C137  1  0.36150002  0.51084540  0.11475469  1.0
  C  C138  1  0.52669107  0.07922676  0.11558045  1.0
  C  C139  1  0.00561150  0.43971957  0.10641020  1.0
  C  C140  1  0.90660197  0.46705733  0.65146945  1.0
  C  C141  1  0.59859021  0.94086593  0.65322197  1.0
  C  C142  1  0.43389006  0.58540852  0.64974298  1.0
  C  C143  1  0.01446614  0.47924980  0.70660610  1.0
  C  C144  1  0.37468690  0.53849487  0.15188013  1.0
  C  C145  1  0.56615882  0.02586130  0.15010338  1.0
  C  C146  1  0.96875744  0.45166106  0.14400080  1.0
  C  C147  1  0.97174575  0.50709568  0.66715987  1.0
  C  C148  1  0.49932676  0.97024831  0.67230115  1.0
  C  C149  1  0.50331608  0.48891512  0.66892589  1.0
  C  C150  1  0.48025303  0.49802605  0.16680327  1.0
  C  C151  1  0.50873521  0.98097483  0.16849767  1.0
  C  C152  1  0.97264049  0.53054764  0.16728440  1.0
  C  C153  1  0.99291436  0.57708653  0.64534259  1.0
  C  C154  1  0.48899239  0.99043441  0.71406345  1.0
  C  C155  1  0.40987601  0.98177262  0.65148833  1.0
  C  C156  1  0.59005436  0.40695847  0.64922121  1.0
  C  C157  1  0.56946180  0.42937552  0.14420226  1.0
  C  C158  1  0.41227301  0.99443107  0.15228640  1.0
  C  C159  1  0.00820006  0.59767364  0.15149660  1.0
  C  C160  1  0.95051790  0.61032625  0.60813518  1.0
  C  C161  1  0.41441906  0.96426517  0.61114747  1.0
  C  C162  1  0.61121242  0.41597198  0.60994679  1.0
  C  C163  1  0.55787421  0.39769973  0.10691171  1.0
  C  C164  1  0.36776416  0.05376391  0.11835560  1.0
  C  C165  1  0.48253222  0.47292187  0.70921999  1.0
  C  C166  1  0.04235826  0.58912839  0.11279670  1.0
  C  C167  1  0.06091507  0.45492235  0.77924966  1.0
  C  C168  1  0.46900279  0.02815416  0.78747336  1.0
  C  C169  1  0.45922140  0.45216623  0.78205308  1.0
  C  C170  1  0.51904363  0.54363586  0.27927704  1.0
  C  C171  1  0.56525882  0.88437013  0.27845145  1.0
  C  C172  1  0.90181986  0.55861606  0.28113133  1.0
  C  C173  1  0.90038485  0.79182437  0.58437128  1.0
  C  C174  1  0.29335691  0.01864664  0.55241352  1.0
  C  C175  1  0.69553096  0.28898645  0.55406572  1.0
  N  N176  1  0.02562067  0.39142322  0.76286695  1.0
  N  N177  1  0.41018773  0.60023310  0.22579822  1.0
  N  N178  1  0.62663897  0.93064032  0.22470698  1.0
  N  N179  1  0.92001737  0.46924229  0.22449980  1.0
  N  N180  1  0.07208084  0.52415294  0.72114207  1.0
  N  N181  1  0.39233802  0.01603382  0.73081146  1.0
  N  N182  1  0.54426126  0.37525049  0.72529340  1.0
  N  N183  1  0.59865334  0.47556967  0.22104405  1.0
  N  N184  1  0.49635739  0.87246759  0.22013699  1.0
  N  N185  1  0.91784218  0.63686451  0.22579783  1.0
  N  N186  1  0.09681848  0.51111511  0.75804959  1.0
  N  N187  1  0.56635845  0.99999638  0.77101006  1.0
  N  N188  1  0.38216089  0.03526188  0.76804154  1.0
  N  N189  1  0.53254067  0.36483197  0.76240629  1.0
  N  N190  1  0.61039824  0.48622760  0.25818362  1.0
  N  N191  1  0.50770571  0.84979781  0.25723051  1.0
  N  N192  1  0.90063068  0.64318611  0.26320388  1.0
  N  N193  1  0.98016190  0.67759126  0.58795752  1.0
  N  N194  1  0.31938950  0.98996785  0.59279170  1.0
  N  N195  1  0.69552145  0.32689609  0.59309631  1.0
  N  N196  1  0.65278326  0.33140737  0.08600427  1.0
  N  N197  1  0.26765666  0.06685259  0.10620197  1.0
  N  N198  1  0.38511783  0.54340610  0.76459427  1.0
  N  N199  1  0.07514044  0.66118475  0.10041574  1.0
  N  N200  1  0.42163892  0.60978756  0.26299314  1.0
  N  N201  1  0.63779999  0.90817000  0.26176115  1.0
  N  N202  1  0.90093371  0.47656138  0.26187647  1.0
  N  N203  1  0.00269255  0.40303567  0.72578110  1.0
  N  N204  1  0.57656454  0.98090286  0.73360289  1.0
  N  N205  1  0.39708715  0.55403384  0.72751163  1.0
  O  O206  1  0.49609158  0.63705487  0.53957683  1.0
  O  O207  1  0.31049361  0.17104904  0.04478601  1.0
  O  O208  1  0.13955843  0.52218020  0.03546857  1.0
  O  O209  1  0.48741599  0.33224821  0.03540662  1.0
  O  O210  1  0.48707407  0.64948364  0.45903857  1.0
  O  O211  1  0.82075271  0.51263788  0.46081421  1.0
  O  O212  1  0.63725270  0.85243066  0.46127933  1.0
  O  O213  1  0.13094466  0.35749587  0.96072706  1.0
  O  O214  1  0.33856877  0.48562493  0.96239275  1.0
  O  O215  1  0.48259361  0.14257661  0.96721100  1.0
  O  O216  1  0.48408399  0.83821928  0.45863730  1.0
  O  O217  1  0.82152195  0.51950330  0.53705572  1.0
  O  O218  1  0.65007546  0.49785648  0.46007245  1.0
  O  O219  1  0.81087084  0.67546989  0.46117155  1.0
  O  O220  1  0.31213927  0.16609361  0.96198090  1.0
  O  O221  1  0.15123295  0.50507018  0.95863607  1.0
  O  O222  1  0.48176354  0.31777002  0.95984465  1.0
  O  O223  1  0.63517311  0.67683583  0.49907389  1.0
  O  O224  1  0.30528883  0.32875394  0.00116387  1.0
  O  O225  1  0.63209047  0.85414729  0.53784721  1.0
  O  O226  1  0.12796893  0.37112068  0.04237026  1.0
  O  O227  1  0.33149602  0.48952963  0.03861853  1.0
  O  O228  1  0.47419812  0.16385276  0.04405058  1.0
  O  O229  1  0.48396421  0.83206806  0.54270641  1.0
  O  O230  1  0.66114366  0.48878462  0.53770761  1.0
  O  O231  1  0.81213323  0.68144356  0.53737700  1.0
  O  O232  1  0.33793588  0.81135862  0.50290463  1.0
  O  O233  1  0.13298642  0.20336183  0.00409376  1.0
