# generated using pymatgen
data_ZnH31C31NO8
_symmetry_space_group_name_H-M   'P 1'
_cell_length_a   10.66747565
_cell_length_b   18.30725453
_cell_length_c   19.48846871
_cell_angle_alpha   89.97909923
_cell_angle_beta   88.67188148
_cell_angle_gamma   89.37302769
_symmetry_Int_Tables_number   1
_chemical_formula_structural   ZnH31C31NO8
_chemical_formula_sum   'Zn2 H62 C62 N2 O16'
_cell_volume   3804.69549431
_cell_formula_units_Z   2
loop_
 _symmetry_equiv_pos_site_id
 _symmetry_equiv_pos_as_xyz
  1  'x, y, z'
loop_
 _atom_site_type_symbol
 _atom_site_label
 _atom_site_symmetry_multiplicity
 _atom_site_fract_x
 _atom_site_fract_y
 _atom_site_fract_z
 _atom_site_occupancy
  Zn  Zn0  1  0.50147553  0.41854747  0.50025424  1.0
  Zn  Zn1  1  0.50670979  0.57256508  0.50071639  1.0
  H  H2  1  0.95622470  0.57799343  0.39822949  1.0
  H  H3  1  0.48761654  0.38322971  0.72005469  1.0
  H  H4  1  0.29097163  0.47750544  0.92964043  1.0
  H  H5  1  0.65075294  0.54778770  0.07160291  1.0
  H  H6  1  0.26910161  0.47765376  0.05683857  1.0
  H  H7  1  0.67284113  0.54742610  0.94439666  1.0
  H  H8  1  0.49203018  0.30178596  0.60564414  1.0
  H  H9  1  0.31910875  0.68999634  0.52097708  1.0
  H  H10  1  0.50896672  0.30338980  0.39400202  1.0
  H  H11  1  0.69971052  0.68660210  0.47798354  1.0
  H  H12  1  0.49339651  0.16445261  0.60969755  1.0
  H  H13  1  0.05179797  0.42638322  0.59871776  1.0
  H  H14  1  0.31047764  0.82757072  0.51952031  1.0
  H  H15  1  0.51183861  0.16611732  0.38811474  1.0
  H  H16  1  0.70937600  0.82407063  0.47621639  1.0
  H  H17  1  0.49903366  0.70760202  0.77254992  1.0
  H  H18  1  0.66289433  0.69105043  0.78197011  1.0
  H  H19  1  0.65128507  0.74904298  0.89944549  1.0
  H  H20  1  0.59838242  0.81121753  0.83558389  1.0
  H  H21  1  0.48786227  0.76546845  0.88997979  1.0
  H  H22  1  0.36374570  0.30038221  0.20456648  1.0
  H  H23  1  0.53081044  0.30380816  0.19820872  1.0
  H  H24  1  0.13014414  0.45833883  0.40019406  1.0
  H  H25  1  0.52200146  0.26377866  0.07426166  1.0
  H  H26  1  0.45131606  0.19832104  0.13046468  1.0
  H  H27  1  0.35569934  0.25875289  0.08184768  1.0
  H  H28  1  0.55384243  0.69577916  0.23073820  1.0
  H  H29  1  0.38881888  0.71048102  0.22494955  1.0
  H  H30  1  0.42457649  0.76748500  0.10726801  1.0
  H  H31  1  0.50516067  0.81533096  0.17242002  1.0
  H  H32  1  0.58906514  0.75465878  0.11604751  1.0
  H  H33  1  0.51808325  0.29363737  0.80116892  1.0
  H  H34  1  0.35773990  0.31855826  0.78932046  1.0
  H  H35  1  0.87689120  0.54566144  0.59681891  1.0
  H  H36  1  0.30465878  0.27921599  0.91000035  1.0
  H  H37  1  0.37555182  0.20582476  0.86251825  1.0
  H  H38  1  0.46449334  0.25533945  0.92304564  1.0
  H  H39  1  0.22523707  0.11423674  0.49012968  1.0
  H  H40  1  0.17563694  0.02926752  0.45455934  1.0
  H  H41  1  0.13596681  0.09248025  0.34202461  1.0
  H  H42  1  0.04719551  0.13490652  0.40978822  1.0
  H  H43  1  0.18630102  0.17677677  0.37755421  1.0
  H  H44  1  0.55844204  0.87250638  0.64487790  1.0
  H  H45  1  0.62429989  0.95718476  0.67169637  1.0
  H  H46  1  0.94618230  0.37505026  0.47428025  1.0
  H  H47  1  0.83678976  0.89585433  0.67806229  1.0
  H  H48  1  0.72534915  0.85070115  0.73207838  1.0
  H  H49  1  0.77033712  0.81176818  0.65141450  1.0
  H  H50  1  0.78463099  0.11475925  0.50800729  1.0
  H  H51  1  0.83807632  0.03027349  0.54420611  1.0
  H  H52  1  0.86861634  0.09399395  0.65734092  1.0
  H  H53  1  0.95793678  0.13694483  0.59066315  1.0
  H  H54  1  0.81493903  0.17777368  0.62086617  1.0
  H  H55  1  0.46758277  0.87300133  0.35144806  1.0
  H  H56  1  0.39620169  0.95603409  0.32220128  1.0
  H  H57  1  0.06036189  0.62934054  0.52312954  1.0
  H  H58  1  0.18886250  0.89125730  0.31509564  1.0
  H  H59  1  0.30567050  0.84737544  0.26252239  1.0
  H  H60  1  0.26173727  0.80873099  0.34332137  1.0
  H  H61  1  0.57047386  0.61044941  0.70933919  1.0
  H  H62  1  0.43888444  0.38155703  0.27975619  1.0
  H  H63  1  0.45773901  0.61370669  0.29466577  1.0
  C  C64  1  0.45653189  0.49240633  0.36918100  1.0
  C  C65  1  0.40236783  0.72280157  0.51101878  1.0
  C  C66  1  0.50584060  0.26961465  0.44010678  1.0
  C  C67  1  0.61664827  0.72087233  0.48724550  1.0
  C  C68  1  0.49698187  0.19289168  0.56069904  1.0
  C  C69  1  0.39884074  0.79863703  0.51022584  1.0
  C  C70  1  0.50724333  0.19379873  0.43749024  1.0
  C  C71  1  0.62075809  0.79669779  0.48608251  1.0
  C  C72  1  0.50293305  0.15366307  0.49884119  1.0
  C  C73  1  0.50992831  0.83725078  0.49767719  1.0
  C  C74  1  0.42298012  0.03382159  0.45654705  1.0
  C  C75  1  0.54017126  0.49141756  0.63247063  1.0
  C  C76  1  0.59397973  0.95701477  0.53740674  1.0
  C  C77  1  0.58956321  0.03368586  0.53938504  1.0
  C  C78  1  0.42311398  0.95714350  0.45731471  1.0
  C  C79  1  0.50944837  0.91793742  0.49722876  1.0
  C  C80  1  0.50507411  0.07298233  0.49830243  1.0
  C  C81  1  0.26447952  0.50531925  0.52183902  1.0
  C  C82  1  0.74295166  0.49683300  0.47693635  1.0
  C  C83  1  0.07136955  0.47758441  0.44339646  1.0
  C  C84  1  0.93614335  0.52658739  0.55369947  1.0
  C  C85  1  0.97342319  0.43120165  0.48518183  1.0
  C  C86  1  0.36994542  0.49306247  0.96081463  1.0
  C  C87  1  0.03409197  0.57303078  0.51194179  1.0
  C  C88  1  0.97873216  0.54466763  0.44301993  1.0
  C  C89  1  0.02864758  0.45958299  0.55396913  1.0
  C  C90  1  0.88068783  0.49769921  0.48425386  1.0
  C  C91  1  0.12701104  0.50650028  0.51242619  1.0
  C  C92  1  0.54780538  0.56361026  0.74138750  1.0
  C  C93  1  0.44183935  0.43380400  0.25332259  1.0
  C  C94  1  0.45370192  0.56607771  0.26157170  1.0
  C  C95  1  0.49968666  0.43429719  0.74732676  1.0
  C  C96  1  0.53273989  0.56853137  0.81269790  1.0
  C  C97  1  0.57158057  0.53277224  0.04032680  1.0
  C  C98  1  0.44137542  0.43941811  0.18177918  1.0
  C  C99  1  0.45636718  0.57092527  0.18997710  1.0
  C  C100  1  0.48353049  0.43992963  0.81847708  1.0
  C  C101  1  0.49978990  0.50705399  0.85268928  1.0
  C  C102  1  0.45005035  0.50784756  0.14876764  1.0
  C  C103  1  0.53085644  0.49638271  0.70916432  1.0
  C  C104  1  0.44851001  0.49737637  0.29266478  1.0
  C  C105  1  0.57272594  0.69761929  0.81046039  1.0
  C  C106  1  0.57788370  0.75947547  0.86197020  1.0
  C  C107  1  0.44396981  0.30880044  0.16866787  1.0
  C  C108  1  0.35764517  0.49317909  0.03211413  1.0
  C  C109  1  0.44315504  0.25418228  0.11025487  1.0
  C  C110  1  0.47627846  0.70132988  0.19448898  1.0
  C  C111  1  0.50005674  0.76332889  0.14448393  1.0
  C  C112  1  0.43134955  0.31273529  0.82794659  1.0
  C  C113  1  0.39171773  0.26017608  0.88431144  1.0
  C  C114  1  0.21762771  0.08260447  0.44220353  1.0
  C  C115  1  0.14271885  0.12409382  0.38965788  1.0
  C  C116  1  0.64494577  0.90504665  0.64525995  1.0
  C  C117  1  0.75076232  0.86341071  0.67845087  1.0
  C  C118  1  0.79232047  0.08323901  0.55604428  1.0
  C  C119  1  0.58395951  0.53256158  0.96905707  1.0
  C  C120  1  0.86226365  0.12544060  0.60950688  1.0
  C  C121  1  0.37857722  0.90419485  0.34942421  1.0
  C  C122  1  0.27758871  0.86029908  0.31580253  1.0
  C  C123  1  0.45881459  0.51215999  0.07285189  1.0
  C  C124  1  0.48379942  0.51174471  0.92826359  1.0
  C  C125  1  0.49584316  0.26873551  0.55907052  1.0
  N  N126  1  0.50026283  0.30641874  0.49983860  1.0
  N  N127  1  0.50940258  0.68469340  0.49963546  1.0
  O  O128  1  0.47294598  0.42920373  0.39525481  1.0
  O  O129  1  0.43652788  0.38017527  0.13888268  1.0
  O  O130  1  0.46616011  0.63576476  0.15503230  1.0
  O  O131  1  0.45258421  0.38184274  0.85971827  1.0
  O  O132  1  0.34296699  0.07032521  0.41352896  1.0
  O  O133  1  0.68313290  0.92050538  0.57475712  1.0
  O  O134  1  0.66675721  0.06999764  0.58330195  1.0
  O  O135  1  0.33640030  0.92071554  0.41915789  1.0
  O  O136  1  0.56009770  0.55061113  0.59957697  1.0
  O  O137  1  0.52526055  0.42875839  0.60557999  1.0
  O  O138  1  0.44835609  0.55220778  0.40247719  1.0
  O  O139  1  0.31615252  0.44236059  0.51707053  1.0
  O  O140  1  0.68921658  0.55862337  0.46742244  1.0
  O  O141  1  0.68873759  0.43571698  0.48496215  1.0
  O  O142  1  0.32034681  0.56569957  0.53076660  1.0
  O  O143  1  0.54549618  0.63248736  0.84842598  1.0
