# generated using pymatgen
data_Zn2H21C35(N4O)2
_symmetry_space_group_name_H-M   'P 1'
_cell_length_a   19.53990182
_cell_length_b   19.73442055
_cell_length_c   20.00289833
_cell_angle_alpha   104.77233105
_cell_angle_beta   112.14218565
_cell_angle_gamma   110.67462818
_symmetry_Int_Tables_number   1
_chemical_formula_structural   Zn2H21C35(N4O)2
_chemical_formula_sum   'Zn4 H42 C70 N16 O4'
_cell_volume   5976.75581628
_cell_formula_units_Z   2
loop_
 _symmetry_equiv_pos_site_id
 _symmetry_equiv_pos_as_xyz
  1  'x, y, z'
loop_
 _atom_site_type_symbol
 _atom_site_label
 _atom_site_symmetry_multiplicity
 _atom_site_fract_x
 _atom_site_fract_y
 _atom_site_fract_z
 _atom_site_occupancy
  Zn  Zn0  1  0.90135500  0.89742456  0.49178114  1.0
  Zn  Zn1  1  0.11284902  0.11205328  0.50271281  1.0
  Zn  Zn2  1  0.11168558  0.00572611  0.60839335  1.0
  Zn  Zn3  1  0.90224327  0.01686800  0.40426155  1.0
  H  H4  1  0.85644373  0.98345415  0.61656449  1.0
  H  H5  1  0.65807483  0.64180791  0.98969596  1.0
  H  H6  1  0.85757287  0.03771754  0.98879043  1.0
  H  H7  1  0.12889267  0.18839909  0.99890326  1.0
  H  H8  1  0.70578769  0.99339868  0.35566354  1.0
  H  H9  1  0.13909017  0.87025124  0.50627595  1.0
  H  H10  1  0.30841555  0.27570953  0.63981804  1.0
  H  H11  1  0.90290783  0.75557151  0.36937040  1.0
  H  H12  1  0.87321212  0.13179042  0.52805512  1.0
  H  H13  1  0.14146456  0.88335950  0.69574327  1.0
  H  H14  1  0.30471931  0.76256500  0.40422879  1.0
  H  H15  1  0.14145373  0.14961889  0.35534395  1.0
  H  H16  1  0.41738027  0.94606867  0.29938990  1.0
  H  H17  1  0.14551760  0.51970765  0.71202435  1.0
  H  H18  1  0.87622308  0.52939410  0.62465708  1.0
  H  H19  1  0.85449576  0.04013307  0.86420112  1.0
  H  H20  1  0.13184446  0.18598125  0.12347137  1.0
  H  H21  1  0.12555548  0.30932641  0.50988078  1.0
  H  H22  1  0.19571240  0.26997628  0.53860768  1.0
  H  H23  1  0.23371799  0.37533039  0.59370701  1.0
  H  H24  1  0.82962017  0.63505815  0.54415968  1.0
  H  H25  1  0.86811476  0.62375312  0.47593552  1.0
  H  H26  1  0.40150133  0.99219260  0.43720783  1.0
  H  H27  1  0.76156809  0.60738653  0.43972512  1.0
  H  H28  1  0.35326531  0.22795044  0.89039119  1.0
  H  H29  1  0.42333896  0.19920731  0.87000023  1.0
  H  H30  1  0.35332851  0.13816548  0.89514479  1.0
  H  H31  1  0.76470188  0.93682245  0.24399851  1.0
  H  H32  1  0.70450440  0.82851785  0.19138415  1.0
  H  H33  1  0.72769989  0.88663657  0.13866354  1.0
  H  H34  1  0.69377901  0.80965818  0.43912563  1.0
  H  H35  1  0.11739343  0.99853880  0.35938916  1.0
  H  H36  1  0.13162759  0.14099354  0.75372837  1.0
  H  H37  1  0.32060630  0.71694212  0.26675342  1.0
  H  H38  1  0.86821698  0.05052198  0.24158064  1.0
  H  H39  1  0.47191383  0.89905156  0.49042467  1.0
  H  H40  1  0.25053548  0.80970807  0.21344919  1.0
  H  H41  1  0.14688302  0.64703547  0.71597740  1.0
  H  H42  1  0.87476862  0.40203119  0.62013717  1.0
  H  H43  1  0.72334889  0.50198071  0.11029602  1.0
  H  H44  1  0.53242373  0.51513290  0.87082842  1.0
  H  H45  1  0.59808030  0.37533498  0.99125096  1.0
  C  C46  1  0.92423623  0.01625599  0.63841544  1.0
  C  C47  1  0.33815434  0.77815444  0.30473003  1.0
  C  C48  1  0.42184866  0.87937566  0.42910640  1.0
  C  C49  1  0.30002893  0.82975487  0.27515977  1.0
  C  C50  1  0.57854461  0.87206882  0.37091241  1.0
  C  C51  1  0.17967510  0.88286242  0.37949640  1.0
  C  C52  1  0.39167942  0.90554457  0.32285636  1.0
  C  C53  1  0.33040438  0.80354385  0.38115669  1.0
  C  C54  1  0.43163215  0.85415670  0.35273116  1.0
  C  C55  1  0.29090438  0.85551279  0.35193478  1.0
  C  C56  1  0.50783676  0.85925080  0.35807837  1.0
  C  C57  1  0.07529817  0.12461533  0.33979764  1.0
  C  C58  1  0.22420150  0.86311503  0.35936865  1.0
  C  C59  1  0.08751272  0.59327743  0.69538044  1.0
  C  C60  1  0.93429911  0.45587038  0.64130837  1.0
  C  C61  1  0.07531484  0.23740398  0.58553908  1.0
  C  C62  1  0.93755980  0.78084221  0.55745804  1.0
  C  C63  1  0.01107318  0.59632327  0.66758978  1.0
  C  C64  1  0.00942597  0.45087909  0.66282548  1.0
  C  C65  1  0.93513886  0.52704479  0.64366866  1.0
  C  C66  1  0.08671700  0.52219870  0.69315060  1.0
  C  C67  1  0.00952059  0.66431983  0.65767674  1.0
  C  C68  1  0.00535692  0.23986796  0.58980703  1.0
  C  C69  1  0.00682921  0.37571311  0.64750020  1.0
  C  C70  1  0.00394315  0.31062340  0.62374668  1.0
  C  C71  1  0.00674288  0.71834562  0.63948113  1.0
  C  C72  1  0.61140621  0.43385923  0.99121494  1.0
  C  C73  1  0.64484277  0.58326147  0.98960669  1.0
  C  C74  1  0.55551773  0.43640717  0.92323914  1.0
  C  C75  1  0.69859825  0.58092669  0.05903128  1.0
  C  C76  1  0.57470381  0.51255597  0.92327228  1.0
  C  C77  1  0.68149235  0.50456481  0.05763701  1.0
  C  C78  1  0.48096007  0.36497701  0.85787863  1.0
  C  C79  1  0.00570281  0.77996078  0.61691773  1.0
  C  C80  1  0.76347376  0.65327692  0.12999085  1.0
  C  C81  1  0.81139551  0.71532382  0.19362933  1.0
  C  C82  1  0.41459245  0.30352917  0.80312530  1.0
  C  C83  1  0.91679784  0.07114388  0.99080779  1.0
  C  C84  1  0.06954042  0.15591444  0.99704843  1.0
  C  C85  1  0.28644624  0.15889944  0.72983987  1.0
  C  C86  1  0.85893208  0.86082163  0.27303596  1.0
  C  C87  1  0.99491987  0.11180697  0.06502470  1.0
  C  C88  1  0.99147213  0.11441490  0.92258239  1.0
  C  C89  1  0.07120846  0.15448774  0.06657604  1.0
  C  C90  1  0.33773138  0.23572400  0.73757344  1.0
  C  C91  1  0.91509566  0.07255285  0.92124953  1.0
  C  C92  1  0.99700299  0.10937508  0.13577747  1.0
  C  C93  1  0.99039356  0.11067199  0.85064171  1.0
  C  C94  1  0.99060586  0.10031379  0.78782517  1.0
  C  C95  1  0.99938265  0.10690074  0.19701686  1.0
  C  C96  1  0.71737094  0.95217642  0.37923487  1.0
  C  C97  1  0.12959186  0.90891406  0.47791268  1.0
  C  C98  1  0.29181581  0.22963343  0.66019452  1.0
  C  C99  1  0.89316506  0.79758361  0.34618125  1.0
  C  C100  1  0.71105379  0.85826087  0.42189390  1.0
  C  C101  1  0.85557028  0.78620581  0.26574810  1.0
  C  C102  1  0.11865969  0.97465622  0.40283228  1.0
  C  C103  1  0.93899570  0.15832597  0.54244917  1.0
  C  C104  1  0.07581375  0.85778242  0.64850831  1.0
  C  C105  1  0.06504725  0.09714489  0.70856333  1.0
  C  C106  1  0.93563940  0.07417038  0.28185389  1.0
  C  C107  1  0.99252251  0.07698472  0.71632885  1.0
  C  C108  1  0.00305877  0.10282181  0.26730781  1.0
  C  C109  1  0.17811411  0.31423625  0.56149255  1.0
  C  C110  1  0.82729208  0.64292891  0.49108726  1.0
  C  C111  1  0.36037857  0.17645409  0.86427720  1.0
  C  C112  1  0.66180006  0.89144073  0.38829331  1.0
  C  C113  1  0.75199940  0.88319890  0.19608015  1.0
  C  C114  1  0.14073339  0.91589748  0.41372668  1.0
  C  C115  1  0.38470168  0.93121541  0.39950349  1.0
  N  N116  1  0.95496591  0.00090770  0.59011985  1.0
  N  N117  1  0.91561720  0.87200368  0.39603450  1.0
  N  N118  1  0.78878791  0.89608538  0.43154237  1.0
  N  N119  1  0.09844791  0.00133796  0.45776966  1.0
  N  N120  1  0.96754351  0.11254532  0.51261604  1.0
  N  N121  1  0.05164797  0.90038692  0.61224000  1.0
  N  N122  1  0.04130919  0.05032981  0.63293384  1.0
  N  N123  1  0.96524525  0.07858400  0.35620170  1.0
  N  N124  1  0.05227651  0.11002258  0.39218748  1.0
  N  N125  1  0.05194237  0.16109788  0.54039212  1.0
  N  N126  1  0.96549290  0.85235219  0.55523862  1.0
  N  N127  1  0.21782978  0.11282751  0.65505454  1.0
  N  N128  1  0.89569758  0.91143165  0.35116212  1.0
  N  N129  1  0.79276482  0.95454184  0.40519585  1.0
  N  N130  1  0.10515904  0.96084421  0.50351728  1.0
  N  N131  1  0.22118402  0.15692719  0.61145623  1.0
  O  O132  1  0.15403970  0.30164905  0.61895667  1.0
  O  O133  1  0.85376110  0.72583988  0.50561653  1.0
  O  O134  1  0.29329437  0.12498048  0.78113369  1.0
  O  O135  1  0.82900668  0.88036689  0.21206518  1.0
