# generated using pymatgen
data_Zn4H21C36N3O13
_symmetry_space_group_name_H-M   'P 1'
_cell_length_a   18.13012612
_cell_length_b   18.13529909
_cell_length_c   18.46954578
_cell_angle_alpha   60.67842758
_cell_angle_beta   89.96783792
_cell_angle_gamma   60.03982546
_symmetry_Int_Tables_number   1
_chemical_formula_structural   Zn4H21C36N3O13
_chemical_formula_sum   'Zn8 H42 C72 N6 O26'
_cell_volume   4341.27628925
_cell_formula_units_Z   2
loop_
 _symmetry_equiv_pos_site_id
 _symmetry_equiv_pos_as_xyz
  1  'x, y, z'
loop_
 _atom_site_type_symbol
 _atom_site_label
 _atom_site_symmetry_multiplicity
 _atom_site_fract_x
 _atom_site_fract_y
 _atom_site_fract_z
 _atom_site_occupancy
  Zn  Zn0  1  0.04951456  0.92384964  0.92995941  1.0
  Zn  Zn1  1  0.04762376  0.10104742  0.93240701  1.0
  Zn  Zn2  1  0.04446748  0.92802131  0.10001022  1.0
  Zn  Zn3  1  0.87185143  0.10023204  0.92930720  1.0
  Zn  Zn4  1  0.45972956  0.10333005  0.51227977  1.0
  Zn  Zn5  1  0.45980746  0.92555676  0.51785490  1.0
  Zn  Zn6  1  0.63664540  0.92494168  0.51482720  1.0
  Zn  Zn7  1  0.45826370  0.09921943  0.34242419  1.0
  H  H8  1  0.29814447  0.85242961  0.85633825  1.0
  H  H9  1  0.38993983  0.86120296  0.75519987  1.0
  H  H10  1  0.10767858  0.18168648  0.68443877  1.0
  H  H11  1  0.27460139  0.24599591  0.54492132  1.0
  H  H12  1  0.14701560  0.42080350  0.38957028  1.0
  H  H13  1  0.00316144  0.40930426  0.37803265  1.0
  H  H14  1  0.05239512  0.22729523  0.52752649  1.0
  H  H15  1  0.12122811  0.60415917  0.10120248  1.0
  H  H16  1  0.21882472  0.41188073  0.20329220  1.0
  H  H17  1  0.29915525  0.61891773  0.23944072  1.0
  H  H18  1  0.42355778  0.32779363  0.47005207  1.0
  H  H19  1  0.58732578  0.28750062  0.52265392  1.0
  H  H20  1  0.61552855  0.39655548  0.37296542  1.0
  H  H21  1  0.46659554  0.49711288  0.23791026  1.0
  H  H22  1  0.88088796  0.02163617  0.68577885  1.0
  H  H23  1  0.77945207  0.02664378  0.58918234  1.0
  H  H24  1  0.73009500  0.99014099  0.86572949  1.0
  H  H25  1  0.49854190  0.09740206  0.69159886  1.0
  H  H26  1  0.43735763  0.99358166  0.80585523  1.0
  H  H27  1  0.58549681  0.81812271  0.94668249  1.0
  H  H28  1  0.72832915  0.82584116  0.90927957  1.0
  H  H29  1  0.29142318  0.00133992  0.10621816  1.0
  H  H30  1  0.38657631  0.99467851  0.21021228  1.0
  H  H31  1  0.09934423  0.03785242  0.24547502  1.0
  H  H32  1  0.27484587  0.93593489  0.47606190  1.0
  H  H33  1  0.15232748  0.03996933  0.53350146  1.0
  H  H34  1  0.00502360  0.20831004  0.38841786  1.0
  H  H35  1  0.04712165  0.19592644  0.25114866  1.0
  H  H36  1  0.87718483  0.42370931  0.85297027  1.0
  H  H37  1  0.77806832  0.61597736  0.75170493  1.0
  H  H38  1  0.73220485  0.40559957  0.68493233  1.0
  H  H39  1  0.50297198  0.71254471  0.54796471  1.0
  H  H40  1  0.45012766  0.74043692  0.39356620  1.0
  H  H41  1  0.60161010  0.60619495  0.37964251  1.0
  H  H42  1  0.73813343  0.50508794  0.52661291  1.0
  H  H43  1  0.72340974  0.17671635  0.10069312  1.0
  H  H44  1  0.63292721  0.16990368  0.20314529  1.0
  H  H45  1  0.87143340  0.84730375  0.23549290  1.0
  H  H46  1  0.80883815  0.78581155  0.46682689  1.0
  H  H47  1  0.81441519  0.61380142  0.51915285  1.0
  H  H48  1  0.77360600  0.62572315  0.36973769  1.0
  H  H49  1  0.74642396  0.80467416  0.23489405  1.0
  C  C50  1  0.14315619  0.01423824  0.83758432  1.0
  C  C51  1  0.19795205  0.01698226  0.77713038  1.0
  C  C52  1  0.27692524  0.92592499  0.79686025  1.0
  C  C53  1  0.32756670  0.93101131  0.74036730  1.0
  C  C54  1  0.29953571  0.02495730  0.66236141  1.0
  C  C55  1  0.35964369  0.02081563  0.60684224  1.0
  C  C56  1  0.21764179  0.11611297  0.64043658  1.0
  C  C57  1  0.16932004  0.11104440  0.69979455  1.0
  C  C58  1  0.20833196  0.27099951  0.51497109  1.0
  C  C59  1  0.14183868  0.35895468  0.43704993  1.0
  C  C60  1  0.06639449  0.35356323  0.43147464  1.0
  C  C61  1  0.08861865  0.26283911  0.50653105  1.0
  C  C62  1  0.14420799  0.73842522  0.10741176  1.0
  C  C63  1  0.20333200  0.62341145  0.16517757  1.0
  C  C64  1  0.18117510  0.56522293  0.15378992  1.0
  C  C65  1  0.23571362  0.45831580  0.21048487  1.0
  C  C66  1  0.31423634  0.40758771  0.27691394  1.0
  C  C67  1  0.36902761  0.29232367  0.33402420  1.0
  C  C68  1  0.33881215  0.46609912  0.28565692  1.0
  C  C69  1  0.28146649  0.57371043  0.23105882  1.0
  C  C70  1  0.46016827  0.35481131  0.43163257  1.0
  C  C71  1  0.54259623  0.33655446  0.45581754  1.0
  C  C72  1  0.55703534  0.39410084  0.37778937  1.0
  C  C73  1  0.48273034  0.44644454  0.30809766  1.0
  C  C74  1  0.86823625  0.00821956  0.83781409  1.0
  C  C75  1  0.81063036  0.00735084  0.78093791  1.0
  C  C76  1  0.82569586  0.01611939  0.70360201  1.0
  C  C77  1  0.76934636  0.01857507  0.65014551  1.0
  C  C78  1  0.69971806  0.00869315  0.67394903  1.0
  C  C79  1  0.64304834  0.01135168  0.61259206  1.0
  C  C80  1  0.68714457  0.99512516  0.75391313  1.0
  C  C81  1  0.74136088  0.99759131  0.80527419  1.0
  C  C82  1  0.53514120  0.02430849  0.75478272  1.0
  C  C83  1  0.50653841  0.96985415  0.81445610  1.0
  C  C84  1  0.58371571  0.87870079  0.88820152  1.0
  C  C85  1  0.65727379  0.88033809  0.87174814  1.0
  C  C86  1  0.13430366  0.01872498  0.11113025  1.0
  C  C87  1  0.19007221  0.01881783  0.17033876  1.0
  C  C88  1  0.27062301  0.00773633  0.15935960  1.0
  C  C89  1  0.32322448  0.00427086  0.21715933  1.0
  C  C90  1  0.29557150  0.01548464  0.28419373  1.0
  C  C91  1  0.35664299  0.01389028  0.34030256  1.0
  C  C92  1  0.21248564  0.03099999  0.29294338  1.0
  C  C93  1  0.16200088  0.02935165  0.23714756  1.0
  C  C94  1  0.20819240  0.00673071  0.43974007  1.0
  C  C95  1  0.14408867  0.06109679  0.46654673  1.0
  C  C96  1  0.06695035  0.14817786  0.39110683  1.0
  C  C97  1  0.08577928  0.14410241  0.32035685  1.0
  C  C98  1  0.86589286  0.28813077  0.83660208  1.0
  C  C99  1  0.80966140  0.40293677  0.77580766  1.0
  C  C100  1  0.82388673  0.46191755  0.79427753  1.0
  C  C101  1  0.76872659  0.56881148  0.73771227  1.0
  C  C102  1  0.70099562  0.61872207  0.66102611  1.0
  C  C103  1  0.64426250  0.73419278  0.60631746  1.0
  C  C104  1  0.68981358  0.55896209  0.64006094  1.0
  C  C105  1  0.74286296  0.45162943  0.69942276  1.0
  C  C106  1  0.54219537  0.67596640  0.51719423  1.0
  C  C107  1  0.51777304  0.68718084  0.43988625  1.0
  C  C108  1  0.59659931  0.61623604  0.43313228  1.0
  C  C109  1  0.66688391  0.56299405  0.50689105  1.0
  C  C110  1  0.86163998  0.01341974  0.10544562  1.0
  C  C111  1  0.80403854  0.01209304  0.16300980  1.0
  C  C112  1  0.73584437  0.10358835  0.15266504  1.0
  C  C113  1  0.68563116  0.09952443  0.20966570  1.0
  C  C114  1  0.70018888  0.00575662  0.27530820  1.0
  C  C115  1  0.64234049  0.00873687  0.33309165  1.0
  C  C116  1  0.76586376  0.91438496  0.28282553  1.0
  C  C117  1  0.81884632  0.91828752  0.22797202  1.0
  C  C118  1  0.79639950  0.76116883  0.42832303  1.0
  C  C119  1  0.79926239  0.67454041  0.45242614  1.0
  C  C120  1  0.77919221  0.68004570  0.37462299  1.0
  C  C121  1  0.76531037  0.76955907  0.30502983  1.0
  N  N122  1  0.17602588  0.21147966  0.55744467  1.0
  N  N123  1  0.42373732  0.42156181  0.34102475  1.0
  N  N124  1  0.62764869  0.96911751  0.78952184  1.0
  N  N125  1  0.17282948  0.05790052  0.34991114  1.0
  N  N126  1  0.63386673  0.60025848  0.55813937  1.0
  N  N127  1  0.77499892  0.81980016  0.33787450  1.0
  O  O128  1  0.00343866  0.01365849  0.97171502  1.0
  O  O129  1  0.10037313  0.09319904  0.84090104  1.0
  O  O130  1  0.14351617  0.93328014  0.88052223  1.0
  O  O131  1  0.38325552  0.95434112  0.58883273  1.0
  O  O132  1  0.38507037  0.08046065  0.58574027  1.0
  O  O133  1  0.14180101  0.78564573  0.14178050  1.0
  O  O134  1  0.10104633  0.78012392  0.02860807  1.0
  O  O135  1  0.39182108  0.24702061  0.29460460  1.0
  O  O136  1  0.38541091  0.25008670  0.41635485  1.0
  O  O137  1  0.83124872  0.04564414  0.88126548  1.0
  O  O138  1  0.94962853  0.97153253  0.83820475  1.0
  O  O139  1  0.68475528  0.94588552  0.59336120  1.0
  O  O140  1  0.55895502  0.08086754  0.58285983  1.0
  O  O141  1  0.08776331  0.98377001  0.14353677  1.0
  O  O142  1  0.13785910  0.05328082  0.03296249  1.0
  O  O143  1  0.37526264  0.07953180  0.29921282  1.0
  O  O144  1  0.38729296  0.94554293  0.42246843  1.0
  O  O145  1  0.82969227  0.24274507  0.83748792  1.0
  O  O146  1  0.94551625  0.24478229  0.88239635  1.0
  O  O147  1  0.68586733  0.77717206  0.58215823  1.0
  O  O148  1  0.55987279  0.77891430  0.59261457  1.0
  O  O149  1  0.94215400  0.93273548  0.13906245  1.0
  O  O150  1  0.82609121  0.09466468  0.02748210  1.0
  O  O151  1  0.55795216  0.06483146  0.29435053  1.0
  O  O152  1  0.68221663  0.95839526  0.41467350  1.0
  O  O153  1  0.50450048  0.01261996  0.47140343  1.0
