# generated using pymatgen
data_Zn4H20C44O13F8
_symmetry_space_group_name_H-M   'P 1'
_cell_length_a   23.98254440
_cell_length_b   23.98276895
_cell_length_c   23.98118760
_cell_angle_alpha   66.92500091
_cell_angle_beta   72.29711518
_cell_angle_gamma   107.69890228
_symmetry_Int_Tables_number   1
_chemical_formula_structural   Zn4H20C44O13F8
_chemical_formula_sum   'Zn8 H40 C88 O26 F16'
_cell_volume   10586.05996594
_cell_formula_units_Z   2
loop_
 _symmetry_equiv_pos_site_id
 _symmetry_equiv_pos_as_xyz
  1  'x, y, z'
loop_
 _atom_site_type_symbol
 _atom_site_label
 _atom_site_symmetry_multiplicity
 _atom_site_fract_x
 _atom_site_fract_y
 _atom_site_fract_z
 _atom_site_occupancy
  Zn  Zn0  1  0.05657770  0.09926365  0.45726280  1.0
  Zn  Zn1  1  0.05657891  0.95731151  0.48614884  1.0
  Zn  Zn2  1  0.94341771  0.95726041  0.59927541  1.0
  Zn  Zn3  1  0.94343199  0.98616425  0.45729915  1.0
  Zn  Zn4  1  0.94346379  0.40073599  0.04269511  1.0
  Zn  Zn5  1  0.05654670  0.54269774  0.90072304  1.0
  Zn  Zn6  1  0.94346170  0.54272897  0.01384778  1.0
  Zn  Zn7  1  0.05652503  0.51383801  0.04274278  1.0
  H  H8  1  0.92353167  0.20898672  0.90177182  1.0
  H  H9  1  0.07645374  0.40177033  0.70895373  1.0
  H  H10  1  0.92353692  0.09822356  0.79102895  1.0
  H  H11  1  0.07640223  0.29102153  0.59820199  1.0
  H  H12  1  0.07647283  0.67473269  0.21452795  1.0
  H  H13  1  0.92354404  0.71459004  0.17466897  1.0
  H  H14  1  0.07640796  0.78538567  0.32537022  1.0
  H  H15  1  0.92353645  0.82531341  0.28544572  1.0
  H  H16  1  0.61075978  0.20898962  0.21458302  1.0
  H  H17  1  0.61075649  0.40178275  0.17466072  1.0
  H  H18  1  0.38926372  0.09822043  0.32534009  1.0
  H  H19  1  0.38925733  0.29100232  0.28548862  1.0
  H  H20  1  0.38925388  0.71462169  0.70898084  1.0
  H  H21  1  0.38923026  0.67466215  0.90180698  1.0
  H  H22  1  0.61075493  0.82534320  0.59819891  1.0
  H  H23  1  0.61072865  0.78545041  0.79101626  1.0
  H  H24  1  0.85668480  0.09970460  0.31898094  1.0
  H  H25  1  0.90842428  0.06672814  0.34129217  1.0
  H  H26  1  0.91852962  0.09992891  0.25673430  1.0
  H  H27  1  0.08132646  0.40029615  0.24301408  1.0
  H  H28  1  0.09199059  0.43327256  0.15829294  1.0
  H  H29  1  0.14334238  0.40007175  0.18138719  1.0
  H  H30  1  0.91867613  0.17566361  0.18102320  1.0
  H  H31  1  0.90801151  0.24971320  0.15871483  1.0
  H  H32  1  0.85665916  0.17526191  0.24327386  1.0
  H  H33  1  0.14332139  0.32434326  0.25696980  1.0
  H  H34  1  0.09158127  0.25028751  0.34169169  1.0
  H  H35  1  0.08147583  0.32473366  0.31860143  1.0
  H  H36  1  0.85668287  0.75697490  0.82436059  1.0
  H  H37  1  0.90842445  0.84169062  0.75030439  1.0
  H  H38  1  0.91852965  0.81859236  0.82475380  1.0
  H  H39  1  0.08132424  0.68103496  0.67563557  1.0
  H  H40  1  0.09198387  0.65871452  0.74969403  1.0
  H  H41  1  0.14334109  0.74326714  0.67524481  1.0
  H  H42  1  0.91867839  0.74300963  0.90031428  1.0
  H  H43  1  0.90801909  0.65829527  0.93328969  1.0
  H  H44  1  0.85666058  0.68138700  0.90009632  1.0
  H  H45  1  0.14331732  0.81898316  0.59968027  1.0
  H  H46  1  0.09157586  0.84129758  0.56670806  1.0
  H  H47  1  0.08147349  0.75674632  0.59990447  1.0
  C  C48  1  0.18089538  0.09043950  0.40955558  1.0
  C  C49  1  0.99999546  0.86207385  0.63792395  1.0
  C  C50  1  0.99999312  0.09042480  0.59043212  1.0
  C  C51  1  0.81910871  0.90956396  0.59043120  1.0
  C  C52  1  0.00000578  0.13792444  0.36207198  1.0
  C  C53  1  0.99999505  0.90956800  0.40956858  1.0
  C  C54  1  0.00000263  0.40956496  0.90954439  1.0
  C  C55  1  0.00000701  0.63792411  0.86207429  1.0
  C  C56  1  0.81913785  0.40957662  0.09043619  1.0
  C  C57  1  0.99999443  0.59045350  0.09044069  1.0
  C  C58  1  0.99999248  0.36207419  0.13792884  1.0
  C  C59  1  0.18086072  0.59043103  0.90958189  1.0
  C  C60  1  0.00000512  0.19563334  0.30436490  1.0
  C  C61  1  0.99999805  0.30436736  0.19563194  1.0
  C  C62  1  0.95655461  0.17964858  0.27688406  1.0
  C  C63  1  0.04347066  0.32035162  0.22309169  1.0
  C  C64  1  0.95653154  0.23343769  0.22311636  1.0
  C  C65  1  0.04345177  0.26656457  0.27689966  1.0
  C  C66  1  0.99999908  0.80436754  0.69563119  1.0
  C  C67  1  0.00000388  0.69563146  0.80436607  1.0
  C  C68  1  0.95655365  0.77690297  0.76656849  1.0
  C  C69  1  0.04347013  0.72311730  0.73342909  1.0
  C  C70  1  0.95653264  0.72309156  0.82035876  1.0
  C  C71  1  0.04344658  0.77688462  0.67963967  1.0
  C  C72  1  0.00000078  0.37210598  0.87208766  1.0
  C  C73  1  0.95806760  0.30007079  0.90582426  1.0
  C  C74  1  0.95723349  0.26443188  0.87222633  1.0
  C  C75  1  0.99998869  0.30054427  0.80053021  1.0
  C  C76  1  0.04274749  0.37223459  0.76440599  1.0
  C  C77  1  0.04191865  0.40583533  0.80004161  1.0
  C  C78  1  0.99998295  0.26523431  0.76522595  1.0
  C  C79  1  0.99997633  0.23476645  0.73475218  1.0
  C  C80  1  0.99997131  0.19945804  0.69944751  1.0
  C  C81  1  0.95722777  0.12776288  0.73557371  1.0
  C  C82  1  0.95806154  0.09415957  0.69993927  1.0
  C  C83  1  0.99998270  0.12788375  0.62789342  1.0
  C  C84  1  0.04187985  0.19993179  0.59414976  1.0
  C  C85  1  0.04270705  0.23557277  0.62774564  1.0
  C  C86  1  0.00000311  0.62792053  0.12788770  1.0
  C  C87  1  0.04194351  0.63613440  0.15797961  1.0
  C  C88  1  0.04277218  0.67056658  0.19278402  1.0
  C  C89  1  0.00000663  0.69949017  0.19943368  1.0
  C  C90  1  0.95725216  0.69285137  0.17049713  1.0
  C  C91  1  0.95808548  0.65804548  0.13606811  1.0
  C  C92  1  0.99999466  0.73477810  0.23475856  1.0
  C  C93  1  0.99998613  0.76522940  0.26524969  1.0
  C  C94  1  0.99997620  0.80052074  0.30057062  1.0
  C  C95  1  0.04271272  0.80713885  0.32953035  1.0
  C  C96  1  0.04188318  0.84194629  0.36395845  1.0
  C  C97  1  0.99998495  0.87209506  0.37212276  1.0
  C  C98  1  0.95806106  0.86389877  0.34200642  1.0
  C  C99  1  0.95722816  0.82946503  0.30720349  1.0
  C  C100  1  0.74421799  0.37211324  0.12789113  1.0
  C  C101  1  0.70590656  0.30007161  0.15802766  1.0
  C  C102  1  0.63667170  0.26443594  0.19283021  1.0
  C  C103  1  0.60109391  0.30055330  0.19945701  1.0
  C  C104  1  0.63666911  0.37224600  0.17050277  1.0
  C  C105  1  0.70590592  0.40584654  0.13606592  1.0
  C  C106  1  0.53048167  0.26523992  0.23477303  1.0
  C  C107  1  0.46953915  0.23475712  0.26526253  1.0
  C  C108  1  0.39892677  0.19944530  0.30057923  1.0
  C  C109  1  0.36335193  0.12775618  0.32951194  1.0
  C  C110  1  0.29411749  0.09415975  0.36393477  1.0
  C  C111  1  0.25580877  0.12789462  0.37211376  1.0
  C  C112  1  0.29411358  0.19992496  0.34202999  1.0
  C  C113  1  0.36334967  0.23555856  0.30722954  1.0
  C  C114  1  0.25578115  0.62789751  0.87212263  1.0
  C  C115  1  0.29409983  0.65805192  0.80007096  1.0
  C  C116  1  0.36333579  0.69286076  0.76443602  1.0
  C  C117  1  0.39890928  0.69947558  0.80056006  1.0
  C  C118  1  0.36332379  0.67051349  0.87226133  1.0
  C  C119  1  0.29408550  0.63607678  0.90586274  1.0
  C  C120  1  0.46952230  0.73478689  0.76524504  1.0
  C  C121  1  0.53046491  0.76526140  0.73475168  1.0
  C  C122  1  0.60107820  0.80056858  0.69943820  1.0
  C  C123  1  0.63666010  0.82950790  0.62774240  1.0
  C  C124  1  0.70589625  0.86393529  0.59414572  1.0
  C  C125  1  0.74419517  0.87211043  0.62789119  1.0
  C  C126  1  0.70588176  0.84200310  0.69993148  1.0
  C  C127  1  0.63664630  0.80720099  0.73556404  1.0
  C  C128  1  0.90793555  0.10726204  0.30056525  1.0
  C  C129  1  0.09218061  0.39273866  0.19931853  1.0
  C  C130  1  0.90782050  0.20849825  0.19944063  1.0
  C  C131  1  0.09207054  0.29150246  0.30066903  1.0
  C  C132  1  0.90793513  0.80066707  0.79151817  1.0
  C  C133  1  0.09217844  0.69944189  0.70847815  1.0
  C  C134  1  0.90782444  0.69931727  0.89275596  1.0
  C  C135  1  0.09206566  0.80057073  0.60724250  1.0
  O  O136  1  0.00000036  0.99999872  0.49999967  1.0
  O  O137  1  0.15209439  0.12621645  0.41484061  1.0
  O  O138  1  0.03971394  0.88609629  0.57489424  1.0
  O  O139  1  0.95900922  0.02582009  0.62623768  1.0
  O  O140  1  0.15209630  0.02586956  0.43305911  1.0
  O  O141  1  0.04098054  0.12621927  0.52582906  1.0
  O  O142  1  0.96027135  0.88537742  0.65363084  1.0
  O  O143  1  0.84790394  0.91484635  0.62622213  1.0
  O  O144  1  0.96031110  0.07490401  0.38606804  1.0
  O  O145  1  0.84791336  0.93307510  0.52586155  1.0
  O  O146  1  0.03970748  0.15362561  0.38539942  1.0
  O  O147  1  0.04097444  0.91474184  0.43319761  1.0
  O  O148  1  0.95903060  0.93320452  0.41473537  1.0
  O  O149  1  0.00000099  0.50000058  0.99999891  1.0
  O  O150  1  0.95893062  0.37378992  0.97412293  1.0
  O  O151  1  0.03905027  0.61393898  0.84636723  1.0
  O  O152  1  0.84793906  0.47417067  0.06681410  1.0
  O  O153  1  0.04107320  0.47413779  0.87376555  1.0
  O  O154  1  0.84794376  0.37377093  0.08526356  1.0
  O  O155  1  0.96096996  0.61458635  0.92510276  1.0
  O  O156  1  0.95893507  0.58516617  0.06692865  1.0
  O  O157  1  0.03898784  0.42509775  0.11463108  1.0
  O  O158  1  0.04105396  0.56693372  0.08516168  1.0
  O  O159  1  0.96099032  0.34637508  0.11390350  1.0
  O  O160  1  0.15206450  0.58525004  0.87377385  1.0
  O  O161  1  0.15204995  0.56680606  0.97418736  1.0
  F  F162  1  0.91568506  0.26169948  0.97466593  1.0
  F  F163  1  0.08429912  0.47467085  0.76166318  1.0
  F  F164  1  0.91568776  0.02532150  0.73832292  1.0
  F  F165  1  0.08424061  0.23831082  0.52530081  1.0
  F  F166  1  0.08434143  0.60969756  0.15395473  1.0
  F  F167  1  0.91570920  0.65404039  0.10960794  1.0
  F  F168  1  0.08424526  0.84593121  0.39043795  1.0
  F  F169  1  0.91568242  0.89035633  0.34600937  1.0
  F  F170  1  0.73636999  0.26169542  0.15403284  1.0
  F  F171  1  0.73636613  0.47468379  0.10959761  1.0
  F  F172  1  0.26365342  0.02532454  0.39039428  1.0
  F  F173  1  0.26364989  0.23829499  0.34605525  1.0
  F  F174  1  0.26364235  0.65407301  0.76168471  1.0
  F  F175  1  0.26361765  0.60960134  0.97470789  1.0
  F  F176  1  0.73636620  0.89039832  0.52530440  1.0
  F  F177  1  0.73634018  0.84600944  0.73831248  1.0
