# generated using pymatgen
data_ZnSiH16C24S4N4(O2F)6
_symmetry_space_group_name_H-M   'P 1'
_cell_length_a   7.61375444
_cell_length_b   13.98622829
_cell_length_c   14.00701160
_cell_angle_alpha   88.98534154
_cell_angle_beta   86.81900820
_cell_angle_gamma   86.85417075
_symmetry_Int_Tables_number   1
_chemical_formula_structural   ZnSiH16C24S4N4(O2F)6
_chemical_formula_sum   'Zn1 Si1 H16 C24 S4 N4 O12 F6'
_cell_volume   1486.87133720
_cell_formula_units_Z   1
loop_
 _symmetry_equiv_pos_site_id
 _symmetry_equiv_pos_as_xyz
  1  'x, y, z'
loop_
 _atom_site_type_symbol
 _atom_site_label
 _atom_site_symmetry_multiplicity
 _atom_site_fract_x
 _atom_site_fract_y
 _atom_site_fract_z
 _atom_site_occupancy
  Zn  Zn0  1  0.50474181  0.50192681  0.50330802  1.0
  Si  Si1  1  0.00451324  0.50214507  0.50366814  1.0
  H  H2  1  0.73876997  0.54877998  0.66139137  1.0
  H  H3  1  0.74190021  0.55107594  0.83736422  1.0
  H  H4  1  0.22040406  0.46424032  0.67294798  1.0
  H  H5  1  0.78885765  0.53719848  0.33262912  1.0
  H  H6  1  0.26757409  0.45731516  0.34579790  1.0
  H  H7  1  0.26217355  0.45555755  0.16997325  1.0
  H  H8  1  0.75195261  0.66195613  0.45803884  1.0
  H  H9  1  0.75308170  0.83807844  0.45290427  1.0
  H  H10  1  0.21606813  0.66932973  0.54134488  1.0
  H  H11  1  0.79391627  0.33477904  0.46390728  1.0
  H  H12  1  0.25724822  0.34171904  0.54523754  1.0
  H  H13  1  0.25409989  0.16573303  0.54452472  1.0
  H  H14  1  0.97788843  0.57475499  0.95108912  1.0
  H  H15  1  0.02821526  0.42717609  0.05438068  1.0
  H  H16  1  0.99456544  0.95135541  0.42667362  1.0
  H  H17  1  0.01432395  0.05259251  0.57299401  1.0
  C  C18  1  0.62215585  0.53017376  0.70511673  1.0
  C  C19  1  0.62387247  0.53141875  0.80403770  1.0
  C  C20  1  0.47501668  0.50586535  0.86073022  1.0
  C  C21  1  0.32620187  0.48287132  0.81096723  1.0
  C  C22  1  0.33483100  0.48230545  0.71124684  1.0
  C  C23  1  0.48593501  0.50313241  0.96109905  1.0
  C  C24  1  0.51832129  0.50141758  0.04539770  1.0
  C  C25  1  0.53029147  0.49852875  0.14568130  1.0
  C  C26  1  0.68052298  0.52015694  0.19493244  1.0
  C  C27  1  0.67324501  0.52038051  0.29468108  1.0
  C  C28  1  0.38429101  0.47508517  0.30172741  1.0
  C  C29  1  0.38129341  0.47410700  0.20286847  1.0
  C  C30  1  0.63038865  0.70477924  0.47495336  1.0
  C  C31  1  0.63131869  0.80385047  0.47231823  1.0
  C  C32  1  0.47638276  0.85951970  0.49634306  1.0
  C  C33  1  0.32334522  0.80877292  0.51974302  1.0
  C  C34  1  0.33292369  0.70882224  0.52187806  1.0
  C  C35  1  0.48653634  0.95998810  0.49775820  1.0
  C  C36  1  0.52049133  0.04411057  0.49871718  1.0
  C  C37  1  0.53125166  0.14445969  0.50199404  1.0
  C  C38  1  0.68497972  0.19525450  0.48073738  1.0
  C  C39  1  0.67644844  0.29519473  0.48169996  1.0
  C  C40  1  0.37849236  0.29897795  0.52739650  1.0
  C  C41  1  0.37648381  0.19998039  0.52678968  1.0
  S  S42  1  0.11970762  0.46020140  0.86929709  1.0
  S  S43  1  0.88691050  0.54196570  0.13611154  1.0
  S  S44  1  0.11225521  0.86680926  0.54168823  1.0
  S  S45  1  0.89606667  0.13734136  0.45818764  1.0
  N  N46  1  0.48122940  0.50466959  0.65911159  1.0
  N  N47  1  0.52675367  0.49916831  0.34727721  1.0
  N  N48  1  0.48458319  0.65769381  0.50022528  1.0
  N  N49  1  0.52510645  0.34619439  0.50439682  1.0
  O  O50  1  0.04637885  0.56633202  0.88624774  1.0
  O  O51  1  0.01494059  0.41297471  0.80475806  1.0
  O  O52  1  0.14940025  0.41433634  0.96224396  1.0
  O  O53  1  0.95922054  0.43567280  0.11908905  1.0
  O  O54  1  0.85703144  0.58790319  0.04321828  1.0
  O  O55  1  0.99264630  0.58892495  0.20036969  1.0
  O  O56  1  0.06005249  0.88606858  0.43545165  1.0
  O  O57  1  0.99760635  0.80127940  0.58932754  1.0
  O  O58  1  0.13279433  0.95903305  0.58647250  1.0
  O  O59  1  0.94908586  0.11800130  0.56424048  1.0
  O  O60  1  0.87568079  0.04518797  0.41326691  1.0
  O  O61  1  0.01006862  0.20317972  0.41048118  1.0
  F  F62  1  0.77350608  0.50426062  0.50773587  1.0
  F  F63  1  0.23563354  0.50000386  0.49945111  1.0
  F  F64  1  0.00913443  0.40304591  0.57526122  1.0
  F  F65  1  0.00030979  0.60112730  0.43188477  1.0
  F  F66  1  0.99707174  0.57242522  0.60150500  1.0
  F  F67  1  0.01192043  0.43180782  0.40576946  1.0
