# generated using pymatgen
data_ZnH6C31(N5O11)2
_symmetry_space_group_name_H-M   'P 1'
_cell_length_a   14.76313453
_cell_length_b   16.01709274
_cell_length_c   28.03571941
_cell_angle_alpha   90.06594556
_cell_angle_beta   89.98484724
_cell_angle_gamma   89.89270336
_symmetry_Int_Tables_number   1
_chemical_formula_structural   ZnH6C31(N5O11)2
_chemical_formula_sum   'Zn2 H12 C62 N20 O44'
_cell_volume   6629.37990691
_cell_formula_units_Z   2
loop_
 _symmetry_equiv_pos_site_id
 _symmetry_equiv_pos_as_xyz
  1  'x, y, z'
loop_
 _atom_site_type_symbol
 _atom_site_label
 _atom_site_symmetry_multiplicity
 _atom_site_fract_x
 _atom_site_fract_y
 _atom_site_fract_z
 _atom_site_occupancy
  Zn  Zn0  1  0.59252313  0.50011461  0.50000578  1.0
  Zn  Zn1  1  0.40451907  0.50132480  0.49957915  1.0
  H  H2  1  0.94124096  0.43018190  0.57279560  1.0
  H  H3  1  0.05403605  0.56998655  0.42942899  1.0
  H  H4  1  0.57478230  0.05291323  0.57224104  1.0
  H  H5  1  0.42628743  0.94825244  0.42804548  1.0
  H  H6  1  0.34314286  0.05044426  0.49946778  1.0
  H  H7  1  0.65761507  0.95093382  0.50072822  1.0
  H  H8  1  0.35663717  0.52573866  0.64825341  1.0
  H  H9  1  0.36480543  0.45645576  0.35187670  1.0
  H  H10  1  0.34856307  0.52429684  0.73759976  1.0
  H  H11  1  0.35571771  0.45579771  0.26259403  1.0
  H  H12  1  0.41991106  0.70248334  0.96600106  1.0
  H  H13  1  0.44928586  0.28941882  0.03368980  1.0
  C  C14  1  0.49750687  0.66028765  0.49756333  1.0
  C  C15  1  0.49468960  0.34114737  0.50182210  1.0
  C  C16  1  0.50247791  0.49751312  0.40746531  1.0
  C  C17  1  0.49899276  0.50349437  0.59210066  1.0
  C  C18  1  0.49521798  0.57587161  0.18008193  1.0
  C  C19  1  0.50611617  0.42371199  0.81964290  1.0
  C  C20  1  0.47067796  0.42108256  0.17981893  1.0
  C  C21  1  0.45910699  0.57414894  0.81988502  1.0
  C  C22  1  0.41783076  0.47380058  0.28077623  1.0
  C  C23  1  0.41265038  0.51447928  0.71917909  1.0
  C  C24  1  0.42279795  0.47432890  0.33020921  1.0
  C  C25  1  0.41702273  0.51501288  0.66971322  1.0
  C  C26  1  0.57726209  0.52127407  0.32645803  1.0
  C  C27  1  0.57720314  0.48759035  0.67283322  1.0
  C  C28  1  0.57347007  0.51987621  0.27664450  1.0
  C  C29  1  0.57394196  0.48882754  0.72267328  1.0
  C  C30  1  0.49283752  0.49677000  0.25375834  1.0
  C  C31  1  0.49080294  0.50144757  0.74589348  1.0
  C  C32  1  0.47979560  0.49941134  0.10180398  1.0
  C  C33  1  0.47972526  0.49771622  0.89792211  1.0
  C  C34  1  0.48977844  0.57544212  0.12736637  1.0
  C  C35  1  0.50058796  0.42350706  0.87236045  1.0
  C  C36  1  0.49915676  0.64919528  0.10180913  1.0
  C  C37  1  0.52057925  0.35153408  0.89793835  1.0
  C  C38  1  0.46720367  0.42370607  0.12721948  1.0
  C  C39  1  0.45629639  0.57123436  0.87249419  1.0
  C  C40  1  0.50204509  0.49837870  0.35376307  1.0
  C  C41  1  0.49887448  0.50130495  0.64580521  1.0
  C  C42  1  0.46740289  0.57467721  0.97391609  1.0
  C  C43  1  0.47835351  0.42170918  0.02581758  1.0
  C  C44  1  0.49440732  0.42188369  0.97435706  1.0
  C  C45  1  0.48339823  0.57637907  0.02537205  1.0
  C  C46  1  0.48022496  0.49774868  0.94887785  1.0
  C  C47  1  0.48021360  0.49948128  0.05085293  1.0
  C  C48  1  0.43860659  0.64443226  0.94835351  1.0
  C  C49  1  0.45975077  0.34912536  0.05136544  1.0
  C  C50  1  0.43129510  0.64121823  0.89872216  1.0
  C  C51  1  0.45226236  0.35139976  0.10100570  1.0
  C  C52  1  0.49897891  0.64918956  0.05177330  1.0
  C  C53  1  0.52036153  0.35152633  0.94797095  1.0
  C  C54  1  0.54259257  0.02952823  0.53982701  1.0
  C  C55  1  0.45821198  0.97189360  0.46046568  1.0
  C  C56  1  0.45659585  0.97292597  0.53884714  1.0
  C  C57  1  0.54409958  0.02854465  0.46146482  1.0
  C  C58  1  0.49929005  0.75016812  0.49770166  1.0
  C  C59  1  0.49579598  0.25125382  0.50181224  1.0
  C  C60  1  0.58763418  0.97307323  0.50098644  1.0
  C  C61  1  0.41309330  0.02824624  0.49927838  1.0
  C  C62  1  0.50164468  0.91403430  0.50025874  1.0
  C  C63  1  0.49896752  0.08733778  0.50010883  1.0
  C  C64  1  0.50095235  0.82595299  0.49926794  1.0
  C  C65  1  0.49792336  0.17544980  0.50057348  1.0
  C  C66  1  0.96727767  0.57929497  0.50023927  1.0
  C  C67  1  0.02825966  0.42081007  0.50177058  1.0
  C  C68  1  0.02807611  0.54049563  0.53995429  1.0
  C  C69  1  0.96746307  0.45977233  0.46201033  1.0
  C  C70  1  0.02918394  0.53866434  0.46141769  1.0
  C  C71  1  0.96619645  0.46122237  0.54069194  1.0
  C  C72  1  0.09182634  0.49956595  0.50140125  1.0
  C  C73  1  0.90365899  0.50033447  0.50076011  1.0
  C  C74  1  0.18781034  0.50001798  0.50110265  1.0
  C  C75  1  0.80773796  0.50001458  0.50083512  1.0
  N  N76  1  0.48427591  0.49832004  0.20280339  1.0
  N  N77  1  0.48329986  0.49905743  0.79690087  1.0
  N  N78  1  0.26608690  0.50216450  0.49921918  1.0
  N  N79  1  0.72946837  0.49881421  0.50152977  1.0
  N  N80  1  0.66224946  0.54754440  0.35064994  1.0
  N  N81  1  0.66526458  0.47164967  0.64851822  1.0
  N  N82  1  0.05657425  0.58335066  0.58426613  1.0
  N  N83  1  0.94139562  0.41300548  0.41849918  1.0
  N  N84  1  0.94088216  0.66849534  0.49901876  1.0
  N  N85  1  0.05599466  0.33200816  0.50272091  1.0
  N  N86  1  0.65350225  0.54448884  0.24835686  1.0
  N  N87  1  0.65747938  0.47585944  0.75070792  1.0
  N  N88  1  0.50982976  0.73131937  0.12616835  1.0
  N  N89  1  0.54315889  0.27139111  0.87363206  1.0
  N  N90  1  0.39432539  0.71757089  0.87597662  1.0
  N  N91  1  0.42672686  0.27133453  0.12380715  1.0
  N  N92  1  0.52141130  0.72892921  0.02753277  1.0
  N  N93  1  0.55407294  0.27515211  0.97223839  1.0
  N  N94  1  0.40829234  0.94890690  0.58265489  1.0
  N  N95  1  0.59219928  0.05303960  0.41766474  1.0
  O  O96  1  0.57172741  0.62345972  0.48787107  1.0
  O  O97  1  0.41977760  0.37611441  0.49102938  1.0
  O  O98  1  0.42169491  0.62621302  0.50734520  1.0
  O  O99  1  0.56876651  0.37725868  0.51249526  1.0
  O  O100  1  0.57634492  0.47866598  0.42777475  1.0
  O  O101  1  0.42398318  0.48646904  0.57222892  1.0
  O  O102  1  0.42709388  0.51473440  0.42697760  1.0
  O  O103  1  0.57277713  0.52298698  0.57197365  1.0
  O  O104  1  0.51021760  0.63912084  0.20338655  1.0
  O  O105  1  0.53076693  0.36298709  0.79636234  1.0
  O  O106  1  0.44310483  0.63759928  0.79705140  1.0
  O  O107  1  0.46372871  0.35625415  0.20263291  1.0
  O  O108  1  0.72807825  0.50044489  0.34629518  1.0
  O  O109  1  0.65920726  0.61365444  0.37296367  1.0
  O  O110  1  0.72227573  0.52783306  0.65078964  1.0
  O  O111  1  0.67364805  0.40372038  0.62844460  1.0
  O  O112  1  0.99845881  0.62857044  0.60252905  1.0
  O  O113  1  0.13335025  0.56739460  0.59898321  1.0
  O  O114  1  0.00717035  0.39124486  0.39400404  1.0
  O  O115  1  0.86068876  0.40029714  0.41138239  1.0
  O  O116  1  0.00616091  0.71673156  0.50014794  1.0
  O  O117  1  0.85988519  0.68544431  0.49659344  1.0
  O  O118  1  0.99352821  0.28243023  0.49537633  1.0
  O  O119  1  0.13601204  0.31659131  0.51133285  1.0
  O  O120  1  0.69701305  0.60533271  0.26240051  1.0
  O  O121  1  0.67045729  0.50193647  0.21245798  1.0
  O  O122  1  0.71086024  0.42195147  0.73655231  1.0
  O  O123  1  0.66740846  0.52044017  0.78650124  1.0
  O  O124  1  0.43999824  0.76449518  0.14060964  1.0
  O  O125  1  0.58749425  0.75934269  0.12693638  1.0
  O  O126  1  0.47885341  0.23019113  0.85906388  1.0
  O  O127  1  0.62422601  0.25284822  0.87301706  1.0
  O  O128  1  0.31308880  0.71510948  0.86576390  1.0
  O  O129  1  0.44580365  0.77760824  0.87275074  1.0
  O  O130  1  0.34586618  0.26408010  0.13411565  1.0
  O  O131  1  0.48648767  0.21802434  0.12703618  1.0
  O  O132  1  0.46719926  0.78726061  0.03247188  1.0
  O  O133  1  0.59267843  0.72960081  0.00470206  1.0
  O  O134  1  0.50879723  0.21085292  0.96727247  1.0
  O  O135  1  0.62477329  0.28297632  0.99510542  1.0
  O  O136  1  0.37488126  0.00791590  0.60541618  1.0
  O  O137  1  0.40503564  0.87424253  0.59352744  1.0
  O  O138  1  0.62539211  0.99427466  0.39464923  1.0
  O  O139  1  0.59540550  0.12784910  0.40710043  1.0
