# generated using pymatgen
data_CdH24C34N2O5
_symmetry_space_group_name_H-M   'P 1'
_cell_length_a   9.57233611
_cell_length_b   15.60996944
_cell_length_c   15.67532493
_cell_angle_alpha   62.42510649
_cell_angle_beta   85.13934934
_cell_angle_gamma   72.49039418
_symmetry_Int_Tables_number   1
_chemical_formula_structural   CdH24C34N2O5
_chemical_formula_sum   'Cd2 H48 C68 N4 O10'
_cell_volume   1975.87836663
_cell_formula_units_Z   2
loop_
 _symmetry_equiv_pos_site_id
 _symmetry_equiv_pos_as_xyz
  1  'x, y, z'
loop_
 _atom_site_type_symbol
 _atom_site_label
 _atom_site_symmetry_multiplicity
 _atom_site_fract_x
 _atom_site_fract_y
 _atom_site_fract_z
 _atom_site_occupancy
  Cd  Cd0  1  0.37370469  0.96943635  0.91501749  1.0
  Cd  Cd1  1  0.62629574  0.03056329  0.08498147  1.0
  H  H2  1  0.61098745  0.78518835  0.07705884  1.0
  H  H3  1  0.38901535  0.21481323  0.92294362  1.0
  H  H4  1  0.84963861  0.65371915  0.09922097  1.0
  H  H5  1  0.15036379  0.34628006  0.90078297  1.0
  H  H6  1  0.86574007  0.79604244  0.78849280  1.0
  H  H7  1  0.13426145  0.20395454  0.21151049  1.0
  H  H8  1  0.62337051  0.91701347  0.77999889  1.0
  H  H9  1  0.37663010  0.08298331  0.22000441  1.0
  H  H10  1  0.06250725  0.58753407  0.03529996  1.0
  H  H11  1  0.93749481  0.41246461  0.96470328  1.0
  H  H12  1  0.05105398  0.66383911  0.81573770  1.0
  H  H13  1  0.94894455  0.33615843  0.18426631  1.0
  H  H14  1  0.25915161  0.46860664  0.05979757  1.0
  H  H15  1  0.74085058  0.53139356  0.94020421  1.0
  H  H16  1  0.49966050  0.34636382  0.07297473  1.0
  H  H17  1  0.50034501  0.65363837  0.92702768  1.0
  H  H18  1  0.49467543  0.47393011  0.76292892  1.0
  H  H19  1  0.50532162  0.52606973  0.23707290  1.0
  H  H20  1  0.25432652  0.59529656  0.74950134  1.0
  H  H21  1  0.74566890  0.40470018  0.25050129  1.0
  H  H22  1  0.69275692  0.26956141  0.00569491  1.0
  H  H23  1  0.30724692  0.73043987  0.99430540  1.0
  H  H24  1  0.72351390  0.39018138  0.78732611  1.0
  H  H25  1  0.27648848  0.60982001  0.21267492  1.0
  H  H26  1  0.88193615  0.15540829  0.02890558  1.0
  H  H27  1  0.11806251  0.84458891  0.97109274  1.0
  H  H28  1  0.11502411  0.02636173  0.03915766  1.0
  H  H29  1  0.88497619  0.97363655  0.96083920  1.0
  H  H30  1  0.18257622  0.18634839  0.75162200  1.0
  H  H31  1  0.81742474  0.81365715  0.24837466  1.0
  H  H32  1  0.94976763  0.32497995  0.72650604  1.0
  H  H33  1  0.05023452  0.67502446  0.27349349  1.0
  H  H34  1  0.10870010  0.90535186  0.17600054  1.0
  H  H35  1  0.89129526  0.09465127  0.82399693  1.0
  H  H36  1  0.98951938  0.89370893  0.32773239  1.0
  H  H37  1  0.01047587  0.10629066  0.67226588  1.0
  H  H38  1  0.40469455  0.85315082  0.45115249  1.0
  H  H39  1  0.59529985  0.14685244  0.54884427  1.0
  H  H40  1  0.51979219  0.87039325  0.29799941  1.0
  H  H41  1  0.48020283  0.12961138  0.70199802  1.0
  H  H42  1  0.10581196  0.75618474  0.66094267  1.0
  H  H43  1  0.89419374  0.24381275  0.33905345  1.0
  H  H44  1  0.17662488  0.79018089  0.79173900  1.0
  H  H45  1  0.82338319  0.20981451  0.20825930  1.0
  H  H46  1  0.29341751  0.04797550  0.57615105  1.0
  H  H47  1  0.70658467  0.95202269  0.42385007  1.0
  H  H48  1  0.22317846  0.01510105  0.44607695  1.0
  H  H49  1  0.77681823  0.98490247  0.55392193  1.0
  C  C50  1  0.66974204  0.78266003  0.01526368  1.0
  C  C51  1  0.33026118  0.21733972  0.98473953  1.0
  C  C52  1  0.80375590  0.71076355  0.02678893  1.0
  C  C53  1  0.19624111  0.28923644  0.97321574  1.0
  C  C54  1  0.87952777  0.71115980  0.94579671  1.0
  C  C55  1  0.12047332  0.28883901  0.05420583  1.0
  C  C56  1  0.81253692  0.78813695  0.85492535  1.0
  C  C57  1  0.18746342  0.21186099  0.14507864  1.0
  C  C58  1  0.67771951  0.85698510  0.84936144  1.0
  C  C59  1  0.32228435  0.14301198  0.15064112  1.0
  C  C60  1  0.01924492  0.63441532  0.96027529  1.0
  C  C61  1  0.98075549  0.36558229  0.03972942  1.0
  C  C62  1  0.09656184  0.61715525  0.89043695  1.0
  C  C63  1  0.90343985  0.38284309  0.10956203  1.0
  C  C64  1  0.23778165  0.54239082  0.90334806  1.0
  C  C65  1  0.76221737  0.45760673  0.09665453  1.0
  C  C66  1  0.31015628  0.47062006  0.99433210  1.0
  C  C67  1  0.68984411  0.52937973  0.00566971  1.0
  C  C68  1  0.44567964  0.40183977  0.00194914  1.0
  C  C69  1  0.55432110  0.59816054  0.99805336  1.0
  C  C70  1  0.51743920  0.40204505  0.91928154  1.0
  C  C71  1  0.48256228  0.59795614  0.08071950  1.0
  C  C72  1  0.44453635  0.47303828  0.82831506  1.0
  C  C73  1  0.55546135  0.52696090  0.17168677  1.0
  C  C74  1  0.30822473  0.54099566  0.82079181  1.0
  C  C75  1  0.69177131  0.45900245  0.17921149  1.0
  C  C76  1  0.66058256  0.32940086  0.93173766  1.0
  C  C77  1  0.33942134  0.67060009  0.06826338  1.0
  C  C78  1  0.75352577  0.32993658  0.86134383  1.0
  C  C79  1  0.24647591  0.67006579  0.13865647  1.0
  C  C80  1  0.89338354  0.25337924  0.87558633  1.0
  C  C81  1  0.10661425  0.74662365  0.12441113  1.0
  C  C82  1  0.94430105  0.16750515  0.96498153  1.0
  C  C83  1  0.05570013  0.83249536  0.03501597  1.0
  C  C84  1  0.07404982  0.09448727  0.97160231  1.0
  C  C85  1  0.92594853  0.90551329  0.02839378  1.0
  C  C86  1  0.11259314  0.18384621  0.81091996  1.0
  C  C87  1  0.88740574  0.81615807  0.18907675  1.0
  C  C88  1  0.98321602  0.26065191  0.79792226  1.0
  C  C89  1  0.01678489  0.73935178  0.20207659  1.0
  C  C90  1  0.39215902  0.89677805  0.13581632  1.0
  C  C91  1  0.60783724  0.10322529  0.86418114  1.0
  C  C92  1  0.32212946  0.88763466  0.22744625  1.0
  C  C93  1  0.67786458  0.11237010  0.77255047  1.0
  C  C94  1  0.17257322  0.89461166  0.23625365  1.0
  C  C95  1  0.82742083  0.10539108  0.76374241  1.0
  C  C96  1  0.10576161  0.88792359  0.32042139  1.0
  C  C97  1  0.89423529  0.11207708  0.67957542  1.0
  C  C98  1  0.18985106  0.87291374  0.39759442  1.0
  C  C99  1  0.81014244  0.12708931  0.60240235  1.0
  C  C100  1  0.33954096  0.86540404  0.39061761  1.0
  C  C101  1  0.66045273  0.13460222  0.60937908  1.0
  C  C102  1  0.40440335  0.87353481  0.30529757  1.0
  C  C103  1  0.59559124  0.12646963  0.69469845  1.0
  C  C104  1  0.16349637  0.88208304  0.54746600  1.0
  C  C105  1  0.83650016  0.11792115  0.45253143  1.0
  C  C106  1  0.14776545  0.81950323  0.64419931  1.0
  C  C107  1  0.85223907  0.18049523  0.35579751  1.0
  C  C108  1  0.18646163  0.83861327  0.71580579  1.0
  C  C109  1  0.81354476  0.16138526  0.28419173  1.0
  C  C110  1  0.24081176  0.92043404  0.69155654  1.0
  C  C111  1  0.75919400  0.07956514  0.30844096  1.0
  C  C112  1  0.25329160  0.98363307  0.59406632  1.0
  C  C113  1  0.74671049  0.01636764  0.40593117  1.0
  C  C114  1  0.21463383  0.96538338  0.52174235  1.0
  C  C115  1  0.78536583  0.03461958  0.47825581  1.0
  C  C116  1  0.28450804  0.94013371  0.76871478  1.0
  C  C117  1  0.71549523  0.05985779  0.23128936  1.0
  N  N118  1  0.60646350  0.85502078  0.92804044  1.0
  N  N119  1  0.39353766  0.14497771  0.07196282  1.0
  N  N120  1  0.15721208  0.10083348  0.89618983  1.0
  N  N121  1  0.84278896  0.89916770  0.10380623  1.0
  O  O122  1  0.31605523  0.89735916  0.07224068  1.0
  O  O123  1  0.68393943  0.10264495  0.92775606  1.0
  O  O124  1  0.52299802  0.90225127  0.12567594  1.0
  O  O125  1  0.47699477  0.09775277  0.87432010  1.0
  O  O126  1  0.11801051  0.85960727  0.48106679  1.0
  O  O127  1  0.88198506  0.14039704  0.51892994  1.0
  O  O128  1  0.27228507  0.88007629  0.85684436  1.0
  O  O129  1  0.72771314  0.11991467  0.14315698  1.0
  O  O130  1  0.33328304  0.01541690  0.74410459  1.0
  O  O131  1  0.66672552  0.98457212  0.25590385  1.0
