# generated using pymatgen
data_ZnH5C16Cl2(O2F)2
_symmetry_space_group_name_H-M   'P 1'
_cell_length_a   8.83037757
_cell_length_b   17.74509243
_cell_length_c   34.87030498
_cell_angle_alpha   89.16362551
_cell_angle_beta   89.80992783
_cell_angle_gamma   89.96583415
_symmetry_Int_Tables_number   1
_chemical_formula_structural   ZnH5C16Cl2(O2F)2
_chemical_formula_sum   'Zn4 H20 C64 Cl8 O16 F8'
_cell_volume   5463.41961366
_cell_formula_units_Z   4
loop_
 _symmetry_equiv_pos_site_id
 _symmetry_equiv_pos_as_xyz
  1  'x, y, z'
loop_
 _atom_site_type_symbol
 _atom_site_label
 _atom_site_symmetry_multiplicity
 _atom_site_fract_x
 _atom_site_fract_y
 _atom_site_fract_z
 _atom_site_occupancy
  Zn  Zn0  1  0.65770364  0.00030419  0.49976120  1.0
  Zn  Zn1  1  0.35566733  0.00035627  0.50011041  1.0
  Zn  Zn2  1  0.24749385  0.00262604  0.00011056  1.0
  Zn  Zn3  1  0.55110390  0.00241096  0.99986602  1.0
  H  H4  1  0.59474340  0.00043648  0.11478633  1.0
  H  H5  1  0.62351917  0.00000410  0.18506964  1.0
  H  H6  1  0.76828773  0.99985771  0.30361120  1.0
  H  H7  1  0.27760291  0.00028305  0.31280415  1.0
  H  H8  1  0.27907562  0.99993148  0.25310953  1.0
  H  H9  1  0.62708822  0.00008323  0.24592149  1.0
  H  H10  1  0.59518737  0.00241616  0.88495572  1.0
  H  H11  1  0.62411569  0.00110675  0.81463216  1.0
  H  H12  1  0.76926494  0.00073638  0.69577315  1.0
  H  H13  1  0.27857628  0.99995015  0.68742781  1.0
  H  H14  1  0.27995868  0.00145112  0.74708587  1.0
  H  H15  1  0.62795678  0.00084299  0.75373798  1.0
  H  H16  1  0.71332575  0.22969158  0.49817802  1.0
  H  H17  1  0.22619260  0.24257481  0.49997268  1.0
  H  H18  1  0.71346235  0.77091650  0.49954978  1.0
  H  H19  1  0.22639630  0.75827634  0.50235645  1.0
  H  H20  1  0.20383069  0.23196063  0.00098147  1.0
  H  H21  1  0.69112649  0.24399696  0.99999585  1.0
  H  H22  1  0.20306192  0.77287068  0.00079726  1.0
  H  H23  1  0.69037352  0.76089189  0.00045006  1.0
  C  C24  1  0.46182696  0.14378305  0.49917628  1.0
  C  C25  1  0.55371615  0.00026608  0.42697306  1.0
  C  C26  1  0.46200062  0.85689728  0.50082190  1.0
  C  C27  1  0.55454764  0.00024536  0.57278043  1.0
  C  C28  1  0.45335499  0.14545778  0.00009597  1.0
  C  C29  1  0.34563008  0.00100370  0.07262653  1.0
  C  C30  1  0.45250740  0.85942039  0.00023022  1.0
  C  C31  1  0.34583236  0.00378670  0.92745491  1.0
  C  C32  1  0.35202145  0.00060392  0.11532728  1.0
  C  C33  1  0.49514318  0.00040008  0.13325667  1.0
  C  C34  1  0.51042694  0.00017732  0.17267935  1.0
  C  C35  1  0.38244017  0.00014323  0.19710456  1.0
  C  C36  1  0.24058110  0.00032059  0.17901532  1.0
  C  C37  1  0.22426371  0.00052386  0.13921402  1.0
  C  C38  1  0.38888928  0.99998729  0.23870465  1.0
  C  C39  1  0.51650600  0.00002257  0.26010187  1.0
  C  C40  1  0.66335311  0.99994665  0.32011926  1.0
  C  C41  1  0.52179258  0.00003534  0.30182497  1.0
  C  C42  1  0.39104907  0.00018999  0.32492464  1.0
  C  C43  1  0.40364465  0.00023010  0.36443555  1.0
  C  C44  1  0.54408031  0.00016317  0.38417930  1.0
  C  C45  1  0.67194892  0.00001600  0.35983815  1.0
  C  C46  1  0.35247870  0.00339715  0.88474472  1.0
  C  C47  1  0.49567137  0.00254120  0.86662516  1.0
  C  C48  1  0.51100124  0.00183380  0.82718534  1.0
  C  C49  1  0.38311397  0.00198343  0.80293418  1.0
  C  C50  1  0.24118511  0.00289788  0.82121527  1.0
  C  C51  1  0.22483801  0.00359269  0.86103583  1.0
  C  C52  1  0.38974294  0.00137445  0.76132538  1.0
  C  C53  1  0.51740553  0.00082983  0.73972805  1.0
  C  C54  1  0.66430573  0.00046883  0.67944864  1.0
  C  C55  1  0.52275549  0.00040600  0.69799217  1.0
  C  C56  1  0.39201136  0.00008763  0.67511199  1.0
  C  C57  1  0.40457344  0.00004012  0.63558051  1.0
  C  C58  1  0.54500197  0.00020163  0.61559303  1.0
  C  C59  1  0.67287051  0.00040003  0.63971240  1.0
  C  C60  1  0.46867033  0.22788892  0.49907582  1.0
  C  C61  1  0.61047817  0.26344105  0.49858463  1.0
  C  C62  1  0.61871607  0.34154698  0.49866087  1.0
  C  C63  1  0.48631562  0.38688332  0.49935613  1.0
  C  C64  1  0.34486307  0.34873668  0.49978453  1.0
  C  C65  1  0.33567226  0.27062502  0.49961693  1.0
  C  C66  1  0.49314082  0.46595682  0.49969951  1.0
  C  C67  1  0.49316760  0.53473654  0.50014975  1.0
  C  C68  1  0.48638029  0.61381100  0.50055060  1.0
  C  C69  1  0.61880282  0.65908665  0.49984335  1.0
  C  C70  1  0.61062352  0.73719245  0.50008518  1.0
  C  C71  1  0.46885318  0.77279886  0.50091988  1.0
  C  C72  1  0.33582946  0.73015137  0.50170736  1.0
  C  C73  1  0.34500203  0.65203822  0.50161859  1.0
  C  C74  1  0.44834212  0.22956002  0.00041592  1.0
  C  C75  1  0.30688553  0.26550724  0.00085088  1.0
  C  C76  1  0.29905035  0.34362293  0.00111489  1.0
  C  C77  1  0.43164835  0.38880657  0.00093567  1.0
  C  C78  1  0.57280395  0.35026729  0.00052393  1.0
  C  C79  1  0.58162428  0.27208423  0.00028449  1.0
  C  C80  1  0.42524628  0.46798085  0.00112225  1.0
  C  C81  1  0.42509914  0.53680740  0.00115651  1.0
  C  C82  1  0.43126468  0.61599392  0.00106173  1.0
  C  C83  1  0.29853940  0.66116972  0.00108162  1.0
  C  C84  1  0.30617477  0.73931370  0.00082412  1.0
  C  C85  1  0.44753213  0.77529382  0.00056890  1.0
  C  C86  1  0.58093258  0.73278349  0.00061362  1.0
  C  C87  1  0.57231102  0.65458283  0.00085229  1.0
  Cl  Cl88  1  0.18075131  0.40085061  0.50066063  1.0
  Cl  Cl89  1  0.79354926  0.38444407  0.49795467  1.0
  Cl  Cl90  1  0.18082915  0.60001651  0.50280945  1.0
  Cl  Cl91  1  0.79354850  0.61610542  0.49855299  1.0
  Cl  Cl92  1  0.73721413  0.40211690  0.00027899  1.0
  Cl  Cl93  1  0.12438051  0.38667697  0.00172492  1.0
  Cl  Cl94  1  0.73689433  0.60278652  0.00087129  1.0
  Cl  Cl95  1  0.12395607  0.61809853  0.00137068  1.0
  O  O96  1  0.58864817  0.10972593  0.49905150  1.0
  O  O97  1  0.33116706  0.11177994  0.49945187  1.0
  O  O98  1  0.42823369  0.00034230  0.44491460  1.0
  O  O99  1  0.68448290  0.00024631  0.44300357  1.0
  O  O100  1  0.33131011  0.88894061  0.50087349  1.0
  O  O101  1  0.58879520  0.89090607  0.50061209  1.0
  O  O102  1  0.68519438  0.00024921  0.55646792  1.0
  O  O103  1  0.42894912  0.00030833  0.55510349  1.0
  O  O104  1  0.32636616  0.11178930  0.00000519  1.0
  O  O105  1  0.58348555  0.11250701  0.99994743  1.0
  O  O106  1  0.47299761  0.00090685  0.05543195  1.0
  O  O107  1  0.21599691  0.00145475  0.05585712  1.0
  O  O108  1  0.58271527  0.89224499  0.00002416  1.0
  O  O109  1  0.32558136  0.89320978  0.00015380  1.0
  O  O110  1  0.21614732  0.00374367  0.94440990  1.0
  O  O111  1  0.47315194  0.00395470  0.94446418  1.0
  F  F112  1  0.08186446  0.00061559  0.12534827  1.0
  F  F113  1  0.11184818  0.00028087  0.20055812  1.0
  F  F114  1  0.27121936  0.00037827  0.38401138  1.0
  F  F115  1  0.81254038  0.99994245  0.37505244  1.0
  F  F116  1  0.08241873  0.00447474  0.87512051  1.0
  F  F117  1  0.11249106  0.00319999  0.79987400  1.0
  F  F118  1  0.27210978  0.99978412  0.61624251  1.0
  F  F119  1  0.81344978  0.00059432  0.62424899  1.0
