# generated using pymatgen
data_AlH6C24(ClO)6
_symmetry_space_group_name_H-M   'P 1'
_cell_length_a   3.99724873
_cell_length_b   29.21752754
_cell_length_c   29.21807569
_cell_angle_alpha   120.00020152
_cell_angle_beta   90.00069669
_cell_angle_gamma   89.99968518
_symmetry_Int_Tables_number   1
_chemical_formula_structural   AlH6C24(ClO)6
_chemical_formula_sum   'Al2 H12 C48 Cl12 O12'
_cell_volume   2955.19398957
_cell_formula_units_Z   2
loop_
 _symmetry_equiv_pos_site_id
 _symmetry_equiv_pos_as_xyz
  1  'x, y, z'
loop_
 _atom_site_type_symbol
 _atom_site_label
 _atom_site_symmetry_multiplicity
 _atom_site_fract_x
 _atom_site_fract_y
 _atom_site_fract_z
 _atom_site_occupancy
  Al  Al0  1  0.99998883  0.99999895  0.49999906  1.0
  Al  Al1  1  0.00043913  0.33332526  0.16665969  1.0
  H  H2  1  0.49833803  0.57945479  0.36369852  1.0
  H  H3  1  0.50199429  0.57946767  0.21575922  1.0
  H  H4  1  0.50203365  0.75386406  0.45090603  1.0
  H  H5  1  0.49803214  0.75386311  0.30296631  1.0
  H  H6  1  0.49835684  0.13629298  0.21576711  1.0
  H  H7  1  0.50197044  0.28424547  0.36371011  1.0
  H  H8  1  0.50202711  0.04909392  0.30296463  1.0
  H  H9  1  0.49801296  0.19703494  0.45090292  1.0
  H  H10  1  0.49832650  0.28424628  0.92053534  1.0
  H  H11  1  0.50193662  0.13628723  0.92051667  1.0
  H  H12  1  0.50205824  0.19703962  0.74612833  1.0
  H  H13  1  0.49803812  0.04909916  0.74612716  1.0
  C  C14  1  0.49999265  0.04081349  0.58162335  1.0
  C  C15  1  0.49999216  0.91837248  0.45918770  1.0
  C  C16  1  0.49998496  0.04081085  0.45918686  1.0
  C  C17  1  0.50044581  0.41494818  0.20746140  1.0
  C  C18  1  0.50046551  0.29252365  0.20748046  1.0
  C  C19  1  0.50043781  0.29250718  0.08503808  1.0
  C  C20  1  0.50038347  0.47437615  0.23717862  1.0
  C  C21  1  0.50152609  0.50347324  0.29286360  1.0
  C  C22  1  0.50034047  0.55846578  0.32072077  1.0
  C  C23  1  0.50014367  0.58665304  0.29332458  1.0
  C  C24  1  0.50003174  0.55847244  0.23774122  1.0
  C  C25  1  0.49907342  0.50347912  0.21059589  1.0
  C  C26  1  0.50008131  0.64256523  0.32128324  1.0
  C  C27  1  0.50006146  0.69076729  0.34538754  1.0
  C  C28  1  0.50003662  0.74668303  0.37334523  1.0
  C  C29  1  0.49998594  0.77486363  0.42893133  1.0
  C  C30  1  0.49893788  0.82984707  0.45606693  1.0
  C  C31  1  0.49999446  0.85895162  0.42947883  1.0
  C  C32  1  0.50107337  0.82984742  0.37378722  1.0
  C  C33  1  0.50006748  0.77486359  0.34594227  1.0
  C  C34  1  0.50041477  0.26280848  0.23719332  1.0
  C  C35  1  0.50156506  0.20712329  0.21061092  1.0
  C  C36  1  0.50035587  0.17927116  0.23775096  1.0
  C  C37  1  0.50013258  0.20667478  0.29333566  1.0
  C  C38  1  0.50002768  0.26225776  0.32073304  1.0
  C  C39  1  0.49909287  0.28939812  0.29288083  1.0
  C  C40  1  0.50004921  0.17871910  0.32129051  1.0
  C  C41  1  0.50001814  0.15461396  0.34538722  1.0
  C  C42  1  0.50001232  0.12665513  0.37334426  1.0
  C  C43  1  0.49997462  0.07106898  0.34593879  1.0
  C  C44  1  0.49893307  0.04393376  0.37378604  1.0
  C  C45  1  0.49998568  0.07052126  0.42947709  1.0
  C  C46  1  0.50106155  0.12621333  0.45606414  1.0
  C  C47  1  0.50004920  0.15406031  0.42892803  1.0
  C  C48  1  0.50035828  0.26279832  0.02560894  1.0
  C  C49  1  0.50150931  0.28939001  0.99651449  1.0
  C  C50  1  0.50030664  0.26225553  0.94152298  1.0
  C  C51  1  0.50009129  0.20667058  0.91333469  1.0
  C  C52  1  0.49996038  0.17926542  0.94151278  1.0
  C  C53  1  0.49901656  0.20711207  0.99650477  1.0
  C  C54  1  0.50006441  0.17871881  0.85742561  1.0
  C  C55  1  0.50005029  0.15461675  0.80922169  1.0
  C  C56  1  0.50005092  0.12665945  0.75330847  1.0
  C  C57  1  0.50000921  0.15406618  0.72512843  1.0
  C  C58  1  0.49895416  0.12621756  0.67014675  1.0
  C  C59  1  0.50000214  0.07052550  0.64104311  1.0
  C  C60  1  0.50107959  0.04393844  0.67014568  1.0
  C  C61  1  0.50008074  0.07107409  0.72512922  1.0
  Cl  Cl62  1  0.49054313  0.47160218  0.32905171  1.0
  Cl  Cl63  1  0.51011370  0.47161918  0.14253768  1.0
  Cl  Cl64  1  0.51009787  0.86172006  0.52411799  1.0
  Cl  Cl65  1  0.48986106  0.86171888  0.33760784  1.0
  Cl  Cl66  1  0.49063818  0.17092735  0.14255168  1.0
  Cl  Cl67  1  0.51015116  0.35745768  0.32907224  1.0
  Cl  Cl68  1  0.51012545  0.97588116  0.33760753  1.0
  Cl  Cl69  1  0.48987609  0.16239252  0.52411481  1.0
  Cl  Cl70  1  0.49056747  0.35744987  0.02838698  1.0
  Cl  Cl71  1  0.51006921  0.17091203  0.02836369  1.0
  Cl  Cl72  1  0.51010733  0.16239757  0.63827477  1.0
  Cl  Cl73  1  0.48986424  0.97588621  0.63827289  1.0
  O  O74  1  0.26284954  0.00831515  0.44975113  1.0
  O  O75  1  0.26285340  0.05024842  0.55856325  1.0
  O  O76  1  0.26285251  0.94143361  0.49168309  1.0
  O  O77  1  0.73712178  0.05024674  0.49168128  1.0
  O  O78  1  0.73712195  0.94143143  0.44975186  1.0
  O  O79  1  0.73712536  0.00831747  0.55856445  1.0
  O  O80  1  0.26333588  0.28307460  0.10810510  1.0
  O  O81  1  0.26333676  0.39188032  0.17496189  1.0
  O  O82  1  0.26334974  0.32502131  0.21691094  1.0
  O  O83  1  0.73760384  0.32500321  0.10809808  1.0
  O  O84  1  0.73761492  0.28308539  0.17498218  1.0
  O  O85  1  0.73760475  0.39188726  0.21689906  1.0
