# generated using pymatgen
data_Zr3H10C50(NO)16
_symmetry_space_group_name_H-M   'P 1'
_cell_length_a   15.32662714
_cell_length_b   17.71942042
_cell_length_c   17.72844873
_cell_angle_alpha   88.15157063
_cell_angle_beta   89.97086162
_cell_angle_gamma   89.97990653
_symmetry_Int_Tables_number   1
_chemical_formula_structural   Zr3H10C50(NO)16
_chemical_formula_sum   'Zr6 H20 C100 N32 O32'
_cell_volume   4812.16729885
_cell_formula_units_Z   2
loop_
 _symmetry_equiv_pos_site_id
 _symmetry_equiv_pos_as_xyz
  1  'x, y, z'
loop_
 _atom_site_type_symbol
 _atom_site_label
 _atom_site_symmetry_multiplicity
 _atom_site_fract_x
 _atom_site_fract_y
 _atom_site_fract_z
 _atom_site_occupancy
  Zr  Zr0  1  0.99514481  0.14186801  0.99843373  1.0
  Zr  Zr1  1  0.99131404  0.99533007  0.14376427  1.0
  Zr  Zr2  1  0.99251741  0.00447376  0.85589155  1.0
  Zr  Zr3  1  0.99376238  0.85932956  0.99893569  1.0
  Zr  Zr4  1  0.15624416  0.99994600  0.99941607  1.0
  Zr  Zr5  1  0.83062882  0.00058087  0.99884786  1.0
  H  H6  1  0.86904407  0.11536241  0.10960056  1.0
  H  H7  1  0.11094208  0.88268777  0.12098511  1.0
  H  H8  1  0.86929119  0.88465363  0.88752982  1.0
  H  H9  1  0.11804783  0.11505114  0.88158888  1.0
  H  H10  1  0.95668447  0.88282607  0.24579104  1.0
  H  H11  1  0.93649704  0.75140487  0.11057704  1.0
  H  H12  1  0.03062294  0.75469582  0.89697046  1.0
  H  H13  1  0.99015012  0.84935858  0.83345337  1.0
  H  H14  1  0.95468200  0.11691337  0.75232075  1.0
  H  H15  1  0.99124364  0.17057827  0.84443448  1.0
  H  H16  1  0.03632827  0.24397504  0.10211423  1.0
  H  H17  1  0.99135103  0.15054834  0.16503156  1.0
  H  H18  1  0.03836381  0.88271803  0.75894255  1.0
  H  H19  1  0.03570632  0.24746611  0.87288567  1.0
  H  H20  1  0.03540597  0.11673738  0.24130134  1.0
  H  H21  1  0.04070985  0.74565422  0.12340563  1.0
  H  H22  1  0.65626403  0.50077533  0.99339935  1.0
  H  H23  1  0.33560194  0.49959059  0.99587706  1.0
  H  H24  1  0.65346950  0.99869103  0.49822276  1.0
  H  H25  1  0.33293624  0.99816139  0.49916663  1.0
  C  C26  1  0.20634636  0.17738704  0.00218271  1.0
  C  C27  1  0.77837960  0.99554697  0.17390795  1.0
  C  C28  1  0.20719713  0.00187352  0.17340763  1.0
  C  C29  1  0.78245310  0.17612205  0.98874817  1.0
  C  C30  1  0.78203470  0.00487107  0.82133196  1.0
  C  C31  1  0.20621768  0.82318284  0.99349832  1.0
  C  C32  1  0.77903171  0.82539405  0.00982463  1.0
  C  C33  1  0.20511443  0.99909266  0.82250258  1.0
  C  C34  1  0.54227624  0.43094457  0.99386761  1.0
  C  C35  1  0.45018527  0.43061335  0.99474358  1.0
  C  C36  1  0.40656053  0.49986889  0.99553860  1.0
  C  C37  1  0.44947517  0.56939142  0.99614090  1.0
  C  C38  1  0.54160016  0.56968719  0.99558307  1.0
  C  C39  1  0.58525862  0.50051871  0.99402086  1.0
  C  C40  1  0.53901141  0.99703134  0.42926789  1.0
  C  C41  1  0.44688841  0.99776019  0.42942040  1.0
  C  C42  1  0.40391820  0.99832285  0.49894931  1.0
  C  C43  1  0.44734279  0.99935707  0.56822138  1.0
  C  C44  1  0.53947263  0.00044562  0.56797831  1.0
  C  C45  1  0.58248451  0.99867021  0.49848963  1.0
  C  C46  1  0.71419653  0.00565860  0.75970773  1.0
  C  C47  1  0.64615526  0.95279579  0.75940815  1.0
  C  C48  1  0.58950378  0.94941101  0.69604788  1.0
  C  C49  1  0.59562451  0.00304025  0.63586216  1.0
  C  C50  1  0.66172171  0.05859176  0.63879098  1.0
  C  C51  1  0.72181274  0.05832914  0.69903441  1.0
  C  C52  1  0.63287409  0.89976353  0.82061776  1.0
  C  C53  1  0.67038427  0.11499088  0.57999420  1.0
  C  C54  1  0.78983216  0.11326836  0.69825110  1.0
  C  C55  1  0.52973956  0.88806930  0.69224644  1.0
  C  C56  1  0.39106374  0.99906661  0.63628189  1.0
  C  C57  1  0.32634357  0.94250661  0.64490104  1.0
  C  C58  1  0.26691677  0.94335927  0.70555980  1.0
  C  C59  1  0.27223721  0.99887554  0.76020664  1.0
  C  C60  1  0.33693155  0.05455308  0.75300243  1.0
  C  C61  1  0.39498747  0.05559393  0.69033717  1.0
  C  C62  1  0.31846647  0.88410594  0.59178573  1.0
  C  C63  1  0.34210982  0.11323133  0.80609773  1.0
  C  C64  1  0.45452720  0.11690767  0.68080915  1.0
  C  C65  1  0.20125355  0.88652640  0.71158039  1.0
  C  C66  1  0.71050529  0.99385390  0.23543623  1.0
  C  C67  1  0.64393954  0.04790638  0.23795010  1.0
  C  C68  1  0.58796781  0.05019651  0.30186166  1.0
  C  C69  1  0.59443449  0.99525725  0.36082278  1.0
  C  C70  1  0.65972606  0.93908201  0.35605337  1.0
  C  C71  1  0.71804826  0.93938738  0.29454072  1.0
  C  C72  1  0.63264785  0.10316611  0.17841466  1.0
  C  C73  1  0.66921782  0.88215772  0.41425153  1.0
  C  C74  1  0.78370281  0.88246034  0.29126676  1.0
  C  C75  1  0.52866233  0.11172532  0.30742224  1.0
  C  C76  1  0.27396918  0.00125341  0.23593760  1.0
  C  C77  1  0.26726010  0.05540704  0.29192727  1.0
  C  C78  1  0.32586867  0.05524641  0.35316746  1.0
  C  C79  1  0.39076973  0.99872497  0.36128273  1.0
  C  C80  1  0.39538661  0.94308074  0.30636112  1.0
  C  C81  1  0.33851838  0.94539303  0.24289148  1.0
  C  C82  1  0.20092995  0.11183036  0.28732248  1.0
  C  C83  1  0.45415006  0.88115049  0.31582334  1.0
  C  C84  1  0.34475753  0.88737055  0.18910649  1.0
  C  C85  1  0.31690057  0.11239158  0.40757785  1.0
  C  C86  1  0.59654768  0.63836742  0.99799181  1.0
  C  C87  1  0.66052852  0.65165036  0.94153084  1.0
  C  C88  1  0.71611671  0.71488322  0.94429145  1.0
  C  C89  1  0.71125147  0.76402947  0.00485290  1.0
  C  C90  1  0.64658278  0.75286634  0.05975689  1.0
  C  C91  1  0.58978813  0.68964353  0.05683499  1.0
  C  C92  1  0.67097400  0.60078179  0.88141386  1.0
  C  C93  1  0.63779140  0.80440994  0.11938229  1.0
  C  C94  1  0.52865084  0.67725680  0.11648295  1.0
  C  C95  1  0.77311615  0.73316121  0.88281094  1.0
  C  C96  1  0.39340507  0.63751287  0.99700920  1.0
  C  C97  1  0.40016514  0.69674411  0.94226182  1.0
  C  C98  1  0.34306296  0.76002572  0.94331275  1.0
  C  C99  1  0.27485795  0.76197186  0.99583284  1.0
  C  C100  1  0.26757733  0.70282418  0.05025776  1.0
  C  C101  1  0.32660676  0.64176555  0.05185520  1.0
  C  C102  1  0.46083690  0.69238831  0.88164872  1.0
  C  C103  1  0.20011732  0.70522813  0.10543707  1.0
  C  C104  1  0.31506634  0.58348207  0.10839654  1.0
  C  C105  1  0.35492330  0.81973937  0.88839333  1.0
  C  C106  1  0.71446180  0.23753013  0.99116119  1.0
  C  C107  1  0.64946043  0.24601987  0.93611699  1.0
  C  C108  1  0.59188442  0.30892183  0.93664091  1.0
  C  C109  1  0.59811130  0.36263274  0.99327592  1.0
  C  C110  1  0.66251296  0.35220113  0.04981839  1.0
  C  C111  1  0.71913141  0.28946483  0.04933263  1.0
  C  C112  1  0.64078321  0.19243026  0.87827955  1.0
  C  C113  1  0.67242111  0.40557116  0.10780534  1.0
  C  C114  1  0.77714795  0.27570103  0.11110057  1.0
  C  C115  1  0.53018545  0.31853096  0.87702632  1.0
  C  C116  1  0.27474666  0.23872263  0.99919794  1.0
  C  C117  1  0.34338915  0.24103769  0.05123645  1.0
  C  C118  1  0.40102173  0.30399276  0.05098854  1.0
  C  C119  1  0.39433791  0.36230925  0.99529920  1.0
  C  C120  1  0.32703785  0.35766871  0.94109177  1.0
  C  C121  1  0.26700431  0.29741485  0.94433613  1.0
  C  C122  1  0.35474993  0.18234001  0.10731516  1.0
  C  C123  1  0.31626352  0.41498865  0.88345584  1.0
  C  C124  1  0.19813528  0.29635771  0.89044954  1.0
  C  C125  1  0.46214322  0.30923349  0.11110261  1.0
  N  N126  1  0.84590641  0.15782616  0.69682916  1.0
  N  N127  1  0.48165032  0.83722201  0.68851323  1.0
  N  N128  1  0.68032534  0.15983798  0.53101601  1.0
  N  N129  1  0.61720033  0.85547053  0.86883311  1.0
  N  N130  1  0.50307071  0.16735038  0.67293327  1.0
  N  N131  1  0.14675920  0.84065671  0.71658307  1.0
  N  N132  1  0.34583963  0.16235830  0.84824805  1.0
  N  N133  1  0.30826514  0.83755647  0.54747053  1.0
  N  N134  1  0.83708703  0.83574209  0.28755129  1.0
  N  N135  1  0.48075822  0.16263816  0.31213817  1.0
  N  N136  1  0.68013507  0.83725003  0.46299961  1.0
  N  N137  1  0.62033028  0.14895386  0.13083688  1.0
  N  N138  1  0.34995998  0.83828940  0.14699461  1.0
  N  N139  1  0.30603840  0.15760102  0.45315298  1.0
  N  N140  1  0.50177628  0.83004345  0.32372705  1.0
  N  N141  1  0.14634648  0.15777430  0.28469145  1.0
  N  N142  1  0.47848696  0.66783434  0.16550713  1.0
  N  N143  1  0.81553912  0.75341860  0.83131598  1.0
  N  N144  1  0.62963966  0.84712808  0.16759732  1.0
  N  N145  1  0.68351224  0.55721643  0.83456289  1.0
  N  N146  1  0.30081933  0.53490488  0.15277745  1.0
  N  N147  1  0.36762253  0.86762646  0.84303954  1.0
  N  N148  1  0.14409200  0.70845609  0.14973471  1.0
  N  N149  1  0.50910771  0.68931824  0.83085272  1.0
  N  N150  1  0.82031004  0.26117976  0.16385605  1.0
  N  N151  1  0.47925369  0.32597032  0.82835428  1.0
  N  N152  1  0.68440063  0.45121110  0.15273845  1.0
  N  N153  1  0.63169549  0.14891260  0.83091514  1.0
  N  N154  1  0.14109571  0.29596812  0.84694517  1.0
  N  N155  1  0.51102736  0.31359688  0.16127995  1.0
  N  N156  1  0.30336748  0.46294332  0.83809811  1.0
  N  N157  1  0.36662488  0.13537891  0.15380363  1.0
  O  O158  1  0.12849423  0.20178318  0.00069754  1.0
  O  O159  1  0.23253541  0.10974425  0.00488830  1.0
  O  O160  1  0.85579500  0.99249848  0.19815799  1.0
  O  O161  1  0.75197184  0.00050915  0.10618554  1.0
  O  O162  1  0.12992708  0.01040155  0.19559159  1.0
  O  O163  1  0.23444151  0.99302702  0.10653486  1.0
  O  O164  1  0.85989617  0.19997026  0.98727026  1.0
  O  O165  1  0.75533471  0.10843407  0.98983851  1.0
  O  O166  1  0.99321457  0.20466280  0.09526264  1.0
  O  O167  1  0.99215990  0.20902094  0.88797125  1.0
  O  O168  1  0.99013476  0.10562103  0.20414185  1.0
  O  O169  1  0.00262286  0.90999161  0.21825003  1.0
  O  O170  1  0.06380166  0.05658666  0.05620561  1.0
  O  O171  1  0.90132688  0.08067803  0.07850492  1.0
  O  O172  1  0.86004881  0.00798842  0.79775081  1.0
  O  O173  1  0.75512280  0.00028102  0.88877193  1.0
  O  O174  1  0.12854811  0.79862980  0.99416132  1.0
  O  O175  1  0.23241632  0.89074304  0.99186066  1.0
  O  O176  1  0.85630034  0.80087492  0.01717098  1.0
  O  O177  1  0.75288904  0.89294616  0.00457353  1.0
  O  O178  1  0.12722262  0.99364456  0.79977867  1.0
  O  O179  1  0.23267324  0.00513270  0.88939980  1.0
  O  O180  1  0.99162225  0.89473285  0.79454539  1.0
  O  O181  1  0.99741536  0.10453671  0.79182572  1.0
  O  O182  1  0.98891487  0.79538975  0.90267496  1.0
  O  O183  1  0.99317462  0.76820568  0.09205648  1.0
  O  O184  1  0.90107410  0.91914303  0.91924699  1.0
  O  O185  1  0.06320338  0.94263545  0.94119703  1.0
  O  O186  1  0.92437839  0.05923957  0.93911106  1.0
  O  O187  1  0.08360976  0.91425011  0.08177381  1.0
  O  O188  1  0.08664436  0.08233712  0.91726018  1.0
  O  O189  1  0.92200600  0.93971479  0.05947811  1.0
