# generated using pymatgen
data_AlH6C21N(ClO)6
_symmetry_space_group_name_H-M   'P 1'
_cell_length_a   4.15362652
_cell_length_b   13.50087569
_cell_length_c   13.50092000
_cell_angle_alpha   119.99941349
_cell_angle_beta   89.99960822
_cell_angle_gamma   89.99954873
_symmetry_Int_Tables_number   1
_chemical_formula_structural   AlH6C21N(ClO)6
_chemical_formula_sum   'Al1 H6 C21 N1 Cl6 O6'
_cell_volume   655.67095290
_cell_formula_units_Z   1
loop_
 _symmetry_equiv_pos_site_id
 _symmetry_equiv_pos_as_xyz
  1  'x, y, z'
loop_
 _atom_site_type_symbol
 _atom_site_label
 _atom_site_symmetry_multiplicity
 _atom_site_fract_x
 _atom_site_fract_y
 _atom_site_fract_z
 _atom_site_occupancy
  Al  Al0  1  0.99998851  0.99999752  0.50000098  1.0
  H  H1  1  0.76911913  0.12738737  0.09862725  1.0
  H  H2  1  0.23089382  0.40137955  0.37261241  1.0
  H  H3  1  0.23091068  0.12738653  0.02877366  1.0
  H  H4  1  0.76911633  0.40137045  0.02876478  1.0
  H  H5  1  0.23091992  0.47122931  0.09862020  1.0
  H  H6  1  0.76911174  0.47122700  0.37261016  1.0
  C  C7  1  0.49995018  0.08706800  0.67413926  1.0
  C  C8  1  0.50002378  0.82585735  0.41291384  1.0
  C  C9  1  0.50001076  0.08707068  0.41293692  1.0
  C  C10  1  0.64068463  0.10529750  0.24000175  1.0
  C  C11  1  0.65004257  0.16554097  0.18126921  1.0
  C  C12  1  0.49998238  0.27266174  0.22734533  1.0
  C  C13  1  0.34996141  0.31873767  0.33446779  1.0
  C  C14  1  0.35935091  0.26000798  0.39471195  1.0
  C  C15  1  0.50001303  0.15141270  0.34858824  1.0
  C  C16  1  0.34992032  0.16553434  0.98428483  1.0
  C  C17  1  0.35931176  0.10529207  0.86530191  1.0
  C  C18  1  0.49998890  0.15140610  0.80283102  1.0
  C  C19  1  0.64069037  0.25999376  0.86529987  1.0
  C  C20  1  0.65003679  0.31872730  0.98427651  1.0
  C  C21  1  0.49997952  0.27266045  0.04531931  1.0
  C  C22  1  0.34993975  0.51572078  0.18126812  1.0
  C  C23  1  0.35932697  0.63470210  0.23999153  1.0
  C  C24  1  0.50002132  0.69716525  0.34857661  1.0
  C  C25  1  0.64068667  0.63470464  0.39470269  1.0
  C  C26  1  0.65007102  0.51571730  0.33446006  1.0
  C  C27  1  0.49999206  0.45468418  0.22734254  1.0
  N  N28  1  0.49998224  0.33333033  0.16666773  1.0
  Cl  Cl29  1  0.19202738  0.32398807  0.52988740  1.0
  Cl  Cl30  1  0.80802277  0.97012372  0.17601292  1.0
  Cl  Cl31  1  0.19198339  0.97011227  0.79411241  1.0
  Cl  Cl32  1  0.80798508  0.32399163  0.79411791  1.0
  Cl  Cl33  1  0.19202955  0.70588929  0.17600061  1.0
  Cl  Cl34  1  0.80796703  0.70589734  0.52988207  1.0
  O  O35  1  0.26324280  0.02105258  0.39569110  1.0
  O  O36  1  0.26321759  0.10430954  0.62537448  1.0
  O  O37  1  0.26324140  0.87462700  0.47892842  1.0
  O  O38  1  0.73674994  0.10431887  0.47895083  1.0
  O  O39  1  0.73676585  0.87463077  0.39567176  1.0
  O  O40  1  0.73673260  0.02104816  0.62536606  1.0
