# generated using pymatgen
data_ZnH11C21N(ClO3)2
_symmetry_space_group_name_H-M   'P 1'
_cell_length_a   10.92755625
_cell_length_b   16.39289810
_cell_length_c   17.61172440
_cell_angle_alpha   95.18669010
_cell_angle_beta   90.22186403
_cell_angle_gamma   91.87128057
_symmetry_Int_Tables_number   1
_chemical_formula_structural   ZnH11C21N(ClO3)2
_chemical_formula_sum   'Zn2 H22 C42 N2 Cl4 O12'
_cell_volume   3140.19700610
_cell_formula_units_Z   2
loop_
 _symmetry_equiv_pos_site_id
 _symmetry_equiv_pos_as_xyz
  1  'x, y, z'
loop_
 _atom_site_type_symbol
 _atom_site_label
 _atom_site_symmetry_multiplicity
 _atom_site_fract_x
 _atom_site_fract_y
 _atom_site_fract_z
 _atom_site_occupancy
  Zn  Zn0  1  0.50610159  0.40935839  0.49734809  1.0
  Zn  Zn1  1  0.51368712  0.58610777  0.50449968  1.0
  H  H2  1  0.53269052  0.70551892  0.38719019  1.0
  H  H3  1  0.55968432  0.85660974  0.38154815  1.0
  H  H4  1  0.52442667  0.88318288  0.62712357  1.0
  H  H5  1  0.50662321  0.72911705  0.62223535  1.0
  H  H6  1  0.32386196  0.11882291  0.43047629  1.0
  H  H7  1  0.63269252  0.13650953  0.58602673  1.0
  H  H8  1  0.64266887  0.28768328  0.57314164  1.0
  H  H9  1  0.34677749  0.27098646  0.42497523  1.0
  H  H10  1  0.44850509  0.61812279  0.27025753  1.0
  H  H11  1  0.41291214  0.61174302  0.13045548  1.0
  H  H12  1  0.54050486  0.36480526  0.10632484  1.0
  H  H13  1  0.57088259  0.37040106  0.24751113  1.0
  H  H14  1  0.49871615  0.65583852  0.89213285  1.0
  H  H15  1  0.52452851  0.39331258  0.87678444  1.0
  H  H16  1  0.50920671  0.38874923  0.73504582  1.0
  H  H17  1  0.48066592  0.65000860  0.75047273  1.0
  H  H18  1  0.76923741  0.59185249  0.41577787  1.0
  H  H19  1  0.21985857  0.59473483  0.38172907  1.0
  H  H20  1  0.13439841  0.39590892  0.55980162  1.0
  H  H21  1  0.90669036  0.39428003  0.57503548  1.0
  H  H22  1  0.69631394  0.63409030  0.32915219  1.0
  H  H23  1  0.17384553  0.76298812  0.37611403  1.0
  C  C24  1  0.53110693  0.49816583  0.35165319  1.0
  C  C25  1  0.27486961  0.48836955  0.48144636  1.0
  C  C26  1  0.48908910  0.51521384  0.64891717  1.0
  C  C27  1  0.74491871  0.48618793  0.51126230  1.0
  C  C28  1  0.53251788  0.74725085  0.43879723  1.0
  C  C29  1  0.54647655  0.83141818  0.43617893  1.0
  C  C30  1  0.54367831  0.88217495  0.50437140  1.0
  C  C31  1  0.52767026  0.84584016  0.57280329  1.0
  C  C32  1  0.51725985  0.76086206  0.57073355  1.0
  C  C33  1  0.55930365  0.97208945  0.50292127  1.0
  C  C34  1  0.46789581  0.02555984  0.51266032  1.0
  C  C35  1  0.39615904  0.15383854  0.46281640  1.0
  C  C36  1  0.47798688  0.11489070  0.50812722  1.0
  C  C37  1  0.56827016  0.16345742  0.54905814  1.0
  C  C38  1  0.57408450  0.24732966  0.54260088  1.0
  C  C39  1  0.40839082  0.23799072  0.45920713  1.0
  C  C40  1  0.51346276  0.49484756  0.26729677  1.0
  C  C41  1  0.46936711  0.56284103  0.23417397  1.0
  C  C42  1  0.44961948  0.55939067  0.15583350  1.0
  C  C43  1  0.47663269  0.48834040  0.10935955  1.0
  C  C44  1  0.52017404  0.42010824  0.14260827  1.0
  C  C45  1  0.53760004  0.42309243  0.22105491  1.0
  C  C46  1  0.45860356  0.48454494  0.02588385  1.0
  C  C47  1  0.52373882  0.52837076  0.97764026  1.0
  C  C48  1  0.49959621  0.59716278  0.85768596  1.0
  C  C49  1  0.51098643  0.52487468  0.89396226  1.0
  C  C50  1  0.51397113  0.44957000  0.84923608  1.0
  C  C51  1  0.50553274  0.44678938  0.77023953  1.0
  C  C52  1  0.49362641  0.51890188  0.73415643  1.0
  C  C53  1  0.49012110  0.59409155  0.77870158  1.0
  C  C54  1  0.88089873  0.48846478  0.50065174  1.0
  C  C55  1  0.93742737  0.54160738  0.45026242  1.0
  C  C56  1  0.95137877  0.43593470  0.53814033  1.0
  C  C57  1  0.86763327  0.59203599  0.40655455  1.0
  C  C58  1  0.92099021  0.64225061  0.35634927  1.0
  C  C59  1  0.13785946  0.48948191  0.48314374  1.0
  C  C60  1  0.07897801  0.43664612  0.52944040  1.0
  C  C61  1  0.06788163  0.54250946  0.44133944  1.0
  C  C62  1  0.12099972  0.59446886  0.38914404  1.0
  C  C63  1  0.05077297  0.64332487  0.34761769  1.0
  C  C64  1  0.84705280  0.70133615  0.31731108  1.0
  C  C65  1  0.11641089  0.69146428  0.29027183  1.0
  N  N66  1  0.51980322  0.71237409  0.50481710  1.0
  N  N67  1  0.49589049  0.28385993  0.49838101  1.0
  Cl  Cl68  1  0.70597405  0.00386631  0.48004331  1.0
  Cl  Cl69  1  0.32067315  0.98704754  0.52691815  1.0
  Cl  Cl70  1  0.34038124  0.41738085  0.99131086  1.0
  Cl  Cl71  1  0.63875638  0.59622092  0.01573431  1.0
  O  O72  1  0.52019090  0.43162481  0.38291208  1.0
  O  O73  1  0.55548032  0.56912674  0.38691157  1.0
  O  O74  1  0.33416898  0.55610992  0.47727309  1.0
  O  O75  1  0.32148378  0.41898321  0.48670698  1.0
  O  O76  1  0.48145101  0.58290545  0.61867135  1.0
  O  O77  1  0.49440991  0.44465757  0.61258599  1.0
  O  O78  1  0.69291077  0.41530779  0.50705387  1.0
  O  O79  1  0.69243553  0.55433595  0.52257271  1.0
  O  O80  1  0.72455455  0.68550583  0.30891031  1.0
  O  O81  1  0.89256147  0.76391994  0.29523188  1.0
  O  O82  1  0.19005327  0.75537327  0.32145333  1.0
  O  O83  1  0.11591098  0.67258588  0.22216990  1.0
