# generated using pymatgen
data_AlH6C24(OF)6
_symmetry_space_group_name_H-M   'P 1'
_cell_length_a   3.93403330
_cell_length_b   29.04142855
_cell_length_c   29.04100869
_cell_angle_alpha   120.00035653
_cell_angle_beta   90.01629245
_cell_angle_gamma   89.98253406
_symmetry_Int_Tables_number   1
_chemical_formula_structural   AlH6C24(OF)6
_chemical_formula_sum   'Al2 H12 C48 O12 F12'
_cell_volume   2873.40438496
_cell_formula_units_Z   2
loop_
 _symmetry_equiv_pos_site_id
 _symmetry_equiv_pos_as_xyz
  1  'x, y, z'
loop_
 _atom_site_type_symbol
 _atom_site_label
 _atom_site_symmetry_multiplicity
 _atom_site_fract_x
 _atom_site_fract_y
 _atom_site_fract_z
 _atom_site_occupancy
  Al  Al0  1  0.99986164  0.50003902  0.00006341  1.0
  Al  Al1  1  0.99988860  0.83337064  0.66672520  1.0
  H  H2  1  0.31011637  0.68973423  0.51952848  1.0
  H  H3  1  0.68931978  0.82981311  0.51953633  1.0
  H  H4  1  0.68962991  0.50355989  0.14722295  1.0
  H  H5  1  0.31019970  0.64367485  0.14727283  1.0
  H  H6  1  0.31026177  0.82973574  0.81032522  1.0
  H  H7  1  0.68952427  0.68970857  0.67018735  1.0
  H  H8  1  0.68923708  0.64363540  0.99640929  1.0
  H  H9  1  0.31036958  0.50347942  0.85635964  1.0
  H  H10  1  0.30999146  0.98048302  0.67018053  1.0
  H  H11  1  0.68961939  0.98060764  0.81032239  1.0
  H  H12  1  0.68916224  0.35290660  0.85638951  1.0
  H  H13  1  0.31053293  0.35276965  0.99642239  1.0
  C  C14  1  0.49991005  0.41813620  0.95909968  1.0
  C  C15  1  0.49988938  0.54099299  0.08197056  1.0
  C  C16  1  0.49974732  0.54096030  0.95908157  1.0
  C  C17  1  0.49979816  0.79241843  0.58482742  1.0
  C  C18  1  0.50000628  0.79241269  0.70766711  1.0
  C  C19  1  0.49980538  0.91526838  0.70765296  1.0
  C  C20  1  0.49972699  0.76286178  0.52571010  1.0
  C  C21  1  0.39339584  0.70971952  0.49826775  1.0
  C  C22  1  0.40304870  0.68260031  0.44328900  1.0
  C  C23  1  0.49978912  0.70674220  0.41347105  1.0
  C  C24  1  0.59646906  0.76070671  0.44329447  1.0
  C  C25  1  0.60604727  0.78856520  0.49827169  1.0
  C  C26  1  0.49989417  0.67879376  0.35759785  1.0
  C  C27  1  0.49999170  0.65455058  0.30918306  1.0
  C  C28  1  0.49995948  0.62661456  0.25331264  1.0
  C  C29  1  0.59676543  0.57265318  0.22348298  1.0
  C  C30  1  0.60634565  0.54481201  0.16850651  1.0
  C  C31  1  0.49990717  0.57053516  0.14108232  1.0
  C  C32  1  0.39349738  0.62367890  0.16853134  1.0
  C  C33  1  0.40317076  0.65077936  0.22350688  1.0
  C  C34  1  0.49993506  0.76281357  0.73717970  1.0
  C  C35  1  0.39353805  0.78848182  0.79031823  1.0
  C  C36  1  0.40312435  0.76058532  0.81739784  1.0
  C  C37  1  0.49989460  0.70661664  0.79321660  1.0
  C  C38  1  0.59661064  0.68250512  0.73925461  1.0
  C  C39  1  0.60623342  0.70966189  0.71143477  1.0
  C  C40  1  0.49991214  0.67865400  0.82112662  1.0
  C  C41  1  0.49983618  0.65443598  0.84532548  1.0
  C  C42  1  0.49985119  0.62651049  0.87327328  1.0
  C  C43  1  0.59643287  0.65069554  0.92725205  1.0
  C  C44  1  0.60602450  0.62361930  0.95515217  1.0
  C  C45  1  0.49980325  0.57047216  0.92947716  1.0
  C  C46  1  0.39357369  0.54472952  0.87632303  1.0
  C  C47  1  0.40318394  0.57254566  0.84916110  1.0
  C  C48  1  0.49983075  0.97437819  0.73717063  1.0
  C  C49  1  0.39335772  0.00177989  0.71142794  1.0
  C  C50  1  0.40294384  0.05675655  0.73924433  1.0
  C  C51  1  0.49980174  0.08660808  0.79320333  1.0
  C  C52  1  0.59663968  0.05682196  0.81738798  1.0
  C  C53  1  0.60627179  0.00184937  0.79031326  1.0
  C  C54  1  0.49983672  0.14247847  0.82111959  1.0
  C  C55  1  0.49995755  0.19090281  0.84533275  1.0
  C  C56  1  0.49996464  0.24677594  0.87329236  1.0
  C  C57  1  0.59648554  0.27663515  0.84918416  1.0
  C  C58  1  0.60605780  0.33161371  0.87634912  1.0
  C  C59  1  0.49989472  0.35901897  0.92950248  1.0
  C  C60  1  0.39372137  0.33153704  0.95516791  1.0
  C  C61  1  0.40337997  0.27656016  0.92726559  1.0
  O  O62  1  0.73456134  0.55176636  0.99334518  1.0
  O  O63  1  0.73470906  0.44160509  0.94833082  1.0
  O  O64  1  0.73477725  0.50675072  0.05850503  1.0
  O  O65  1  0.26489813  0.50673097  0.94832174  1.0
  O  O66  1  0.26500136  0.55177746  0.05850438  1.0
  O  O67  1  0.26513876  0.44159623  0.99335771  1.0
  O  O68  1  0.73467706  0.89181057  0.71845019  1.0
  O  O69  1  0.73461906  0.82666360  0.60828911  1.0
  O  O70  1  0.73487055  0.78163778  0.67343345  1.0
  O  O71  1  0.26492639  0.89179852  0.67341312  1.0
  O  O72  1  0.26520262  0.82667471  0.71846061  1.0
  O  O73  1  0.26504856  0.78163449  0.60829188  1.0
  F  F74  1  0.68763140  0.78559323  0.41633921  1.0
  F  F75  1  0.31192224  0.63075633  0.41633049  1.0
  F  F76  1  0.31203899  0.70262711  0.25047678  1.0
  F  F77  1  0.68796302  0.54774434  0.25042487  1.0
  F  F78  1  0.68769012  0.63065223  0.71432407  1.0
  F  F79  1  0.31187618  0.78543929  0.86923545  1.0
  F  F80  1  0.31212312  0.54761180  0.79730670  1.0
  F  F81  1  0.68748952  0.70254054  0.95211752  1.0
  F  F82  1  0.68786519  0.08381016  0.86923282  1.0
  F  F83  1  0.31165278  0.08367080  0.71431077  1.0
  F  F84  1  0.31235430  0.24957380  0.95212426  1.0
  F  F85  1  0.68744189  0.24972301  0.79732988  1.0
