# generated using pymatgen
data_Al6H33C66O34F5
_symmetry_space_group_name_H-M   'P 1'
_cell_length_a   10.40286537
_cell_length_b   12.39988861
_cell_length_c   23.73424019
_cell_angle_alpha   89.33857819
_cell_angle_beta   84.86099127
_cell_angle_gamma   66.62140699
_symmetry_Int_Tables_number   1
_chemical_formula_structural   Al6H33C66O34F5
_chemical_formula_sum   'Al6 H33 C66 O34 F5'
_cell_volume   2797.97558597
_cell_formula_units_Z   1
loop_
 _symmetry_equiv_pos_site_id
 _symmetry_equiv_pos_as_xyz
  1  'x, y, z'
loop_
 _atom_site_type_symbol
 _atom_site_label
 _atom_site_symmetry_multiplicity
 _atom_site_fract_x
 _atom_site_fract_y
 _atom_site_fract_z
 _atom_site_occupancy
  Al  Al0  1  0.78900586  0.59598863  0.50035711  1.0
  Al  Al1  1  0.06121710  0.35348368  0.49758500  1.0
  Al  Al2  1  0.10412381  0.57894250  0.49152829  1.0
  Al  Al3  1  0.87026937  0.02045725  0.98217203  1.0
  Al  Al4  1  0.55060184  0.03806491  0.99567011  1.0
  Al  Al5  1  0.59601108  0.26100315  0.99608979  1.0
  H  H6  1  0.37769614  0.39965461  0.14094548  1.0
  H  H7  1  0.59448488  0.53030635  0.76338346  1.0
  H  H8  1  0.63929181  0.55303747  0.65910071  1.0
  H  H9  1  0.01545706  0.23681955  0.65177157  1.0
  H  H10  1  0.22654298  0.11833183  0.25118218  1.0
  H  H11  1  0.23314805  0.58701067  0.70386576  1.0
  H  H12  1  0.41825777  0.52369512  0.68149458  1.0
  H  H13  1  0.35498869  0.61076868  0.74595161  1.0
  H  H14  1  0.46154447  0.83386214  0.89105081  1.0
  H  H15  1  0.37834037  0.85486096  0.82581565  1.0
  H  H16  1  0.30016199  0.95780636  0.88440443  1.0
  H  H17  1  0.95788175  0.32029264  0.23417401  1.0
  H  H18  1  0.55685426  0.50325486  0.25259754  1.0
  H  H19  1  0.53102125  0.55831025  0.18199635  1.0
  H  H20  1  0.57195660  0.40589868  0.19453414  1.0
  H  H21  1  0.18417864  0.68091408  0.34024059  1.0
  H  H22  1  0.32541726  0.67811219  0.29001303  1.0
  H  H23  1  0.33683584  0.69097756  0.36491144  1.0
  H  H24  1  0.80233799  0.59812393  0.16952802  1.0
  H  H25  1  0.63261556  0.68632254  0.20457407  1.0
  H  H26  1  0.74183167  0.55042804  0.23453109  1.0
  H  H27  1  0.57806751  0.28181405  0.34587878  1.0
  H  H28  1  0.30704054  0.19860664  0.74092258  1.0
  H  H29  1  0.70608907  0.13241690  0.33938111  1.0
  H  H30  1  0.55051457  0.17661191  0.30243186  1.0
  H  H31  1  0.94895389  0.85070943  0.82903854  1.0
  H  H32  1  0.09101033  0.79258050  0.73729667  1.0
  H  H33  1  0.11131124  0.73692052  0.63490290  1.0
  H  H34  1  0.65840171  0.41371802  0.84951108  1.0
  H  H35  1  0.29288595  0.08682924  0.14738139  1.0
  H  H36  1  0.04179520  0.10144350  0.84307086  1.0
  H  H37  1  0.56844756  0.73798704  0.53158124  1.0
  H  H38  1  0.09317743  0.88913450  0.00319802  1.0
  C  C39  1  0.85515215  0.37696641  0.42816129  1.0
  C  C40  1  0.82452062  0.77741589  0.22391754  1.0
  C  C41  1  0.87268745  0.83766692  0.25918223  1.0
  C  C42  1  0.23017840  0.40076740  0.40648210  1.0
  C  C43  1  0.89372791  0.80890463  0.31531240  1.0
  C  C44  1  0.79734143  0.81123966  0.16811842  1.0
  C  C45  1  0.90454991  0.77316503  0.36362008  1.0
  C  C46  1  0.83740731  0.24615991  0.12369264  1.0
  C  C47  1  0.87669462  0.28838843  0.22728328  1.0
  C  C48  1  0.79700999  0.27441801  0.27375015  1.0
  C  C49  1  0.81376563  0.30690737  0.32867225  1.0
  C  C50  1  0.31958158  0.45587198  0.31136924  1.0
  C  C51  1  0.85757066  0.26440502  0.17192457  1.0
  C  C52  1  0.82504185  0.33756632  0.37589525  1.0
  C  C53  1  0.35743680  0.25467715  0.86978903  1.0
  C  C54  1  0.91870161  0.71442984  0.41657273  1.0
  C  C55  1  0.32419900  0.26928352  0.76159613  1.0
  C  C56  1  0.33226964  0.35878553  0.72844865  1.0
  C  C57  1  0.31687043  0.36016046  0.66983946  1.0
  C  C58  1  0.33989506  0.26388178  0.81935375  1.0
  C  C59  1  0.30117522  0.36851392  0.61935802  1.0
  C  C60  1  0.72784366  0.89780879  0.84092169  1.0
  C  C61  1  0.24887772  0.29079354  0.31546518  1.0
  C  C62  1  0.89233799  0.77078879  0.63362317  1.0
  C  C63  1  0.99944821  0.79695236  0.71680932  1.0
  C  C64  1  0.01093675  0.76686108  0.66065270  1.0
  C  C65  1  0.76201376  0.81214836  0.66497366  1.0
  C  C66  1  0.85404461  0.41131709  0.58849682  1.0
  C  C67  1  0.74481144  0.84540738  0.72319975  1.0
  C  C68  1  0.86808317  0.83398808  0.74996048  1.0
  C  C69  1  0.85584529  0.86008627  0.80831644  1.0
  C  C70  1  0.60265782  0.91652108  0.81454896  1.0
  C  C71  1  0.61483916  0.88920053  0.75713805  1.0
  C  C72  1  0.27025123  0.27512339  0.25587310  1.0
  C  C73  1  0.84629185  0.25767982  0.85183690  1.0
  C  C74  1  0.82824424  0.39403871  0.64991946  1.0
  C  C75  1  0.68592391  0.46659770  0.73865624  1.0
  C  C76  1  0.70952445  0.47891070  0.68149759  1.0
  C  C77  1  0.92371703  0.30000915  0.67645909  1.0
  C  C78  1  0.24925505  0.38955288  0.56450294  1.0
  C  C79  1  0.90197196  0.28701000  0.73527005  1.0
  C  C80  1  0.77962889  0.37032912  0.76726363  1.0
  C  C81  1  0.75389534  0.35355061  0.82553163  1.0
  C  C82  1  0.97046305  0.17632638  0.82154376  1.0
  C  C83  1  0.30971189  0.35771067  0.22416021  1.0
  C  C84  1  0.99506302  0.19294578  0.76521895  1.0
  C  C85  1  0.74638069  0.89353623  0.06533239  1.0
  C  C86  1  0.40451446  0.21380265  0.07906175  1.0
  C  C87  1  0.80257207  0.21754376  0.07015135  1.0
  C  C88  1  0.72625019  0.92422879  0.90236086  1.0
  C  C89  1  0.41274231  0.22949289  0.92353173  1.0
  C  C90  1  0.91606640  0.72008615  0.57518505  1.0
  C  C91  1  0.81014236  0.22962553  0.91062532  1.0
  C  C92  1  0.34049008  0.24187198  0.13840994  1.0
  C  C93  1  0.27079484  0.37867208  0.34451591  1.0
  C  C94  1  0.34282248  0.33958409  0.16509202  1.0
  C  C95  1  0.33007739  0.44895812  0.25261963  1.0
  C  C96  1  0.33912752  0.54823406  0.71810754  1.0
  C  C97  1  0.39938067  0.89898353  0.86170730  1.0
  C  C98  1  0.51651696  0.49575286  0.21218948  1.0
  C  C99  1  0.29854074  0.65236759  0.33239795  1.0
  C  C100  1  0.74114139  0.62674126  0.21083756  1.0
  C  C101  1  0.62929628  0.20448327  0.31734711  1.0
  C  C102  1  0.29528579  0.16242153  0.16945129  1.0
  C  C103  1  0.25949485  0.17955650  0.22694205  1.0
  C  C104  1  0.77100484  0.84121678  0.11990505  1.0
  O  O105  1  0.82660254  0.67480023  0.43156946  1.0
  O  O106  1  0.44777656  0.28675711  0.05400339  1.0
  O  O107  1  0.68933548  0.29498768  0.05192668  1.0
  O  O108  1  0.77699906  0.47821838  0.44740281  1.0
  O  O109  1  0.88644130  0.12950542  0.92750972  1.0
  O  O110  1  0.83124048  0.93864931  0.91800505  1.0
  O  O111  1  0.61727587  0.93177628  0.93544259  1.0
  O  O112  1  0.41725829  0.13530671  0.94767386  1.0
  O  O113  1  0.46127221  0.30090469  0.94284955  1.0
  O  O114  1  0.70115105  0.30506957  0.93934988  1.0
  O  O115  1  0.67117683  0.10623250  0.99215465  1.0
  O  O116  1  0.20544217  0.31449397  0.54629188  1.0
  O  O117  1  0.96606664  0.30334700  0.44899306  1.0
  O  O118  1  0.19960990  0.32480550  0.43507606  1.0
  O  O119  1  0.21918313  0.49895077  0.42757671  1.0
  O  O120  1  0.02602706  0.70351033  0.44325270  1.0
  O  O121  1  0.81684504  0.71012466  0.55188339  1.0
  O  O122  1  0.77646391  0.50764681  0.56833188  1.0
  O  O123  1  0.95675554  0.32810469  0.56034660  1.0
  O  O124  1  0.35414939  0.44798395  0.75244363  1.0
  O  O125  1  0.47201609  0.97193408  0.84192783  1.0
  O  O126  1  0.36703937  0.52662566  0.22025888  1.0
  O  O127  1  0.24267719  0.48340857  0.53991710  1.0
  O  O128  1  0.36697675  0.52660001  0.33866904  1.0
  O  O129  1  0.80434343  0.68261844  0.24555409  1.0
  O  O130  1  0.69650515  0.23270146  0.26692121  1.0
  O  O131  1  0.04492576  0.68287964  0.55290661  1.0
  O  O132  1  0.98643667  0.50818520  0.49721532  1.0
  O  O133  1  0.88035116  0.12011673  0.04634558  1.0
  O  O134  1  0.84639082  0.91486758  0.04092887  1.0
  O  O135  1  0.62509576  0.91781071  0.04758097  1.0
  O  O136  1  0.42159418  0.11396456  0.05787297  1.0
  O  O137  1  0.60699258  0.67623732  0.50272233  1.0
  O  O138  1  0.05288720  0.93792170  0.97196567  1.0
  F  F139  1  0.49366706  0.91009602  0.73320174  1.0
  F  F140  1  0.64628856  0.82005626  0.64073098  1.0
  F  F141  1  0.11337278  0.11489179  0.73535805  1.0
  F  F142  1  0.20549742  0.21393196  0.34358861  1.0
  F  F143  1  0.90292616  0.92863318  0.23792827  1.0
