# generated using pymatgen
data_Al6H51C100N7O36
_symmetry_space_group_name_H-M   'P 1'
_cell_length_a   12.68269401
_cell_length_b   12.83806861
_cell_length_c   27.69986305
_cell_angle_alpha   89.63625214
_cell_angle_beta   89.14842929
_cell_angle_gamma   119.28415808
_symmetry_Int_Tables_number   1
_chemical_formula_structural   Al6H51C100N7O36
_chemical_formula_sum   'Al6 H51 C100 N7 O36'
_cell_volume   3932.83976027
_cell_formula_units_Z   1
loop_
 _symmetry_equiv_pos_site_id
 _symmetry_equiv_pos_as_xyz
  1  'x, y, z'
loop_
 _atom_site_type_symbol
 _atom_site_label
 _atom_site_symmetry_multiplicity
 _atom_site_fract_x
 _atom_site_fract_y
 _atom_site_fract_z
 _atom_site_occupancy
  Al  Al0  1  0.83231986  0.40841098  0.49917203  1.0
  Al  Al1  1  0.09723938  0.43706232  0.50175128  1.0
  Al  Al2  1  0.07649444  0.66023484  0.49783802  1.0
  Al  Al3  1  0.83210524  0.90995547  0.98563431  1.0
  Al  Al4  1  0.57276872  0.67346467  0.98370881  1.0
  Al  Al5  1  0.58026476  0.90965481  0.98647476  1.0
  H  H6  1  0.25353362  0.45592083  0.21072460  1.0
  H  H7  1  0.47499278  0.61098246  0.85602305  1.0
  H  H8  1  0.44603473  0.58792472  0.27461688  1.0
  H  H9  1  0.32798785  0.52533336  0.61891993  1.0
  H  H10  1  0.41400351  0.47967189  0.69028433  1.0
  H  H11  1  0.22591890  0.89011959  0.70452338  1.0
  H  H12  1  0.20300190  0.78181139  0.62781891  1.0
  H  H13  1  0.89433876  0.87497892  0.85588398  1.0
  H  H14  1  0.98760330  0.97070587  0.77713297  1.0
  H  H15  1  0.10506197  0.52481384  0.26524008  1.0
  H  H16  1  0.02755692  0.95497228  0.69232072  1.0
  H  H17  1  0.86994556  0.50858219  0.19558987  1.0
  H  H18  1  0.66136540  0.49425065  0.86705820  1.0
  H  H19  1  0.64253865  0.36525261  0.79572228  1.0
  H  H20  1  0.66649949  0.34968396  0.70950275  1.0
  H  H21  1  0.71335103  0.19882680  0.61878816  1.0
  H  H22  1  0.53690349  0.08480860  0.77668082  1.0
  H  H23  1  0.57044148  0.11878254  0.68956549  1.0
  H  H24  1  0.18610635  0.72989813  0.20385660  1.0
  H  H25  1  0.17315462  0.33824994  0.71969518  1.0
  H  H26  1  0.09257865  0.32528718  0.63706460  1.0
  H  H27  1  0.95982869  0.85162062  0.20647511  1.0
  H  H28  1  0.69306711  0.44716514  0.27131846  1.0
  H  H29  1  0.78247688  0.79068382  0.28160977  1.0
  H  H30  1  0.03712176  0.70192306  0.25192290  1.0
  H  H31  1  0.03439519  0.47137675  0.12805756  1.0
  H  H32  1  0.50665462  0.51102732  0.81363574  1.0
  H  H33  1  0.50238106  0.44812406  0.76083444  1.0
  H  H34  1  0.09714679  0.79852817  0.88698006  1.0
  H  H35  1  0.24760606  0.07640724  0.78841917  1.0
  H  H36  1  0.04828432  0.83458556  0.58116705  1.0
  H  H37  1  0.07137256  0.92441477  0.63190758  1.0
  H  H38  1  0.71110900  0.42014613  0.58631830  1.0
  H  H39  1  0.61573615  0.59812608  0.22655885  1.0
  H  H40  1  0.64410409  0.36306361  0.64307748  1.0
  H  H41  1  0.52306245  0.07625477  0.84403069  1.0
  H  H42  1  0.58094981  0.06833258  0.89931495  1.0
  H  H43  1  0.07923784  0.16768282  0.86026875  1.0
  H  H44  1  0.97756279  0.09858279  0.90923568  1.0
  H  H45  1  0.24501106  0.35036420  0.79470476  1.0
  H  H46  1  0.16188488  0.33767176  0.84388445  1.0
  H  H47  1  0.39934081  0.94738496  0.24860986  1.0
  H  H48  1  0.43145257  0.90715191  0.30198418  1.0
  H  H49  1  0.65001670  0.93218074  0.16109228  1.0
  H  H50  1  0.65294622  0.14821404  0.22949246  1.0
  H  H51  1  0.71993633  0.02536627  0.29813577  1.0
  H  H52  1  0.85067899  0.36783832  0.25778634  1.0
  H  H53  1  0.06619468  0.22140820  0.25426748  1.0
  H  H54  1  0.86590053  0.99943537  0.22721409  1.0
  H  H55  1  0.62782487  0.33353237  0.47959175  1.0
  H  H56  1  0.03714335  0.00740002  0.00960807  1.0
  C  C57  1  0.93691173  0.30059870  0.43125192  1.0
  C  C58  1  0.29228388  0.65261020  0.33974823  1.0
  C  C59  1  0.55840045  0.81525498  0.21115388  1.0
  C  C60  1  0.80242545  0.72854338  0.26218591  1.0
  C  C61  1  0.23013869  0.62373670  0.43232919  1.0
  C  C62  1  0.90082505  0.76207084  0.22143730  1.0
  C  C63  1  0.76550073  0.66513291  0.09858638  1.0
  C  C64  1  0.88111176  0.63589349  0.37995369  1.0
  C  C65  1  0.70922364  0.62022971  0.23269034  1.0
  C  C66  1  0.80682517  0.65370449  0.19063033  1.0
  C  C67  1  0.75193411  0.53682194  0.25640832  1.0
  C  C68  1  0.84554875  0.64502467  0.28723640  1.0
  C  C69  1  0.27646770  0.64677209  0.38348741  1.0
  C  C70  1  0.85042403  0.57037417  0.21562847  1.0
  C  C71  1  0.94353356  0.67881428  0.24533412  1.0
  C  C72  1  0.78490710  0.65756242  0.14107416  1.0
  C  C73  1  0.90321174  0.61051743  0.42798967  1.0
  C  C74  1  0.86546422  0.64160910  0.33695508  1.0
  C  C75  1  0.78098950  0.09556045  0.27297007  1.0
  C  C76  1  0.74440952  0.16386598  0.23587444  1.0
  C  C77  1  0.77220126  0.08344462  0.10559575  1.0
  C  C78  1  0.92814692  0.26417802  0.38173834  1.0
  C  C79  1  0.86424951  0.08195770  0.23449666  1.0
  C  C80  1  0.43279882  0.72922344  0.22460299  1.0
  C  C81  1  0.82511784  0.14779935  0.19603535  1.0
  C  C82  1  0.97362014  0.20357471  0.24917563  1.0
  C  C83  1  0.89156215  0.21815099  0.28918287  1.0
  C  C84  1  0.93777211  0.27226641  0.21222766  1.0
  C  C85  1  0.92654058  0.30246272  0.57191135  1.0
  C  C86  1  0.85379495  0.28573044  0.25074218  1.0
  C  C87  1  0.79623844  0.11438103  0.14742255  1.0
  C  C88  1  0.91661666  0.24699791  0.33841510  1.0
  C  C89  1  0.31373008  0.58862540  0.64026355  1.0
  C  C90  1  0.34395174  0.60351629  0.68936090  1.0
  C  C91  1  0.32340038  0.65818109  0.18946675  1.0
  C  C92  1  0.39490914  0.62959920  0.78956826  1.0
  C  C93  1  0.41965673  0.55002065  0.76068069  1.0
  C  C94  1  0.39500616  0.53946516  0.71204893  1.0
  C  C95  1  0.42353574  0.64772029  0.83866197  1.0
  C  C96  1  0.38615460  0.71224304  0.86764341  1.0
  C  C97  1  0.22213833  0.62704153  0.56759698  1.0
  C  C98  1  0.24254830  0.73285000  0.64510568  1.0
  C  C99  1  0.26814063  0.74712646  0.69454557  1.0
  C  C100  1  0.31863270  0.68230816  0.71731734  1.0
  C  C101  1  0.25177602  0.83082629  0.72274992  1.0
  C  C102  1  0.34766418  0.76994875  0.25506654  1.0
  C  C103  1  0.27489931  0.84424183  0.77138430  1.0
  C  C104  1  0.31058759  0.76742567  0.79684205  1.0
  C  C105  1  0.34248835  0.69422200  0.76769717  1.0
  C  C106  1  0.31658740  0.76096654  0.84797410  1.0
  C  C107  1  0.26369377  0.65240094  0.61829315  1.0
  C  C108  1  0.94348777  0.74734114  0.64054550  1.0
  C  C109  1  0.90151641  0.61927198  0.56686375  1.0
  C  C110  1  0.91744862  0.75988195  0.68977371  1.0
  C  C111  1  0.87522963  0.77968319  0.78948576  1.0
  C  C112  1  0.94879113  0.88324864  0.76048184  1.0
  C  C113  1  0.30612683  0.65634782  0.28891230  1.0
  C  C114  1  0.97014056  0.87284407  0.71274434  1.0
  C  C115  1  0.85360840  0.78805093  0.83871017  1.0
  C  C116  1  0.77495082  0.68609966  0.86568279  1.0
  C  C117  1  0.78313278  0.53436832  0.64368958  1.0
  C  C118  1  0.77496543  0.54179599  0.69507856  1.0
  C  C119  1  0.83791474  0.65530185  0.71712169  1.0
  C  C120  1  0.70561503  0.43873962  0.72480085  1.0
  C  C121  1  0.38761213  0.61823359  0.25834620  1.0
  C  C122  1  0.69215992  0.44627691  0.77363629  1.0
  C  C123  1  0.74413651  0.56014807  0.79629000  1.0
  C  C124  1  0.24254867  0.69688871  0.21992724  1.0
  C  C125  1  0.81960525  0.66477461  0.76759320  1.0
  C  C126  1  0.72083928  0.57282860  0.84508312  1.0
  C  C127  1  0.87564853  0.63533962  0.61686988  1.0
  C  C128  1  0.78718799  0.21485266  0.64264516  1.0
  C  C129  1  0.76504510  0.18862975  0.69224280  1.0
  C  C130  1  0.72466266  0.14302709  0.79349173  1.0
  C  C131  1  0.62844566  0.12109956  0.76199580  1.0
  C  C132  1  0.64644133  0.14048773  0.71317987  1.0
  C  C133  1  0.28042357  0.54512534  0.22397039  1.0
  C  C134  1  0.70329368  0.11907283  0.84429111  1.0
  C  C135  1  0.19831247  0.58340600  0.25294825  1.0
  C  C136  1  0.79430032  0.11396613  0.87276087  1.0
  C  C137  1  0.00165096  0.28539961  0.65284584  1.0
  C  C138  1  0.98337486  0.26155683  0.70287113  1.0
  C  C139  1  0.86371486  0.21252407  0.72317699  1.0
  C  C140  1  0.08091735  0.29027447  0.73442893  1.0
  C  C141  1  0.06296720  0.26556358  0.78331034  1.0
  C  C142  1  0.94197121  0.20515602  0.80411013  1.0
  C  C143  1  0.84389749  0.18736222  0.77396132  1.0
  C  C144  1  0.91355541  0.15455491  0.85213269  1.0
  C  C145  1  0.36219132  0.68076110  0.09536243  1.0
  C  C146  1  0.33894512  0.66572790  0.13859341  1.0
  C  C147  1  0.90461450  0.26332950  0.62326633  1.0
  C  C148  1  0.74580652  0.70009885  0.05177601  1.0
  C  C149  1  0.42303073  0.71113379  0.04903275  1.0
  C  C150  1  0.74664476  0.03257606  0.05780770  1.0
  C  C151  1  0.74515226  0.70573947  0.91550224  1.0
  C  C152  1  0.43677805  0.73659828  0.91762663  1.0
  C  C153  1  0.76222354  0.05422043  0.91997508  1.0
  C  C154  1  0.01826490  0.35247721  0.17323869  1.0
  C  C155  1  0.23346698  0.77573765  0.88257204  1.0
  C  C156  1  0.28886212  0.95482736  0.79402424  1.0
  N  N157  1  0.45894743  0.47869730  0.78298223  1.0
  N  N158  1  0.03366373  0.84313922  0.61673554  1.0
  N  N159  1  0.70353658  0.43256168  0.62228284  1.0
  N  N160  1  0.59658528  0.09686308  0.86430176  1.0
  N  N161  1  0.99944185  0.14527055  0.87733194  1.0
  N  N162  1  0.16464312  0.29833443  0.81239198  1.0
  N  N163  1  0.37391987  0.88066580  0.27371096  1.0
  O  O164  1  0.82982911  0.50870662  0.44556391  1.0
  O  O165  1  0.44940302  0.81212889  0.02989866  1.0
  O  O166  1  0.64456284  0.00978168  0.03988100  1.0
  O  O167  1  0.85059587  0.31350918  0.44758231  1.0
  O  O168  1  0.82797790  0.01380564  0.93699407  1.0
  O  O169  1  0.82143226  0.79891673  0.93628700  1.0
  O  O170  1  0.63983949  0.62924671  0.93345575  1.0
  O  O171  1  0.45349751  0.65606776  0.93780090  1.0
  O  O172  1  0.47568915  0.84162955  0.93406425  1.0
  O  O173  1  0.66565589  0.03863388  0.94411931  1.0
  O  O174  1  0.65977417  0.82986148  0.98679589  1.0
  O  O175  1  0.21250772  0.53240543  0.54833312  1.0
  O  O176  1  0.03298718  0.32109915  0.45406036  1.0
  O  O177  1  0.21514247  0.52754000  0.45263387  1.0
  O  O178  1  0.20119890  0.69772847  0.45076709  1.0
  O  O179  1  0.99868078  0.69185525  0.44832005  1.0
  O  O180  1  0.83314102  0.52177683  0.54607117  1.0
  O  O181  1  0.84529457  0.31480074  0.55085967  1.0
  O  O182  1  0.02932237  0.32691939  0.55184015  1.0
  O  O183  1  0.10341820  0.34523792  0.15584720  1.0
  O  O184  1  0.98255553  0.43017149  0.15633923  1.0
  O  O185  1  0.22954550  0.75617552  0.92603752  1.0
  O  O186  1  0.19187074  0.69775069  0.54695947  1.0
  O  O187  1  0.15017200  0.79749848  0.86103925  1.0
  O  O188  1  0.35689189  0.00735393  0.82729579  1.0
  O  O189  1  0.22699181  0.00191586  0.77168320  1.0
  O  O190  1  0.64493544  0.83918867  0.23702498  1.0
  O  O191  1  0.56568258  0.87075258  0.16860708  1.0
  O  O192  1  0.99709620  0.70343084  0.54398987  1.0
  O  O193  1  0.00455236  0.50338609  0.49870112  1.0
  O  O194  1  0.82542180  0.01163293  0.03918310  1.0
  O  O195  1  0.82470606  0.80327072  0.03712340  1.0
  O  O196  1  0.64915027  0.62726822  0.02971932  1.0
  O  O197  1  0.45280624  0.63637889  0.03194107  1.0
  O  O198  1  0.67342352  0.32270432  0.50489948  1.0
  O  O199  1  0.99138832  0.99044586  0.98036301  1.0
