# generated using pymatgen
data_Zn4H16C34O13F4
_symmetry_space_group_name_H-M   'P 1'
_cell_length_a   22.23782090
_cell_length_b   22.23797310
_cell_length_c   22.32496291
_cell_angle_alpha   109.58588210
_cell_angle_beta   109.58563437
_cell_angle_gamma   109.08660151
_symmetry_Int_Tables_number   1
_chemical_formula_structural   Zn4H16C34O13F4
_chemical_formula_sum   'Zn8 H32 C68 O26 F8'
_cell_volume   8514.88796513
_cell_formula_units_Z   2
loop_
 _symmetry_equiv_pos_site_id
 _symmetry_equiv_pos_as_xyz
  1  'x, y, z'
loop_
 _atom_site_type_symbol
 _atom_site_label
 _atom_site_symmetry_multiplicity
 _atom_site_fract_x
 _atom_site_fract_y
 _atom_site_fract_z
 _atom_site_occupancy
  Zn  Zn0  1  0.45650290  0.01790684  0.06372587  1.0
  Zn  Zn1  1  0.01790887  0.45650483  0.06372655  1.0
  Zn  Zn2  1  0.04583187  0.60723186  0.06372545  1.0
  Zn  Zn3  1  0.60722945  0.04583120  0.06372288  1.0
  Zn  Zn4  1  0.48047047  0.04244615  0.93668271  1.0
  Zn  Zn5  1  0.04244575  0.48047017  0.93668449  1.0
  Zn  Zn6  1  0.89423633  0.45621659  0.93668844  1.0
  Zn  Zn7  1  0.45621715  0.89423655  0.93668751  1.0
  H  H8  1  0.81791845  0.24199715  0.43122748  1.0
  H  H9  1  0.24200465  0.81791523  0.43122671  1.0
  H  H10  1  0.18922255  0.61330763  0.43121074  1.0
  H  H11  1  0.61330969  0.18923267  0.43121163  1.0
  H  H12  1  0.68204713  0.61324824  0.92763868  1.0
  H  H13  1  0.61324895  0.68204917  0.92764006  1.0
  H  H14  1  0.31192941  0.24312130  0.92528714  1.0
  H  H15  1  0.24312420  0.31192972  0.92529083  1.0
  H  H16  1  0.88655945  0.31055974  0.56848058  1.0
  H  H17  1  0.31056635  0.88655894  0.56847965  1.0
  H  H18  1  0.25791133  0.68191734  0.56846537  1.0
  H  H19  1  0.68191801  0.25791625  0.56846439  1.0
  H  H20  1  0.33649940  0.86705016  0.11365797  1.0
  H  H21  1  0.86704423  0.33650203  0.11365663  1.0
  H  H22  1  0.24662281  0.77716612  0.11365863  1.0
  H  H23  1  0.77715857  0.24662177  0.11365592  1.0
  H  H24  1  0.24321606  0.85804305  0.01042440  1.0
  H  H25  1  0.85804517  0.24322016  0.01043431  1.0
  H  H26  1  0.15238829  0.76721013  0.01042437  1.0
  H  H27  1  0.76721414  0.15239544  0.01043376  1.0
  H  H28  1  0.26629279  0.71562799  0.89198713  1.0
  H  H29  1  0.71562567  0.26627800  0.89197944  1.0
  H  H30  1  0.17636234  0.62569692  0.89198570  1.0
  H  H31  1  0.62570157  0.17635359  0.89197830  1.0
  H  H32  1  0.21319522  0.79619507  0.91886294  1.0
  H  H33  1  0.79620252  0.21319453  0.91886780  1.0
  H  H34  1  0.12266718  0.70566423  0.91886087  1.0
  H  H35  1  0.70566834  0.12266499  0.91886619  1.0
  H  H36  1  0.81793820  0.88675143  0.07315416  1.0
  H  H37  1  0.88675110  0.81793610  0.07315321  1.0
  H  H38  1  0.18873050  0.25754346  0.07531373  1.0
  H  H39  1  0.25753863  0.18872716  0.07531186  1.0
  C  C40  1  0.63951586  0.14012043  0.00044332  1.0
  C  C41  1  0.14012088  0.63951837  0.00044432  1.0
  C  C42  1  0.86033062  0.36093285  0.00044654  1.0
  C  C43  1  0.36093244  0.86033013  0.00044600  1.0
  C  C44  1  0.67262309  0.17262332  0.34522205  1.0
  C  C45  1  0.17262002  0.67262371  0.34522384  1.0
  C  C46  1  0.63920292  0.13919938  0.27837863  1.0
  C  C47  1  0.13920006  0.63920638  0.27838116  1.0
  C  C48  1  0.86070401  0.36071885  0.72142355  1.0
  C  C49  1  0.36072092  0.86070439  0.72142332  1.0
  C  C50  1  0.32723698  0.81253146  0.07911642  1.0
  C  C51  1  0.81252699  0.32723868  0.07911613  1.0
  C  C52  1  0.26660222  0.75189336  0.07911811  1.0
  C  C53  1  0.75188876  0.26660172  0.07911655  1.0
  C  C54  1  0.23122085  0.80293088  0.97408066  1.0
  C  C55  1  0.80293320  0.23122028  0.97408380  1.0
  C  C56  1  0.17115461  0.74286266  0.97407981  1.0
  C  C57  1  0.74286491  0.17115504  0.97408310  1.0
  C  C58  1  0.28542986  0.72272710  0.94747181  1.0
  C  C59  1  0.72272530  0.28542363  0.94746614  1.0
  C  C60  1  0.22475244  0.66204881  0.94747159  1.0
  C  C61  1  0.66204556  0.22474473  0.94746635  1.0
  C  C62  1  0.30337333  0.79941994  0.00066517  1.0
  C  C63  1  0.79942010  0.30337210  0.00066749  1.0
  C  C64  1  0.20125497  0.69729884  0.00066436  1.0
  C  C65  1  0.69729780  0.20125316  0.00066493  1.0
  C  C66  1  0.82696216  0.78872362  0.04136866  1.0
  C  C67  1  0.78872365  0.82696224  0.04136862  1.0
  C  C68  1  0.25391795  0.21567902  0.04253634  1.0
  C  C69  1  0.21568115  0.25392084  0.04253745  1.0
  C  C70  1  0.78880663  0.71122296  0.00017279  1.0
  C  C71  1  0.71122308  0.78880609  0.00017346  1.0
  C  C72  1  0.28886018  0.21128029  0.00006707  1.0
  C  C73  1  0.21128242  0.28886154  0.00006857  1.0
  C  C74  1  0.71130005  0.67304724  0.95916135  1.0
  C  C75  1  0.67304799  0.71130165  0.95916259  1.0
  C  C76  1  0.28464077  0.24638457  0.95774710  1.0
  C  C77  1  0.24638877  0.28464175  0.95775114  1.0
  C  C78  1  0.40002543  0.09787674  0.99989798  1.0
  C  C79  1  0.09787552  0.40002613  0.99989599  1.0
  C  C80  1  0.90201959  0.59986588  0.99988930  1.0
  C  C81  1  0.59986892  0.90202164  0.99989094  1.0
  C  C82  1  0.82802234  0.67241493  0.00008643  1.0
  C  C83  1  0.67241595  0.82802402  0.00008810  1.0
  C  C84  1  0.32763914  0.17203287  0.00004813  1.0
  C  C85  1  0.17203073  0.32764096  0.00004613  1.0
  C  C86  1  0.63934283  0.86220227  0.00013943  1.0
  C  C87  1  0.86220144  0.63934296  0.00013951  1.0
  C  C88  1  0.13793246  0.36079038  0.00012733  1.0
  C  C89  1  0.36079174  0.13793614  0.00013246  1.0
  C  C90  1  0.40015834  0.90013958  0.80029494  1.0
  C  C91  1  0.90013455  0.40015279  0.80029542  1.0
  C  C92  1  0.59976615  0.09976109  0.19951589  1.0
  C  C93  1  0.09976295  0.59977022  0.19951973  1.0
  C  C94  1  0.82682689  0.28384632  0.53789100  1.0
  C  C95  1  0.28384964  0.82682700  0.53789010  1.0
  C  C96  1  0.25403788  0.71105973  0.53787627  1.0
  C  C97  1  0.71106000  0.25404615  0.53787766  1.0
  C  C98  1  0.78846854  0.28847322  0.57693917  1.0
  C  C99  1  0.28847114  0.78846974  0.57694002  1.0
  C  C100  1  0.67304471  0.21600062  0.46181788  1.0
  C  C101  1  0.21598907  0.67304400  0.46181594  1.0
  C  C102  1  0.24583592  0.78878401  0.46182969  1.0
  C  C103  1  0.78878606  0.24583319  0.46182931  1.0
  C  C104  1  0.71139133  0.21139379  0.42277391  1.0
  C  C105  1  0.21139297  0.71139457  0.42277764  1.0
  C  C106  1  0.82726859  0.32727877  0.65454299  1.0
  C  C107  1  0.32727964  0.82727055  0.65454295  1.0
  O  O108  1  0.50051284  0.00051855  0.00102814  1.0
  O  O109  1  0.00052061  0.50051622  0.00103141  1.0
  O  O110  1  0.66359825  0.12448008  0.05017094  1.0
  O  O111  1  0.12447897  0.66359626  0.05016873  1.0
  O  O112  1  0.92570472  0.38657559  0.05016272  1.0
  O  O113  1  0.38657325  0.92570531  0.05016041  1.0
  O  O114  1  0.42653167  0.09328314  0.95689898  1.0
  O  O115  1  0.09328424  0.42653081  0.95689416  1.0
  O  O116  1  0.86358495  0.53034807  0.95692354  1.0
  O  O117  1  0.53035004  0.86358761  0.95692518  1.0
  O  O118  1  0.42321581  0.96915473  0.83139959  1.0
  O  O119  1  0.96915125  0.42321480  0.83139841  1.0
  O  O120  1  0.86222485  0.40820286  0.83139759  1.0
  O  O121  1  0.40820350  0.86222764  0.83139602  1.0
  O  O122  1  0.63793155  0.09275051  0.16850742  1.0
  O  O123  1  0.09275387  0.63793289  0.16850857  1.0
  O  O124  1  0.07576379  0.53059358  0.16851736  1.0
  O  O125  1  0.53058908  0.07576245  0.16851619  1.0
  O  O126  1  0.40413592  0.07079397  0.04244638  1.0
  O  O127  1  0.07079317  0.40413453  0.04244515  1.0
  O  O128  1  0.97166411  0.63831844  0.04239242  1.0
  O  O129  1  0.63831891  0.97166623  0.04239367  1.0
  O  O130  1  0.57361146  0.10877969  0.94953302  1.0
  O  O131  1  0.10878360  0.57361642  0.94953896  1.0
  O  O132  1  0.84075723  0.37591238  0.94953017  1.0
  O  O133  1  0.37591227  0.84075569  0.94952948  1.0
  F  F134  1  0.39422096  0.81416939  0.10983240  1.0
  F  F135  1  0.81415834  0.39421852  0.10982642  1.0
  F  F136  1  0.29568474  0.71562872  0.10983694  1.0
  F  F137  1  0.71561852  0.29567835  0.10982790  1.0
  F  F138  1  0.34784539  0.71497757  0.96582678  1.0
  F  F139  1  0.71497084  0.34783676  0.96581023  1.0
  F  F140  1  0.25086225  0.61799346  0.96582924  1.0
  F  F141  1  0.61797754  0.25084483  0.96580860  1.0
