# generated using pymatgen
data_CdH32C36S4(NO)6
_symmetry_space_group_name_H-M   'P 1'
_cell_length_a   10.39187920
_cell_length_b   12.03785115
_cell_length_c   12.54491738
_cell_angle_alpha   65.92916057
_cell_angle_beta   73.55830689
_cell_angle_gamma   77.34819537
_symmetry_Int_Tables_number   1
_chemical_formula_structural   CdH32C36S4(NO)6
_chemical_formula_sum   'Cd1 H32 C36 S4 N6 O6'
_cell_volume   1364.61307485
_cell_formula_units_Z   1
loop_
 _symmetry_equiv_pos_site_id
 _symmetry_equiv_pos_as_xyz
  1  'x, y, z'
loop_
 _atom_site_type_symbol
 _atom_site_label
 _atom_site_symmetry_multiplicity
 _atom_site_fract_x
 _atom_site_fract_y
 _atom_site_fract_z
 _atom_site_occupancy
  Cd  Cd0  1  0.00000076  0.00000240  0.99999686  1.0
  H  H1  1  0.30288800  0.49952810  0.80880951  1.0
  H  H2  1  0.69711062  0.50047267  0.19118689  1.0
  H  H3  1  0.39171062  0.59367055  0.66666667  1.0
  H  H4  1  0.60830428  0.40633005  0.33333333  1.0
  H  H5  1  0.37091263  0.29224195  0.90608804  1.0
  H  H6  1  0.62908840  0.70775604  0.09391205  1.0
  H  H7  1  0.50075760  0.09646930  0.89489005  1.0
  H  H8  1  0.49923909  0.90353058  0.10510478  1.0
  H  H9  1  0.68331898  0.09704559  0.71852369  1.0
  H  H10  1  0.31667454  0.90295524  0.28146836  1.0
  H  H11  1  0.74164091  0.29661472  0.55445582  1.0
  H  H12  1  0.25835370  0.70338607  0.44554156  1.0
  H  H13  1  0.55450496  0.60166675  0.53593183  1.0
  H  H14  1  0.44549867  0.39833488  0.46406940  1.0
  H  H15  1  0.65804125  0.51318672  0.45264733  1.0
  H  H16  1  0.34195816  0.48681675  0.54735581  1.0
  H  H17  1  0.10467695  0.83352519  0.24922197  1.0
  H  H18  1  0.89531969  0.16647471  0.75076889  1.0
  H  H19  1  0.03135818  0.67107328  0.44726786  1.0
  H  H20  1  0.96864286  0.32893207  0.55272380  1.0
  H  H21  1  0.64720760  0.71910185  0.35148113  1.0
  H  H22  1  0.35278737  0.28089619  0.64851883  1.0
  H  H23  1  0.73724111  0.87597064  0.16053004  1.0
  H  H24  1  0.26275565  0.12402834  0.83946194  1.0
  H  H25  1  0.29893206  0.85173010  0.04411135  1.0
  H  H26  1  0.70107290  0.14827701  0.95588743  1.0
  H  H27  1  0.47556307  0.70100095  0.98118996  1.0
  H  H28  1  0.52443911  0.29899699  0.01881944  1.0
  H  H29  1  0.05718763  0.85307972  0.83164649  1.0
  H  H30  1  0.94281640  0.14691913  0.16835971  1.0
  H  H31  1  0.21954378  0.70168468  0.76097731  1.0
  H  H32  1  0.78046003  0.29830776  0.23903063  1.0
  C  C33  1  0.40355424  0.52069358  0.75286367  1.0
  C  C34  1  0.59644855  0.47930711  0.24714131  1.0
  C  C35  1  0.48598596  0.40601398  0.73883709  1.0
  C  C36  1  0.51401902  0.59398488  0.26116568  1.0
  C  C37  1  0.45409860  0.29333991  0.82968353  1.0
  C  C38  1  0.54590380  0.70665531  0.17031970  1.0
  C  C39  1  0.52511678  0.18318437  0.82280627  1.0
  C  C40  1  0.47488022  0.81681365  0.17719400  1.0
  C  C41  1  0.62846827  0.18379632  0.72307264  1.0
  C  C42  1  0.37152846  0.81620354  0.27692458  1.0
  C  C43  1  0.66076401  0.29529901  0.63255863  1.0
  C  C44  1  0.33923478  0.70470083  0.36744129  1.0
  C  C45  1  0.59215139  0.40738536  0.63938315  1.0
  C  C46  1  0.40785080  0.59261992  0.36061781  1.0
  C  C47  1  0.63370959  0.52412708  0.53915761  1.0
  C  C48  1  0.36629099  0.47587458  0.46084197  1.0
  C  C49  1  0.00421061  0.80461233  0.27596419  1.0
  C  C50  1  0.99578680  0.19538940  0.72402577  1.0
  C  C51  1  0.96231345  0.71532572  0.38678031  1.0
  C  C52  1  0.03768312  0.28467507  0.61321340  1.0
  C  C53  1  0.83266979  0.67899430  0.41749917  1.0
  C  C54  1  0.16732571  0.32100740  0.58249764  1.0
  C  C55  1  0.74964345  0.73936636  0.33455904  1.0
  C  C56  1  0.25035299  0.26063624  0.66544038  1.0
  C  C57  1  0.80020132  0.82833586  0.22599360  1.0
  C  C58  1  0.19979559  0.17166219  0.77400110  1.0
  C  C59  1  0.28579096  0.81564429  0.98150467  1.0
  C  C60  1  0.71421391  0.18435549  0.01849778  1.0
  C  C61  1  0.38389459  0.73142231  0.94633313  1.0
  C  C62  1  0.61610506  0.26857196  0.05368070  1.0
  C  C63  1  0.36237534  0.68529422  0.86698285  1.0
  C  C64  1  0.63762095  0.31469458  0.13303232  1.0
  C  C65  1  0.15088391  0.81646198  0.86330070  1.0
  C  C66  1  0.84911825  0.18353596  0.13670791  1.0
  C  C67  1  0.24282489  0.73101507  0.82402961  1.0
  C  C68  1  0.75717866  0.26897186  0.17598532  1.0
  S  S69  1  0.78658954  0.56158358  0.55513259  1.0
  S  S70  1  0.21341456  0.43842174  0.44486152  1.0
  S  S71  1  0.48591543  0.57534200  0.82985534  1.0
  S  S72  1  0.51408213  0.42464496  0.17016264  1.0
  N  N73  1  0.21495861  0.12220928  0.06817279  1.0
  N  N74  1  0.78503906  0.87779884  0.93181781  1.0
  N  N75  1  0.92534440  0.86024665  0.19528972  1.0
  N  N76  1  0.07464955  0.13975052  0.80470205  1.0
  N  N77  1  0.16988718  0.85778625  0.94170622  1.0
  N  N78  1  0.83011645  0.14221537  0.05829501  1.0
  O  O79  1  0.16646248  0.02156565  0.09210895  1.0
  O  O80  1  0.83354606  0.97843510  0.90787707  1.0
  O  O81  1  0.15641645  0.22333006  0.01044372  1.0
  O  O82  1  0.84357352  0.77667535  0.98954901  1.0
  O  O83  1  0.31935711  0.11430497  0.10359684  1.0
  O  O84  1  0.68063839  0.88571320  0.89639516  1.0
