# generated using pymatgen
data_ZnH14C27(NO2)2
_symmetry_space_group_name_H-M   'P 1'
_cell_length_a   14.70613279
_cell_length_b   16.09938612
_cell_length_c   17.30123413
_cell_angle_alpha   88.92099056
_cell_angle_beta   73.81304786
_cell_angle_gamma   78.36958965
_symmetry_Int_Tables_number   1
_chemical_formula_structural   ZnH14C27(NO2)2
_chemical_formula_sum   'Zn2 H28 C54 N4 O8'
_cell_volume   3850.03893425
_cell_formula_units_Z   2
loop_
 _symmetry_equiv_pos_site_id
 _symmetry_equiv_pos_as_xyz
  1  'x, y, z'
loop_
 _atom_site_type_symbol
 _atom_site_label
 _atom_site_symmetry_multiplicity
 _atom_site_fract_x
 _atom_site_fract_y
 _atom_site_fract_z
 _atom_site_occupancy
  Zn  Zn0  1  0.59845674  0.50919186  0.47304077  1.0
  Zn  Zn1  1  0.40158973  0.49502592  0.52883479  1.0
  H  H2  1  0.38749658  0.42365497  0.77320672  1.0
  H  H3  1  0.31307629  0.36148908  0.62745490  1.0
  H  H4  1  0.15719510  0.30941226  0.65455815  1.0
  H  H5  1  0.84023918  0.69829400  0.34883659  1.0
  H  H6  1  0.86925242  0.40080082  0.57262342  1.0
  H  H7  1  0.13041478  0.60446850  0.42758350  1.0
  H  H8  1  0.35139979  0.43859931  0.30536247  1.0
  H  H9  1  0.66221290  0.49803077  0.70075955  1.0
  H  H10  1  0.42664008  0.38844262  0.02697268  1.0
  H  H11  1  0.62934318  0.43021072  0.96825048  1.0
  H  H12  1  0.68536038  0.46408005  0.83612915  1.0
  H  H13  1  0.65010265  0.45512243  0.22142546  1.0
  H  H14  1  0.35327119  0.40143051  0.16549520  1.0
  H  H15  1  0.65413741  0.41765021  0.08210345  1.0
  H  H16  1  0.40990193  0.38757323  0.90743385  1.0
  H  H17  1  0.75511251  0.94850976  0.48818102  1.0
  H  H18  1  0.25286417  0.05414992  0.49322461  1.0
  H  H19  1  0.26470123  0.75749350  0.49572462  1.0
  H  H20  1  0.74208502  0.24379625  0.49958459  1.0
  H  H21  1  0.78935031  0.08485096  0.49896180  1.0
  H  H22  1  0.21761012  0.91556606  0.48921922  1.0
  H  H23  1  0.64508003  0.85581097  0.48491185  1.0
  H  H24  1  0.36192454  0.14744219  0.49618940  1.0
  H  H25  1  0.99210890  0.32676366  0.63415920  1.0
  H  H26  1  0.00683443  0.67961865  0.36738555  1.0
  H  H27  1  0.77372776  0.45635201  0.51772298  1.0
  H  H28  1  0.22728779  0.54714357  0.48080600  1.0
  H  H29  1  0.68404274  0.64696380  0.37724590  1.0
  C  C30  1  0.57844799  0.33799405  0.48789172  1.0
  C  C31  1  0.47056680  0.81184899  0.51392126  1.0
  C  C32  1  0.55608511  0.10262746  0.48605426  1.0
  C  C33  1  0.45027918  0.90165168  0.50182726  1.0
  C  C34  1  0.65126660  0.06534373  0.49104976  1.0
  C  C35  1  0.35534741  0.93765238  0.49575692  1.0
  C  C36  1  0.48787948  0.04705426  0.49109412  1.0
  C  C37  1  0.51865579  0.95720980  0.49478164  1.0
  C  C38  1  0.61788922  0.92377655  0.48884291  1.0
  C  C39  1  0.38905288  0.07961021  0.49461847  1.0
  C  C40  1  0.68041158  0.97562528  0.48954268  1.0
  C  C41  1  0.43073986  0.66579201  0.50919057  1.0
  C  C42  1  0.32690701  0.02723434  0.49397372  1.0
  C  C43  1  0.16952726  0.36279880  0.61608907  1.0
  C  C44  1  0.82865275  0.64422523  0.38655009  1.0
  C  C45  1  0.50673271  0.48777469  0.64908761  1.0
  C  C46  1  0.49714920  0.48105483  0.35365777  1.0
  C  C47  1  0.25498099  0.39071900  0.60191844  1.0
  C  C48  1  0.74311785  0.61638021  0.40106148  1.0
  C  C49  1  0.20646687  0.49572556  0.51910932  1.0
  C  C50  1  0.79345446  0.50924361  0.48114851  1.0
  C  C51  1  0.11647123  0.47252755  0.52971604  1.0
  C  C52  1  0.60212789  0.24245382  0.48590261  1.0
  C  C53  1  0.88309764  0.53299714  0.47089601  1.0
  C  C54  1  0.09743007  0.40366463  0.58070359  1.0
  C  C55  1  0.90153479  0.60258835  0.42074968  1.0
  C  C56  1  0.04461550  0.51586036  0.49236704  1.0
  C  C57  1  0.95511366  0.48945660  0.50795700  1.0
  C  C58  1  0.93829734  0.42069610  0.55990024  1.0
  C  C59  1  0.06122553  0.58479057  0.44058929  1.0
  C  C60  1  0.00663541  0.37906083  0.59469283  1.0
  C  C61  1  0.99246802  0.62701747  0.40649724  1.0
  C  C62  1  0.52264933  0.46426595  0.72904718  1.0
  C  C63  1  0.40489394  0.76114559  0.50822087  1.0
  C  C64  1  0.49939585  0.45306005  0.27119209  1.0
  C  C65  1  0.45267614  0.43194758  0.78776706  1.0
  C  C66  1  0.58527093  0.44415703  0.20798616  1.0
  C  C67  1  0.46573965  0.41197664  0.86283424  1.0
  C  C68  1  0.58686539  0.42303736  0.13024565  1.0
  C  C69  1  0.54892774  0.42483623  0.88257098  1.0
  C  C70  1  0.50238370  0.41027049  0.11268770  1.0
  C  C71  1  0.62022132  0.45436758  0.82205478  1.0
  C  C72  1  0.41849884  0.41367450  0.17761547  1.0
  C  C73  1  0.60759137  0.47368441  0.74659744  1.0
  C  C74  1  0.71780774  0.11623215  0.49504038  1.0
  C  C75  1  0.41668484  0.43516927  0.25557945  1.0
  C  C76  1  0.56159793  0.41599781  0.96297181  1.0
  C  C77  1  0.49553901  0.40113005  0.03106067  1.0
  C  C78  1  0.55174352  0.77170271  0.54100473  1.0
  C  C79  1  0.45414563  0.23591326  0.45247550  1.0
  C  C80  1  0.28911174  0.88549269  0.49423906  1.0
  C  C81  1  0.69286383  0.20316679  0.49480714  1.0
  C  C82  1  0.31411834  0.79877145  0.49834181  1.0
  C  C83  1  0.53596805  0.19329858  0.47761131  1.0
  N  N84  1  0.27223752  0.45708539  0.55432780  1.0
  N  N85  1  0.72683041  0.54875547  0.44718295  1.0
  N  N86  1  0.61424992  0.74117764  0.56862662  1.0
  N  N87  1  0.39063403  0.26736230  0.42633786  1.0
  O  O88  1  0.64882453  0.37617338  0.47222997  1.0
  O  O89  1  0.36219003  0.62662382  0.53679359  1.0
  O  O90  1  0.48924260  0.37242532  0.50778236  1.0
  O  O91  1  0.51939733  0.63265721  0.47910609  1.0
  O  O92  1  0.57791990  0.50612702  0.59504421  1.0
  O  O93  1  0.41552496  0.49599771  0.40711249  1.0
  O  O94  1  0.42342732  0.48731246  0.64041028  1.0
  O  O95  1  0.57768078  0.48812219  0.36454169  1.0
