# generated using pymatgen
data_Zn4H24C40N2O13
_symmetry_space_group_name_H-M   'P 1'
_cell_length_a   18.18808376
_cell_length_b   18.24787196
_cell_length_c   22.19603891
_cell_angle_alpha   114.02339188
_cell_angle_beta   114.03815799
_cell_angle_gamma   90.03083843
_symmetry_Int_Tables_number   1
_chemical_formula_structural   Zn4H24C40N2O13
_chemical_formula_sum   'Zn8 H48 C80 N4 O26'
_cell_volume   6021.61011945
_cell_formula_units_Z   2
loop_
 _symmetry_equiv_pos_site_id
 _symmetry_equiv_pos_as_xyz
  1  'x, y, z'
loop_
 _atom_site_type_symbol
 _atom_site_label
 _atom_site_symmetry_multiplicity
 _atom_site_fract_x
 _atom_site_fract_y
 _atom_site_fract_z
 _atom_site_occupancy
  Zn  Zn0  1  0.21523832  0.30467431  0.43534940  1.0
  Zn  Zn1  1  0.78476147  0.69532426  0.56464913  1.0
  Zn  Zn2  1  0.36946978  0.28388228  0.56115244  1.0
  Zn  Zn3  1  0.63053025  0.71611752  0.43884704  1.0
  Zn  Zn4  1  0.21984514  0.13046113  0.43885047  1.0
  Zn  Zn5  1  0.78015514  0.86953988  0.56114995  1.0
  Zn  Zn6  1  0.19662197  0.28206980  0.56500245  1.0
  Zn  Zn7  1  0.80337878  0.71793060  0.43500153  1.0
  H  H8  1  0.86349121  0.43116460  0.46571726  1.0
  H  H9  1  0.42858829  0.99689102  0.37834960  1.0
  H  H10  1  0.46942494  0.63756235  0.53169858  1.0
  H  H11  1  0.53057340  0.36243806  0.46830009  1.0
  H  H12  1  0.49585526  0.55212711  0.61952895  1.0
  H  H13  1  0.50414296  0.44787269  0.38046902  1.0
  H  H14  1  0.00993062  0.45169845  0.59110828  1.0
  H  H15  1  0.99006880  0.54830134  0.40889190  1.0
  H  H16  1  0.04931182  0.61792356  0.62147599  1.0
  H  H17  1  0.95068760  0.38207623  0.37852464  1.0
  H  H18  1  0.91619574  0.95446689  0.04590609  1.0
  H  H19  1  0.13650833  0.56883580  0.53428361  1.0
  H  H20  1  0.08380320  0.04553352  0.95409504  1.0
  H  H21  1  0.86455446  0.03535278  0.95465688  1.0
  H  H22  1  0.13544448  0.96464762  0.04534380  1.0
  H  H23  1  0.98348059  0.85091547  0.95492566  1.0
  H  H24  1  0.01651848  0.14908554  0.04507526  1.0
  H  H25  1  0.04921366  0.00365445  0.62189596  1.0
  H  H26  1  0.95078709  0.99634596  0.37810397  1.0
  H  H27  1  0.01014579  0.13906611  0.59037058  1.0
  H  H28  1  0.98985423  0.86093368  0.40962936  1.0
  H  H29  1  0.86348637  0.03477920  0.46526662  1.0
  H  H30  1  0.64345606  0.48453191  0.05062848  1.0
  H  H31  1  0.13651366  0.96522060  0.53473332  1.0
  H  H32  1  0.68269410  0.65374799  0.07796477  1.0
  H  H33  1  0.76892704  0.73196594  0.05330308  1.0
  H  H34  1  0.73171348  0.70753803  0.92442305  1.0
  H  H35  1  0.60660100  0.60444481  0.82065248  1.0
  H  H36  1  0.52040589  0.52614077  0.84512271  1.0
  H  H37  1  0.31730269  0.34625364  0.92203469  1.0
  H  H38  1  0.23107119  0.26803691  0.94669818  1.0
  H  H39  1  0.26828955  0.29246176  0.07557969  1.0
  H  H40  1  0.39340636  0.39555253  0.17934954  1.0
  H  H41  1  0.35654457  0.51546788  0.94937120  1.0
  H  H42  1  0.47959919  0.47385719  0.15487694  1.0
  H  H43  1  0.48868158  0.69009982  0.02327515  1.0
  H  H44  1  0.47335960  0.68553749  0.09112363  1.0
  H  H45  1  0.51131880  0.30989875  0.97672539  1.0
  H  H46  1  0.52664018  0.31446108  0.90887626  1.0
  H  H47  1  0.65806709  0.48701256  0.63956274  1.0
  H  H48  1  0.69374673  0.56136848  0.62631688  1.0
  H  H49  1  0.34193186  0.51298785  0.36043613  1.0
  H  H50  1  0.30625197  0.43863071  0.37368105  1.0
  H  H51  1  0.60260343  0.03283617  0.46498465  1.0
  H  H52  1  0.39739479  0.96716362  0.53501423  1.0
  H  H53  1  0.58200550  0.13830015  0.59045524  1.0
  H  H54  1  0.41799357  0.86170087  0.40954478  1.0
  H  H55  1  0.57140873  0.00310877  0.62164933  1.0
  C  C56  1  0.35498858  0.34932467  0.70009922  1.0
  C  C57  1  0.89086980  0.89312426  0.77910284  1.0
  C  C58  1  0.00890262  0.08263465  0.02451850  1.0
  C  C59  1  0.99109633  0.91736575  0.97548263  1.0
  C  C60  1  0.03787421  0.03791058  0.07581378  1.0
  C  C61  1  0.96212485  0.96209044  0.92418714  1.0
  C  C62  1  0.07637711  0.07512956  0.15372033  1.0
  C  C63  1  0.92362485  0.92487390  0.84628284  1.0
  C  C64  1  0.00517846  0.07701849  0.55037254  1.0
  C  C65  1  0.99482277  0.92298131  0.44962824  1.0
  C  C66  1  0.02810908  0.00284958  0.56786346  1.0
  C  C67  1  0.64501121  0.65067696  0.29990035  1.0
  C  C68  1  0.97189095  0.99715021  0.43213647  1.0
  C  C69  1  0.94754028  0.94489381  0.49764849  1.0
  C  C70  1  0.05245962  0.05510537  0.50235210  1.0
  C  C71  1  0.14772017  0.14676028  0.30022661  1.0
  C  C72  1  0.85228059  0.85324012  0.69977377  1.0
  C  C73  1  0.92483305  0.02015699  0.48073309  1.0
  C  C74  1  0.07516770  0.97984341  0.51926774  1.0
  C  C75  1  0.49774422  0.58098521  0.02743631  1.0
  C  C76  1  0.50225701  0.41901459  0.97256402  1.0
  C  C77  1  0.54502497  0.53874814  0.98015429  1.0
  C  C78  1  0.02811179  0.56484025  0.56764493  1.0
  C  C79  1  0.45497565  0.46125166  0.01984584  1.0
  C  C80  1  0.39547461  0.39003942  0.77928506  1.0
  C  C81  1  0.60452446  0.60995855  0.22070808  1.0
  C  C82  1  0.42064972  0.50889805  0.97230133  1.0
  C  C83  1  0.57935139  0.49110113  0.02769786  1.0
  C  C84  1  0.46641117  0.46699161  0.92418075  1.0
  C  C85  1  0.53359188  0.53301125  0.07582122  1.0
  C  C86  1  0.42946553  0.42734941  0.84637804  1.0
  C  C87  1  0.57053909  0.57265833  0.15363060  1.0
  C  C88  1  0.54609955  0.07663738  0.55038961  1.0
  C  C89  1  0.97188836  0.43516015  0.43235615  1.0
  C  C90  1  0.45389975  0.92336180  0.44960942  1.0
  C  C91  1  0.55640772  0.01898601  0.48054942  1.0
  C  C92  1  0.44359111  0.98101379  0.51944966  1.0
  C  C93  1  0.54905335  0.94381196  0.49718834  1.0
  C  C94  1  0.45094655  0.05618722  0.50281180  1.0
  C  C95  1  0.38337412  0.39177478  0.49476191  1.0
  C  C96  1  0.61662772  0.60822501  0.50523548  1.0
  C  C97  1  0.53900547  0.00258016  0.56770235  1.0
  C  C98  1  0.46099275  0.99741963  0.43229742  1.0
  C  C99  1  0.49851179  0.52982504  0.56673559  1.0
  C  C100  1  0.92512940  0.02013575  0.97558969  1.0
  C  C101  1  0.50148692  0.47017414  0.43326234  1.0
  C  C102  1  0.48244229  0.57582208  0.51813092  1.0
  C  C103  1  0.51755533  0.42417771  0.48186821  1.0
  C  C104  1  0.55888309  0.54992658  0.50391225  1.0
  C  C105  1  0.44111634  0.45007321  0.49608523  1.0
  C  C106  1  0.57577383  0.50358623  0.55259285  1.0
  C  C107  1  0.42422548  0.49641295  0.44740528  1.0
  C  C108  1  0.11064825  0.11208016  0.50245340  1.0
  C  C109  1  0.88935008  0.88791718  0.49754605  1.0
  C  C110  1  0.39343963  0.11379753  0.50203337  1.0
  C  C111  1  0.07487027  0.97986527  0.02441143  1.0
  C  C112  1  0.60656052  0.88620287  0.49796636  1.0
  C  C113  1  0.11110656  0.39080088  0.50332144  1.0
  C  C114  1  0.88889167  0.60920198  0.49668072  1.0
  C  C115  1  0.00516922  0.47354359  0.55079323  1.0
  C  C116  1  0.99483033  0.52645681  0.44920720  1.0
  C  C117  1  0.92485155  0.46090659  0.48096054  1.0
  C  C118  1  0.07514800  0.53909382  0.51904078  1.0
  C  C119  1  0.94753978  0.55278644  0.49724956  1.0
  C  C120  1  0.05245893  0.44721580  0.50275255  1.0
  C  C121  1  0.59537220  0.58398626  0.96316706  1.0
  C  C122  1  0.95299137  0.97416744  0.02463813  1.0
  C  C123  1  0.66596793  0.64265919  0.02142206  1.0
  C  C124  1  0.71438050  0.68691310  0.00754733  1.0
  C  C125  1  0.69346409  0.67338799  0.93532306  1.0
  C  C126  1  0.62344993  0.61564447  0.87724596  1.0
  C  C127  1  0.57459650  0.57143159  0.89096303  1.0
  C  C128  1  0.40462879  0.41601231  0.03683188  1.0
  C  C129  1  0.33403150  0.35734060  0.97857767  1.0
  C  C130  1  0.28561977  0.31308791  0.99245445  1.0
  C  C131  1  0.30653859  0.32661303  0.06467862  1.0
  C  C132  1  0.37655491  0.38435532  0.12275559  1.0
  C  C133  1  0.04700769  0.02583358  0.97536324  1.0
  C  C134  1  0.42540810  0.42856698  0.10903757  1.0
  C  C135  1  0.10913216  0.10687615  0.22089659  1.0
  N  N136  1  0.50479495  0.66655985  0.06035453  1.0
  N  N137  1  0.49520628  0.33343995  0.93964626  1.0
  N  N138  1  0.65626574  0.50568354  0.60162769  1.0
  N  N139  1  0.34373308  0.49431626  0.39837049  1.0
  O  O140  1  0.25010233  0.24983807  0.49954690  1.0
  O  O141  1  0.83097357  0.89932982  0.66758082  1.0
  O  O142  1  0.27664628  0.33034792  0.66985001  1.0
  O  O143  1  0.72335387  0.66965248  0.33015332  1.0
  O  O144  1  0.15672402  0.22466248  0.33047597  1.0
  O  O145  1  0.84327227  0.77533670  0.66952520  1.0
  O  O146  1  0.41388894  0.36907028  0.54579615  1.0
  O  O147  1  0.58611363  0.63093013  0.45420258  1.0
  O  O148  1  0.14123764  0.07980751  0.45727084  1.0
  O  O149  1  0.85875876  0.92018922  0.54272685  1.0
  O  O150  1  0.42432458  0.19023878  0.54199675  1.0
  O  O151  1  0.74989721  0.75015927  0.50045249  1.0
  O  O152  1  0.57567509  0.80976224  0.45800167  1.0
  O  O153  1  0.12805537  0.36195978  0.55002670  1.0
  O  O154  1  0.87194201  0.63804185  0.44997431  1.0
  O  O155  1  0.31736299  0.08092528  0.46047012  1.0
  O  O156  1  0.68263584  0.91907452  0.53952896  1.0
  O  O157  1  0.13986584  0.37647299  0.45663659  1.0
  O  O158  1  0.86013156  0.62353170  0.54336365  1.0
  O  O159  1  0.30957046  0.36763058  0.44323540  1.0
  O  O160  1  0.69043149  0.63236677  0.55676075  1.0
  O  O161  1  0.12512748  0.18764654  0.54726029  1.0
  O  O162  1  0.87487170  0.81235202  0.45273985  1.0
  O  O163  1  0.40123761  0.33641528  0.66776520  1.0
  O  O164  1  0.59875917  0.66358635  0.33223246  1.0
  O  O165  1  0.16902862  0.10066875  0.33241807  1.0
