# generated using pymatgen
data_AlH12C24(O2F)3
_symmetry_space_group_name_H-M   'P 1'
_cell_length_a   3.95734747
_cell_length_b   28.56796952
_cell_length_c   28.56517047
_cell_angle_alpha   60.00051913
_cell_angle_beta   89.96549280
_cell_angle_gamma   89.97704431
_symmetry_Int_Tables_number   1
_chemical_formula_structural   AlH12C24(O2F)3
_chemical_formula_sum   'Al2 H24 C48 O12 F6'
_cell_volume   2796.74712653
_cell_formula_units_Z   2
loop_
 _symmetry_equiv_pos_site_id
 _symmetry_equiv_pos_as_xyz
  1  'x, y, z'
loop_
 _atom_site_type_symbol
 _atom_site_label
 _atom_site_symmetry_multiplicity
 _atom_site_fract_x
 _atom_site_fract_y
 _atom_site_fract_z
 _atom_site_occupancy
  Al  Al0  1  0.99100959  0.50001097  0.99998450  1.0
  Al  Al1  1  0.99096173  0.16665248  0.66667733  1.0
  H  H2  1  0.70844827  0.30009623  0.51471649  1.0
  H  H3  1  0.71252152  0.34810664  0.41449289  1.0
  H  H4  1  0.31850490  0.20390644  0.42035050  1.0
  H  H5  1  0.31836072  0.46275527  0.24635776  1.0
  H  H6  1  0.71204621  0.31854067  0.25212949  1.0
  H  H7  1  0.70786895  0.36654784  0.15192274  1.0
  H  H8  1  0.49063441  0.27905604  0.33427935  1.0
  H  H9  1  0.49077775  0.38760659  0.33238985  1.0
  H  H10  1  0.70776386  0.18518395  0.80010032  1.0
  H  H11  1  0.71160507  0.23736218  0.84810183  1.0
  H  H12  1  0.31746673  0.37575419  0.70388472  1.0
  H  H13  1  0.31817223  0.29094363  0.96280330  1.0
  H  H14  1  0.71194076  0.42928920  0.81848456  1.0
  H  H15  1  0.70848273  0.48149795  0.86646251  1.0
  H  H16  1  0.48969814  0.38667015  0.77902405  1.0
  H  H17  1  0.48991632  0.28001920  0.88761363  1.0
  H  H18  1  0.70823614  0.01468306  0.68515842  1.0
  H  H19  1  0.71204870  0.91449000  0.73738129  1.0
  H  H20  1  0.31815406  0.92035018  0.87580111  1.0
  H  H21  1  0.31831282  0.74633645  0.79090878  1.0
  H  H22  1  0.71186751  0.75215220  0.92929932  1.0
  H  H23  1  0.70799763  0.65194934  0.98151678  1.0
  H  H24  1  0.49017451  0.83425897  0.88670185  1.0
  H  H25  1  0.49032335  0.83239585  0.78001629  1.0
  C  C26  1  0.49130642  0.58276755  0.95151461  1.0
  C  C27  1  0.49105294  0.46574656  0.08274157  1.0
  C  C28  1  0.49158436  0.45153678  0.96570204  1.0
  C  C29  1  0.49152921  0.20091558  0.58392153  1.0
  C  C30  1  0.49092960  0.21515026  0.70093154  1.0
  C  C31  1  0.49130097  0.08389839  0.71515980  1.0
  C  C32  1  0.49659679  0.22687587  0.52404468  1.0
  C  C33  1  0.61614755  0.28022362  0.49310065  1.0
  C  C34  1  0.61629352  0.30689458  0.43712646  1.0
  C  C35  1  0.50648163  0.28039657  0.40937600  1.0
  C  C36  1  0.39878369  0.22640018  0.43999136  1.0
  C  C37  1  0.38851076  0.20111706  0.49592365  1.0
  C  C38  1  0.50436255  0.30638562  0.35066817  1.0
  C  C39  1  0.50434062  0.36027194  0.31600375  1.0
  C  C40  1  0.39846718  0.44025677  0.22670303  1.0
  C  C41  1  0.50619896  0.38625718  0.25729416  1.0
  C  C42  1  0.61585990  0.35975870  0.22951936  1.0
  C  C43  1  0.61567484  0.38643893  0.17354275  1.0
  C  C44  1  0.49609819  0.43978663  0.14262333  1.0
  C  C45  1  0.38800906  0.46554006  0.17076618  1.0
  C  C46  1  0.49584344  0.24908501  0.72687007  1.0
  C  C47  1  0.61542640  0.22667716  0.78020976  1.0
  C  C48  1  0.61549473  0.25597793  0.80688240  1.0
  C  C49  1  0.50571711  0.31023431  0.78038195  1.0
  C  C50  1  0.39795694  0.33362987  0.72637898  1.0
  C  C51  1  0.38766566  0.30296446  0.70110724  1.0
  C  C52  1  0.50351383  0.34295425  0.80636611  1.0
  C  C53  1  0.50361149  0.32373506  0.86026699  1.0
  C  C54  1  0.39852469  0.33306978  0.94027494  1.0
  C  C55  1  0.50596936  0.35645580  0.88624575  1.0
  C  C56  1  0.61591475  0.41070160  0.85972014  1.0
  C  C57  1  0.61606142  0.44001192  0.88638347  1.0
  C  C58  1  0.49661154  0.41761568  0.93975024  1.0
  C  C59  1  0.38851450  0.36373509  0.96554615  1.0
  C  C60  1  0.49631697  0.02402407  0.74908508  1.0
  C  C61  1  0.61590034  0.99308522  0.72666357  1.0
  C  C62  1  0.61591342  0.93711313  0.75598614  1.0
  C  C63  1  0.50608019  0.90935934  0.81025498  1.0
  C  C64  1  0.39845062  0.93997621  0.83365466  1.0
  C  C65  1  0.38821900  0.99590707  0.80298181  1.0
  C  C66  1  0.50386281  0.85065936  0.84297927  1.0
  C  C67  1  0.50390838  0.81599616  0.82373634  1.0
  C  C68  1  0.39853039  0.72670078  0.83304619  1.0
  C  C69  1  0.50606263  0.75729795  0.85645119  1.0
  C  C70  1  0.61576286  0.72953247  0.91070902  1.0
  C  C71  1  0.61576081  0.67356084  0.94001946  1.0
  C  C72  1  0.49631733  0.64263982  0.91759627  1.0
  C  C73  1  0.38833925  0.67076549  0.86371246  1.0
  O  O74  1  0.25403641  0.44429144  0.99878098  1.0
  O  O75  1  0.25391208  0.55695557  0.94426060  1.0
  O  O76  1  0.25350781  0.49879896  0.05693736  1.0
  O  O77  1  0.72494013  0.48692672  0.95173973  1.0
  O  O78  1  0.72443303  0.45178923  0.06128192  1.0
  O  O79  1  0.72451931  0.56131560  0.98692113  1.0
  O  O80  1  0.25372310  0.10971934  0.72240753  1.0
  O  O81  1  0.25409199  0.16784510  0.60974979  1.0
  O  O82  1  0.25354826  0.22239362  0.66786615  1.0
  O  O83  1  0.72473654  0.10533883  0.67975820  1.0
  O  O84  1  0.72424756  0.17973817  0.71490606  1.0
  O  O85  1  0.72476225  0.21487692  0.60536064  1.0
  F  F86  1  0.28028184  0.14903126  0.52333776  1.0
  F  F87  1  0.27967367  0.51762368  0.14337592  1.0
  F  F88  1  0.27935263  0.32763640  0.64902508  1.0
  F  F89  1  0.28048665  0.33906606  0.01765867  1.0
  F  F90  1  0.27997822  0.02331764  0.82766809  1.0
  F  F91  1  0.28025778  0.64336539  0.83902859  1.0
