# generated using pymatgen
data_Al6H41C84Br9(Cl3O7)4
_symmetry_space_group_name_H-M   'P 1'
_cell_length_a   13.71006076
_cell_length_b   13.77704591
_cell_length_c   27.30301608
_cell_angle_alpha   89.24884602
_cell_angle_beta   89.39118257
_cell_angle_gamma   60.70563941
_symmetry_Int_Tables_number   1
_chemical_formula_structural   Al6H41C84Br9(Cl3O7)4
_chemical_formula_sum   'Al6 H41 C84 Br9 Cl12 O28'
_cell_volume   4497.16365726
_cell_formula_units_Z   1
loop_
 _symmetry_equiv_pos_site_id
 _symmetry_equiv_pos_as_xyz
  1  'x, y, z'
loop_
 _atom_site_type_symbol
 _atom_site_label
 _atom_site_symmetry_multiplicity
 _atom_site_fract_x
 _atom_site_fract_y
 _atom_site_fract_z
 _atom_site_occupancy
  Al  Al0  1  0.40059526  0.42966577  0.50489824  1.0
  Al  Al1  1  0.18964439  0.39007674  0.50288761  1.0
  Al  Al2  1  0.42053985  0.18949970  0.50224630  1.0
  Al  Al3  1  0.91200508  0.92622844  0.01482202  1.0
  Al  Al4  1  0.15304165  0.91200928  0.01427574  1.0
  Al  Al5  1  0.95014931  0.13810213  0.01580593  1.0
  H  H6  1  0.32847962  0.18401750  0.81576044  1.0
  H  H7  1  0.07626100  0.31694365  0.21312574  1.0
  H  H8  1  0.66666667  0.04346161  0.23039327  1.0
  H  H9  1  0.31036093  0.63911399  0.22751845  1.0
  H  H10  1  0.04397769  0.28437872  0.12668111  1.0
  H  H11  1  0.72273791  0.01285905  0.14192776  1.0
  H  H12  1  0.29822777  0.69429600  0.13920226  1.0
  H  H13  1  0.28068833  0.96318489  0.23552641  1.0
  H  H14  1  0.81563862  0.25431413  0.24301946  1.0
  H  H15  1  0.95185875  0.78139883  0.23282094  1.0
  H  H16  1  0.25302569  0.93167907  0.14813172  1.0
  H  H17  1  0.50223724  0.34253703  0.82675324  1.0
  H  H18  1  0.86663516  0.22712703  0.15445229  1.0
  H  H19  1  0.94167598  0.82914396  0.14389588  1.0
  H  H20  1  0.11669940  0.07460692  0.31158812  1.0
  H  H21  1  0.78799130  0.00302852  0.31629211  1.0
  H  H22  1  0.22545481  0.75735317  0.30967025  1.0
  H  H23  1  0.36442258  0.14970942  0.73168325  1.0
  H  H24  1  0.48801243  0.36584006  0.74135506  1.0
  H  H25  1  0.13886102  0.48392008  0.74391113  1.0
  H  H26  1  0.19416955  0.00885008  0.71547144  1.0
  H  H27  1  0.78492820  0.16489267  0.71290551  1.0
  H  H28  1  0.18777771  0.48923434  0.82546835  1.0
  H  H29  1  0.01801218  0.78645900  0.71742824  1.0
  H  H30  1  0.33278661  0.98458597  0.70965724  1.0
  H  H31  1  0.68387377  0.30674106  0.70544946  1.0
  H  H32  1  0.98184481  0.67962556  0.71845273  1.0
  H  H33  1  0.23646967  0.96959984  0.79823453  1.0
  H  H34  1  0.80693547  0.21659166  0.79109455  1.0
  H  H35  1  0.98667290  0.79392465  0.80164952  1.0
  H  H36  1  0.06267826  0.31907800  0.72804037  1.0
  H  H37  1  0.57965326  0.07150982  0.75191873  1.0
  H  H38  1  0.32808976  0.59384248  0.72675394  1.0
  H  H39  1  0.25401338  0.28795733  0.72350956  1.0
  H  H40  1  0.43870342  0.26840441  0.74378193  1.0
  H  H41  1  0.28019581  0.44517827  0.73034031  1.0
  H  H42  1  0.19430789  0.30052171  0.80592819  1.0
  H  H43  1  0.50006474  0.21510609  0.82543865  1.0
  H  H44  1  0.30890668  0.49731932  0.80894726  1.0
  H  H45  1  0.43763001  0.56943333  0.53088618  1.0
  H  H46  1  0.82190697  0.83099747  0.98599155  1.0
  C  C47  1  0.51797194  0.24542392  0.57822173  1.0
  C  C48  1  0.18621831  0.12725430  0.86046103  1.0
  C  C49  1  0.69814928  0.19396717  0.86546388  1.0
  C  C50  1  0.14925085  0.68582080  0.86184860  1.0
  C  C51  1  0.21812572  0.17001824  0.65978781  1.0
  C  C52  1  0.58339289  0.20474348  0.67088084  1.0
  C  C53  1  0.16526650  0.59450245  0.66452679  1.0
  C  C54  1  0.23202457  0.17778979  0.61619692  1.0
  C  C55  1  0.55800261  0.21856031  0.62785019  1.0
  C  C56  1  0.17172696  0.57025147  0.62159511  1.0
  C  C57  1  0.10307351  0.79154448  0.94627491  1.0
  C  C58  1  0.19742726  0.52685857  0.57273185  1.0
  C  C59  1  0.13370421  0.08005010  0.94756094  1.0
  C  C60  1  0.79901364  0.13810526  0.95120087  1.0
  C  C61  1  0.23398995  0.19499568  0.38059788  1.0
  C  C62  1  0.61276033  0.21493483  0.39194672  1.0
  C  C63  1  0.16761135  0.59414854  0.38700787  1.0
  C  C64  1  0.27366459  0.23548963  0.34225233  1.0
  C  C65  1  0.58581264  0.30455570  0.35854495  1.0
  C  C66  1  0.10436829  0.56911762  0.35370750  1.0
  C  C67  1  0.25739274  0.21851288  0.29308093  1.0
  C  C68  1  0.62535305  0.28391913  0.30983311  1.0
  C  C69  1  0.25291249  0.20342182  0.56740035  1.0
  C  C70  1  0.09404933  0.60329496  0.30427690  1.0
  C  C71  1  0.19979907  0.16064327  0.28164264  1.0
  C  C72  1  0.69712241  0.17499131  0.29378116  1.0
  C  C73  1  0.13963702  0.66972828  0.28756130  1.0
  C  C74  1  0.55099029  0.23588299  0.43982983  1.0
  C  C75  1  0.20569172  0.53373003  0.43522365  1.0
  C  C76  1  0.25197216  0.22000455  0.43226327  1.0
  C  C77  1  0.16145274  0.11936087  0.32003634  1.0
  C  C78  1  0.72930681  0.08754416  0.32761897  1.0
  C  C79  1  0.19378571  0.70211358  0.32148043  1.0
  C  C80  1  0.07592736  0.20221920  0.78482037  1.0
  C  C81  1  0.17817751  0.13670514  0.36875795  1.0
  C  C82  1  0.68814873  0.10681206  0.37539571  1.0
  C  C83  1  0.20796589  0.66521152  0.36988791  1.0
  C  C84  1  0.11443892  0.23249612  0.19894128  1.0
  C  C85  1  0.71201971  0.08230814  0.21385652  1.0
  C  C86  1  0.22938932  0.68249980  0.20933104  1.0
  C  C87  1  0.09702888  0.21467818  0.15058520  1.0
  C  C88  1  0.74187100  0.06601653  0.16452092  1.0
  C  C89  1  0.22305589  0.71199766  0.15996817  1.0
  C  C90  1  0.21484223  0.01566240  0.16273798  1.0
  C  C91  1  0.70697596  0.07584877  0.79613725  1.0
  C  C92  1  0.82270096  0.18746721  0.17144461  1.0
  C  C93  1  0.02166069  0.78779381  0.16281770  1.0
  C  C94  1  0.22944117  0.03360850  0.21153867  1.0
  C  C95  1  0.79422264  0.20228425  0.22082528  1.0
  C  C96  1  0.02797129  0.76056316  0.21220017  1.0
  C  C97  1  0.18069018  0.14208578  0.22997729  1.0
  C  C98  1  0.73626300  0.15202451  0.24228265  1.0
  C  C99  1  0.13205139  0.70522257  0.23572680  1.0
  C  C100  1  0.14835311  0.10613678  0.13198307  1.0
  C  C101  1  0.79535176  0.12040155  0.14288720  1.0
  C  C102  1  0.21967193  0.70906657  0.78141476  1.0
  C  C103  1  0.11933115  0.76272529  0.13633740  1.0
  C  C104  1  0.10688327  0.79754667  0.08407975  1.0
  C  C105  1  0.12528417  0.08509893  0.08140791  1.0
  C  C106  1  0.82841849  0.10217381  0.09037398  1.0
  C  C107  1  0.27547392  0.20623883  0.73917543  1.0
  C  C108  1  0.50962095  0.28087400  0.75262884  1.0
  C  C109  1  0.20238480  0.51019063  0.74666218  1.0
  C  C110  1  0.25228529  0.03710675  0.72766138  1.0
  C  C111  1  0.70553247  0.23178809  0.72734294  1.0
  C  C112  1  0.04126977  0.70372603  0.73268281  1.0
  C  C113  1  0.08444215  0.23127874  0.72995546  1.0
  C  C114  1  0.26362175  0.02649555  0.78346735  1.0
  C  C115  1  0.71919147  0.25049010  0.78141537  1.0
  C  C116  1  0.03672541  0.70885912  0.78870371  1.0
  C  C117  1  0.17003233  0.10724981  0.90226667  1.0
  C  C118  1  0.73633865  0.17940786  0.90648344  1.0
  C  C119  1  0.13430632  0.72563569  0.90242195  1.0
  C  C120  1  0.20757003  0.15973346  0.71221838  1.0
  C  C121  1  0.61331162  0.19891021  0.72201543  1.0
  C  C122  1  0.16092033  0.61938348  0.71603590  1.0
  C  C123  1  0.25116594  0.21454780  0.79474611  1.0
  C  C124  1  0.65322333  0.08161515  0.74530493  1.0
  C  C125  1  0.53581067  0.26278272  0.80782126  1.0
  C  C126  1  0.22012261  0.52987567  0.80050755  1.0
  C  C127  1  0.19633564  0.14281429  0.80827023  1.0
  C  C128  1  0.66401187  0.19831697  0.81504915  1.0
  C  C129  1  0.15708029  0.65616767  0.81064627  1.0
  C  C130  1  0.24267186  0.66403597  0.72811999  1.0
  Br  Br131  1  0.12347697  0.08040277  0.41950735  1.0
  Br  Br132  1  0.74662372  0.97903672  0.41708949  1.0
  Br  Br133  1  0.27921978  0.72065212  0.41146465  1.0
  Br  Br134  1  0.42210908  0.95520696  0.80369758  1.0
  Br  Br135  1  0.65618122  0.41038555  0.79605880  1.0
  Br  Br136  1  0.95599810  0.63525244  0.81693652  1.0
  Br  Br137  1  0.97757947  0.34311401  0.81908722  1.0
  Br  Br138  1  0.66241405  0.99231877  0.84215394  1.0
  Br  Br139  1  0.36534590  0.66721774  0.81211000  1.0
  Cl  Cl140  1  0.01485632  0.11559672  0.79324497  1.0
  Cl  Cl141  1  0.98667686  0.22105562  0.69123091  1.0
  Cl  Cl142  1  0.74007202  0.97070473  0.70581479  1.0
  Cl  Cl143  1  0.24092027  0.76098035  0.68417527  1.0
  Cl  Cl144  1  0.85586659  0.00406843  0.79463515  1.0
  Cl  Cl145  1  0.13815644  0.85641757  0.78431366  1.0
  Cl  Cl146  1  0.34138097  0.30864673  0.35605039  1.0
  Cl  Cl147  1  0.49947136  0.44024504  0.37430332  1.0
  Cl  Cl148  1  0.04167363  0.49237156  0.37081221  1.0
  Cl  Cl149  1  0.31160338  0.26552326  0.24735947  1.0
  Cl  Cl150  1  0.57848456  0.39366133  0.26876704  1.0
  Cl  Cl151  1  0.03094170  0.55675831  0.26353260  1.0
  O  O152  1  0.27884604  0.52774689  0.55115426  1.0
  O  O153  1  0.30447620  0.50503128  0.44758314  1.0
  O  O154  1  0.17409337  0.30906889  0.45079375  1.0
  O  O155  1  0.52642006  0.16055476  0.45394840  1.0
  O  O156  1  0.52092276  0.32575033  0.46194286  1.0
  O  O157  1  0.13896543  0.51009017  0.45971008  1.0
  O  O158  1  0.34523814  0.15489774  0.45209609  1.0
  O  O159  1  0.33569820  0.33514897  0.50372218  1.0
  O  O160  1  0.00624487  0.99276567  0.01410281  1.0
  O  O161  1  0.00221441  0.83267281  0.95966054  1.0
  O  O162  1  0.19679489  0.98360382  0.96628447  1.0
  O  O163  1  0.17445285  0.28970444  0.54682804  1.0
  O  O164  1  0.83334874  0.19985342  0.97186310  1.0
  O  O165  1  0.83243204  0.01850255  0.06992746  1.0
  O  O166  1  0.18802918  0.80657807  0.06374139  1.0
  O  O167  1  0.04014137  0.16351425  0.05948610  1.0
  O  O168  1  0.01635713  0.82082622  0.06318450  1.0
  O  O169  1  0.18734383  0.98883450  0.06328348  1.0
  O  O170  1  0.85383274  0.17149641  0.06952951  1.0
  O  O171  1  0.52215750  0.16600908  0.55212746  1.0
  O  O172  1  0.81884148  0.04262175  0.96503731  1.0
  O  O173  1  0.17940992  0.80600557  0.96646917  1.0
  O  O174  1  0.03837382  0.15262994  0.96381821  1.0
  O  O175  1  0.47953036  0.34560307  0.56493775  1.0
  O  O176  1  0.13766333  0.48598414  0.55597800  1.0
  O  O177  1  0.35059294  0.14163406  0.54944210  1.0
  O  O178  1  0.46046453  0.51634269  0.50456642  1.0
  O  O179  1  0.82413088  0.86722699  0.01570395  1.0
