# generated using pymatgen
data_ZnC9IN(O2F)2
_symmetry_space_group_name_H-M   'P 1'
_cell_length_a   10.65386799
_cell_length_b   10.89392939
_cell_length_c   11.87503634
_cell_angle_alpha   87.43763814
_cell_angle_beta   88.18367338
_cell_angle_gamma   87.73545883
_symmetry_Int_Tables_number   1
_chemical_formula_structural   ZnC9IN(O2F)2
_chemical_formula_sum   'Zn2 C18 I2 N2 O8 F4'
_cell_volume   1375.17440060
_cell_formula_units_Z   2
loop_
 _symmetry_equiv_pos_site_id
 _symmetry_equiv_pos_as_xyz
  1  'x, y, z'
loop_
 _atom_site_type_symbol
 _atom_site_label
 _atom_site_symmetry_multiplicity
 _atom_site_fract_x
 _atom_site_fract_y
 _atom_site_fract_z
 _atom_site_occupancy
  Zn  Zn0  1  0.37007049  0.50102172  0.50358699  1.0
  Zn  Zn1  1  0.62994429  0.49897035  0.49641036  1.0
  C  C2  1  0.49973741  0.50024180  0.28126075  1.0
  C  C3  1  0.56777142  0.95868353  0.41013847  1.0
  C  C4  1  0.45496910  0.05559589  0.40403596  1.0
  C  C5  1  0.54496935  0.94439851  0.59597508  1.0
  C  C6  1  0.51134534  0.12484572  0.50508827  1.0
  C  C7  1  0.48858749  0.87514789  0.49492287  1.0
  C  C8  1  0.49993928  0.49981432  0.15984432  1.0
  C  C9  1  0.50018787  0.50019724  0.84015267  1.0
  C  C10  1  0.50003629  0.49990345  0.05682117  1.0
  C  C11  1  0.50014654  0.50011096  0.94315642  1.0
  C  C12  1  0.50036391  0.49975034  0.71872776  1.0
  C  C13  1  0.48795554  0.73803288  0.49331214  1.0
  C  C14  1  0.51200745  0.26196394  0.50668922  1.0
  C  C15  1  0.93586570  0.50092203  0.49781744  1.0
  C  C16  1  0.06415796  0.49910011  0.50218082  1.0
  C  C17  1  0.37678854  0.97295195  0.49008913  1.0
  C  C18  1  0.62313789  0.02704300  0.50991028  1.0
  C  C19  1  0.43216707  0.04131187  0.58986918  1.0
  I  I20  1  0.38780070  0.14157098  0.25510980  1.0
  I  I21  1  0.61211575  0.85844404  0.74490533  1.0
  N  N22  1  0.82701262  0.50245260  0.49417357  1.0
  N  N23  1  0.17301398  0.49756964  0.50581791  1.0
  O  O24  1  0.39228023  0.50285607  0.33165231  1.0
  O  O25  1  0.60779811  0.49711758  0.66832429  1.0
  O  O26  1  0.39314194  0.50197179  0.67385865  1.0
  O  O27  1  0.60693709  0.49804339  0.32614823  1.0
  O  O28  1  0.38215806  0.68832468  0.49654911  1.0
  O  O29  1  0.61780707  0.31165275  0.50345517  1.0
  O  O30  1  0.40351282  0.31489529  0.50934979  1.0
  O  O31  1  0.59645357  0.68511317  0.49066139  1.0
  F  F32  1  0.25439376  0.94799624  0.47894748  1.0
  F  F33  1  0.74552497  0.05199110  0.52107074  1.0
  F  F34  1  0.36676695  0.08343290  0.68089558  1.0
  F  F35  1  0.63314079  0.91656167  0.31909905  1.0
