# generated using pymatgen
data_AlH6C21N(OF)6
_symmetry_space_group_name_H-M   'P 1'
_cell_length_a   4.13177324
_cell_length_b   13.51078142
_cell_length_c   13.51070899
_cell_angle_alpha   119.99944188
_cell_angle_beta   90.00003778
_cell_angle_gamma   89.99948525
_symmetry_Int_Tables_number   1
_chemical_formula_structural   AlH6C21N(OF)6
_chemical_formula_sum   'Al1 H6 C21 N1 O6 F6'
_cell_volume   653.17290392
_cell_formula_units_Z   1
loop_
 _symmetry_equiv_pos_site_id
 _symmetry_equiv_pos_as_xyz
  1  'x, y, z'
loop_
 _atom_site_type_symbol
 _atom_site_label
 _atom_site_symmetry_multiplicity
 _atom_site_fract_x
 _atom_site_fract_y
 _atom_site_fract_z
 _atom_site_occupancy
  Al  Al0  1  0.00000724  0.49999824  0.00000399  1.0
  H  H1  1  0.21676875  0.89900740  0.87146432  1.0
  H  H2  1  0.78323140  0.62853954  0.60099265  1.0
  H  H3  1  0.78322906  0.97244893  0.87145737  1.0
  H  H4  1  0.21676500  0.97245171  0.60099139  1.0
  H  H5  1  0.78326127  0.89900019  0.52755192  1.0
  H  H6  1  0.21673122  0.62855237  0.52755607  1.0
  C  C7  1  0.50001777  0.32611245  0.91306007  1.0
  C  C8  1  0.49999728  0.58694373  0.17389088  1.0
  C  C9  1  0.50000187  0.58693608  0.91305728  1.0
  C  C10  1  0.34735547  0.75673687  0.89073685  1.0
  C  C11  1  0.34167416  0.81743800  0.83302076  1.0
  C  C12  1  0.49999267  0.77271073  0.72729173  1.0
  C  C13  1  0.65832718  0.66698259  0.68256233  1.0
  C  C14  1  0.65264287  0.60926295  0.74325859  1.0
  C  C15  1  0.49999603  0.65115132  0.84884237  1.0
  C  C16  1  0.65832471  0.01557558  0.83302047  1.0
  C  C17  1  0.65263299  0.13399290  0.89073952  1.0
  C  C18  1  0.50000022  0.19768498  0.84884317  1.0
  C  C19  1  0.34735230  0.13399421  0.74325893  1.0
  C  C20  1  0.34165908  0.01558132  0.68256142  1.0
  C  C21  1  0.49999971  0.95457994  0.72728953  1.0
  C  C22  1  0.65835237  0.81744170  0.48442421  1.0
  C  C23  1  0.65263647  0.75673842  0.36600208  1.0
  C  C24  1  0.50000856  0.65116006  0.30231757  1.0
  C  C25  1  0.34736775  0.60926503  0.36600854  1.0
  C  C26  1  0.34164551  0.66698753  0.48442728  1.0
  C  C27  1  0.49999250  0.77270900  0.54541963  1.0
  N  N28  1  0.49998931  0.83333467  0.66666640  1.0
  O  O29  1  0.73663130  0.60514974  0.97984989  1.0
  O  O30  1  0.73663216  0.37469629  0.89485369  1.0
  O  O31  1  0.73663752  0.52014583  0.12530582  1.0
  O  O32  1  0.26339013  0.52014507  0.89485040  1.0
  O  O33  1  0.26336975  0.60515137  0.12530470  1.0
  O  O34  1  0.26338023  0.37469785  0.97985966  1.0
  F  F35  1  0.80637492  0.50695270  0.69790786  1.0
  F  F36  1  0.19361704  0.80208113  0.99304643  1.0
  F  F37  1  0.80637254  0.19095458  0.99304706  1.0
  F  F38  1  0.19362324  0.19095738  0.69791153  1.0
  F  F39  1  0.80640508  0.80208309  0.30904321  1.0
  F  F40  1  0.19360954  0.50696139  0.30904672  1.0
