# generated using pymatgen
data_Al2H17C33N5O13
_symmetry_space_group_name_H-M   'P 1'
_cell_length_a   6.70124897
_cell_length_b   21.87517406
_cell_length_c   24.37710965
_cell_angle_alpha   109.96960068
_cell_angle_beta   89.99074620
_cell_angle_gamma   89.99553410
_symmetry_Int_Tables_number   1
_chemical_formula_structural   Al2H17C33N5O13
_chemical_formula_sum   'Al4 H34 C66 N10 O26'
_cell_volume   3358.60620453
_cell_formula_units_Z   2
loop_
 _symmetry_equiv_pos_site_id
 _symmetry_equiv_pos_as_xyz
  1  'x, y, z'
loop_
 _atom_site_type_symbol
 _atom_site_label
 _atom_site_symmetry_multiplicity
 _atom_site_fract_x
 _atom_site_fract_y
 _atom_site_fract_z
 _atom_site_occupancy
  Al  Al0  1  0.09986825  0.50158900  0.50015863  1.0
  Al  Al1  1  0.59986040  0.49838179  0.49980064  1.0
  Al  Al2  1  0.68102638  0.99973324  0.99897780  1.0
  Al  Al3  1  0.18098544  0.00025679  0.00101129  1.0
  H  H4  1  0.06448319  0.78140263  0.94179043  1.0
  H  H5  1  0.56325738  0.21870946  0.05812685  1.0
  H  H6  1  0.08118411  0.67254183  0.86815874  1.0
  H  H7  1  0.57939213  0.32757761  0.13175895  1.0
  H  H8  1  0.83041976  0.85836742  0.81489478  1.0
  H  H9  1  0.33094074  0.14155174  0.18511023  1.0
  H  H10  1  0.75095925  0.71850319  0.55520509  1.0
  H  H11  1  0.25245456  0.28136979  0.44488918  1.0
  H  H12  1  0.81101111  0.84882502  0.73197717  1.0
  H  H13  1  0.31158796  0.15108939  0.26806091  1.0
  H  H14  1  0.94929698  0.58107460  0.66275095  1.0
  H  H15  1  0.44836723  0.41891791  0.33724294  1.0
  H  H16  1  0.62193044  0.13063176  0.91421871  1.0
  H  H17  1  0.12195115  0.86939862  0.08581236  1.0
  H  H18  1  0.62640946  0.20194498  0.85215337  1.0
  H  H19  1  0.12644806  0.79811487  0.14790689  1.0
  H  H20  1  0.24102130  0.08601664  0.87470375  1.0
  H  H21  1  0.74103978  0.91398173  0.12527226  1.0
  H  H22  1  0.56738764  0.31783084  0.67060868  1.0
  H  H23  1  0.06751427  0.68216720  0.32939539  1.0
  H  H24  1  0.54377914  0.38214489  0.60447631  1.0
  H  H25  1  0.04391814  0.61784537  0.39552091  1.0
  H  H26  1  0.18262258  0.40602937  0.61166152  1.0
  H  H27  1  0.68278412  0.59399666  0.38833330  1.0
  H  H28  1  0.37711472  0.12473782  0.80747972  1.0
  H  H29  1  0.87708966  0.87529861  0.19251247  1.0
  H  H30  1  0.22814957  0.32132743  0.71233084  1.0
  H  H31  1  0.72828493  0.67875113  0.28769154  1.0
  H  H32  1  0.05692542  0.59652716  0.80665461  1.0
  H  H33  1  0.55524043  0.40358728  0.19331623  1.0
  H  H34  1  0.35194810  0.54134080  0.57553089  1.0
  H  H35  1  0.85206416  0.45864383  0.42442688  1.0
  H  H36  1  0.42739295  0.95272084  0.92650363  1.0
  H  H37  1  0.92724197  0.04733703  0.07344595  1.0
  C  C38  1  0.35241304  0.56131837  0.43398964  1.0
  C  C39  1  0.85233340  0.43866597  0.56598036  1.0
  C  C40  1  0.34728131  0.39238009  0.42696034  1.0
  C  C41  1  0.84711332  0.60758511  0.57304347  1.0
  C  C42  1  0.02685860  0.71252961  0.85493966  1.0
  C  C43  1  0.52569300  0.28753889  0.14500322  1.0
  C  C44  1  0.94238419  0.82595180  0.88209726  1.0
  C  C45  1  0.44208099  0.17406700  0.11787900  1.0
  C  C46  1  0.78571759  0.72613030  0.60073351  1.0
  C  C47  1  0.28681318  0.27376806  0.39933510  1.0
  C  C48  1  0.77827061  0.78960166  0.64249423  1.0
  C  C49  1  0.27925252  0.21030568  0.35755915  1.0
  C  C50  1  0.81801478  0.79936582  0.70102433  1.0
  C  C51  1  0.31859063  0.20055437  0.29900572  1.0
  C  C52  1  0.86820789  0.74717271  0.71963829  1.0
  C  C53  1  0.36823264  0.25277880  0.28036747  1.0
  C  C54  1  0.88397885  0.68334430  0.67724390  1.0
  C  C55  1  0.38369616  0.31661699  0.32274613  1.0
  C  C56  1  0.90882912  0.75594724  0.78036020  1.0
  C  C57  1  0.40856498  0.24403908  0.21962945  1.0
  C  C58  1  0.97357689  0.70204302  0.79629521  1.0
  C  C59  1  0.47274243  0.29798990  0.20367197  1.0
  C  C60  1  0.98344189  0.63860080  0.75179112  1.0
  C  C61  1  0.48236335  0.36143829  0.24818575  1.0
  C  C62  1  0.93927877  0.62995432  0.69474990  1.0
  C  C63  1  0.43845782  0.37003944  0.30523339  1.0
  C  C64  1  0.88749026  0.81682922  0.82505384  1.0
  C  C65  1  0.38749533  0.18314218  0.17494370  1.0
  C  C66  1  0.01709569  0.77359268  0.89713313  1.0
  C  C67  1  0.51619979  0.22646810  0.10280662  1.0
  C  C68  1  0.83941329  0.67448679  0.61792339  1.0
  C  C69  1  0.33973941  0.32545127  0.38210047  1.0
  C  C70  1  0.75630379  0.13614276  0.89116088  1.0
  C  C71  1  0.25631725  0.86389188  0.10886750  1.0
  C  C72  1  0.75910932  0.17529521  0.85684336  1.0
  C  C73  1  0.25912261  0.82475862  0.14320523  1.0
  C  C74  1  0.93294219  0.18305302  0.82726323  1.0
  C  C75  1  0.43294734  0.81699157  0.17276916  1.0
  C  C76  1  0.10845498  0.14951819  0.83320045  1.0
  C  C77  1  0.60843313  0.85052468  0.16681802  1.0
  C  C78  1  0.10609678  0.11120459  0.86896362  1.0
  C  C79  1  0.60610415  0.88880950  0.13103117  1.0
  C  C80  1  0.93172408  0.10398089  0.89743088  1.0
  C  C81  1  0.43173904  0.89603868  0.10257466  1.0
  C  C82  1  0.89578167  0.29245981  0.72205452  1.0
  C  C83  1  0.39589931  0.70755760  0.27795866  1.0
  C  C84  1  0.92381865  0.22522584  0.79172992  1.0
  C  C85  1  0.42385487  0.77480006  0.20828057  1.0
  C  C86  1  0.70171333  0.33696695  0.65748046  1.0
  C  C87  1  0.20183999  0.66305179  0.34252911  1.0
  C  C88  1  0.68786899  0.37268211  0.62051323  1.0
  C  C89  1  0.18797756  0.62732890  0.37949048  1.0
  C  C90  1  0.86243673  0.39784954  0.60412985  1.0
  C  C91  1  0.36257160  0.60216681  0.39586932  1.0
  C  C92  1  0.04815970  0.38642029  0.62446320  1.0
  C  C93  1  0.54832698  0.61361939  0.37554514  1.0
  C  C94  1  0.06363475  0.35138717  0.66280672  1.0
  C  C95  1  0.56379392  0.64867030  0.33721821  1.0
  C  C96  1  0.88721661  0.32618691  0.68003316  1.0
  C  C97  1  0.38735262  0.67386029  0.32000061  1.0
  C  C98  1  0.43329751  0.10750515  0.07297053  1.0
  C  C99  1  0.93345455  0.89249725  0.92700743  1.0
  C  C100  1  0.43201852  0.93822421  0.06563586  1.0
  C  C101  1  0.93189228  0.06178843  0.93436008  1.0
  C  C102  1  0.72996483  0.84380264  0.62511680  1.0
  C  C103  1  0.23144039  0.15609091  0.37498378  1.0
  N  N104  1  0.09086659  0.25439650  0.78208097  1.0
  N  N105  1  0.59095493  0.74565011  0.21792791  1.0
  N  N106  1  0.07511072  0.28700579  0.74581597  1.0
  N  N107  1  0.57521667  0.71304196  0.25419675  1.0
  N  N108  1  0.72314551  0.27296914  0.74106777  1.0
  N  N109  1  0.22323118  0.72701111  0.25892115  1.0
  N  N110  1  0.73860503  0.23822465  0.77501817  1.0
  N  N111  1  0.23865247  0.76175379  0.22496867  1.0
  N  N112  1  0.69069005  0.88860624  0.61136008  1.0
  N  N113  1  0.19228500  0.11131154  0.38877929  1.0
  O  O114  1  0.51857882  0.41643455  0.44346828  1.0
  O  O115  1  0.01842941  0.58351892  0.55652726  1.0
  O  O116  1  0.18046380  0.54753099  0.44894545  1.0
  O  O117  1  0.68041241  0.45246492  0.55103401  1.0
  O  O118  1  0.18010577  0.41947706  0.44405794  1.0
  O  O119  1  0.67998104  0.58049755  0.55590902  1.0
  O  O120  1  0.01853966  0.45794318  0.55232663  1.0
  O  O121  1  0.51858945  0.54201106  0.44762381  1.0
  O  O122  1  0.35010178  0.51218685  0.53537038  1.0
  O  O123  1  0.85016490  0.48779898  0.46458797  1.0
  O  O124  1  0.26173406  0.95476582  0.05216401  1.0
  O  O125  1  0.76158049  0.04539331  0.94794050  1.0
  O  O126  1  0.60095843  0.08223832  0.05339958  1.0
  O  O127  1  0.10105484  0.91768762  0.94670788  1.0
  O  O128  1  0.60117992  0.95491074  0.05127249  1.0
  O  O129  1  0.10100948  0.04493947  0.94860835  1.0
  O  O130  1  0.76315782  0.91877440  0.94133311  1.0
  O  O131  1  0.26298163  0.08130879  0.05851142  1.0
  O  O132  1  0.42979304  0.98703406  0.96431467  1.0
  O  O133  1  0.92977379  0.01295817  0.03567677  1.0
  O  O134  1  0.27460600  0.15439551  0.80304130  1.0
  O  O135  1  0.77457689  0.84565819  0.19697544  1.0
  O  O136  1  0.24639857  0.34403873  0.68266606  1.0
  O  O137  1  0.74654703  0.65604977  0.31736707  1.0
  O  O138  1  0.03729809  0.58494402  0.76477622  1.0
  O  O139  1  0.53564224  0.41514218  0.23519899  1.0
