# generated using pymatgen
data_Zn4H28C44N4O13
_symmetry_space_group_name_H-M   'P 1'
_cell_length_a   21.51116823
_cell_length_b   21.51117166
_cell_length_c   21.55143742
_cell_angle_alpha   110.84911420
_cell_angle_beta   110.84972572
_cell_angle_gamma   106.66794968
_symmetry_Int_Tables_number   1
_chemical_formula_structural   Zn4H28C44N4O13
_chemical_formula_sum   'Zn8 H56 C88 N8 O26'
_cell_volume   7671.16306228
_cell_formula_units_Z   2
loop_
 _symmetry_equiv_pos_site_id
 _symmetry_equiv_pos_as_xyz
  1  'x, y, z'
loop_
 _atom_site_type_symbol
 _atom_site_label
 _atom_site_symmetry_multiplicity
 _atom_site_fract_x
 _atom_site_fract_y
 _atom_site_fract_z
 _atom_site_occupancy
  Zn  Zn0  1  0.23309067  0.79016524  0.43023446  1.0
  Zn  Zn1  1  0.77081068  0.20069844  0.55975767  1.0
  Zn  Zn2  1  0.79929684  0.22918487  0.44024035  1.0
  Zn  Zn3  1  0.20984533  0.76691412  0.56976909  1.0
  Zn  Zn4  1  0.35992856  0.80285115  0.56977241  1.0
  Zn  Zn5  1  0.64094809  0.21105228  0.44023980  1.0
  Zn  Zn6  1  0.78893991  0.35904875  0.55976233  1.0
  Zn  Zn7  1  0.19715608  0.64008336  0.43023177  1.0
  H  H8  1  0.97811590  0.42068836  0.04802800  1.0
  H  H9  1  0.98775553  0.92717556  0.56120135  1.0
  H  H10  1  0.75211457  0.16609097  0.69358980  1.0
  H  H11  1  0.82380500  0.31768283  0.36196141  1.0
  H  H12  1  0.83395668  0.24787134  0.30638241  1.0
  H  H13  1  0.02485446  0.67447348  0.48469913  1.0
  H  H14  1  0.05047998  0.74953615  0.56705051  1.0
  H  H15  1  0.45988034  0.81026201  0.48474984  1.0
  H  H16  1  0.51663661  0.81754723  0.56708065  1.0
  H  H17  1  0.53817380  0.04422172  0.36195245  1.0
  H  H18  1  0.47248655  0.05851939  0.30639113  1.0
  H  H19  1  0.95571361  0.46185820  0.63804455  1.0
  H  H20  1  0.06989689  0.62733411  0.04801679  1.0
  H  H21  1  0.94149519  0.52759511  0.69363236  1.0
  H  H22  1  0.18976789  0.54014998  0.51531654  1.0
  H  H23  1  0.18249777  0.48341296  0.43297983  1.0
  H  H24  1  0.97860239  0.37273727  0.94070338  1.0
  H  H25  1  0.61842163  0.57159996  0.60930167  1.0
  H  H26  1  0.36595039  0.42652538  0.43859573  1.0
  H  H27  1  0.57931253  0.02188954  0.95198177  1.0
  H  H28  1  0.43204415  0.03791134  0.05931115  1.0
  H  H29  1  0.96208262  0.56795416  0.94068869  1.0
  H  H30  1  0.99066584  0.03747249  0.60917335  1.0
  H  H31  1  0.07282944  0.01224592  0.43880142  1.0
  H  H32  1  0.37266294  0.93009414  0.95198507  1.0
  H  H33  1  0.62726585  0.02139674  0.05930453  1.0
  H  H34  1  0.42839109  0.38157493  0.39069680  1.0
  H  H35  1  0.57347261  0.63404270  0.56140683  1.0
  H  H36  1  0.96253737  0.00933815  0.39082450  1.0
  H  H37  1  0.05263934  0.49245077  0.19140974  1.0
  H  H38  1  0.89303185  0.49680060  0.79749758  1.0
  H  H39  1  0.91665002  0.10728542  0.60748656  1.0
  H  H40  1  0.14169735  0.93759696  0.43617055  1.0
  H  H41  1  0.30104490  0.86123693  0.80860203  1.0
  H  H42  1  0.69931036  0.09553833  0.20249904  1.0
  H  H43  1  0.49988630  0.30923467  0.39238346  1.0
  H  H44  1  0.50145146  0.70553965  0.56404801  1.0
  H  H45  1  0.89271641  0.08335312  0.39251051  1.0
  H  H46  1  0.06241174  0.85831301  0.56384177  1.0
  H  H47  1  0.13875944  0.69895912  0.19139889  1.0
  H  H48  1  0.90446664  0.30069125  0.79751181  1.0
  H  H49  1  0.69075751  0.50010317  0.60761138  1.0
  H  H50  1  0.29445759  0.49855056  0.43595642  1.0
  H  H51  1  0.50755601  0.94736861  0.80860076  1.0
  H  H52  1  0.50319571  0.10696685  0.20250233  1.0
  H  H53  1  0.64151781  0.91936001  0.64928211  1.0
  H  H54  1  0.34786207  0.01808267  0.29216805  1.0
  H  H55  1  0.98188590  0.65216447  0.70778001  1.0
  H  H56  1  0.08069922  0.35850831  0.35077657  1.0
  H  H57  1  0.27006446  0.99221706  0.35070007  1.0
  H  H58  1  0.72590330  0.05569046  0.70782000  1.0
  H  H59  1  0.94437375  0.27410758  0.29222380  1.0
  H  H60  1  0.00774739  0.72993998  0.64922917  1.0
  H  H61  1  0.32548682  0.97509839  0.51521787  1.0
  H  H62  1  0.25044141  0.94949590  0.43287144  1.0
  H  H63  1  0.68225334  0.17621407  0.63803455  1.0
  C  C64  1  0.01853792  0.51854485  0.03709207  1.0
  C  C65  1  0.02478733  0.97521442  0.50000059  1.0
  C  C66  1  0.35686888  0.85687251  0.71374614  1.0
  C  C67  1  0.34995252  0.65004265  0.49999453  1.0
  C  C68  1  0.64291804  0.35706226  0.49999344  1.0
  C  C69  1  0.85126187  0.35125363  0.70252810  1.0
  C  C70  1  0.14313125  0.64313708  0.28626081  1.0
  C  C71  1  0.64873922  0.14873511  0.29747472  1.0
  C  C72  1  0.15005433  0.84995666  0.50001021  1.0
  C  C73  1  0.85707633  0.14291691  0.49999516  1.0
  C  C74  1  0.01465386  0.48145204  0.07890378  1.0
  C  C75  1  0.95125204  0.50988544  0.90981388  1.0
  C  C76  1  0.96806546  0.04595357  0.56062653  1.0
  C  C77  1  0.06874269  0.97719261  0.46480686  1.0
  C  C78  1  0.40255024  0.93576034  0.92110751  1.0
  C  C79  1  0.60007499  0.04144278  0.09018695  1.0
  C  C80  1  0.48538222  0.40747286  0.43930195  1.0
  C  C81  1  0.97586901  0.47587301  0.95174965  1.0
  C  C82  1  0.51239860  0.60393917  0.53531484  1.0
  C  C83  1  0.95405134  0.03194402  0.43937505  1.0
  C  C84  1  0.02281555  0.93126245  0.53519531  1.0
  C  C85  1  0.06423235  0.59744986  0.07889779  1.0
  C  C86  1  0.95855616  0.39992561  0.90981878  1.0
  C  C87  1  0.59252192  0.51461393  0.56069790  1.0
  C  C88  1  0.39605511  0.48759611  0.46468932  1.0
  C  C89  1  0.51855127  0.98534703  0.92110416  1.0
  C  C90  1  0.49011296  0.04874770  0.09018881  1.0
  C  C91  1  0.51798382  0.48200502  0.49999765  1.0
  C  C92  1  0.47521832  0.52477983  0.50000468  1.0
  C  C93  1  0.05550759  0.52138111  0.15922851  1.0
  C  C94  1  0.91188244  0.47008377  0.82952591  1.0
  C  C95  1  0.92738563  0.08581960  0.56048623  1.0
  C  C96  1  0.10840162  0.93634553  0.46416789  1.0
  C  C97  1  0.36215437  0.89628925  0.84078513  1.0
  C  C98  1  0.48145367  0.98145822  0.96291456  1.0
  C  C99  1  0.64056302  0.08235939  0.17046936  1.0
  C  C100  1  0.52537765  0.36693368  0.43944131  1.0
  C  C101  1  0.47219000  0.64423065  0.53593936  1.0
  C  C102  1  0.91418814  0.07261629  0.43951411  1.0
  C  C103  1  0.06365989  0.89160978  0.53583462  1.0
  C  C104  1  0.10370787  0.63784819  0.15922079  1.0
  C  C105  1  0.91764180  0.35943775  0.82953863  1.0
  C  C106  1  0.63305880  0.47460978  0.56055364  1.0
  C  C107  1  0.35576225  0.52780529  0.46405616  1.0
  C  C108  1  0.47862189  0.94449311  0.84077879  1.0
  C  C109  1  0.52413050  0.02413093  0.04825576  1.0
  C  C110  1  0.52991393  0.08811751  0.17047568  1.0
  C  C111  1  0.10003397  0.60004122  0.20007459  1.0
  C  C112  1  0.89425349  0.39424990  0.78851648  1.0
  C  C113  1  0.90023683  0.09976167  0.49999777  1.0
  C  C114  1  0.10669443  0.89331731  0.50000977  1.0
  C  C115  1  0.39996446  0.89996658  0.79993110  1.0
  C  C116  1  0.60574480  0.10574250  0.21148619  1.0
  C  C117  1  0.59976545  0.40022517  0.49999830  1.0
  C  C118  1  0.39331240  0.60668347  0.49999828  1.0
  C  C119  1  0.98202244  0.01798272  0.49999693  1.0
  C  C120  1  0.34875755  0.97704063  0.43100389  1.0
  C  C121  1  0.64907777  0.06960285  0.62469932  1.0
  C  C122  1  0.93041936  0.35091334  0.37531799  1.0
  C  C123  1  0.02292488  0.65123139  0.56893786  1.0
  C  C124  1  0.54603548  0.91774348  0.56897289  1.0
  C  C125  1  0.44489885  0.02437343  0.37528559  1.0
  C  C126  1  0.97559309  0.55511319  0.62468255  1.0
  C  C127  1  0.08229091  0.45398045  0.43107263  1.0
  C  C128  1  0.32563922  0.99509122  0.37405145  1.0
  C  C129  1  0.66985832  0.02790840  0.65691314  1.0
  C  C130  1  0.97214176  0.33015198  0.34312198  1.0
  C  C131  1  0.00488568  0.67436621  0.62589500  1.0
  C  C132  1  0.62103396  0.95158119  0.62593142  1.0
  C  C133  1  0.37098788  0.01294105  0.34307388  1.0
  C  C134  1  0.98703076  0.62902934  0.65687818  1.0
  C  C135  1  0.04846609  0.37898590  0.37410741  1.0
  C  C136  1  0.47588058  0.02171116  0.44510233  1.0
  C  C137  1  0.52086194  0.96168815  0.53959026  1.0
  C  C138  1  0.03832718  0.47913699  0.46043027  1.0
  C  C139  1  0.97826276  0.52411969  0.55487510  1.0
  C  C140  1  0.57660299  0.03076957  0.55488055  1.0
  C  C141  1  0.42208609  0.98125552  0.46038737  1.0
  C  C142  1  0.01871488  0.57790397  0.53957690  1.0
  C  C143  1  0.96923867  0.42339102  0.44512562  1.0
  C  C144  1  0.11414945  0.61413953  0.50000459  1.0
  C  C145  1  0.88822456  0.38822072  0.50000327  1.0
  C  C146  1  0.61176485  0.11177157  0.49998502  1.0
  C  C147  1  0.38585623  0.88584384  0.49999027  1.0
  C  C148  1  0.55394480  0.05394302  0.49999337  1.0
  C  C149  1  0.44443266  0.94442785  0.49998648  1.0
  C  C150  1  0.05556577  0.55556357  0.50000542  1.0
  C  C151  1  0.94605018  0.44605234  0.50000407  1.0
  N  N152  1  0.30150635  0.95155273  0.45700467  1.0
  N  N153  1  0.69564289  0.14685474  0.66344453  1.0
  N  N154  1  0.85317646  0.30433686  0.33655087  1.0
  N  N155  1  0.04840252  0.69846099  0.54291341  1.0
  N  N156  1  0.49455721  0.84448610  0.54296058  1.0
  N  N157  1  0.48340080  0.03219557  0.33654255  1.0
  N  N158  1  0.96778259  0.51663552  0.66345402  1.0
  N  N159  1  0.15554879  0.50547261  0.45710371  1.0
  O  O160  1  0.25000348  0.75000492  0.50000150  1.0
  O  O161  1  0.88876998  0.32489175  0.48426724  1.0
  O  O162  1  0.59548464  0.15938462  0.48427328  1.0
  O  O163  1  0.39224328  0.89817741  0.56507857  1.0
  O  O164  1  0.10182313  0.60774719  0.43491418  1.0
  O  O165  1  0.84061542  0.40451710  0.51574415  1.0
  O  O166  1  0.67509808  0.11121339  0.51570490  1.0
  O  O167  1  0.33310264  0.82713639  0.43491366  1.0
  O  O168  1  0.17284789  0.66689941  0.56508258  1.0
  O  O169  1  0.74999971  0.24999646  0.50000163  1.0
  O  O170  1  0.15038254  0.81738846  0.53934836  1.0
  O  O171  1  0.83769845  0.15743329  0.44554486  1.0
  O  O172  1  0.60989018  0.14972044  0.33075782  1.0
  O  O173  1  0.39434789  0.84471210  0.68044721  1.0
  O  O174  1  0.27804746  0.61103219  0.46063702  1.0
  O  O175  1  0.71188072  0.39213323  0.55447181  1.0
  O  O176  1  0.81897341  0.27912283  0.66924395  1.0
  O  O177  1  0.16426283  0.71390611  0.31955717  1.0
  O  O178  1  0.85027017  0.39010406  0.66924437  1.0
  O  O179  1  0.15529772  0.60565770  0.31955883  1.0
  O  O180  1  0.38896282  0.72194752  0.53935497  1.0
  O  O181  1  0.60785344  0.28810608  0.44552129  1.0
  O  O182  1  0.72087127  0.18103050  0.33075834  1.0
  O  O183  1  0.28609632  0.83573694  0.68044771  1.0
  O  O184  1  0.18262423  0.84963202  0.46067369  1.0
  O  O185  1  0.84255885  0.16229292  0.55445348  1.0
