# generated using pymatgen
data_Zn4H45C83N23
_symmetry_space_group_name_H-M   'P 1'
_cell_length_a   19.02610157
_cell_length_b   19.03841873
_cell_length_c   20.24840440
_cell_angle_alpha   104.78619319
_cell_angle_beta   108.19562612
_cell_angle_gamma   112.38711942
_symmetry_Int_Tables_number   1
_chemical_formula_structural   Zn4H45C83N23
_chemical_formula_sum   'Zn4 H45 C83 N23'
_cell_volume   5828.97038396
_cell_formula_units_Z   1
loop_
 _symmetry_equiv_pos_site_id
 _symmetry_equiv_pos_as_xyz
  1  'x, y, z'
loop_
 _atom_site_type_symbol
 _atom_site_label
 _atom_site_symmetry_multiplicity
 _atom_site_fract_x
 _atom_site_fract_y
 _atom_site_fract_z
 _atom_site_occupancy
  Zn  Zn0  1  0.88532704  0.89195065  0.50320765  1.0
  Zn  Zn1  1  0.10243558  0.10101743  0.49940008  1.0
  Zn  Zn2  1  0.09290111  0.99597594  0.60396538  1.0
  Zn  Zn3  1  0.89228634  0.99161346  0.39380237  1.0
  H  H4  1  0.83913774  0.00700378  0.61314931  1.0
  H  H5  1  0.30048690  0.74370057  0.48131382  1.0
  H  H6  1  0.12023764  0.26417221  0.61768051  1.0
  H  H7  1  0.42803184  0.74265063  0.47633976  1.0
  H  H8  1  0.54856390  0.79612598  0.44616688  1.0
  H  H9  1  0.56142990  0.95124179  0.32253246  1.0
  H  H10  1  0.31580508  0.98237598  0.28123646  1.0
  H  H11  1  0.84121851  0.60225283  0.54410376  1.0
  H  H12  1  0.11497743  0.74225534  0.68660031  1.0
  H  H13  1  0.19123336  0.67024096  0.73037650  1.0
  H  H14  1  0.19032264  0.53823154  0.72181737  1.0
  H  H15  1  0.13075416  0.99378462  0.37246333  1.0
  H  H16  1  0.11308630  0.38327662  0.66091210  1.0
  H  H17  1  0.29221507  0.11992215  0.74749045  1.0
  H  H18  1  0.83918642  0.24378694  0.51971962  1.0
  H  H19  1  0.75869061  0.31873752  0.49987581  1.0
  H  H20  1  0.75983311  0.45077082  0.50803336  1.0
  H  H21  1  0.43711674  0.19680532  0.81745951  1.0
  H  H22  1  0.57408857  0.30903246  0.93095104  1.0
  H  H23  1  0.70654400  0.46340736  0.14698091  1.0
  H  H24  1  0.44065864  0.37074337  0.71556071  1.0
  H  H25  1  0.77758960  0.62068761  0.03357088  1.0
  H  H26  1  0.11914596  0.86031364  0.67222449  1.0
  H  H27  1  0.58009912  0.48163167  0.82842805  1.0
  H  H28  1  0.68914574  0.95788766  0.32768265  1.0
  H  H29  1  0.86284421  0.74579693  0.15837069  1.0
  H  H30  1  0.88923864  0.12197277  0.17709332  1.0
  H  H31  1  0.89170299  0.15717600  0.06791784  1.0
  H  H32  1  0.83320014  0.10168754  0.85724205  1.0
  H  H33  1  0.83309472  0.05747267  0.73051795  1.0
  H  H34  1  0.16383557  0.23037715  0.28067268  1.0
  H  H35  1  0.10482871  0.26846078  0.96805423  1.0
  H  H36  1  0.16484557  0.26772902  0.17186347  1.0
  H  H37  1  0.88048712  0.04500635  0.24415696  1.0
  H  H38  1  0.10563393  0.22805942  0.84187370  1.0
  H  H39  1  0.30752647  0.25495868  0.60483109  1.0
  H  H40  1  0.68759367  0.83234182  0.47835364  1.0
  H  H41  1  0.84506050  0.12121760  0.47693118  1.0
  H  H42  1  0.11569321  0.14464672  0.74414814  1.0
  H  H43  1  0.87568110  0.72624409  0.39657418  1.0
  H  H44  1  0.84516341  0.71784590  0.52826965  1.0
  H  H45  1  0.87638119  0.85378678  0.24689571  1.0
  H  H46  1  0.12975706  0.85740932  0.51450892  1.0
  H  H47  1  0.21421262  0.95394758  0.33492207  1.0
  H  H48  1  0.20479020  0.80382646  0.46324396  1.0
  C  C49  1  0.90773937  0.03279790  0.63563625  1.0
  C  C50  1  0.91270870  0.76436436  0.56239187  1.0
  C  C51  1  0.88014983  0.83432335  0.29321894  1.0
  C  C52  1  0.05362258  0.21819289  0.57792814  1.0
  C  C53  1  0.12441962  0.89695455  0.48515497  1.0
  C  C54  1  0.86442487  0.75552209  0.29322367  1.0
  C  C55  1  0.14885299  0.90869143  0.42814310  1.0
  C  C56  1  0.98082839  0.75664004  0.60600456  1.0
  C  C57  1  0.02046462  0.13759111  0.29266806  1.0
  C  C58  1  0.23648928  0.91665090  0.35860279  1.0
  C  C59  1  0.20303829  0.88291106  0.40315757  1.0
  C  C60  1  0.98023833  0.22623154  0.56157877  1.0
  C  C61  1  0.23158510  0.83295441  0.43046146  1.0
  C  C62  1  0.29754318  0.82290806  0.42067131  1.0
  C  C63  1  0.33647114  0.86400994  0.38133183  1.0
  C  C64  1  0.28220510  0.14311251  0.70361723  1.0
  C  C65  1  0.30288625  0.90886803  0.34778573  1.0
  C  C66  1  0.33139223  0.77702710  0.45292176  1.0
  C  C67  1  0.40199905  0.77643001  0.45018366  1.0
  C  C68  1  0.44533766  0.82161930  0.41513118  1.0
  C  C69  1  0.41005653  0.86383735  0.37880687  1.0
  C  C70  1  0.45211279  0.90877232  0.34336602  1.0
  C  C71  1  0.33949985  0.21428519  0.70075428  1.0
  C  C72  1  0.41396895  0.94997718  0.30623344  1.0
  C  C73  1  0.34211423  0.94940571  0.30835649  1.0
  C  C74  1  0.52204497  0.82811645  0.41764112  1.0
  C  C75  1  0.56610174  0.87598023  0.38645343  1.0
  C  C76  1  0.70194853  0.92952868  0.36689827  1.0
  C  C77  1  0.52910746  0.91433471  0.34795861  1.0
  C  C78  1  0.90080051  0.60529516  0.57696105  1.0
  C  C79  1  0.97842961  0.68169780  0.61427643  1.0
  C  C80  1  0.05395880  0.68343743  0.65621948  1.0
  C  C81  1  0.05413378  0.61043223  0.65819213  1.0
  C  C82  1  0.65022596  0.88836163  0.39688887  1.0
  C  C83  1  0.97537201  0.53233503  0.61695682  1.0
  C  C84  1  0.89768501  0.53071518  0.57748801  1.0
  C  C85  1  0.13125283  0.61033498  0.69754147  1.0
  C  C86  1  0.13075640  0.53725765  0.69282225  1.0
  C  C87  1  0.05312718  0.45753900  0.64813427  1.0
  C  C88  1  0.28992221  0.21298091  0.63176422  1.0
  C  C89  1  0.97487045  0.45644496  0.61204647  1.0
  C  C90  1  0.89666605  0.37793245  0.56761482  1.0
  C  C91  1  0.81876178  0.37852125  0.53239755  1.0
  C  C92  1  0.81931729  0.45160001  0.53691838  1.0
  C  C93  1  0.87882349  0.76873459  0.36934508  1.0
  C  C94  1  0.05226714  0.38121688  0.63506460  1.0
  C  C95  1  0.97664349  0.30360480  0.58656128  1.0
  C  C96  1  0.89916123  0.30325465  0.55611531  1.0
  C  C97  1  0.82914141  0.67895024  0.22528314  1.0
  C  C98  1  0.82757044  0.68413037  0.15633156  1.0
  C  C99  1  0.78077580  0.61455563  0.08634143  1.0
  C  C100  1  0.70093542  0.86515169  0.44322509  1.0
  C  C101  1  0.73375079  0.53422097  0.08210332  1.0
  C  C102  1  0.74114967  0.52581259  0.15014991  1.0
  C  C103  1  0.78743394  0.59671773  0.22095979  1.0
  C  C104  1  0.12463857  0.96622043  0.41255950  1.0
  C  C105  1  0.54442304  0.32148252  0.88324567  1.0
  C  C106  1  0.46764239  0.25961240  0.82010191  1.0
  C  C107  1  0.58380272  0.40315630  0.88763561  1.0
  C  C108  1  0.42647925  0.27650837  0.75981610  1.0
  C  C109  1  0.46987874  0.35637041  0.76201927  1.0
  C  C110  1  0.54766757  0.41859632  0.82480131  1.0
  C  C111  1  0.97022232  0.13594238  0.77710011  1.0
  C  C112  1  0.91345674  0.14539197  0.50604634  1.0
  C  C113  1  0.04564415  0.19940360  0.84485875  1.0
  C  C114  1  0.04581311  0.22301414  0.91546071  1.0
  C  C115  1  0.05224162  0.83661947  0.63523173  1.0
  C  C116  1  0.96916650  0.18449965  0.92043531  1.0
  C  C117  1  0.89219589  0.12909849  0.85241201  1.0
  C  C118  1  0.89279104  0.10483387  0.78192357  1.0
  C  C119  1  0.95066484  0.17330136  0.11518436  1.0
  C  C120  1  0.94996756  0.15308598  0.17594112  1.0
  C  C121  1  0.02849722  0.21269352  0.11241053  1.0
  C  C122  1  0.02589316  0.17031173  0.23561955  1.0
  C  C123  1  0.10388020  0.21476964  0.23493963  1.0
  C  C124  1  0.04889144  0.10364963  0.70213729  1.0
  C  C125  1  0.10505389  0.23605564  0.17434672  1.0
  C  C126  1  0.94604277  0.07689824  0.28856843  1.0
  C  C127  1  0.97477220  0.09698015  0.70768457  1.0
  C  C128  1  0.17453182  0.20963757  0.40140432  1.0
  C  C129  1  0.45350945  0.99353551  0.26875175  1.0
  C  C130  1  0.78634889  0.58278464  0.28667836  1.0
  C  C131  1  0.08531052  0.15349711  0.36220437  1.0
  N  N132  1  0.94013091  0.00344020  0.59231187  1.0
  N  N133  1  0.65324551  0.47392547  0.95384273  1.0
  N  N134  1  0.96363861  0.18865479  0.98866816  1.0
  N  N135  1  0.03169678  0.13956112  0.53444902  1.0
  N  N136  1  0.03530750  0.22322251  0.04788940  1.0
  N  N137  1  0.20545745  0.10318196  0.64200003  1.0
  N  N138  1  0.77669221  0.93032975  0.39320121  1.0
  N  N139  1  0.21025604  0.14664325  0.59714274  1.0
  N  N140  1  0.77597162  0.89017207  0.44078135  1.0
  N  N141  1  0.94553079  0.09473199  0.49013289  1.0
  N  N142  1  0.02687387  0.04702954  0.63329357  1.0
  N  N143  1  0.09062794  0.98780115  0.45791790  1.0
  N  N144  1  0.89943502  0.84775518  0.40933264  1.0
  N  N145  1  0.24851495  0.25507120  0.43730722  1.0
  N  N146  1  0.48765517  0.02896603  0.23874106  1.0
  N  N147  1  0.78469326  0.57020361  0.33992468  1.0
  N  N148  1  0.02847203  0.88739196  0.61108198  1.0
  N  N149  1  0.96478646  0.05868167  0.34962498  1.0
  N  N150  1  0.05049398  0.10534076  0.39525788  1.0
  N  N151  1  0.94135142  0.84229022  0.56569894  1.0
  N  N152  1  0.90011961  0.88793891  0.36251397  1.0
  N  N153  1  0.09061580  0.94531982  0.50265727  1.0
  N  N154  1  0.67321226  0.46094840  0.01392688  1.0
