# generated using pymatgen
data_Zn4H40C66N16O13
_symmetry_space_group_name_H-M   'P 1'
_cell_length_a   18.56203002
_cell_length_b   19.63905853
_cell_length_c   20.40697773
_cell_angle_alpha   111.51079475
_cell_angle_beta   103.84749832
_cell_angle_gamma   109.72523622
_symmetry_Int_Tables_number   1
_chemical_formula_structural   Zn4H40C66N16O13
_chemical_formula_sum   'Zn4 H40 C66 N16 O13'
_cell_volume   5928.57471030
_cell_formula_units_Z   1
loop_
 _symmetry_equiv_pos_site_id
 _symmetry_equiv_pos_as_xyz
  1  'x, y, z'
loop_
 _atom_site_type_symbol
 _atom_site_label
 _atom_site_symmetry_multiplicity
 _atom_site_fract_x
 _atom_site_fract_y
 _atom_site_fract_z
 _atom_site_occupancy
  Zn  Zn0  1  0.59990743  0.60556982  0.50090815  1.0
  Zn  Zn1  1  0.38799298  0.38197409  0.47806705  1.0
  Zn  Zn2  1  0.51037411  0.59266708  0.62294926  1.0
  Zn  Zn3  1  0.48730538  0.38859479  0.36392886  1.0
  H  H4  1  0.76762790  0.79139949  0.64241386  1.0
  H  H5  1  0.94083837  0.13397816  0.10917980  1.0
  H  H6  1  0.82385292  0.00407549  0.99430981  1.0
  H  H7  1  0.38391176  0.30742748  0.59986957  1.0
  H  H8  1  0.76921623  0.60921710  0.57540762  1.0
  H  H9  1  0.66613189  0.69216446  0.77680172  1.0
  H  H10  1  0.62830219  0.67785036  0.38713732  1.0
  H  H11  1  0.48640856  0.86525790  0.70506900  1.0
  H  H12  1  0.59836779  0.92511513  0.76107934  1.0
  H  H13  1  0.53203969  0.87706643  0.79934240  1.0
  H  H14  1  0.07263659  0.15318427  0.22358476  1.0
  H  H15  1  0.21737177  0.38318424  0.39977999  1.0
  H  H16  1  0.07881362  0.25199709  0.27743348  1.0
  H  H17  1  0.05693396  0.17799922  0.31143835  1.0
  H  H18  1  0.57157816  0.80424784  0.47655517  1.0
  H  H19  1  0.51948065  0.40917427  0.16673965  1.0
  H  H20  1  0.30469234  0.65034058  0.60663938  1.0
  H  H21  1  0.63492087  0.22766266  0.80257223  1.0
  H  H22  1  0.52453021  0.16783709  0.74001208  1.0
  H  H23  1  0.57465485  0.27902847  0.78530541  1.0
  H  H24  1  0.67815016  0.95347114  0.54577607  1.0
  H  H25  1  0.65177696  0.64888650  0.97739205  1.0
  H  H26  1  0.33770103  0.36177662  0.22559900  1.0
  H  H27  1  0.41261122  0.29531754  0.81241945  1.0
  H  H28  1  0.37610679  0.29460197  0.88640446  1.0
  H  H29  1  0.39474997  0.21121291  0.83319029  1.0
  H  H30  1  0.51450739  0.33030131  0.02242141  1.0
  H  H31  1  0.58242574  0.56820606  0.82840135  1.0
  H  H32  1  0.69902373  0.30438417  0.44178005  1.0
  H  H33  1  0.76066999  0.33764292  0.39294541  1.0
  H  H34  1  0.66347275  0.24180160  0.33956399  1.0
  H  H35  1  0.48590116  0.21356622  0.26677419  1.0
  H  H36  1  0.39558640  0.15454322  0.27684790  1.0
  H  H37  1  0.59476627  0.09237491  0.71380293  1.0
  H  H38  1  0.45944097  0.10881412  0.24651108  1.0
  H  H39  1  0.55006909  0.39011907  0.59059656  1.0
  H  H40  1  0.67279361  0.11079916  0.50157659  1.0
  H  H41  1  0.65426703  0.64350170  0.08744558  1.0
  H  H42  1  0.95769703  0.04047048  0.85415974  1.0
  H  H43  1  0.07542993  0.16975392  0.96915783  1.0
  C  C44  1  0.73380806  0.75357790  0.66348892  1.0
  C  C45  1  0.55699873  0.74634153  0.53325382  1.0
  C  C46  1  0.53363543  0.47667559  0.26935145  1.0
  C  C47  1  0.53235822  0.35018663  0.52988893  1.0
  C  C48  1  0.33165841  0.56832276  0.55265069  1.0
  C  C49  1  0.58097465  0.55663177  0.27958632  1.0
  C  C50  1  0.25011522  0.50837942  0.49336079  1.0
  C  C51  1  0.56681663  0.81061616  0.60183519  1.0
  C  C52  1  0.22868056  0.28855645  0.24382915  1.0
  C  C53  1  0.82827679  0.49497758  0.49404143  1.0
  C  C54  1  0.89755828  0.50258863  0.49599708  1.0
  C  C55  1  0.55459369  0.28817049  0.49758198  1.0
  C  C56  1  0.97127398  0.50899071  0.49484295  1.0
  C  C57  1  0.03844774  0.51314989  0.49213542  1.0
  C  C58  1  0.11051366  0.51493917  0.48989956  1.0
  C  C59  1  0.51446459  0.50547383  0.71914895  1.0
  C  C60  1  0.17574422  0.51264066  0.48848443  1.0
  C  C61  1  0.61321006  0.09845215  0.66869508  1.0
  C  C62  1  0.62907376  0.03642924  0.62225592  1.0
  C  C63  1  0.65570922  0.04473260  0.56487922  1.0
  C  C64  1  0.65716127  0.10795415  0.54896540  1.0
  C  C65  1  0.63475875  0.16611023  0.59077345  1.0
  C  C66  1  0.47988982  0.42485354  0.71079612  1.0
  C  C67  1  0.61722518  0.16338069  0.65440372  1.0
  C  C68  1  0.61322097  0.96239349  0.62522410  1.0
  C  C69  1  0.62104966  0.21988147  0.56473784  1.0
  C  C70  1  0.59527760  0.25569334  0.53493651  1.0
  C  C71  1  0.66909841  0.41989201  0.42718571  1.0
  C  C72  1  0.59190612  0.89248808  0.61731527  1.0
  C  C73  1  0.60234217  0.54199518  0.97156206  1.0
  C  C74  1  0.55803098  0.45469492  0.92143755  1.0
  C  C75  1  0.53982922  0.40397382  0.95575835  1.0
  C  C76  1  0.56061848  0.43827017  0.03504158  1.0
  C  C77  1  0.74858308  0.48686178  0.48575704  1.0
  C  C78  1  0.60032917  0.52517492  0.08342145  1.0
  C  C79  1  0.62291820  0.57632480  0.05029295  1.0
  C  C80  1  0.53021261  0.42543635  0.84126554  1.0
  C  C81  1  0.60848401  0.55430415  0.16012846  1.0
  C  C82  1  0.60137621  0.56598138  0.22088040  1.0
  C  C83  1  0.42332898  0.37427394  0.63211800  1.0
  C  C84  1  0.50188764  0.41391695  0.77522559  1.0
  C  C85  1  0.02016971  0.13356462  0.97452341  1.0
  C  C86  1  0.01888563  0.15815330  0.04840560  1.0
  C  C87  1  0.94461764  0.11298670  0.05328597  1.0
  C  C88  1  0.59580123  0.61056815  0.35506734  1.0
  C  C89  1  0.87913389  0.04043625  0.98906914  1.0
  C  C90  1  0.88491268  0.01055532  0.91715681  1.0
  C  C91  1  0.95451702  0.06129267  0.91029503  1.0
  C  C92  1  0.09247051  0.21803700  0.11694073  1.0
  C  C93  1  0.82743092  0.92972940  0.85520447  1.0
  C  C94  1  0.78631325  0.85763627  0.80312017  1.0
  C  C95  1  0.72772388  0.54782878  0.52582889  1.0
  C  C96  1  0.15657801  0.25468287  0.17643916  1.0
  C  C97  1  0.51184136  0.25572388  0.41636516  1.0
  C  C98  1  0.68256523  0.70314301  0.73268547  1.0
  C  C99  1  0.26320686  0.44271741  0.44989718  1.0
  C  C100  1  0.73880735  0.77721608  0.73932872  1.0
  C  C101  1  0.54115950  0.87092011  0.74679851  1.0
  C  C102  1  0.09142963  0.20266909  0.28188831  1.0
  C  C103  1  0.58290913  0.22408680  0.75934095  1.0
  C  C104  1  0.41573735  0.27795491  0.85800233  1.0
  C  C105  1  0.69678959  0.30538285  0.38783201  1.0
  C  C106  1  0.45967179  0.16603676  0.28294293  1.0
  C  C107  1  0.54971694  0.76979713  0.64556056  1.0
  C  C108  1  0.31310829  0.33743126  0.25994051  1.0
  C  C109  1  0.23636143  0.27514712  0.30889014  1.0
  N  N110  1  0.67861514  0.67309701  0.61649993  1.0
  N  N111  1  0.48195245  0.50252691  0.65152528  1.0
  N  N112  1  0.60879663  0.44159215  0.43245410  1.0
  N  N113  1  0.42419068  0.42019370  0.59698361  1.0
  N  N114  1  0.64445809  0.52037123  0.49295591  1.0
  N  N115  1  0.46791877  0.29408606  0.40167561  1.0
  N  N116  1  0.64567344  0.64092516  0.65853187  1.0
  N  N117  1  0.56093729  0.56647182  0.38649025  1.0
  N  N118  1  0.34462506  0.46243471  0.48148846  1.0
  N  N119  1  0.53214867  0.69107588  0.60596336  1.0
  N  N120  1  0.36459669  0.35049237  0.32691452  1.0
  N  N121  1  0.31735734  0.31187812  0.35758561  1.0
  N  N122  1  0.53697154  0.67513060  0.53528585  1.0
  N  N123  1  0.52149388  0.48262596  0.33263324  1.0
  N  N124  1  0.38703524  0.54010069  0.54529236  1.0
  N  N125  1  0.47989089  0.35259376  0.47324138  1.0
  O  O126  1  0.54885058  0.79640851  0.71605640  1.0
  O  O127  1  0.53886499  0.38669776  0.06570138  1.0
  O  O128  1  0.56994018  0.57785311  0.78367045  1.0
  O  O129  1  0.64759039  0.34488018  0.36978662  1.0
  O  O130  1  0.51217710  0.19223030  0.36095895  1.0
  O  O131  1  0.17877279  0.23504483  0.32936152  1.0
  O  O132  1  0.56871321  0.75196889  0.47193101  1.0
  O  O133  1  0.50215460  0.40184961  0.20681284  1.0
  O  O134  1  0.35521351  0.64367710  0.61130525  1.0
  O  O135  1  0.60139972  0.22494086  0.69562412  1.0
  O  O136  1  0.67620606  0.98809434  0.52158916  1.0
  O  O137  1  0.62149452  0.59086023  0.93729368  1.0
  O  O138  1  0.50161083  0.31818223  0.91447905  1.0
