# generated using pymatgen
data_AlH14C21O5F2
_symmetry_space_group_name_H-M   'P 1'
_cell_length_a   6.66720401
_cell_length_b   21.59951950
_cell_length_c   25.43687091
_cell_angle_alpha   84.40012751
_cell_angle_beta   89.99977459
_cell_angle_gamma   89.99978308
_symmetry_Int_Tables_number   1
_chemical_formula_structural   AlH14C21O5F2
_chemical_formula_sum   'Al4 H56 C84 O20 F8'
_cell_volume   3645.64133149
_cell_formula_units_Z   4
loop_
 _symmetry_equiv_pos_site_id
 _symmetry_equiv_pos_as_xyz
  1  'x, y, z'
loop_
 _atom_site_type_symbol
 _atom_site_label
 _atom_site_symmetry_multiplicity
 _atom_site_fract_x
 _atom_site_fract_y
 _atom_site_fract_z
 _atom_site_occupancy
  Al  Al0  1  0.78265748  0.25033352  0.75169909  1.0
  Al  Al1  1  0.21732253  0.74965434  0.24829555  1.0
  Al  Al2  1  0.28265031  0.24965696  0.74829449  1.0
  Al  Al3  1  0.71732970  0.75033261  0.25170135  1.0
  H  H4  1  0.98491395  0.46050138  0.72805104  1.0
  H  H5  1  0.01509606  0.53949396  0.27195826  1.0
  H  H6  1  0.48490674  0.03949717  0.77195976  1.0
  H  H7  1  0.51509127  0.96050196  0.22805273  1.0
  H  H8  1  0.05076637  0.37093322  0.50868634  1.0
  H  H9  1  0.94935762  0.62907026  0.49132459  1.0
  H  H10  1  0.55064081  0.12907400  0.99132614  1.0
  H  H11  1  0.44931370  0.87093620  0.00868283  1.0
  H  H12  1  0.31451426  0.15956114  0.61323064  1.0
  H  H13  1  0.68545375  0.84043530  0.38675812  1.0
  H  H14  1  0.81452039  0.34042883  0.88676330  1.0
  H  H15  1  0.18549561  0.65956998  0.11322507  1.0
  H  H16  1  0.72456940  0.02645467  0.59043114  1.0
  H  H17  1  0.27538961  0.97354121  0.40955841  1.0
  H  H18  1  0.22460125  0.47354220  0.90956333  1.0
  H  H19  1  0.77541025  0.52645335  0.09042898  1.0
  H  H20  1  0.92267125  0.38892991  0.32239483  1.0
  H  H21  1  0.04344944  0.43726895  0.27134683  1.0
  H  H22  1  0.18531557  0.39788160  0.32357553  1.0
  H  H23  1  0.07734175  0.61106781  0.67763306  1.0
  H  H24  1  0.81471093  0.60211859  0.67643577  1.0
  H  H25  1  0.95653207  0.56272211  0.72866720  1.0
  H  H26  1  0.42266229  0.11106819  0.17763372  1.0
  H  H27  1  0.54347473  0.06272081  0.22866707  1.0
  H  H28  1  0.68530023  0.10211955  0.17643590  1.0
  H  H29  1  0.57733872  0.88893402  0.82239143  1.0
  H  H30  1  0.31469928  0.89788599  0.82358096  1.0
  H  H31  1  0.45653678  0.93727294  0.77134776  1.0
  H  H32  1  0.32640836  0.10229238  0.48979123  1.0
  H  H33  1  0.48905319  0.11778102  0.54265461  1.0
  H  H34  1  0.42372692  0.04002820  0.53201954  1.0
  H  H35  1  0.67355215  0.89771389  0.51019283  1.0
  H  H36  1  0.57622909  0.95997869  0.46795939  1.0
  H  H37  1  0.51088782  0.88222195  0.45733378  1.0
  H  H38  1  0.82642470  0.39770935  0.01019990  1.0
  H  H39  1  0.98909183  0.38221443  0.95734352  1.0
  H  H40  1  0.92375763  0.45997178  0.96796801  1.0
  H  H41  1  0.17360331  0.60230024  0.98978734  1.0
  H  H42  1  0.07626588  0.54003916  0.03201567  1.0
  H  H43  1  0.01094218  0.61779422  0.04264766  1.0
  H  H44  1  0.71512908  0.08636625  0.71308674  1.0
  H  H45  1  0.58643618  0.13840400  0.66795736  1.0
  H  H46  1  0.56714871  0.05689392  0.66247495  1.0
  H  H47  1  0.28483293  0.91362389  0.28690436  1.0
  H  H48  1  0.43280880  0.94310404  0.33751658  1.0
  H  H49  1  0.41355282  0.86159257  0.33203417  1.0
  H  H50  1  0.21513110  0.41362512  0.78690732  1.0
  H  H51  1  0.08642524  0.36158894  0.83203921  1.0
  H  H52  1  0.06715832  0.44310091  0.83752125  1.0
  H  H53  1  0.78486391  0.58637489  0.21308264  1.0
  H  H54  1  0.93285619  0.55690112  0.16247109  1.0
  H  H55  1  0.91358327  0.63841132  0.16795628  1.0
  H  H56  1  0.53936520  0.28386272  0.68473140  1.0
  H  H57  1  0.46061481  0.71613004  0.31526485  1.0
  H  H58  1  0.03936231  0.21613389  0.81526168  1.0
  H  H59  1  0.96060869  0.78385935  0.18473062  1.0
  C  C60  1  0.52941960  0.31974828  0.81917981  1.0
  C  C61  1  0.47060090  0.68024355  0.18081643  1.0
  C  C62  1  0.02940901  0.18024095  0.68081680  1.0
  C  C63  1  0.97057100  0.81975061  0.31917787  1.0
  C  C64  1  0.53005005  0.15291992  0.80639518  1.0
  C  C65  1  0.46995546  0.84708189  0.19360664  1.0
  C  C66  1  0.03002796  0.34708259  0.69360268  1.0
  C  C67  1  0.96994605  0.65291456  0.30639557  1.0
  C  C68  1  0.97837583  0.59137934  0.33929709  1.0
  C  C69  1  0.02160718  0.40862323  0.66070988  1.0
  C  C70  1  0.47838731  0.90862347  0.16070989  1.0
  C  C71  1  0.52162269  0.09138429  0.83929631  1.0
  C  C72  1  0.02029930  0.47904336  0.34397084  1.0
  C  C73  1  0.97970021  0.52096248  0.65603970  1.0
  C  C74  1  0.52031460  0.02096173  0.15603881  1.0
  C  C75  1  0.47971640  0.97904781  0.84397175  1.0
  C  C76  1  0.00553105  0.53647085  0.31493511  1.0
  C  C77  1  0.99448946  0.46353027  0.68507620  1.0
  C  C78  1  0.50550582  0.96352993  0.18507394  1.0
  C  C79  1  0.49448618  0.03647605  0.81493542  1.0
  C  C80  1  0.96910621  0.58843300  0.39353558  1.0
  C  C81  1  0.03088879  0.41156831  0.60647414  1.0
  C  C82  1  0.46911392  0.91156808  0.10647416  1.0
  C  C83  1  0.53091408  0.08844051  0.89353283  1.0
  C  C84  1  0.98920798  0.53246133  0.42723976  1.0
  C  C85  1  0.01081252  0.46754174  0.57277077  1.0
  C  C86  1  0.48921641  0.96754188  0.07277156  1.0
  C  C87  1  0.51081609  0.03246744  0.92723702  1.0
  C  C88  1  0.01371144  0.47691323  0.40035564  1.0
  C  C89  1  0.98631056  0.52309030  0.59965489  1.0
  C  C90  1  0.51370502  0.02308936  0.09965558  1.0
  C  C91  1  0.48633498  0.97691860  0.90035654  1.0
  C  C92  1  0.98855215  0.52922060  0.48462806  1.0
  C  C93  1  0.01145635  0.47078248  0.51537851  1.0
  C  C94  1  0.48857035  0.97078489  0.01537971  1.0
  C  C95  1  0.51146816  0.02922295  0.98462966  1.0
  C  C96  1  0.03326841  0.41680057  0.48796357  1.0
  C  C97  1  0.96677459  0.58320514  0.51204420  1.0
  C  C98  1  0.53323191  0.08320781  0.01204568  1.0
  C  C99  1  0.46677360  0.91680321  0.98796409  1.0
  C  C100  1  0.03335125  0.42080634  0.43423941  1.0
  C  C101  1  0.96666775  0.57919576  0.56576755  1.0
  C  C102  1  0.53332755  0.07919814  0.06577140  1.0
  C  C103  1  0.46668995  0.92081130  0.93423994  1.0
  C  C104  1  0.18875202  0.09112029  0.56691444  1.0
  C  C105  1  0.81123549  0.90887800  0.43307432  1.0
  C  C106  1  0.68875891  0.40887650  0.93307690  1.0
  C  C107  1  0.31124360  0.59112109  0.06691384  1.0
  C  C108  1  0.18529406  0.13014511  0.60731688  1.0
  C  C109  1  0.81468145  0.86985470  0.39267466  1.0
  C  C110  1  0.68530243  0.36985018  0.89267920  1.0
  C  C111  1  0.31470758  0.63015365  0.10731354  1.0
  C  C112  1  0.01958112  0.13423431  0.64089244  1.0
  C  C113  1  0.98041389  0.86576088  0.35909908  1.0
  C  C114  1  0.51957658  0.36575600  0.85910300  1.0
  C  C115  1  0.48042743  0.63423872  0.14088851  1.0
  C  C116  1  0.84908373  0.09612349  0.63559299  1.0
  C  C117  1  0.15090377  0.90387259  0.36440643  1.0
  C  C118  1  0.34908485  0.40387229  0.86440647  1.0
  C  C119  1  0.65092216  0.59612927  0.13558587  1.0
  C  C120  1  0.85303366  0.05658800  0.59541586  1.0
  C  C121  1  0.14694485  0.94340699  0.40457724  1.0
  C  C122  1  0.35305578  0.44340725  0.90457648  1.0
  C  C123  1  0.64695572  0.55658881  0.09541543  1.0
  C  C124  1  0.01602491  0.05419260  0.56041869  1.0
  C  C125  1  0.98393410  0.94581527  0.43957130  1.0
  C  C126  1  0.51605036  0.44581114  0.93957286  1.0
  C  C127  1  0.48396265  0.55419130  0.06041987  1.0
  C  C128  1  0.00493105  0.01581704  0.51860592  1.0
  C  C129  1  0.99496347  0.98420374  0.48137307  1.0
  C  C130  1  0.50498951  0.48419529  0.98137976  1.0
  C  C131  1  0.49502650  0.51580377  0.01861415  1.0
  C  C132  1  0.04434922  0.42266850  0.31390038  1.0
  C  C133  1  0.95566078  0.57733010  0.68611645  1.0
  C  C134  1  0.54434930  0.07733157  0.18611633  1.0
  C  C135  1  0.45565920  0.92267336  0.81390171  1.0
  C  C136  1  0.36676247  0.08797080  0.53114059  1.0
  C  C137  1  0.63319804  0.91203511  0.46884268  1.0
  C  C138  1  0.86678376  0.41202937  0.96884939  1.0
  C  C139  1  0.13323824  0.58798064  0.03113824  1.0
  C  C140  1  0.66929748  0.09432648  0.67149306  1.0
  C  C141  1  0.33067502  0.90566773  0.32849885  1.0
  C  C142  1  0.16930058  0.40566470  0.82850263  1.0
  C  C143  1  0.83070643  0.59433511  0.17148891  1.0
  O  O144  1  0.36154299  0.17540811  0.79139321  1.0
  O  O145  1  0.63846402  0.82458255  0.20859355  1.0
  O  O146  1  0.86153409  0.32457948  0.70859356  1.0
  O  O147  1  0.13844742  0.67541162  0.29140110  1.0
  O  O148  1  0.70273544  0.30168084  0.80554441  1.0
  O  O149  1  0.29727607  0.69831279  0.19445224  1.0
  O  O150  1  0.20271973  0.19831598  0.69445048  1.0
  O  O151  1  0.79725127  0.80167644  0.30554854  1.0
  O  O152  1  0.70128956  0.17641977  0.79559306  1.0
  O  O153  1  0.29870845  0.82357987  0.20440757  1.0
  O  O154  1  0.20129335  0.32358074  0.70440579  1.0
  O  O155  1  0.79868666  0.67641356  0.29559679  1.0
  O  O156  1  0.86336845  0.19956636  0.69779993  1.0
  O  O157  1  0.13660556  0.80042047  0.30219550  1.0
  O  O158  1  0.36338483  0.30041386  0.80220182  1.0
  O  O159  1  0.63662068  0.69957134  0.19779953  1.0
  O  O160  1  0.53479962  0.25753663  0.71782799  1.0
  O  O161  1  0.46517289  0.74245650  0.28216905  1.0
  O  O162  1  0.03480412  0.24245896  0.78216588  1.0
  O  O163  1  0.96519088  0.75753150  0.21782641  1.0
  F  F164  1  0.05553675  0.36594521  0.41212480  1.0
  F  F165  1  0.94457375  0.63406680  0.58788063  1.0
  F  F166  1  0.55540948  0.13406626  0.08788562  1.0
  F  F167  1  0.44453603  0.86594499  0.91212612  1.0
  F  F168  1  0.05658551  0.35542138  0.58643766  1.0
  F  F169  1  0.94340500  0.64458443  0.41356933  1.0
  F  F170  1  0.55662122  0.14458812  0.91357127  1.0
  F  F171  1  0.44341728  0.85542352  0.08643732  1.0
