# generated using pymatgen
data_Zn4H44C56N16O5
_symmetry_space_group_name_H-M   'P 1'
_cell_length_a   15.64026422
_cell_length_b   15.89486171
_cell_length_c   17.58777278
_cell_angle_alpha   104.61821924
_cell_angle_beta   107.58290265
_cell_angle_gamma   110.84837491
_symmetry_Int_Tables_number   1
_chemical_formula_structural   Zn4H44C56N16O5
_chemical_formula_sum   'Zn4 H44 C56 N16 O5'
_cell_volume   3563.16114620
_cell_formula_units_Z   1
loop_
 _symmetry_equiv_pos_site_id
 _symmetry_equiv_pos_as_xyz
  1  'x, y, z'
loop_
 _atom_site_type_symbol
 _atom_site_label
 _atom_site_symmetry_multiplicity
 _atom_site_fract_x
 _atom_site_fract_y
 _atom_site_fract_z
 _atom_site_occupancy
  Zn  Zn0  1  0.87232644  0.87384031  0.49742183  1.0
  Zn  Zn1  1  0.13341572  0.12596816  0.49951910  1.0
  Zn  Zn2  1  0.12069986  0.99592795  0.62305813  1.0
  Zn  Zn3  1  0.88682661  0.00915908  0.38678472  1.0
  H  H4  1  0.79309669  0.76338366  0.62085444  1.0
  H  H5  1  0.85195489  0.18051354  0.32357538  1.0
  H  H6  1  0.64835920  0.67498707  0.35252187  1.0
  H  H7  1  0.44827048  0.24499175  0.54473034  1.0
  H  H8  1  0.27478423  0.73545764  0.69316327  1.0
  H  H9  1  0.27034133  0.83878117  0.75719961  1.0
  H  H10  1  0.19583748  0.71931557  0.74825295  1.0
  H  H11  1  0.08751807  0.77106767  0.65400094  1.0
  H  H12  1  0.08898810  0.66719493  0.58986373  1.0
  H  H13  1  0.21353034  0.77037558  0.54966403  1.0
  H  H14  1  0.22685053  0.87904491  0.62231085  1.0
  H  H15  1  0.86449398  0.84796974  0.22146218  1.0
  H  H16  1  0.22330212  0.97834313  0.31886567  1.0
  H  H17  1  0.39752312  0.42692013  0.08099875  1.0
  H  H18  1  0.80648310  0.73632169  0.90843600  1.0
  H  H19  1  0.37961238  0.50313295  0.48360362  1.0
  H  H20  1  0.41284688  0.41230200  0.50357506  1.0
  H  H21  1  0.39868952  0.42707300  0.40425329  1.0
  H  H22  1  0.24507211  0.27880502  0.37900809  1.0
  H  H23  1  0.21206374  0.36915196  0.35945770  1.0
  H  H24  1  0.22182489  0.42740104  0.51065756  1.0
  H  H25  1  0.25181603  0.33426266  0.52797831  1.0
  H  H26  1  0.85895934  0.69791415  0.34540423  1.0
  H  H27  1  0.29123902  0.87001877  0.96951519  1.0
  H  H28  1  0.35084527  0.96998610  0.07259627  1.0
  H  H29  1  0.36400064  0.86187014  0.06406235  1.0
  H  H30  1  0.23629613  0.86151258  0.12312477  1.0
  H  H31  1  0.17616082  0.76462375  0.01926749  1.0
  H  H32  1  0.12422087  0.87063165  0.95198523  1.0
  H  H33  1  0.18090583  0.96603161  0.05726809  1.0
  H  H34  1  0.37969497  0.24509821  0.98075867  1.0
  H  H35  1  0.35917911  0.13223863  0.90720753  1.0
  H  H36  1  0.46954111  0.24336720  0.93889362  1.0
  H  H37  1  0.66425635  0.85831406  0.20675207  1.0
  H  H38  1  0.34195720  0.19598277  0.78873623  1.0
  H  H39  1  0.36265677  0.30823521  0.86138938  1.0
  H  H40  1  0.20496978  0.22601502  0.87456783  1.0
  H  H41  1  0.18442446  0.10833511  0.81109233  1.0
  H  H42  1  0.12516506  0.93384041  0.85921616  1.0
  H  H43  1  0.36264992  0.02232714  0.68174337  1.0
  H  H44  1  0.34976422  0.60059475  0.96052689  1.0
  H  H45  1  0.82401358  0.16287072  0.48807902  1.0
  H  H46  1  0.10842339  0.30328616  0.60755687  1.0
  H  H47  1  0.82652758  0.99279661  0.64621420  1.0
  C  C48  1  0.87433823  0.81228539  0.65323303  1.0
  C  C49  1  0.93211167  0.73997257  0.40196830  1.0
  C  C50  1  0.67587290  0.82707056  0.25483726  1.0
  C  C51  1  0.10025204  0.28228803  0.43553525  1.0
  C  C52  1  0.34815050  0.06596121  0.64582212  1.0
  C  C53  1  0.61580100  0.73242785  0.24785727  1.0
  C  C54  1  0.41502416  0.12870934  0.62201930  1.0
  C  C55  1  0.00694032  0.71181776  0.43349594  1.0
  C  C56  1  0.03163378  0.90301229  0.25814608  1.0
  C  C57  1  0.74275747  0.12958847  0.61539746  1.0
  C  C58  1  0.67579412  0.14509747  0.62842179  1.0
  C  C59  1  0.01655387  0.29547657  0.39200405  1.0
  C  C60  1  0.59368923  0.15042971  0.63421223  1.0
  C  C61  1  0.51205688  0.14440835  0.63142070  1.0
  C  C62  1  0.01710360  0.38196377  0.38648633  1.0
  C  C63  1  0.16395415  0.19624572  0.74011888  1.0
  C  C64  1  0.01445692  0.45826576  0.38628725  1.0
  C  C65  1  0.01099182  0.54330846  0.39328005  1.0
  C  C66  1  0.00591595  0.62067899  0.40542801  1.0
  C  C67  1  0.21191261  0.37370869  0.80497945  1.0
  C  C68  1  0.32995868  0.52551714  0.95491068  1.0
  C  C69  1  0.37760142  0.51426131  0.02822254  1.0
  C  C70  1  0.16535299  0.28378069  0.73292597  1.0
  C  C71  1  0.45503100  0.59288079  0.10671417  1.0
  C  C72  1  0.26340621  0.44598148  0.87460350  1.0
  C  C73  1  0.52815404  0.65645508  0.17464313  1.0
  C  C74  1  0.04127497  0.87064177  0.18086089  1.0
  C  C75  1  0.83217002  0.11355970  0.51927479  1.0
  C  C76  1  0.04344078  0.84119569  0.02798298  1.0
  C  C77  1  0.95187520  0.79867393  0.95589216  1.0
  C  C78  1  0.94406486  0.80131620  0.87490131  1.0
  C  C79  1  0.04443453  0.85227363  0.10998703  1.0
  C  C80  1  0.93596118  0.81112284  0.80646874  1.0
  C  C81  1  0.80353395  0.09710796  0.58524530  1.0
  C  C82  1  0.12153698  0.25842993  0.64254962  1.0
  C  C83  1  0.83372603  0.02687773  0.60068110  1.0
  C  C84  1  0.93159526  0.20305010  0.36072748  1.0
  C  C85  1  0.03751281  0.90347691  0.74330983  1.0
  C  C86  1  0.94456808  0.83686505  0.73782634  1.0
  C  C87  1  0.17276419  0.80146825  0.57903738  1.0
  C  C88  1  0.13681426  0.74587722  0.63283817  1.0
  C  C89  1  0.22436313  0.76063371  0.71211844  1.0
  C  C90  1  0.21062842  0.35295159  0.47747726  1.0
  C  C91  1  0.25575896  0.35333403  0.41088704  1.0
  C  C92  1  0.66760488  0.73307314  0.32921342  1.0
  C  C93  1  0.36801329  0.42805337  0.45286349  1.0
  C  C94  1  0.14228922  0.88528353  0.02107895  1.0
  C  C95  1  0.21558278  0.84536820  0.05351745  1.0
  C  C96  1  0.31066407  0.88913624  0.03932802  1.0
  C  C97  1  0.21628962  0.18600987  0.82066353  1.0
  C  C98  1  0.33118226  0.22892029  0.84585948  1.0
  C  C99  1  0.38806353  0.21140583  0.92245300  1.0
  C  C100  1  0.35562010  0.16582210  0.57766262  1.0
  C  C101  1  0.08463299  0.79562032  0.51018441  1.0
  C  C102  1  0.94326730  0.89284232  0.26918189  1.0
  C  C103  1  0.11081865  0.97006907  0.34189849  1.0
  N  N104  1  0.92166312  0.85982675  0.61324293  1.0
  N  N105  1  0.12078715  0.12567454  0.65942480  1.0
  N  N106  1  0.87308556  0.05581723  0.49680476  1.0
  N  N107  1  0.09612556  0.16354532  0.59911886  1.0
  N  N108  1  0.87427060  0.00273864  0.54642440  1.0
  N  N109  1  0.96162877  0.14036659  0.38363367  1.0
  N  N110  1  0.02401346  0.91765171  0.66995313  1.0
  N  N111  1  0.75091640  0.82055072  0.37954222  1.0
  N  N112  1  0.26321407  0.12885123  0.57532683  1.0
  N  N113  1  0.05685470  0.86699519  0.52023541  1.0
  N  N114  1  0.96888546  0.95008544  0.35111629  1.0
  N  N115  1  0.07289440  0.99811976  0.39683026  1.0
  N  N116  1  0.96277883  0.83294230  0.45542495  1.0
  N  N117  1  0.75576259  0.87874179  0.33327001  1.0
  N  N118  1  0.25855742  0.06590226  0.61799876  1.0
  N  N119  1  0.06577905  0.18934772  0.43002211  1.0
  O  O120  1  0.37980303  0.22899337  0.53931909  1.0
  O  O121  1  0.21224180  0.00745094  0.36861701  1.0
  O  O122  1  0.35293646  0.42045176  0.02502661  1.0
  O  O123  1  0.86289114  0.75796078  0.96414113  1.0
  O  O124  1  0.13145612  0.94896077  0.80998418  1.0
