# generated using pymatgen
data_Zn2H27C41S3(NO4)2
_symmetry_space_group_name_H-M   'P 1'
_cell_length_a   12.76155494
_cell_length_b   13.83747338
_cell_length_c   28.02816428
_cell_angle_alpha   89.98466385
_cell_angle_beta   89.77412421
_cell_angle_gamma   89.88481992
_symmetry_Int_Tables_number   1
_chemical_formula_structural   Zn2H27C41S3(NO4)2
_chemical_formula_sum   'Zn4 H54 C82 S6 N4 O16'
_cell_volume   4949.37978582
_cell_formula_units_Z   2
loop_
 _symmetry_equiv_pos_site_id
 _symmetry_equiv_pos_as_xyz
  1  'x, y, z'
loop_
 _atom_site_type_symbol
 _atom_site_label
 _atom_site_symmetry_multiplicity
 _atom_site_fract_x
 _atom_site_fract_y
 _atom_site_fract_z
 _atom_site_occupancy
  Zn  Zn0  1  0.50001942  0.39877021  0.49911006  1.0
  Zn  Zn1  1  0.49928304  0.60127716  0.49916092  1.0
  Zn  Zn2  1  0.50029711  0.60151240  0.04406474  1.0
  Zn  Zn3  1  0.50046451  0.39903934  0.04401844  1.0
  H  H4  1  0.38608611  0.24973228  0.55133962  1.0
  H  H5  1  0.61402167  0.24888709  0.44777400  1.0
  H  H6  1  0.61347428  0.75050567  0.44787142  1.0
  H  H7  1  0.38495190  0.75099335  0.55116151  1.0
  H  H8  1  0.50140571  0.65285713  0.33657280  1.0
  H  H9  1  0.50140732  0.34678327  0.20664502  1.0
  H  H10  1  0.49958602  0.65312153  0.64939390  1.0
  H  H11  1  0.49868574  0.34716393  0.64931282  1.0
  H  H12  1  0.49941213  0.34665206  0.89370499  1.0
  H  H13  1  0.50038201  0.65266672  0.89382305  1.0
  H  H14  1  0.14293107  0.34705976  0.49928991  1.0
  H  H15  1  0.85649661  0.65292777  0.50027633  1.0
  H  H16  1  0.38680060  0.75109804  0.99213872  1.0
  H  H17  1  0.61459872  0.75073732  0.09494978  1.0
  H  H18  1  0.61467666  0.24914535  0.09491241  1.0
  H  H19  1  0.38673531  0.24976038  0.99215943  1.0
  H  H20  1  0.14289477  0.65431703  0.04482208  1.0
  H  H21  1  0.85808465  0.34820908  0.04397310  1.0
  H  H22  1  0.20689661  0.91779303  0.58921231  1.0
  H  H23  1  0.29432943  0.81905012  0.59369249  1.0
  H  H24  1  0.30454607  0.91762291  0.63354531  1.0
  H  H25  1  0.30503154  0.08372523  0.63361347  1.0
  H  H26  1  0.29463448  0.18210947  0.59364577  1.0
  H  H27  1  0.20715794  0.08355336  0.58940927  1.0
  H  H28  1  0.79400789  0.91631223  0.41087784  1.0
  H  H29  1  0.70626673  0.81803111  0.40624829  1.0
  H  H30  1  0.69670402  0.91681854  0.36644188  1.0
  H  H31  1  0.69655640  0.08256385  0.36644189  1.0
  H  H32  1  0.70682414  0.18106293  0.40629640  1.0
  H  H33  1  0.79409904  0.08216098  0.41081072  1.0
  H  H34  1  0.43104724  0.81914972  0.81272905  1.0
  H  H35  1  0.50083866  0.76790214  0.86099867  1.0
  H  H36  1  0.56927622  0.81874470  0.81215699  1.0
  H  H37  1  0.56926982  0.81874816  0.73070749  1.0
  H  H38  1  0.49987453  0.76819310  0.68233865  1.0
  H  H39  1  0.43100948  0.81951905  0.73108448  1.0
  H  H40  1  0.56747791  0.18052109  0.81207206  1.0
  H  H41  1  0.49851480  0.23156162  0.86076523  1.0
  H  H42  1  0.42922874  0.18088384  0.81227987  1.0
  H  H43  1  0.42882195  0.18122925  0.73066199  1.0
  H  H44  1  0.49865831  0.23201819  0.68211542  1.0
  H  H45  1  0.56705853  0.18053463  0.73060330  1.0
  H  H46  1  0.20847906  0.08377993  0.95464537  1.0
  H  H47  1  0.29596990  0.18216309  0.94988053  1.0
  H  H48  1  0.30623467  0.08349951  0.91002442  1.0
  H  H49  1  0.30642304  0.91742033  0.91001752  1.0
  H  H50  1  0.29581683  0.81911087  0.95003794  1.0
  H  H51  1  0.20845814  0.91807591  0.95452507  1.0
  H  H52  1  0.79507750  0.08236925  0.13120953  1.0
  H  H53  1  0.70751936  0.18112641  0.13613975  1.0
  H  H54  1  0.69771584  0.08238797  0.17596142  1.0
  H  H55  1  0.69733078  0.91656668  0.17599516  1.0
  H  H56  1  0.70753789  0.81810843  0.13604533  1.0
  H  H57  1  0.79492264  0.91662020  0.13128925  1.0
  C  C58  1  0.49813896  0.50015967  0.59250835  1.0
  C  C59  1  0.29419895  0.49967200  0.49972186  1.0
  C  C60  1  0.50206211  0.50031278  0.40572936  1.0
  C  C61  1  0.70523277  0.50039052  0.49859278  1.0
  C  C62  1  0.49918933  0.49960210  0.95065018  1.0
  C  C63  1  0.29494095  0.50171150  0.04413615  1.0
  C  C64  1  0.50201022  0.49930900  0.13747484  1.0
  C  C65  1  0.70595681  0.50054501  0.04469161  1.0
  C  C66  1  0.43530635  0.20365395  0.52914879  1.0
  C  C67  1  0.43138765  0.10241877  0.53123141  1.0
  C  C68  1  0.36201417  0.05042715  0.56294183  1.0
  C  C69  1  0.56501815  0.20323872  0.47019712  1.0
  C  C70  1  0.56938392  0.10199029  0.46851369  1.0
  C  C71  1  0.63902911  0.04971178  0.43697764  1.0
  C  C72  1  0.56450728  0.79651089  0.47021699  1.0
  C  C73  1  0.56916800  0.89772915  0.46851056  1.0
  C  C74  1  0.63892941  0.94968739  0.43698321  1.0
  C  C75  1  0.43457491  0.79675780  0.52907699  1.0
  C  C76  1  0.43107644  0.89802756  0.53120096  1.0
  C  C77  1  0.36186198  0.95039700  0.56292215  1.0
  C  C78  1  0.50041629  0.05106570  0.49991526  1.0
  C  C79  1  0.50029311  0.94900338  0.49991242  1.0
  C  C80  1  0.50243073  0.57926279  0.32301752  1.0
  C  C81  1  0.50233973  0.42038724  0.22019154  1.0
  C  C82  1  0.50256891  0.50007593  0.35308889  1.0
  C  C83  1  0.50238176  0.49958352  0.19012056  1.0
  C  C84  1  0.50270187  0.44912733  0.26853598  1.0
  C  C85  1  0.50269390  0.55052857  0.27466056  1.0
  C  C86  1  0.49881477  0.58751968  0.67071296  1.0
  C  C87  1  0.49899111  0.59012166  0.72078010  1.0
  C  C88  1  0.49955882  0.68011455  0.74700570  1.0
  C  C89  1  0.49828640  0.41270484  0.67066110  1.0
  C  C90  1  0.49838976  0.40994817  0.72071383  1.0
  C  C91  1  0.49832544  0.31982902  0.74685182  1.0
  C  C92  1  0.49897103  0.41229565  0.87242016  1.0
  C  C93  1  0.49874133  0.40972618  0.82235526  1.0
  C  C94  1  0.49845966  0.31972321  0.79612559  1.0
  C  C95  1  0.49952056  0.58710758  0.87249374  1.0
  C  C96  1  0.49937011  0.58989532  0.82243289  1.0
  C  C97  1  0.49973616  0.68000223  0.79628760  1.0
  C  C98  1  0.49830410  0.50014354  0.64597322  1.0
  C  C99  1  0.49867154  0.49997930  0.74625420  1.0
  C  C100  1  0.49915184  0.49965293  0.89718153  1.0
  C  C101  1  0.49887125  0.49987501  0.79688113  1.0
  C  C102  1  0.11284905  0.42063425  0.49983869  1.0
  C  C103  1  0.88656056  0.57935163  0.49992452  1.0
  C  C104  1  0.17858149  0.49988181  0.50017558  1.0
  C  C105  1  0.82082347  0.50012111  0.49916985  1.0
  C  C106  1  0.99282176  0.55067217  0.50029872  1.0
  C  C107  1  0.00658857  0.44929378  0.49988478  1.0
  C  C108  1  0.43615747  0.79691530  0.01413678  1.0
  C  C109  1  0.43251120  0.89815611  0.01201955  1.0
  C  C110  1  0.36332130  0.95051246  0.98050713  1.0
  C  C111  1  0.56571389  0.79665211  0.07269185  1.0
  C  C112  1  0.57026568  0.89787128  0.07433509  1.0
  C  C113  1  0.63991341  0.94979441  0.10565366  1.0
  C  C114  1  0.56581960  0.20339869  0.07265591  1.0
  C  C115  1  0.57036325  0.10214399  0.07431810  1.0
  C  C116  1  0.63995592  0.04981736  0.10563000  1.0
  C  C117  1  0.43617985  0.20377674  0.01413668  1.0
  C  C118  1  0.43254974  0.10254082  0.01201766  1.0
  C  C119  1  0.36333793  0.05054334  0.98050029  1.0
  C  C120  1  0.50152562  0.94915509  0.04312077  1.0
  C  C121  1  0.50154460  0.05121163  0.04311273  1.0
  C  C122  1  0.11319916  0.58071569  0.04449501  1.0
  C  C123  1  0.88776851  0.42179878  0.04437867  1.0
  C  C124  1  0.17933791  0.50149462  0.04419197  1.0
  C  C125  1  0.82157194  0.50094535  0.04473568  1.0
  C  C126  1  0.99386437  0.45057550  0.04426534  1.0
  C  C127  1  0.00706799  0.55196938  0.04454562  1.0
  C  C128  1  0.28889686  0.89772329  0.59622466  1.0
  C  C129  1  0.28918456  0.10346082  0.59627600  1.0
  C  C130  1  0.71200812  0.89667892  0.40376776  1.0
  C  C131  1  0.71216111  0.10239481  0.40376547  1.0
  C  C132  1  0.50024410  0.77552753  0.82219141  1.0
  C  C133  1  0.49992454  0.77573808  0.72115005  1.0
  C  C134  1  0.49840039  0.22408096  0.82194967  1.0
  C  C135  1  0.49818730  0.22432980  0.72092274  1.0
  C  C136  1  0.29051965  0.10351026  0.94739198  1.0
  C  C137  1  0.29048892  0.89778641  0.94741225  1.0
  C  C138  1  0.71311060  0.10245397  0.13858837  1.0
  C  C139  1  0.71295525  0.89674239  0.13860494  1.0
  S  S140  1  0.50243362  0.39029310  0.32281110  1.0
  S  S141  1  0.50225613  0.60935695  0.22038312  1.0
  S  S142  1  0.11181867  0.60962352  0.50057780  1.0
  S  S143  1  0.88756900  0.39036674  0.49913871  1.0
  S  S144  1  0.11316458  0.39171159  0.04400822  1.0
  S  S145  1  0.88770831  0.61079064  0.04481104  1.0
  N  N146  1  0.50003388  0.25100906  0.49955062  1.0
  N  N147  1  0.49924556  0.74908447  0.49951211  1.0
  N  N148  1  0.50065261  0.74923896  0.04356823  1.0
  N  N149  1  0.50073960  0.25116931  0.04354731  1.0
  O  O150  1  0.49810924  0.41819456  0.57173690  1.0
  O  O151  1  0.49808062  0.58214031  0.57176064  1.0
  O  O152  1  0.33877739  0.58221662  0.49951022  1.0
  O  O153  1  0.33927963  0.41746083  0.49946879  1.0
  O  O154  1  0.50173564  0.58249641  0.42618784  1.0
  O  O155  1  0.50183897  0.41776515  0.42613820  1.0
  O  O156  1  0.66063173  0.41783333  0.49837097  1.0
  O  O157  1  0.66017416  0.58258768  0.49841482  1.0
  O  O158  1  0.49907105  0.58152380  0.97144151  1.0
  O  O159  1  0.49935591  0.41757884  0.97139235  1.0
  O  O160  1  0.33989775  0.41916326  0.04417474  1.0
  O  O161  1  0.33964788  0.58391342  0.04408943  1.0
  O  O162  1  0.50213622  0.41706823  0.11703633  1.0
  O  O163  1  0.50153451  0.58180526  0.11704153  1.0
  O  O164  1  0.66097340  0.58307301  0.04466376  1.0
  O  O165  1  0.66126015  0.41831791  0.04463020  1.0
