# generated using pymatgen
data_ZnH26C26(NO2)2
_symmetry_space_group_name_H-M   'P 1'
_cell_length_a   14.11445345
_cell_length_b   15.22357839
_cell_length_c   17.09757106
_cell_angle_alpha   88.08577352
_cell_angle_beta   86.67666636
_cell_angle_gamma   85.48192378
_symmetry_Int_Tables_number   1
_chemical_formula_structural   ZnH26C26(NO2)2
_chemical_formula_sum   'Zn2 H52 C52 N4 O8'
_cell_volume   3654.68721255
_cell_formula_units_Z   2
loop_
 _symmetry_equiv_pos_site_id
 _symmetry_equiv_pos_as_xyz
  1  'x, y, z'
loop_
 _atom_site_type_symbol
 _atom_site_label
 _atom_site_symmetry_multiplicity
 _atom_site_fract_x
 _atom_site_fract_y
 _atom_site_fract_z
 _atom_site_occupancy
  Zn  Zn0  1  0.60432825  0.49468151  0.50652914  1.0
  Zn  Zn1  1  0.39557037  0.50896475  0.49789425  1.0
  H  H2  1  0.39730264  0.42259061  0.27363373  1.0
  H  H3  1  0.62909750  0.38916927  0.00150751  1.0
  H  H4  1  0.70454402  0.39967204  0.11656104  1.0
  H  H5  1  0.34192939  0.37663963  0.88536647  1.0
  H  H6  1  0.63279091  0.44444926  0.88849673  1.0
  H  H7  1  0.40034465  0.38240315  0.13452767  1.0
  H  H8  1  0.63199033  0.93543100  0.41471098  1.0
  H  H9  1  0.38270152  0.07817320  0.39560880  1.0
  H  H10  1  0.63634875  0.77106942  0.42130871  1.0
  H  H11  1  0.36971041  0.24123139  0.41252534  1.0
  H  H12  1  0.35362221  0.78768705  0.52831690  1.0
  H  H13  1  0.62924799  0.49007636  0.74837583  1.0
  H  H14  1  0.60261415  0.21243290  0.56318432  1.0
  H  H15  1  0.97426790  0.55976746  0.37603506  1.0
  H  H16  1  0.07507639  0.58339018  0.32183325  1.0
  H  H17  1  0.04016231  0.37058809  0.55746708  1.0
  H  H18  1  0.94469749  0.30883266  0.57879153  1.0
  H  H19  1  0.15447208  0.71006015  0.27931032  1.0
  H  H20  1  0.14337708  0.72317317  0.38269082  1.0
  H  H21  1  0.21739853  0.78987162  0.32307682  1.0
  H  H22  1  0.31902556  0.67278668  0.39058496  1.0
  H  H23  1  0.32770496  0.65719172  0.28885623  1.0
  H  H24  1  0.24807730  0.50731528  0.61596537  1.0
  H  H25  1  0.31878091  0.51717246  0.35401018  1.0
  H  H26  1  0.21230600  0.53928340  0.30532140  1.0
  H  H27  1  0.70285924  0.20159642  0.65552968  1.0
  H  H28  1  0.82393303  0.20737559  0.67595942  1.0
  H  H29  1  0.73226640  0.23954063  0.74721484  1.0
  H  H30  1  0.80075567  0.37196330  0.68062165  1.0
  H  H31  1  0.67911585  0.36983019  0.66455097  1.0
  H  H32  1  0.70352369  0.33582862  0.53170986  1.0
  H  H33  1  0.81940001  0.28667246  0.54153719  1.0
  H  H34  1  0.22072491  0.11058202  0.60389237  1.0
  H  H35  1  0.73064408  0.63114371  0.49077389  1.0
  H  H36  1  0.18127345  0.01328463  0.65141020  1.0
  H  H37  1  0.24876291  0.08439982  0.70233311  1.0
  H  H38  1  0.35407357  0.95240067  0.65808787  1.0
  H  H39  1  0.39051630  0.04934598  0.60998734  1.0
  H  H40  1  0.29822526  0.01691466  0.49438292  1.0
  H  H41  1  0.26486270  0.91864318  0.54181310  1.0
  H  H42  1  0.70837510  0.89349304  0.65807601  1.0
  H  H43  1  0.72569763  0.99209487  0.70625401  1.0
  H  H44  1  0.64213261  0.91942858  0.74685688  1.0
  H  H45  1  0.55705656  0.05012985  0.67949821  1.0
  H  H46  1  0.06989759  0.50422889  0.63315735  1.0
  H  H47  1  0.54001138  0.95181177  0.63236901  1.0
  H  H48  1  0.66888980  0.98216393  0.53199078  1.0
  H  H49  1  0.69071069  0.07895662  0.57941014  1.0
  H  H50  1  0.90569460  0.65394761  0.48662502  1.0
  H  H51  1  0.34036811  0.42294073  0.74403380  1.0
  H  H52  1  0.69998473  0.43668214  0.25805432  1.0
  H  H53  1  0.41128043  0.38355405  0.00885644  1.0
  C  C54  1  0.49746722  0.67113753  0.48525142  1.0
  C  C55  1  0.55373986  0.18160786  0.52743084  1.0
  C  C56  1  0.41108216  0.91333456  0.50249590  1.0
  C  C57  1  0.56086025  0.09001833  0.52095550  1.0
  C  C58  1  0.49233481  0.95485485  0.47194436  1.0
  C  C59  1  0.49558107  0.05210896  0.47469311  1.0
  C  C60  1  0.09652409  0.54192178  0.43547896  1.0
  C  C61  1  0.91015438  0.43469527  0.53572436  1.0
  C  C62  1  0.19729888  0.54326088  0.43094551  1.0
  C  C63  1  0.81014306  0.42762450  0.53692049  1.0
  C  C64  1  0.20245000  0.51690612  0.56660681  1.0
  C  C65  1  0.47715723  0.33333333  0.50202199  1.0
  C  C66  1  0.78397579  0.57745521  0.50280170  1.0
  C  C67  1  0.10436816  0.51459032  0.57517478  1.0
  C  C68  1  0.88060480  0.58889645  0.50018539  1.0
  C  C69  1  0.54358286  0.46804257  0.35543664  1.0
  C  C70  1  0.48464300  0.48957436  0.65308600  1.0
  C  C71  1  0.04974347  0.52568746  0.50941777  1.0
  C  C72  1  0.94573932  0.51725714  0.51567718  1.0
  C  C73  1  0.54796442  0.43583969  0.27351702  1.0
  C  C74  1  0.48452203  0.45996627  0.73752609  1.0
  C  C75  1  0.46430984  0.41758410  0.23850581  1.0
  C  C76  1  0.57146782  0.90266319  0.44127076  1.0
  C  C77  1  0.56715133  0.46396387  0.77888563  1.0
  C  C78  1  0.46653834  0.39497915  0.16050228  1.0
  C  C79  1  0.56874007  0.43764231  0.85720072  1.0
  C  C80  1  0.55258684  0.39178519  0.11393097  1.0
  C  C81  1  0.48739347  0.40660011  0.89778565  1.0
  C  C82  1  0.63696082  0.40407552  0.15126519  1.0
  C  C83  1  0.40548673  0.40096220  0.85521739  1.0
  C  C84  1  0.63492083  0.42539110  0.22983171  1.0
  C  C85  1  0.40404404  0.42705444  0.77646406  1.0
  C  C86  1  0.55735806  0.38660543  0.02898482  1.0
  C  C87  1  0.42958462  0.10762962  0.43413483  1.0
  C  C88  1  0.48300457  0.38889576  0.98210221  1.0
  C  C89  1  0.25198916  0.55943530  0.35449582  1.0
  C  C90  1  0.27842094  0.65546116  0.34108727  1.0
  C  C91  1  0.19377293  0.72292911  0.33109876  1.0
  C  C92  1  0.76971160  0.34207520  0.56117760  1.0
  C  C93  1  0.74924490  0.33546184  0.65113000  1.0
  C  C94  1  0.75217425  0.24095162  0.68410983  1.0
  C  C95  1  0.32211634  0.96396686  0.53573620  1.0
  C  C96  1  0.33256452  0.00494366  0.61535439  1.0
  C  C97  1  0.24079492  0.05602281  0.64503441  1.0
  C  C98  1  0.57413760  0.81104382  0.44431594  1.0
  C  C99  1  0.63431551  0.03616164  0.56696763  1.0
  C  C100  1  0.59419238  0.99684741  0.64473393  1.0
  C  C101  1  0.67173040  0.94780157  0.69165691  1.0
  C  C102  1  0.42236209  0.19846100  0.44267476  1.0
  C  C103  1  0.49565835  0.76947754  0.47720731  1.0
  C  C104  1  0.48419267  0.23597120  0.49081840  1.0
  C  C105  1  0.41478241  0.82123612  0.50413165  1.0
  N  N106  1  0.24711105  0.52947191  0.49569266  1.0
  N  N107  1  0.75046738  0.49796614  0.51980846  1.0
  N  N108  1  0.04609300  0.55060371  0.36858103  1.0
  N  N109  1  0.97091296  0.36161251  0.55029780  1.0
  O  O110  1  0.57793404  0.62743482  0.47768400  1.0
  O  O111  1  0.39761419  0.37516103  0.48867251  1.0
  O  O112  1  0.41756918  0.63859491  0.50003836  1.0
  O  O113  1  0.55065460  0.36730188  0.52386157  1.0
  O  O114  1  0.62077077  0.46211102  0.39122753  1.0
  O  O115  1  0.40692113  0.49011784  0.61873963  1.0
  O  O116  1  0.46296047  0.49984854  0.38339961  1.0
  O  O117  1  0.56411338  0.51113837  0.62162052  1.0
