# generated using pymatgen
data_Zn2H21C23BrN2O9
_symmetry_space_group_name_H-M   'P 1'
_cell_length_a   9.77227027
_cell_length_b   11.15314796
_cell_length_c   16.08880339
_cell_angle_alpha   91.22048455
_cell_angle_beta   90.39079779
_cell_angle_gamma   92.24827994
_symmetry_Int_Tables_number   1
_chemical_formula_structural   Zn2H21C23BrN2O9
_chemical_formula_sum   'Zn2 H21 C23 Br1 N2 O9'
_cell_volume   1751.74522493
_cell_formula_units_Z   1
loop_
 _symmetry_equiv_pos_site_id
 _symmetry_equiv_pos_as_xyz
  1  'x, y, z'
loop_
 _atom_site_type_symbol
 _atom_site_label
 _atom_site_symmetry_multiplicity
 _atom_site_fract_x
 _atom_site_fract_y
 _atom_site_fract_z
 _atom_site_occupancy
  Zn  Zn0  1  0.36459419  0.49410957  0.49952318  1.0
  Zn  Zn1  1  0.64759459  0.50722138  0.50096187  1.0
  H  H2  1  0.32498219  0.61562855  0.06322842  1.0
  H  H3  1  0.86187027  0.35180234  0.43610636  1.0
  H  H4  1  0.31899522  0.58890719  0.91813257  1.0
  H  H5  1  0.91707804  0.59190977  0.50802002  1.0
  H  H6  1  0.70208796  0.58786105  0.92811097  1.0
  H  H7  1  0.55933151  0.68029216  0.92978445  1.0
  H  H8  1  0.57571911  0.68414390  0.07546222  1.0
  H  H9  1  0.70260573  0.57555181  0.07295799  1.0
  H  H10  1  0.48572279  0.29798528  0.92666733  1.0
  H  H11  1  0.46247285  0.30657188  0.07053261  1.0
  H  H12  1  0.06442481  0.47954973  0.27598126  1.0
  H  H13  1  0.29133820  0.43268707  0.92687813  1.0
  H  H14  1  0.94423980  0.36277409  0.30744370  1.0
  H  H15  1  0.10332369  0.32494357  0.25974505  1.0
  H  H16  1  0.27652626  0.46218097  0.07132443  1.0
  H  H17  1  0.63644383  0.35473871  0.07913612  1.0
  H  H18  1  0.71663949  0.11235327  0.52273099  1.0
  H  H19  1  0.41770733  0.09524449  0.46056627  1.0
  H  H20  1  0.71035714  0.89113503  0.49485257  1.0
  H  H21  1  0.40222490  0.90339938  0.53029824  1.0
  H  H22  1  0.10963751  0.49921334  0.55882528  1.0
  C  C23  1  0.50338712  0.73308341  0.51147737  1.0
  C  C24  1  0.51556107  0.13522608  0.48220021  1.0
  C  C25  1  0.61418361  0.93639464  0.50410198  1.0
  C  C26  1  0.50710076  0.48892346  0.66238932  1.0
  C  C27  1  0.50092835  0.86588297  0.51590439  1.0
  C  C28  1  0.07414849  0.43431139  0.44711097  1.0
  C  C29  1  0.92225213  0.43210489  0.45682552  1.0
  C  C30  1  0.52336385  0.26810752  0.48664811  1.0
  C  C31  1  0.50330943  0.50951412  0.33749195  1.0
  C  C32  1  0.35679940  0.50948524  0.94878058  1.0
  C  C33  1  0.59874269  0.59643712  0.95321080  1.0
  C  C34  1  0.35311266  0.52459225  0.04444892  1.0
  C  C35  1  0.60067371  0.59602746  0.04918895  1.0
  C  C36  1  0.49885134  0.50717869  0.24736322  1.0
  C  C37  1  0.50579695  0.49150471  0.91823462  1.0
  C  C38  1  0.05320439  0.38878724  0.30084856  1.0
  C  C39  1  0.49559910  0.50047460  0.08148582  1.0
  C  C40  1  0.53834825  0.37505205  0.05026347  1.0
  C  C41  1  0.54884953  0.37152772  0.95482849  1.0
  C  C42  1  0.49484440  0.50411267  0.17176990  1.0
  C  C43  1  0.50816093  0.48757077  0.82794016  1.0
  C  C44  1  0.50717813  0.48751475  0.75243045  1.0
  C  C45  1  0.61970049  0.06653791  0.50445453  1.0
  Br  Br46  1  0.73648048  0.33108729  0.91963957  1.0
  N  N47  1  0.15636768  0.47505597  0.50471471  1.0
  N  N48  1  0.85778493  0.51725620  0.49073430  1.0
  O  O49  1  0.38977435  0.67607007  0.52406346  1.0
  O  O50  1  0.61732244  0.68556774  0.49504564  1.0
  O  O51  1  0.39270111  0.46611854  0.62586693  1.0
  O  O52  1  0.62165449  0.51351522  0.62802823  1.0
  O  O53  1  0.41026825  0.31878665  0.47458656  1.0
  O  O54  1  0.63871487  0.32219484  0.50244820  1.0
  O  O55  1  0.39182439  0.53107140  0.37436022  1.0
  O  O56  1  0.61810354  0.48924934  0.37146927  1.0
  O  O57  1  0.12715633  0.38540802  0.37899790  1.0
