# generated using pymatgen
data_Zn4H10C24S4N2O17
_symmetry_space_group_name_H-M   'P 1'
_cell_length_a   19.65928150
_cell_length_b   19.76472695
_cell_length_c   33.37117078
_cell_angle_alpha   78.80367575
_cell_angle_beta   79.11880296
_cell_angle_gamma   63.90434656
_symmetry_Int_Tables_number   1
_chemical_formula_structural   Zn4H10C24S4N2O17
_chemical_formula_sum   'Zn16 H40 C96 S16 N8 O68'
_cell_volume   11344.36971957
_cell_formula_units_Z   4
loop_
 _symmetry_equiv_pos_site_id
 _symmetry_equiv_pos_as_xyz
  1  'x, y, z'
loop_
 _atom_site_type_symbol
 _atom_site_label
 _atom_site_symmetry_multiplicity
 _atom_site_fract_x
 _atom_site_fract_y
 _atom_site_fract_z
 _atom_site_occupancy
  Zn  Zn0  1  0.05484219  0.40097301  0.47767597  1.0
  Zn  Zn1  1  0.98597951  0.48358524  0.56065944  1.0
  Zn  Zn2  1  0.05878848  0.56055954  0.48266825  1.0
  Zn  Zn3  1  0.90102567  0.55371059  0.47983807  1.0
  Zn  Zn4  1  0.69473139  0.34891935  0.27235213  1.0
  Zn  Zn5  1  0.69010737  0.18843861  0.26581491  1.0
  Zn  Zn6  1  0.76767683  0.26659757  0.19025376  1.0
  Zn  Zn7  1  0.84699041  0.19549827  0.27206138  1.0
  Zn  Zn8  1  0.26494042  0.76538657  0.68940633  1.0
  Zn  Zn9  1  0.34967045  0.69777245  0.77159656  1.0
  Zn  Zn10  1  0.19363533  0.84842542  0.77095086  1.0
  Zn  Zn11  1  0.19204098  0.68866142  0.76741220  1.0
  Zn  Zn12  1  0.55908581  0.06208588  0.98417751  1.0
  Zn  Zn13  1  0.40182706  0.05287945  0.97660023  1.0
  Zn  Zn14  1  0.55683407  0.90187030  0.97885432  1.0
  Zn  Zn15  1  0.48094458  0.98457705  0.05962959  1.0
  H  H16  1  0.75046752  0.45024742  0.34774311  1.0
  H  H17  1  0.00069944  0.30332289  0.40000681  1.0
  H  H18  1  0.19867326  0.70218807  0.60205550  1.0
  H  H19  1  0.04687443  0.55197670  0.64810746  1.0
  H  H20  1  0.64977264  0.14673609  0.04933145  1.0
  H  H21  1  0.60512585  0.09816494  0.20062478  1.0
  H  H22  1  0.30280152  0.99704247  0.90230694  1.0
  H  H23  1  0.44647642  0.74907441  0.84969850  1.0
  H  H24  1  0.79214371  0.53989022  0.41887806  1.0
  H  H25  1  0.72450092  0.54349773  0.39071818  1.0
  H  H26  1  0.95424262  0.20849155  0.33392786  1.0
  H  H27  1  0.01726087  0.20081519  0.36648702  1.0
  H  H28  1  0.14790528  0.64312899  0.52025482  1.0
  H  H29  1  0.20071160  0.68500052  0.53318158  1.0
  H  H30  1  0.10706712  0.60168062  0.72996351  1.0
  H  H31  1  0.06372223  0.55013727  0.71709826  1.0
  H  H32  1  0.72652750  0.23238510  0.10479234  1.0
  H  H33  1  0.70862624  0.22494127  0.05724199  1.0
  H  H34  1  0.51731509  0.02339489  0.14516974  1.0
  H  H35  1  0.52606623  0.03995739  0.19281057  1.0
  H  H36  1  0.20944650  0.95887021  0.83140632  1.0
  H  H37  1  0.20786627  0.02522405  0.85934117  1.0
  H  H38  1  0.54455477  0.79256135  0.91568372  1.0
  H  H39  1  0.55110545  0.73074981  0.88313591  1.0
  H  H40  1  0.32744575  0.54009946  0.39676450  1.0
  H  H41  1  0.42284080  0.20905282  0.35289216  1.0
  H  H42  1  0.75455034  0.54083513  0.68526066  1.0
  H  H43  1  0.49632894  0.70922648  0.56565491  1.0
  H  H44  1  0.04081573  0.25336319  0.68344114  1.0
  H  H45  1  0.20948624  0.99550363  0.56570340  1.0
  H  H46  1  0.74282072  0.81657980  0.38718302  1.0
  H  H47  1  0.00469169  0.93199064  0.36278184  1.0
  H  H48  1  0.70903423  0.49712736  0.06621901  1.0
  H  H49  1  0.54083466  0.75427126  0.18442223  1.0
  H  H50  1  0.14952084  0.07636428  0.21917653  1.0
  H  H51  1  0.09927358  0.17438011  0.03017248  1.0
  H  H52  1  0.50863046  0.43149064  0.86295494  1.0
  H  H53  1  0.24413614  0.31949783  0.88732148  1.0
  H  H54  1  0.92151221  0.71024354  0.85302394  1.0
  H  H55  1  0.82852990  0.04100857  0.89706981  1.0
  C  C56  1  0.06234535  0.31644936  0.56140124  1.0
  C  C57  1  0.07066854  0.57210367  0.56817605  1.0
  C  C58  1  0.18357411  0.44017938  0.43845626  1.0
  C  C59  1  0.93546833  0.68354441  0.43893305  1.0
  C  C60  1  0.92855635  0.43216113  0.43026883  1.0
  C  C61  1  0.81779938  0.55973840  0.56311550  1.0
  C  C62  1  0.56628666  0.30937699  0.31105515  1.0
  C  C63  1  0.68327296  0.17974381  0.17897591  1.0
  C  C64  1  0.68909667  0.43332435  0.18830572  1.0
  C  C65  1  0.93472792  0.18807334  0.18977100  1.0
  C  C66  1  0.82082311  0.31936367  0.31943118  1.0
  C  C67  1  0.81157447  0.06618794  0.31175716  1.0
  C  C68  1  0.43268377  0.69036541  0.68776023  1.0
  C  C69  1  0.31658968  0.82295324  0.81956758  1.0
  C  C70  1  0.18761345  0.93294096  0.68780123  1.0
  C  C71  1  0.06617868  0.80922295  0.81127431  1.0
  C  C72  1  0.17862802  0.67835803  0.68196676  1.0
  C  C73  1  0.31579048  0.56656348  0.81134611  1.0
  C  C74  1  0.43717605  0.18362416  0.93834772  1.0
  C  C75  1  0.43468996  0.92549427  0.93029213  1.0
  C  C76  1  0.68415460  0.94162639  0.93920397  1.0
  C  C77  1  0.56035841  0.81743749  0.06228455  1.0
  C  C78  1  0.56780936  0.06894571  0.07098725  1.0
  C  C79  1  0.31424818  0.06192745  0.05949392  1.0
  C  C80  1  0.89939997  0.40641377  0.40105786  1.0
  C  C81  1  0.85148387  0.34689188  0.34697950  1.0
  C  C82  1  0.82702888  0.45083339  0.38605063  1.0
  C  C83  1  0.92472470  0.30328761  0.36113776  1.0
  C  C84  1  0.80555173  0.41855889  0.35957338  1.0
  C  C85  1  0.94561536  0.33503557  0.38818103  1.0
  C  C86  1  0.09786188  0.60223369  0.59614822  1.0
  C  C87  1  0.14820210  0.65142307  0.65402169  1.0
  C  C88  1  0.14076604  0.64653801  0.58175106  1.0
  C  C89  1  0.10346374  0.60893660  0.66842169  1.0
  C  C90  1  0.16508113  0.66898787  0.61165681  1.0
  C  C91  1  0.08043176  0.58520689  0.63850392  1.0
  C  C92  1  0.30501475  0.45416463  0.40062981  1.0
  C  C93  1  0.44515664  0.29503387  0.34924282  1.0
  C  C94  1  0.25830996  0.41566631  0.41390032  1.0
  C  C95  1  0.49179940  0.33357635  0.33591393  1.0
  C  C96  1  0.37703402  0.33920094  0.37288265  1.0
  C  C97  1  0.37317717  0.40994934  0.37704402  1.0
  C  C98  1  0.72613957  0.57568589  0.63078306  1.0
  C  C99  1  0.52445447  0.67379074  0.62016971  1.0
  C  C100  1  0.74357771  0.58426841  0.58812224  1.0
  C  C101  1  0.50703223  0.66526069  0.66284009  1.0
  C  C102  1  0.60451562  0.64097244  0.60857767  1.0
  C  C103  1  0.64606419  0.60842961  0.64238819  1.0
  C  C104  1  0.07709380  0.22507048  0.62921584  1.0
  C  C105  1  0.17384757  0.02403848  0.61989028  1.0
  C  C106  1  0.08661846  0.24225700  0.58651198  1.0
  C  C107  1  0.16413817  0.00694469  0.66257938  1.0
  C  C108  1  0.14202576  0.10376151  0.60779588  1.0
  C  C109  1  0.10908618  0.14535418  0.64126159  1.0
  C  C110  1  0.84148266  0.80096002  0.39727161  1.0
  C  C111  1  0.90534509  0.94858523  0.35335329  1.0
  C  C112  1  0.91006458  0.75789091  0.41408064  1.0
  C  C113  1  0.83674887  0.99169987  0.33655127  1.0
  C  C114  1  0.90702244  0.87881344  0.37535241  1.0
  C  C115  1  0.84009882  0.87040237  0.37495757  1.0
  C  C116  1  0.65646394  0.15093356  0.15010738  1.0
  C  C117  1  0.59780701  0.09456351  0.09984934  1.0
  C  C118  1  0.67112912  0.16528119  0.10639287  1.0
  C  C119  1  0.58459723  0.07875905  0.14355477  1.0
  C  C120  1  0.64043246  0.13653950  0.08279467  1.0
  C  C121  1  0.61442382  0.10838791  0.16716023  1.0
  C  C122  1  0.67365748  0.52502262  0.12054524  1.0
  C  C123  1  0.57526764  0.72591276  0.13013706  1.0
  C  C124  1  0.66427330  0.50760161  0.16323069  1.0
  C  C125  1  0.58478011  0.74331063  0.08745132  1.0
  C  C126  1  0.60790266  0.64615985  0.14212393  1.0
  C  C127  1  0.64122990  0.60477825  0.10858469  1.0
  C  C128  1  0.08198196  0.12409900  0.17772240  1.0
  C  C129  1  0.16691342  0.12672387  0.07158150  1.0
  C  C130  1  0.00925905  0.16314729  0.16508399  1.0
  C  C131  1  0.23964504  0.08766502  0.08415960  1.0
  C  C132  1  0.10949728  0.14016114  0.10583147  1.0
  C  C133  1  0.13944271  0.11109951  0.14350281  1.0
  C  C134  1  0.34353179  0.85063260  0.84890745  1.0
  C  C135  1  0.40596318  0.89572492  0.90286082  1.0
  C  C136  1  0.29998514  0.92231720  0.86404871  1.0
  C  C137  1  0.44856583  0.82311141  0.88867247  1.0
  C  C138  1  0.33370170  0.94243829  0.89043829  1.0
  C  C139  1  0.41549854  0.80359852  0.86166116  1.0
  C  C140  1  0.40950389  0.44835180  0.85294323  1.0
  C  C141  1  0.34387610  0.30184912  0.89668354  1.0
  C  C142  1  0.34117962  0.49193082  0.83598391  1.0
  C  C143  1  0.41224213  0.25820216  0.91360657  1.0
  C  C144  1  0.34311096  0.37120967  0.87455016  1.0
  C  C145  1  0.41030774  0.37896750  0.87510589  1.0
  C  C146  1  0.94469866  0.79566196  0.84949983  1.0
  C  C147  1  0.80521716  0.95569852  0.90050399  1.0
  C  C148  1  0.99159646  0.83388557  0.83595823  1.0
  C  C149  1  0.75833123  0.91749321  0.91407764  1.0
  C  C150  1  0.87313778  0.91109934  0.87685175  1.0
  C  C151  1  0.87664155  0.84036036  0.87299231  1.0
  S  S152  1  0.29777056  0.32587221  0.39759788  1.0
  S  S153  1  0.45242470  0.42331750  0.35230280  1.0
  S  S154  1  0.66238967  0.63196240  0.56238200  1.0
  S  S155  1  0.58817417  0.61746076  0.68858237  1.0
  S  S156  1  0.13440850  0.16125428  0.56135086  1.0
  S  S157  1  0.11658187  0.08797521  0.68772702  1.0
  S  S158  1  0.97238780  0.80222120  0.40265383  1.0
  S  S159  1  0.77476430  0.94702286  0.34762271  1.0
  S  S160  1  0.61587484  0.58843693  0.18850549  1.0
  S  S161  1  0.63340428  0.66244886  0.06219628  1.0
  S  S162  1  0.01127776  0.18378211  0.11165568  1.0
  S  S163  1  0.23768683  0.06756330  0.13762011  1.0
  S  S164  1  0.27837398  0.44813996  0.84707478  1.0
  S  S165  1  0.47504022  0.30199131  0.90257275  1.0
  S  S166  1  0.95244850  0.92400747  0.85184106  1.0
  S  S167  1  0.79725044  0.82753188  0.89798196  1.0
  N  N168  1  0.77985977  0.52331034  0.39522970  1.0
  N  N169  1  0.97536901  0.23418132  0.34863770  1.0
  N  N170  1  0.15680861  0.66947109  0.54070177  1.0
  N  N171  1  0.08053507  0.59299694  0.70942992  1.0
  N  N172  1  0.71526816  0.20313590  0.08701349  1.0
  N  N173  1  0.54684453  0.03460025  0.16291136  1.0
  N  N174  1  0.22707051  0.97027531  0.85498328  1.0
  N  N175  1  0.51808632  0.77183996  0.90121666  1.0
  O  O176  1  0.00082250  0.49866191  0.50011873  1.0
  O  O177  1  0.07773607  0.31542118  0.52229336  1.0
  O  O178  1  0.03402340  0.53191265  0.58454491  1.0
  O  O179  1  0.15581808  0.50582261  0.45016348  1.0
  O  O180  1  0.02848983  0.37472891  0.58045798  1.0
  O  O181  1  0.15301048  0.39279066  0.44584287  1.0
  O  O182  1  0.08575405  0.58776240  0.52912529  1.0
  O  O183  1  0.00299243  0.65683659  0.44940218  1.0
  O  O184  1  0.88516913  0.49669441  0.44322461  1.0
  O  O185  1  0.88917287  0.65210023  0.44799671  1.0
  O  O186  1  0.99484622  0.38874637  0.44107474  1.0
  O  O187  1  0.87711964  0.52686920  0.58184167  1.0
  O  O188  1  0.81565522  0.57421071  0.52400426  1.0
  O  O189  1  0.74849268  0.25079345  0.25033276  1.0
  O  O190  1  0.59651794  0.35707989  0.30379279  1.0
  O  O191  1  0.66722548  0.16312098  0.21753292  1.0
  O  O192  1  0.72429472  0.37505341  0.16923762  1.0
  O  O193  1  0.59400965  0.24405118  0.29901347  1.0
  O  O194  1  0.67288933  0.43411636  0.22737919  1.0
  O  O195  1  0.72088521  0.22001790  0.16359138  1.0
  O  O196  1  0.87682670  0.22424501  0.16951993  1.0
  O  O197  1  0.86270509  0.25312802  0.30822776  1.0
  O  O198  1  0.93361189  0.17196348  0.22871831  1.0
  O  O199  1  0.75458098  0.36266651  0.30849461  1.0
  O  O200  1  0.74588019  0.09169162  0.29917141  1.0
  O  O201  1  0.85671000  0.09886145  0.30493895  1.0
  O  O202  1  0.25033504  0.75022508  0.74995040  1.0
  O  O203  1  0.37375661  0.72390056  0.66870018  1.0
  O  O204  1  0.36096906  0.75834030  0.80766145  1.0
  O  O205  1  0.17206899  0.93454187  0.72688768  1.0
  O  O206  1  0.43432172  0.67586475  0.72687595  1.0
  O  O207  1  0.22077295  0.87424898  0.66908235  1.0
  O  O208  1  0.25041728  0.86554041  0.80766299  1.0
  O  O209  1  0.09543613  0.85778320  0.80269215  1.0
  O  O210  1  0.16472629  0.66156168  0.72101765  1.0
  O  O211  1  0.09531002  0.74267792  0.80061713  1.0
  O  O212  1  0.21729904  0.71657198  0.66559033  1.0
  O  O213  1  0.36074388  0.59946437  0.80367150  1.0
  O  O214  1  0.24922326  0.59192158  0.79976821  1.0
  O  O215  1  0.50004071  0.00038321  0.99954748  1.0
  O  O216  1  0.50314812  0.15812018  0.95064261  1.0
  O  O217  1  0.39153270  0.99156015  0.94066725  1.0
  O  O218  1  0.65433910  0.89352041  0.94673392  1.0
  O  O219  1  0.39197328  0.15105513  0.94534478  1.0
  O  O220  1  0.65609396  0.00694201  0.95126545  1.0
  O  O221  1  0.50123090  0.88354330  0.94188857  1.0
  O  O222  1  0.57903991  0.81621496  0.02331470  1.0
  O  O223  1  0.52763498  0.03118831  0.08636388  1.0
  O  O224  1  0.52306223  0.87602500  0.08092440  1.0
  O  O225  1  0.58328456  0.08617183  0.03243622  1.0
  O  O226  1  0.31568589  0.07443854  0.02048122  1.0
  O  O227  1  0.37191896  0.02848390  0.08007050  1.0
  O  O228  1  0.28663629  0.52479848  0.40944234  1.0
  O  O229  1  0.46368562  0.22441676  0.34041268  1.0
  O  O230  1  0.77978278  0.54024263  0.65715278  1.0
  O  O231  1  0.47092723  0.70920221  0.59371359  1.0
  O  O232  1  0.04149293  0.27852800  0.65529125  1.0
  O  O233  1  0.20939483  0.97048364  0.59390190  1.0
  O  O234  1  0.78430863  0.77823839  0.40207507  1.0
  O  O235  1  0.96242082  0.97141149  0.34884112  1.0
  O  O236  1  0.70937880  0.47174249  0.09435264  1.0
  O  O237  1  0.53930084  0.77932737  0.15620212  1.0
  O  O238  1  0.09473029  0.10193823  0.21771568  1.0
  O  O239  1  0.15407462  0.14862609  0.03160055  1.0
  O  O240  1  0.46704087  0.47051194  0.84838295  1.0
  O  O241  1  0.28628038  0.27977710  0.90122337  1.0
  O  O242  1  0.96294945  0.72494587  0.84092512  1.0
  O  O243  1  0.78705225  0.02634419  0.90913107  1.0
