# generated using pymatgen
data_AlH11C19O13
_symmetry_space_group_name_H-M   'P 1'
_cell_length_a   6.71344410
_cell_length_b   20.82491129
_cell_length_c   25.77064635
_cell_angle_alpha   83.52177957
_cell_angle_beta   89.98599996
_cell_angle_gamma   89.99650122
_symmetry_Int_Tables_number   1
_chemical_formula_structural   AlH11C19O13
_chemical_formula_sum   'Al4 H44 C76 O52'
_cell_volume   3579.90822815
_cell_formula_units_Z   4
loop_
 _symmetry_equiv_pos_site_id
 _symmetry_equiv_pos_as_xyz
  1  'x, y, z'
loop_
 _atom_site_type_symbol
 _atom_site_label
 _atom_site_symmetry_multiplicity
 _atom_site_fract_x
 _atom_site_fract_y
 _atom_site_fract_z
 _atom_site_occupancy
  Al  Al0  1  0.84002009  0.50096785  0.50018102  1.0
  Al  Al1  1  0.33999788  0.49899345  0.49984419  1.0
  Al  Al2  1  0.34792696  0.99962363  0.00082573  1.0
  Al  Al3  1  0.84793234  0.00027006  0.99923630  1.0
  H  H4  1  0.36183646  0.15074159  0.21678968  1.0
  H  H5  1  0.86201889  0.84897874  0.78322790  1.0
  H  H6  1  0.37416413  0.34873565  0.40162973  1.0
  H  H7  1  0.87384575  0.65113803  0.59840340  1.0
  H  H8  1  0.26110148  0.35470354  0.76166211  1.0
  H  H9  1  0.76126418  0.64530015  0.23829473  1.0
  H  H10  1  0.80710582  0.23086887  0.15443792  1.0
  H  H11  1  0.30711281  0.76909263  0.84571453  1.0
  H  H12  1  0.28457534  0.15866899  0.75513420  1.0
  H  H13  1  0.78459934  0.84134180  0.24506062  1.0
  H  H14  1  0.77769984  0.22530495  0.78350657  1.0
  H  H15  1  0.27778443  0.77485241  0.21663431  1.0
  H  H16  1  0.69666448  0.06955701  0.78257402  1.0
  H  H17  1  0.19636807  0.93045608  0.21788253  1.0
  H  H18  1  0.96080713  0.21945286  0.67887811  1.0
  H  H19  1  0.46076937  0.78031240  0.32130428  1.0
  H  H20  1  0.79719486  0.27709972  0.69850464  1.0
  H  H21  1  0.29725747  0.72273201  0.30154058  1.0
  H  H22  1  0.41071215  0.37262768  0.87075541  1.0
  H  H23  1  0.91077721  0.62755639  0.12916830  1.0
  H  H24  1  0.66035464  0.26236026  0.87530653  1.0
  H  H25  1  0.16050639  0.73777702  0.12478114  1.0
  H  H26  1  0.41853276  0.21229685  0.78991794  1.0
  H  H27  1  0.91859384  0.78778328  0.21020324  1.0
  H  H28  1  0.65815277  0.35159118  0.75085986  1.0
  H  H29  1  0.15824112  0.64845724  0.24909727  1.0
  H  H30  1  0.81255129  0.15303276  0.08726998  1.0
  H  H31  1  0.31319494  0.84686354  0.91290896  1.0
  H  H32  1  0.05187509  0.49103758  0.74038607  1.0
  H  H33  1  0.55194533  0.50896924  0.25959459  1.0
  H  H34  1  0.44694765  0.96840450  0.16101740  1.0
  H  H35  1  0.94977138  0.03118135  0.83841276  1.0
  H  H36  1  0.54955039  0.33341353  0.23301813  1.0
  H  H37  1  0.04935744  0.66639486  0.76711883  1.0
  H  H38  1  0.79485573  0.42694547  0.36251221  1.0
  H  H39  1  0.29447704  0.57297009  0.63747563  1.0
  H  H40  1  0.35371660  0.28238741  0.32662884  1.0
  H  H41  1  0.85334559  0.71745924  0.67343029  1.0
  H  H42  1  0.51486371  0.16064986  0.64146913  1.0
  H  H43  1  0.01466544  0.83923932  0.35869124  1.0
  H  H44  1  0.59267188  0.42164705  0.52995959  1.0
  H  H45  1  0.09270130  0.57832677  0.47007939  1.0
  H  H46  1  0.59534058  0.08130683  0.97733268  1.0
  H  H47  1  0.09528029  0.91851790  0.02257499  1.0
  C  C48  1  0.58868209  0.57538087  0.42242376  1.0
  C  C49  1  0.08857156  0.42453767  0.57759499  1.0
  C  C50  1  0.58811790  0.57271441  0.56640258  1.0
  C  C51  1  0.08821820  0.42723409  0.43360740  1.0
  C  C52  1  0.93022695  0.19711539  0.15264236  1.0
  C  C53  1  0.43030491  0.80282910  0.84743350  1.0
  C  C54  1  0.93323816  0.15402765  0.11536094  1.0
  C  C55  1  0.43360194  0.84591648  0.88471619  1.0
  C  C56  1  0.09050372  0.11019082  0.11328071  1.0
  C  C57  1  0.59086854  0.88977093  0.88672580  1.0
  C  C58  1  0.24405241  0.10863187  0.15072707  1.0
  C  C59  1  0.74423983  0.89129116  0.84920398  1.0
  C  C60  1  0.24296728  0.15228804  0.18787357  1.0
  C  C61  1  0.74299678  0.84756687  0.81210261  1.0
  C  C62  1  0.08658589  0.19728703  0.18917070  1.0
  C  C63  1  0.58656405  0.80259282  0.81085870  1.0
  C  C64  1  0.08289982  0.24090470  0.22733506  1.0
  C  C65  1  0.58274577  0.75891382  0.77273655  1.0
  C  C66  1  0.06728426  0.27840511  0.26026737  1.0
  C  C67  1  0.56683056  0.72141714  0.73980886  1.0
  C  C68  1  0.90515174  0.36038510  0.31110284  1.0
  C  C69  1  0.40462825  0.63955137  0.68887491  1.0
  C  C70  1  0.91759407  0.39546940  0.35420192  1.0
  C  C71  1  0.41714926  0.60447007  0.64577264  1.0
  C  C72  1  0.08348179  0.39059547  0.38705299  1.0
  C  C73  1  0.58312756  0.60935113  0.61294031  1.0
  C  C74  1  0.24358202  0.35100461  0.37633612  1.0
  C  C75  1  0.74317746  0.64892338  0.62367689  1.0
  C  C76  1  0.23236668  0.31467167  0.33456631  1.0
  C  C77  1  0.73192445  0.68522895  0.66545971  1.0
  C  C78  1  0.06403061  0.31782708  0.30133836  1.0
  C  C79  1  0.56351234  0.68206888  0.69868494  1.0
  C  C80  1  0.28820158  0.20836271  0.76515985  1.0
  C  C81  1  0.78821977  0.79167355  0.23497278  1.0
  C  C82  1  0.90686370  0.20912279  0.76289930  1.0
  C  C83  1  0.40697974  0.79092431  0.23727555  1.0
  C  C84  1  0.93123555  0.24985867  0.70997559  1.0
  C  C85  1  0.43127293  0.75002107  0.29012918  1.0
  C  C86  1  0.08965091  0.38141432  0.62515016  1.0
  C  C87  1  0.58987728  0.61842240  0.37482427  1.0
  C  C88  1  0.09620259  0.21785158  0.79746459  1.0
  C  C89  1  0.59625637  0.78221331  0.20267944  1.0
  C  C90  1  0.30258786  0.25612104  0.71444293  1.0
  C  C91  1  0.80260561  0.74383478  0.28564330  1.0
  C  C92  1  0.10602644  0.29742465  0.71075848  1.0
  C  C93  1  0.60614223  0.70250083  0.28927647  1.0
  C  C94  1  0.10998492  0.33591634  0.76039334  1.0
  C  C95  1  0.61014093  0.66408103  0.23960320  1.0
  C  C96  1  0.08631703  0.28904030  0.81289977  1.0
  C  C97  1  0.58642182  0.71103891  0.18715928  1.0
  C  C98  1  0.10004810  0.34305189  0.66399854  1.0
  C  C99  1  0.60023695  0.65680628  0.33599851  1.0
  C  C100  1  0.09908112  0.16963908  0.84298482  1.0
  C  C101  1  0.59903663  0.83044298  0.15717752  1.0
  C  C102  1  0.10234786  0.12735448  0.87948003  1.0
  C  C103  1  0.60213325  0.87272683  0.12067538  1.0
  C  C104  1  0.59624040  0.93040196  0.93092795  1.0
  C  C105  1  0.09549612  0.06948556  0.06913092  1.0
  C  C106  1  0.60046708  0.91835145  0.07427377  1.0
  C  C107  1  0.10088001  0.08164593  0.92583643  1.0
  C  C108  1  0.87165434  0.13829926  0.75717885  1.0
  C  C109  1  0.37164257  0.86170658  0.24316711  1.0
  C  C110  1  0.26631032  0.30278557  0.84819620  1.0
  C  C111  1  0.76643006  0.69736044  0.15182455  1.0
  C  C112  1  0.89448063  0.30399805  0.84406956  1.0
  C  C113  1  0.39460804  0.69610877  0.15598196  1.0
  C  C114  1  0.47739088  0.30382976  0.71112085  1.0
  C  C115  1  0.97748005  0.69615327  0.28890487  1.0
  C  C116  1  0.98961217  0.39878777  0.75206077  1.0
  C  C117  1  0.48974100  0.60121830  0.24791014  1.0
  C  C118  1  0.40712631  0.05944416  0.15488562  1.0
  C  C119  1  0.90794603  0.94026327  0.84500787  1.0
  C  C120  1  0.72163627  0.37062397  0.27894191  1.0
  C  C121  1  0.22112493  0.62928898  0.72104527  1.0
  C  C122  1  0.33213071  0.21930006  0.66630561  1.0
  C  C123  1  0.83198183  0.78059179  0.33382743  1.0
  O  O124  1  0.41982438  0.55728392  0.54892313  1.0
  O  O125  1  0.91983596  0.44272475  0.45102723  1.0
  O  O126  1  0.75814100  0.55943808  0.44183971  1.0
  O  O127  1  0.25808323  0.44058348  0.55824212  1.0
  O  O128  1  0.75893107  0.56101163  0.54818410  1.0
  O  O129  1  0.25891527  0.43889688  0.45189504  1.0
  O  O130  1  0.91947410  0.44243359  0.55891579  1.0
  O  O131  1  0.41951890  0.55747697  0.44107361  1.0
  O  O132  1  0.59113339  0.46017147  0.50489814  1.0
  O  O133  1  0.09113260  0.53979902  0.49513751  1.0
  O  O134  1  0.76839557  0.93602648  0.05478315  1.0
  O  O135  1  0.26894750  0.06362300  0.94503301  1.0
  O  O136  1  0.42903783  0.94361216  0.95036895  1.0
  O  O137  1  0.92809627  0.05595755  0.04999915  1.0
  O  O138  1  0.42967490  0.93672705  0.05692483  1.0
  O  O139  1  0.93017771  0.06354291  0.94344574  1.0
  O  O140  1  0.26681943  0.05431302  0.05292421  1.0
  O  O141  1  0.76765333  0.94581961  0.94688472  1.0
  O  O142  1  0.59758263  0.03924799  0.99778223  1.0
  O  O143  1  0.09760667  0.96064087  0.00222770  1.0
  O  O144  1  0.97930623  0.10427599  0.73344138  1.0
  O  O145  1  0.70473413  0.11671641  0.78289093  1.0
  O  O146  1  0.47891907  0.89565161  0.26705198  1.0
  O  O147  1  0.20478476  0.88332395  0.21743820  1.0
  O  O148  1  0.37850478  0.26175253  0.86973314  1.0
  O  O149  1  0.28695597  0.36627642  0.85166320  1.0
  O  O150  1  0.87872990  0.73840914  0.13034407  1.0
  O  O151  1  0.78700618  0.63388002  0.14827705  1.0
  O  O152  1  0.84306504  0.35898869  0.84966880  1.0
  O  O153  1  0.79618448  0.25083347  0.86393527  1.0
  O  O154  1  0.34322394  0.64113058  0.15034002  1.0
  O  O155  1  0.29630614  0.74929252  0.13616777  1.0
  O  O156  1  0.53658461  0.32966000  0.66902140  1.0
  O  O157  1  0.55126194  0.31572228  0.75747047  1.0
  O  O158  1  0.03671495  0.67026823  0.33097658  1.0
  O  O159  1  0.05136387  0.68432958  0.24252627  1.0
  O  O160  1  0.80995714  0.40525911  0.74338542  1.0
  O  O161  1  0.11473767  0.44854210  0.75085659  1.0
  O  O162  1  0.31005290  0.59476275  0.25655600  1.0
  O  O163  1  0.61485277  0.55145440  0.24911063  1.0
  O  O164  1  0.58432995  0.07143053  0.15673907  1.0
  O  O165  1  0.33286957  0.99811127  0.16043464  1.0
  O  O166  1  0.08495308  0.92794422  0.84323408  1.0
  O  O167  1  0.83491180  0.00175643  0.83929581  1.0
  O  O168  1  0.61405475  0.41860647  0.27797284  1.0
  O  O169  1  0.67499532  0.32117464  0.25105182  1.0
  O  O170  1  0.11344289  0.58133956  0.72196133  1.0
  O  O171  1  0.17469291  0.67867534  0.74903362  1.0
  O  O172  1  0.22877566  0.22147650  0.62752627  1.0
  O  O173  1  0.49922724  0.18218159  0.67313289  1.0
  O  O174  1  0.72851903  0.77836048  0.37260125  1.0
  O  O175  1  0.99903422  0.81773636  0.32701608  1.0
