# generated using pymatgen
data_AlH8(C7O3)2
_symmetry_space_group_name_H-M   'P 1'
_cell_length_a   6.70863141
_cell_length_b   19.20741156
_cell_length_c   19.82011843
_cell_angle_alpha   80.89427912
_cell_angle_beta   89.96285950
_cell_angle_gamma   89.94358145
_symmetry_Int_Tables_number   1
_chemical_formula_structural   AlH8(C7O3)2
_chemical_formula_sum   'Al4 H32 C56 O24'
_cell_volume   2521.74403177
_cell_formula_units_Z   4
loop_
 _symmetry_equiv_pos_site_id
 _symmetry_equiv_pos_as_xyz
  1  'x, y, z'
loop_
 _atom_site_type_symbol
 _atom_site_label
 _atom_site_symmetry_multiplicity
 _atom_site_fract_x
 _atom_site_fract_y
 _atom_site_fract_z
 _atom_site_occupancy
  Al  Al0  1  0.82787638  0.25071846  0.75133661  1.0
  Al  Al1  1  0.17151961  0.74859579  0.24960960  1.0
  Al  Al2  1  0.32787630  0.24922435  0.74854601  1.0
  Al  Al3  1  0.67145239  0.75153696  0.25045117  1.0
  H  H4  1  0.74866044  0.08912504  0.65067723  1.0
  H  H5  1  0.25016002  0.85832327  0.39715119  1.0
  H  H6  1  0.24739127  0.41082362  0.84988593  1.0
  H  H7  1  0.75101776  0.64175819  0.10237957  1.0
  H  H8  1  0.31682505  0.04940883  0.50048616  1.0
  H  H9  1  0.67710376  0.00287944  0.45298164  1.0
  H  H10  1  0.81743191  0.45049331  0.99897806  1.0
  H  H11  1  0.17811480  0.49697290  0.04770178  1.0
  H  H12  1  0.37883317  0.13149203  0.94811952  1.0
  H  H13  1  0.62514936  0.86929494  0.05217733  1.0
  H  H14  1  0.87926528  0.36847755  0.55172436  1.0
  H  H15  1  0.12461886  0.63077834  0.44793905  1.0
  H  H16  1  0.61938606  0.97049348  0.95683786  1.0
  H  H17  1  0.38531429  0.02997673  0.04310637  1.0
  H  H18  1  0.11906665  0.52954637  0.54322694  1.0
  H  H19  1  0.88552014  0.47006874  0.45679934  1.0
  H  H20  1  0.70884362  0.00797103  0.56576740  1.0
  H  H21  1  0.28838243  0.93597556  0.48529470  1.0
  H  H22  1  0.20852877  0.49198637  0.93486339  1.0
  H  H23  1  0.78871710  0.56399650  0.01425981  1.0
  H  H24  1  0.35852074  0.12654466  0.58926183  1.0
  H  H25  1  0.63685416  0.92071471  0.36874530  1.0
  H  H26  1  0.85817336  0.37339356  0.91010704  1.0
  H  H27  1  0.13841819  0.57917310  0.13196145  1.0
  H  H28  1  0.64198901  0.13265268  0.90149821  1.0
  H  H29  1  0.36058141  0.86739134  0.10039806  1.0
  H  H30  1  0.14234469  0.36738068  0.59863972  1.0
  H  H31  1  0.85976413  0.63287137  0.39952401  1.0
  H  H32  1  0.57944721  0.15607617  0.77087166  1.0
  H  H33  1  0.41746795  0.84410727  0.23214814  1.0
  H  H34  1  0.07902631  0.34388588  0.72929046  1.0
  H  H35  1  0.91801136  0.65605271  0.26793321  1.0
  C  C36  1  0.58367166  0.33176251  0.64317397  1.0
  C  C37  1  0.41783618  0.66699944  0.35599972  1.0
  C  C38  1  0.08323901  0.16819629  0.85674151  1.0
  C  C39  1  0.91857185  0.83312297  0.14407114  1.0
  C  C40  1  0.57217490  0.33870144  0.82353744  1.0
  C  C41  1  0.42694002  0.66315894  0.17441377  1.0
  C  C42  1  0.07342142  0.16125834  0.67638336  1.0
  C  C43  1  0.92554582  0.83696860  0.32564451  1.0
  C  C44  1  0.85030156  0.03509703  0.56942065  1.0
  C  C45  1  0.14645901  0.93421724  0.45878733  1.0
  C  C46  1  0.35001263  0.46485371  0.93092365  1.0
  C  C47  1  0.64701756  0.56577833  0.04097909  1.0
  C  C48  1  0.87232962  0.07969428  0.61762462  1.0
  C  C49  1  0.12531019  0.88995619  0.41029066  1.0
  C  C50  1  0.37153596  0.42026327  0.88267828  1.0
  C  C51  1  0.62616816  0.61008637  0.08948086  1.0
  C  C52  1  0.05600853  0.11256491  0.62526924  1.0
  C  C53  1  0.94128979  0.88458837  0.37780046  1.0
  C  C54  1  0.55519326  0.38739534  0.87468703  1.0
  C  C55  1  0.44248415  0.61548973  0.12228628  1.0
  C  C56  1  0.21685336  0.10032272  0.58353492  1.0
  C  C57  1  0.77893616  0.92451277  0.39457401  1.0
  C  C58  1  0.71652331  0.39963003  0.91610357  1.0
  C  C59  1  0.28022441  0.57544692  0.10585929  1.0
  C  C60  1  0.19305553  0.05656919  0.53445969  1.0
  C  C61  1  0.80192504  0.96986928  0.44226799  1.0
  C  C62  1  0.69324293  0.44337401  0.96523480  1.0
  C  C63  1  0.30288724  0.53004879  0.05815885  1.0
  C  C64  1  0.00987301  0.02288956  0.52662465  1.0
  C  C65  1  0.98563279  0.97547992  0.47541763  1.0
  C  C66  1  0.51007314  0.47704986  0.97341481  1.0
  C  C67  1  0.48619510  0.52447400  0.02464810  1.0
  C  C68  1  0.08142685  0.11041035  0.91632359  1.0
  C  C69  1  0.92243918  0.89045536  0.08408030  1.0
  C  C70  1  0.58163056  0.38955843  0.58358855  1.0
  C  C71  1  0.42199593  0.60962709  0.41594788  1.0
  C  C72  1  0.74903549  0.96101831  0.99010636  1.0
  C  C73  1  0.25556182  0.03952127  0.00991793  1.0
  C  C74  1  0.24869968  0.53901793  0.50992545  1.0
  C  C75  1  0.75572341  0.46048312  0.49001045  1.0
  C  C76  1  0.75217351  0.90463899  0.04219862  1.0
  C  C77  1  0.25201344  0.09608360  0.95799261  1.0
  C  C78  1  0.25174204  0.59541781  0.45785876  1.0
  C  C79  1  0.75222839  0.40388439  0.54189561  1.0
  C  C80  1  0.09124229  0.93253636  0.07297970  1.0
  C  C81  1  0.91297152  0.06810573  0.92730098  1.0
  C  C82  1  0.59103694  0.56749935  0.42699760  1.0
  C  C83  1  0.41304527  0.43187774  0.57265969  1.0
  C  C84  1  0.08972421  0.99312878  0.02115497  1.0
  C  C85  1  0.91483125  0.00743132  0.97895540  1.0
  C  C86  1  0.58966026  0.50689807  0.47881192  1.0
  C  C87  1  0.41470929  0.49258324  0.52102616  1.0
  C  C88  1  0.72796892  0.08840668  0.88576617  1.0
  C  C89  1  0.27594447  0.91257997  0.11480155  1.0
  C  C90  1  0.22809588  0.41164956  0.61426714  1.0
  C  C91  1  0.77584372  0.58752512  0.38521118  1.0
  O  O92  1  0.40780501  0.31970732  0.80005185  1.0
  O  O93  1  0.59215167  0.68394930  0.19565446  1.0
  O  O94  1  0.90923383  0.17989814  0.70043624  1.0
  O  O95  1  0.09065193  0.81676828  0.30362368  1.0
  O  O96  1  0.75151402  0.31037659  0.66747986  1.0
  O  O97  1  0.24877071  0.68824098  0.33271216  1.0
  O  O98  1  0.25103548  0.18914178  0.83207896  1.0
  O  O99  1  0.74954166  0.81244649  0.16782425  1.0
  O  O100  1  0.74521177  0.31939171  0.80679650  1.0
  O  O101  1  0.25444225  0.67966803  0.19437428  1.0
  O  O102  1  0.24650297  0.18087845  0.69257842  1.0
  O  O103  1  0.75295682  0.81997762  0.30635469  1.0
  O  O104  1  0.91285903  0.19002750  0.83374371  1.0
  O  O105  1  0.08781326  0.81132729  0.16822664  1.0
  O  O106  1  0.41331192  0.31032654  0.66651039  1.0
  O  O107  1  0.58697669  0.68826658  0.33135330  1.0
  O  O108  1  0.57816904  0.20733170  0.75955803  1.0
  O  O109  1  0.42025399  0.79278035  0.24125361  1.0
  O  O110  1  0.07797943  0.29261552  0.74032220  1.0
  O  O111  1  0.92049464  0.70737637  0.25884009  1.0
  O  O112  1  0.66684830  0.05740119  0.84036999  1.0
  O  O113  1  0.33804812  0.94478814  0.15915387  1.0
  O  O114  1  0.16652070  0.44282032  0.65952149  1.0
  O  O115  1  0.83893700  0.55518100  0.34106097  1.0
