# generated using pymatgen
data_InH4C8O5
_symmetry_space_group_name_H-M   'P 1'
_cell_length_a   12.44806977
_cell_length_b   12.68641860
_cell_length_c   12.68633990
_cell_angle_alpha   76.07374101
_cell_angle_beta   60.61974369
_cell_angle_gamma   60.61849483
_symmetry_Int_Tables_number   1
_chemical_formula_structural   InH4C8O5
_chemical_formula_sum   'In4 H16 C32 O20'
_cell_volume   1521.21343173
_cell_formula_units_Z   4
loop_
 _symmetry_equiv_pos_site_id
 _symmetry_equiv_pos_as_xyz
  1  'x, y, z'
loop_
 _atom_site_type_symbol
 _atom_site_label
 _atom_site_symmetry_multiplicity
 _atom_site_fract_x
 _atom_site_fract_y
 _atom_site_fract_z
 _atom_site_occupancy
  In  In0  1  0.18598358  0.00000114  0.62804682  1.0
  In  In1  1  0.93597891  0.12803478  0.49999752  1.0
  In  In2  1  0.81402816  0.99999257  0.37194433  1.0
  In  In3  1  0.56402872  0.87195056  0.49999494  1.0
  H  H4  1  0.19041932  0.93458300  0.43458748  1.0
  H  H5  1  0.87490748  0.93462542  0.56547545  1.0
  H  H6  1  0.55957518  0.06542684  0.56542923  1.0
  H  H7  1  0.37498754  0.06547666  0.43462954  1.0
  H  H8  1  0.87430285  0.99999909  0.00000145  1.0
  H  H9  1  0.62430974  0.49999654  0.49999858  1.0
  H  H10  1  0.87568367  0.50000867  0.50000293  1.0
  H  H11  1  0.12569909  0.99999779  0.00000110  1.0
  H  H12  1  0.64018209  0.05893907  0.81327178  1.0
  H  H13  1  0.44912436  0.31327390  0.44105732  1.0
  H  H14  1  0.51239675  0.94107129  0.18673523  1.0
  H  H15  1  0.20344972  0.68673758  0.55894028  1.0
  H  H16  1  0.23760026  0.31327763  0.55894381  1.0
  H  H17  1  0.30087105  0.05893583  0.18673790  1.0
  H  H18  1  0.10980292  0.68673183  0.44105743  1.0
  H  H19  1  0.54654733  0.94106339  0.81326823  1.0
  C  C20  1  0.87449311  0.05176627  0.77947656  1.0
  C  C21  1  0.67625264  0.27947017  0.44823692  1.0
  C  C22  1  0.70575335  0.94822945  0.22051631  1.0
  C  C23  1  0.40396092  0.72052715  0.55177441  1.0
  C  C24  1  0.04426433  0.27947276  0.55177275  1.0
  C  C25  1  0.07373999  0.05177317  0.22052200  1.0
  C  C26  1  0.87550575  0.72052028  0.44822455  1.0
  C  C27  1  0.34603252  0.94823669  0.77947566  1.0
  C  C28  1  0.76903828  0.02779015  0.89450798  1.0
  C  C29  1  0.54682653  0.39450923  0.47221518  1.0
  C  C30  1  0.69134524  0.97220588  0.10548545  1.0
  C  C31  1  0.41355089  0.60549326  0.52778314  1.0
  C  C32  1  0.05865577  0.39450994  0.52778787  1.0
  C  C33  1  0.20317204  0.02778992  0.10549241  1.0
  C  C34  1  0.98095375  0.60548699  0.47221248  1.0
  C  C35  1  0.33645491  0.97220973  0.89451012  1.0
  C  C36  1  0.78685661  0.99999691  0.99999614  1.0
  C  C37  1  0.53685030  0.50000181  0.50000105  1.0
  C  C38  1  0.96313851  0.50000107  0.50000137  1.0
  C  C39  1  0.21314742  0.00000009  0.00000410  1.0
  C  C40  1  0.65445748  0.03096656  0.89555433  1.0
  C  C41  1  0.43541916  0.39556027  0.46903629  1.0
  C  C42  1  0.58097755  0.96903742  0.10444568  1.0
  C  C43  1  0.30001222  0.60445206  0.53095792  1.0
  C  C44  1  0.16901905  0.39555796  0.53096516  1.0
  C  C45  1  0.31457908  0.03096159  0.10445070  1.0
  C  C46  1  0.09553326  0.60444512  0.46903766  1.0
  C  C47  1  0.44999056  0.96903514  0.89555790  1.0
  C  C48  1  0.55957335  0.00000247  0.00000148  1.0
  C  C49  1  0.30956569  0.50000680  0.49999694  1.0
  C  C50  1  0.19042166  0.50000379  0.50000203  1.0
  C  C51  1  0.44042764  0.99999967  0.00000743  1.0
  O  O52  1  0.12841556  0.99659258  0.49658872  1.0
  O  O53  1  0.87512867  0.99649752  0.50334623  1.0
  O  O54  1  0.62157870  0.00342253  0.50342347  1.0
  O  O55  1  0.37502223  0.00335117  0.49650637  1.0
  O  O56  1  0.99498593  0.00453449  0.77269692  1.0
  O  O57  1  0.74948859  0.27267307  0.49551215  1.0
  O  O58  1  0.77218866  0.99550912  0.22729920  1.0
  O  O59  1  0.51767924  0.72731033  0.50451673  1.0
  O  O60  1  0.97779281  0.27268598  0.50453074  1.0
  O  O61  1  0.00050155  0.00451189  0.22730895  1.0
  O  O62  1  0.75499790  0.72730994  0.49550491  1.0
  O  O63  1  0.23232375  0.99550655  0.77268817  1.0
  O  O64  1  0.83589742  0.11453923  0.69912594  1.0
  O  O65  1  0.70046066  0.19913757  0.38542830  1.0
  O  O66  1  0.64963764  0.88541890  0.30085127  1.0
  O  O67  1  0.28502745  0.80086124  0.61457822  1.0
  O  O68  1  0.10041845  0.19913777  0.61455850  1.0
  O  O69  1  0.04953040  0.11458037  0.30086136  1.0
  O  O70  1  0.91410254  0.80084457  0.38540560  1.0
  O  O71  1  0.46497411  0.88543155  0.69913567  1.0
