# generated using pymatgen
data_AlH3C4O7
_symmetry_space_group_name_H-M   'P 1'
_cell_length_a   6.67993725
_cell_length_b   8.87156537
_cell_length_c   8.87191555
_cell_angle_alpha   71.94105346
_cell_angle_beta   74.82713599
_cell_angle_gamma   74.83169536
_symmetry_Int_Tables_number   1
_chemical_formula_structural   AlH3C4O7
_chemical_formula_sum   'Al2 H6 C8 O14'
_cell_volume   473.00994715
_cell_formula_units_Z   2
loop_
 _symmetry_equiv_pos_site_id
 _symmetry_equiv_pos_as_xyz
  1  'x, y, z'
loop_
 _atom_site_type_symbol
 _atom_site_label
 _atom_site_symmetry_multiplicity
 _atom_site_fract_x
 _atom_site_fract_y
 _atom_site_fract_z
 _atom_site_occupancy
  Al  Al0  1  0.50003665  0.50001867  0.50000053  1.0
  Al  Al1  1  0.00004288  0.50002023  0.49998680  1.0
  H  H2  1  0.75005049  0.32865267  0.67131558  1.0
  H  H3  1  0.25000458  0.67134711  0.32863854  1.0
  H  H4  1  0.72154688  0.13416359  0.47475007  1.0
  H  H5  1  0.27845229  0.86581469  0.52526362  1.0
  H  H6  1  0.22153361  0.47476501  0.13417490  1.0
  H  H7  1  0.77846031  0.52523701  0.86578180  1.0
  C  C8  1  0.15434389  0.48426458  0.78672812  1.0
  C  C9  1  0.34566230  0.21324043  0.51574639  1.0
  C  C10  1  0.84565748  0.51575915  0.21326145  1.0
  C  C11  1  0.65435410  0.78675305  0.48426772  1.0
  C  C12  1  0.60351982  0.95772160  0.48823457  1.0
  C  C13  1  0.39646001  0.04226956  0.51178950  1.0
  C  C14  1  0.10353822  0.48825161  0.95771532  1.0
  C  C15  1  0.89645828  0.51175190  0.04226669  1.0
  O  O16  1  0.34760444  0.46421767  0.71748708  1.0
  O  O17  1  0.15240726  0.28249503  0.53583436  1.0
  O  O18  1  0.00221702  0.49901050  0.28142429  1.0
  O  O19  1  0.49781808  0.71853241  0.50100145  1.0
  O  O20  1  0.65239597  0.53583588  0.28248093  1.0
  O  O21  1  0.84763480  0.71750600  0.46418455  1.0
  O  O22  1  0.99778597  0.50099749  0.71854080  1.0
  O  O23  1  0.50217968  0.28141898  0.49902006  1.0
  O  O24  1  0.74984593  0.42164287  0.57838398  1.0
  O  O25  1  0.24994238  0.57839326  0.42162486  1.0
  O  O26  1  0.77545867  0.02012528  0.46845603  1.0
  O  O27  1  0.22451332  0.97989209  0.53160306  1.0
  O  O28  1  0.27548252  0.46845750  0.02013128  1.0
  O  O29  1  0.72452210  0.53157098  0.97985785  1.0
