# generated using pymatgen
data_ZnH12C19N(ClO4)2
_symmetry_space_group_name_H-M   'P 1'
_cell_length_a   10.75334279
_cell_length_b   12.80473795
_cell_length_c   12.98802630
_cell_angle_alpha   82.12281045
_cell_angle_beta   87.37756264
_cell_angle_gamma   77.95260165
_symmetry_Int_Tables_number   1
_chemical_formula_structural   ZnH12C19N(ClO4)2
_chemical_formula_sum   'Zn2 H24 C38 N2 Cl4 O16'
_cell_volume   1732.20682603
_cell_formula_units_Z   2
loop_
 _symmetry_equiv_pos_site_id
 _symmetry_equiv_pos_as_xyz
  1  'x, y, z'
loop_
 _atom_site_type_symbol
 _atom_site_label
 _atom_site_symmetry_multiplicity
 _atom_site_fract_x
 _atom_site_fract_y
 _atom_site_fract_z
 _atom_site_occupancy
  Zn  Zn0  1  0.48353548  0.61181536  0.52434418  1.0
  Zn  Zn1  1  0.54832789  0.38990101  0.46787245  1.0
  H  H2  1  0.95884383  0.33797112  0.57073895  1.0
  H  H3  1  0.60120911  0.94501381  0.34730931  1.0
  H  H4  1  0.08198132  0.63600106  0.38282527  1.0
  H  H5  1  0.09629362  0.65766644  0.51248518  1.0
  H  H6  1  0.08976354  0.49551291  0.65370022  1.0
  H  H7  1  0.93496458  0.37509100  0.38114275  1.0
  H  H8  1  0.93789491  0.50662664  0.32028948  1.0
  H  H9  1  0.15801833  0.45613675  0.33081482  1.0
  H  H10  1  0.36907570  0.23842143  0.25130465  1.0
  H  H11  1  0.62632969  0.13929787  0.97392079  1.0
  H  H12  1  0.40505192  0.86317850  0.14787823  1.0
  H  H13  1  0.15512460  0.36379954  0.62460158  1.0
  H  H14  1  0.34554217  0.85315055  0.92698960  1.0
  H  H15  1  0.26289826  0.96942238  0.78295253  1.0
  H  H16  1  0.63337608  0.14602164  0.16613616  1.0
  H  H17  1  0.45553838  0.29944259  0.63354590  1.0
  H  H18  1  0.86340265  0.50787557  0.68789409  1.0
  H  H19  1  0.34181291  0.68021711  0.90467411  1.0
  H  H20  1  0.86315142  0.66253346  0.41910820  1.0
  H  H21  1  0.37552222  0.40728530  0.27783662  1.0
  H  H22  1  0.36441715  0.71139007  0.70386098  1.0
  H  H23  1  0.33056403  0.09119969  0.72987773  1.0
  H  H24  1  0.54953675  0.82125876  0.43757806  1.0
  H  H25  1  0.63985539  0.27389382  0.31288912  1.0
  C  C26  1  0.46277810  0.58092223  0.30821662  1.0
  C  C27  1  0.36884576  0.55145555  0.03517531  1.0
  C  C28  1  0.38807381  0.52940070  0.14448622  1.0
  C  C29  1  0.75418910  0.49035329  0.48347273  1.0
  C  C30  1  0.39431171  0.46091145  0.97584834  1.0
  C  C31  1  0.44004763  0.35482562  0.02770024  1.0
  C  C32  1  0.41123926  0.33748567  0.13749102  1.0
  C  C33  1  0.38930892  0.42219809  0.19381936  1.0
  C  C34  1  0.39649733  0.47211211  0.86561064  1.0
  C  C35  1  0.54445306  0.30360155  0.86625467  1.0
  C  C36  1  0.40853398  0.61184155  0.20150088  1.0
  C  C37  1  0.13943872  0.48943614  0.49109428  1.0
  C  C38  1  0.36765917  0.88029984  0.69059676  1.0
  C  C39  1  0.60646258  0.20607933  0.35787457  1.0
  C  C40  1  0.62293146  0.10747570  0.31667690  1.0
  C  C41  1  0.51637000  0.44034312  0.69950106  1.0
  C  C42  1  0.58610634  0.02172221  0.37804440  1.0
  C  C43  1  0.52486222  0.03561331  0.47468732  1.0
  C  C44  1  0.50346167  0.14029248  0.50808633  1.0
  C  C45  1  0.47925985  0.94727716  0.53649882  1.0
  C  C46  1  0.40921221  0.96784189  0.62985358  1.0
  C  C47  1  0.38400580  0.07182700  0.65911461  1.0
  C  C48  1  0.09060274  0.43966025  0.59646203  1.0
  C  C49  1  0.42734310  0.15716090  0.60272736  1.0
  C  C50  1  0.49947078  0.84255945  0.50892812  1.0
  C  C51  1  0.39420255  0.78003428  0.65833397  1.0
  C  C52  1  0.27999768  0.49208233  0.49944999  1.0
  C  C53  1  0.91947605  0.60979509  0.48126531  1.0
  C  C54  1  0.06268028  0.60582367  0.46428527  1.0
  C  C55  1  0.95499927  0.42116159  0.58502178  1.0
  C  C56  1  0.96557210  0.44950011  0.39074533  1.0
  C  C57  1  0.89476973  0.49521305  0.48679916  1.0
  C  C58  1  0.11086551  0.42883739  0.40309042  1.0
  C  C59  1  0.51560681  0.27665366  0.97139425  1.0
  C  C60  1  0.48321325  0.40209607  0.81022521  1.0
  C  C61  1  0.39393264  0.71764304  0.15212715  1.0
  C  C62  1  0.36440821  0.74022585  0.04489437  1.0
  C  C63  1  0.35486413  0.65942330  0.98789168  1.0
  N  N64  1  0.45827582  0.76225020  0.56777595  1.0
  N  N65  1  0.54930900  0.22252554  0.44955881  1.0
  Cl  Cl66  1  0.86405124  0.67517479  0.59652571  1.0
  Cl  Cl67  1  0.17452192  0.28402606  0.42334752  1.0
  Cl  Cl68  1  0.65896022  0.21082238  0.80985904  1.0
  Cl  Cl69  1  0.27817085  0.56587944  0.79835704  1.0
  O  O70  1  0.42938488  0.64752265  0.37377514  1.0
  O  O71  1  0.57092528  0.17903415  0.02413834  1.0
  O  O72  1  0.41527554  0.79967894  0.20076561  1.0
  O  O73  1  0.35617099  0.84587586  0.00268029  1.0
  O  O74  1  0.30071174  0.89317206  0.78309392  1.0
  O  O75  1  0.67783792  0.09317280  0.22191007  1.0
  O  O76  1  0.38953677  0.25075308  0.63872322  1.0
  O  O77  1  0.87894781  0.43205154  0.67718999  1.0
  O  O78  1  0.53985847  0.49013071  0.32515147  1.0
  O  O79  1  0.67324680  0.57687776  0.48849753  1.0
  O  O80  1  0.73091978  0.39782998  0.47611843  1.0
  O  O81  1  0.52335686  0.53763799  0.67821005  1.0
  O  O82  1  0.53792774  0.37258886  0.63292503  1.0
  O  O83  1  0.30906068  0.56084154  0.55055424  1.0
  O  O84  1  0.35843627  0.42259831  0.45499492  1.0
  O  O85  1  0.40762321  0.23409914  0.18187915  1.0
