# generated using pymatgen
data_ZnH4C16(NCl)4
_symmetry_space_group_name_H-M   'P 1'
_cell_length_a   19.82056258
_cell_length_b   19.82057886
_cell_length_c   19.82060440
_cell_angle_alpha   110.44242972
_cell_angle_beta   107.54600617
_cell_angle_gamma   110.44240282
_symmetry_Int_Tables_number   1
_chemical_formula_structural   ZnH4C16(NCl)4
_chemical_formula_sum   'Zn4 H16 C64 N16 Cl16'
_cell_volume   5989.07681900
_cell_formula_units_Z   4
loop_
 _symmetry_equiv_pos_site_id
 _symmetry_equiv_pos_as_xyz
  1  'x, y, z'
loop_
 _atom_site_type_symbol
 _atom_site_label
 _atom_site_symmetry_multiplicity
 _atom_site_fract_x
 _atom_site_fract_y
 _atom_site_fract_z
 _atom_site_occupancy
  Zn  Zn112  1  0.50000259  0.89505077  0.39504830  1.0
  Zn  Zn113  1  0.50000498  0.10495260  0.60495571  1.0
  Zn  Zn114  1  0.60494742  0.10494903  0.49999792  1.0
  Zn  Zn115  1  0.39505105  0.89504727  0.49999788  1.0
  H  H80  1  0.72297245  0.13492148  0.15101198  1.0
  H  H81  1  0.97690925  0.68998815  0.11187308  1.0
  H  H82  1  0.88812417  0.86503453  0.57811521  1.0
  H  H83  1  0.15102037  0.13492383  0.72299044  1.0
  H  H84  1  0.27700415  0.42802231  0.41192387  1.0
  H  H85  1  0.42188675  0.31001063  0.28691785  1.0
  H  H86  1  0.71304957  0.13496692  0.02308364  1.0
  H  H87  1  0.58809127  0.86508337  0.01610569  1.0
  H  H88  1  0.57812282  0.86503505  0.88813001  1.0
  H  H89  1  0.28692245  0.31001216  0.42189031  1.0
  H  H90  1  0.41191951  0.42802185  0.27700064  1.0
  H  H91  1  0.01610095  0.86507865  0.58807775  1.0
  H  H92  1  0.02308997  0.13496673  0.71307190  1.0
  H  H93  1  0.11188550  0.68998607  0.97691284  1.0
  H  H94  1  0.84898043  0.57197901  0.98389311  1.0
  H  H95  1  0.98390857  0.57197547  0.84898133  1.0
  C  C0  1  0.34619212  0.87543317  0.27744669  1.0
  C  C1  1  0.58020757  0.93130506  0.28896637  1.0
  C  C2  1  0.38972881  0.33565928  0.31369659  1.0
  C  C3  1  0.94592882  0.92397008  0.61026897  1.0
  C  C4  1  0.09339299  0.07604048  0.69186838  1.0
  C  C5  1  0.98265094  0.59848436  0.90660948  1.0
  C  C6  1  0.97803676  0.66434076  0.05406528  1.0
  C  C7  1  0.05407325  0.66433509  0.97803420  1.0
  C  C8  1  0.90661374  0.59848707  0.98264588  1.0
  C  C9  1  0.01735232  0.92396148  0.61583484  1.0
  C  C10  1  0.02196763  0.07603924  0.68629960  1.0
  C  C11  1  0.31369657  0.33566571  0.38973352  1.0
  C  C12  1  0.71103231  0.29123919  0.64233601  1.0
  C  C13  1  0.38416024  0.40151122  0.30812275  1.0
  C  C14  1  0.69185473  0.07603902  0.09338549  1.0
  C  C15  1  0.61027177  0.92397013  0.94593551  1.0
  C  C16  1  0.64420240  0.00000164  0.94648435  1.0
  C  C17  1  0.65548521  0.00000133  0.09219860  1.0
  C  C18  1  0.34451026  0.43671112  0.34450987  1.0
  C  C19  1  0.35578915  0.30227575  0.35579299  1.0
  C  C20  1  0.94648490  0.00000484  0.64421436  1.0
  C  C21  1  0.09219847  0.00000103  0.65548946  1.0
  C  C22  1  0.90780275  0.56329316  0.90779930  1.0
  C  C23  1  0.27744486  0.87543146  0.34619387  1.0
  C  C24  1  0.05352044  0.69772319  0.05351622  1.0
  C  C25  1  0.65381165  0.93125715  0.52924697  1.0
  C  C26  1  0.35766398  0.06869464  0.64889996  1.0
  C  C27  1  0.35110402  0.70876432  0.41979579  1.0
  C  C28  1  0.47074773  0.12456117  0.40201194  1.0
  C  C29  1  0.64233675  0.29123792  0.71103450  1.0
  C  C30  1  0.64889634  0.06870226  0.35766570  1.0
  C  C31  1  0.52924455  0.93124920  0.65380930  1.0
  C  C32  1  0.40200348  0.12456035  0.47076213  1.0
  C  C33  1  0.41980088  0.70876515  0.35109727  1.0
  C  C34  1  0.28896438  0.93129876  0.58019997  1.0
  C  C35  1  0.72255738  0.06875209  0.59799221  1.0
  C  C36  1  0.59799028  0.06874680  0.72255719  1.0
  C  C37  1  0.63198097  0.99999936  0.87243269  1.0
  C  C38  1  0.65415237  0.99999563  0.16301189  1.0
  C  C39  1  0.34584096  0.50885520  0.34583972  1.0
  C  C40  1  0.36800920  0.24044495  0.36801034  1.0
  C  C41  1  0.87243737  0.00000163  0.63199366  1.0
  C  C42  1  0.16301474  0.99999848  0.65414931  1.0
  C  C43  1  0.83698601  0.49114538  0.83698442  1.0
  C  C44  1  0.12756889  0.75955463  0.12756767  1.0
  C  C45  1  0.64648575  0.00000274  0.22187265  1.0
  C  C46  1  0.61543547  0.00000061  0.80784449  1.0
  C  C47  1  0.38455538  0.19240568  0.38456664  1.0
  C  C48  1  0.35351833  0.57539291  0.35351136  1.0
  C  C49  1  0.22186779  0.99999635  0.64647711  1.0
  C  C50  1  0.80784699  0.00000683  0.61544390  1.0
  C  C51  1  0.19215855  0.80759099  0.19215548  1.0
  C  C52  1  0.77812882  0.42461518  0.77812937  1.0
  C  C53  1  0.26589286  0.85253526  0.26589620  1.0
  C  C54  1  0.71480253  0.34401116  0.71480448  1.0
  C  C55  1  0.62921489  0.00000586  0.28520461  1.0
  C  C56  1  0.58664078  0.99999829  0.73410728  1.0
  C  C57  1  0.41336170  0.14747545  0.41337245  1.0
  C  C58  1  0.37079308  0.65598886  0.37078744  1.0
  C  C59  1  0.28519777  0.99999643  0.62920287  1.0
  C  C60  1  0.73411364  0.00000670  0.58664484  1.0
  C  C61  1  0.68628278  0.07603542  0.02196194  1.0
  C  C62  1  0.61584060  0.92396622  0.01735638  1.0
  C  C63  1  0.30812475  0.40151526  0.38416219  1.0
  N  N96  1  0.39936195  0.90661407  0.35633980  1.0
  N  N97  1  0.57004111  0.95681666  0.35549547  1.0
  N  N98  1  0.64450210  0.21454334  0.60131650  1.0
  N  N99  1  0.35634658  0.90661327  0.39935266  1.0
  N  N100  1  0.60064731  0.95698931  0.50725635  1.0
  N  N101  1  0.39868529  0.04317999  0.61323052  1.0
  N  N102  1  0.38677662  0.78545744  0.42995773  1.0
  N  N103  1  0.49274016  0.09338756  0.44973121  1.0
  N  N104  1  0.60131734  0.21454475  0.64450183  1.0
  N  N105  1  0.61322677  0.04318756  0.39868773  1.0
  N  N106  1  0.50726483  0.95698758  0.60064805  1.0
  N  N107  1  0.44973125  0.09338895  0.49274921  1.0
  N  N108  1  0.42995928  0.78545736  0.38676986  1.0
  N  N109  1  0.35550127  0.95680955  0.57004476  1.0
  N  N110  1  0.64366064  0.04301790  0.55027009  1.0
  N  N111  1  0.55027731  0.04301573  0.64366049  1.0
  Cl  Cl64  1  0.37474060  0.86458169  0.20354704  1.0
  Cl  Cl65  1  0.53749089  0.82840686  0.22133611  1.0
  Cl  Cl66  1  0.77866510  0.31615247  0.60706953  1.0
  Cl  Cl67  1  0.20353848  0.86457548  0.37473745  1.0
  Cl  Cl68  1  0.62526639  0.82880433  0.48984585  1.0
  Cl  Cl69  1  0.39293599  0.17159459  0.70908379  1.0
  Cl  Cl70  1  0.29092374  0.68385370  0.46251122  1.0
  Cl  Cl71  1  0.51014678  0.13541530  0.33896993  1.0
  Cl  Cl72  1  0.60707184  0.31614716  0.77866308  1.0
  Cl  Cl73  1  0.70907380  0.17159559  0.39292730  1.0
  Cl  Cl74  1  0.48984483  0.82880258  0.62526369  1.0
  Cl  Cl75  1  0.33895607  0.13542502  0.51016998  1.0
  Cl  Cl76  1  0.46251957  0.68385460  0.29091582  1.0
  Cl  Cl77  1  0.22133625  0.82840143  0.53748196  1.0
  Cl  Cl78  1  0.79645696  0.17119614  0.66103674  1.0
  Cl  Cl79  1  0.66103577  0.17119659  0.79645981  1.0
