# generated using pymatgen
data_Zr3H14(C13O8)2
_symmetry_space_group_name_H-M   'P 1'
_cell_length_a   16.68687929
_cell_length_b   17.44367370
_cell_length_c   17.45710194
_cell_angle_alpha   110.09284153
_cell_angle_beta   89.86614125
_cell_angle_gamma   89.92635385
_symmetry_Int_Tables_number   1
_chemical_formula_structural   Zr3H14(C13O8)2
_chemical_formula_sum   'Zr6 H28 C52 O32'
_cell_volume   4772.12710872
_cell_formula_units_Z   2
loop_
 _symmetry_equiv_pos_site_id
 _symmetry_equiv_pos_as_xyz
  1  'x, y, z'
loop_
 _atom_site_type_symbol
 _atom_site_label
 _atom_site_symmetry_multiplicity
 _atom_site_fract_x
 _atom_site_fract_y
 _atom_site_fract_z
 _atom_site_occupancy
  Zr  Zr0  1  0.89698072  0.10567413  0.11101779  1.0
  Zr  Zr1  1  0.11240259  0.09152018  0.09938765  1.0
  Zr  Zr2  1  0.88473394  0.92527284  0.93536529  1.0
  Zr  Zr3  1  0.09590257  0.91542190  0.92315977  1.0
  Zr  Zr4  1  0.99801631  0.09688265  0.92949266  1.0
  Zr  Zr5  1  0.99820649  0.92246206  0.10567538  1.0
  H  H6  1  0.00033668  0.09272945  0.22757250  1.0
  H  H7  1  0.17342632  0.06760892  0.94322595  1.0
  H  H8  1  0.99408740  0.79793458  0.94250403  1.0
  H  H9  1  0.82735209  0.08184105  0.95331299  1.0
  H  H10  1  0.26563785  0.12695213  0.07232538  1.0
  H  H11  1  0.24694664  0.85609032  0.92132691  1.0
  H  H12  1  0.09082020  0.80993971  0.77159257  1.0
  H  H13  1  0.97605666  0.80818551  0.81542102  1.0
  H  H14  1  0.73133922  0.90754725  0.96205644  1.0
  H  H15  1  0.75595868  0.02723679  0.03729416  1.0
  H  H16  1  0.88585903  0.25160151  0.22076083  1.0
  H  H17  1  0.15478088  0.19448837  0.25127703  1.0
  H  H18  1  0.89443153  0.82933341  0.77562343  1.0
  H  H19  1  0.74657896  0.06494600  0.13585232  1.0
  H  H20  1  0.13811124  0.24825467  0.19591842  1.0
  H  H21  1  0.24948611  0.89492469  0.85063197  1.0
  H  H22  1  0.62771613  0.99826735  0.39224652  1.0
  H  H23  1  0.63149135  0.00748480  0.64255059  1.0
  H  H24  1  0.85362728  0.00020944  0.51283253  1.0
  H  H25  1  0.14276116  0.00291584  0.51092577  1.0
  H  H26  1  0.36358302  0.00303532  0.63950033  1.0
  H  H27  1  0.36998079  0.00435254  0.39273813  1.0
  H  H28  1  0.85479729  0.51677136  0.02084202  1.0
  H  H29  1  0.63591087  0.38439267  0.01875612  1.0
  H  H30  1  0.62598754  0.63304108  0.02256265  1.0
  H  H31  1  0.14415646  0.51458280  0.01840776  1.0
  H  H32  1  0.36444082  0.38333524  0.01537515  1.0
  H  H33  1  0.37188801  0.63383268  0.02510735  1.0
  C  C34  1  0.87485801  0.24134514  0.01940396  1.0
  C  C35  1  0.13643052  0.00247940  0.23779427  1.0
  C  C36  1  0.12722031  0.23710036  0.01262493  1.0
  C  C37  1  0.86164511  0.99830798  0.23821907  1.0
  C  C38  1  0.85695148  0.79171449  0.02543861  1.0
  C  C39  1  0.12307506  0.00177741  0.78344459  1.0
  C  C40  1  0.13495737  0.78714903  0.02268294  1.0
  C  C41  1  0.86715527  0.00848493  0.79069697  1.0
  C  C42  1  0.74529276  0.99852153  0.44417241  1.0
  C  C43  1  0.66108565  0.99979809  0.44626737  1.0
  C  C44  1  0.61963745  0.00291486  0.51755974  1.0
  C  C45  1  0.66316256  0.00501987  0.58716173  1.0
  C  C46  1  0.74743824  0.00419575  0.58565257  1.0
  C  C47  1  0.78841134  0.00083681  0.51407647  1.0
  C  C48  1  0.25192269  0.00312255  0.44363991  1.0
  C  C49  1  0.20797134  0.00315310  0.51242877  1.0
  C  C50  1  0.24825326  0.00331675  0.58309864  1.0
  C  C51  1  0.33244905  0.00325834  0.58486258  1.0
  C  C52  1  0.37681846  0.00379710  0.51643532  1.0
  C  C53  1  0.33610880  0.00392785  0.44597541  1.0
  C  C54  1  0.74473128  0.58317926  0.02220171  1.0
  C  C55  1  0.78962594  0.51444620  0.02074823  1.0
  C  C56  1  0.75040791  0.44269185  0.01929683  1.0
  C  C57  1  0.66619123  0.43986700  0.01945053  1.0
  C  C58  1  0.62095798  0.50832763  0.02051824  1.0
  C  C59  1  0.66063970  0.57983895  0.02172296  1.0
  C  C60  1  0.25357325  0.58247553  0.02235418  1.0
  C  C61  1  0.20933924  0.51282383  0.01903745  1.0
  C  C62  1  0.24923806  0.44093300  0.01636153  1.0
  C  C63  1  0.33347351  0.43893934  0.01726740  1.0
  C  C64  1  0.37811438  0.50828038  0.02028437  1.0
  C  C65  1  0.33772271  0.57996809  0.02278198  1.0
  C  C66  1  0.53607326  0.50620952  0.02049477  1.0
  C  C67  1  0.46300713  0.50642996  0.02053481  1.0
  C  C68  1  0.46168120  0.00393688  0.51806115  1.0
  C  C69  1  0.53473719  0.00371259  0.51861498  1.0
  C  C70  1  0.16558043  0.00224868  0.71159221  1.0
  C  C71  1  0.20382490  0.00285190  0.65232197  1.0
  C  C72  1  0.21152591  0.00239128  0.37202144  1.0
  C  C73  1  0.17727378  0.00155802  0.31027857  1.0
  C  C74  1  0.82667786  0.00734998  0.71726594  1.0
  C  C75  1  0.79062387  0.00619231  0.65630080  1.0
  C  C76  1  0.78608420  0.99600932  0.37191403  1.0
  C  C77  1  0.81990965  0.99498870  0.30968250  1.0
  C  C78  1  0.17896600  0.71672847  0.02498934  1.0
  C  C79  1  0.21337506  0.65487613  0.02428718  1.0
  C  C80  1  0.16727049  0.31041358  0.01227587  1.0
  C  C81  1  0.20475704  0.37072903  0.01365980  1.0
  C  C82  1  0.78370426  0.65593816  0.02393853  1.0
  C  C83  1  0.81611087  0.71888029  0.02533840  1.0
  C  C84  1  0.83318191  0.31359662  0.01841242  1.0
  C  C85  1  0.79543077  0.37335854  0.01843496  1.0
  O  O86  1  0.85898653  0.21709884  0.07856795  1.0
  O  O87  1  0.92296449  0.20802547  0.96015559  1.0
  O  O88  1  0.15451112  0.06027881  0.21207981  1.0
  O  O89  1  0.08568450  0.94585300  0.20680295  1.0
  O  O90  1  0.14113244  0.21473387  0.07355182  1.0
  O  O91  1  0.08353819  0.20007522  0.95127735  1.0
  O  O92  1  0.83654702  0.04901094  0.20641636  1.0
  O  O93  1  0.92182099  0.95012450  0.21442771  1.0
  O  O94  1  0.89978244  0.19672655  0.21814693  1.0
  O  O95  1  0.76272392  0.07935564  0.08863507  1.0
  O  O96  1  0.11446213  0.20854828  0.21774169  1.0
  O  O97  1  0.23215319  0.09479003  0.09508302  1.0
  O  O98  1  0.00348067  0.12154208  0.05256047  1.0
  O  O99  1  0.00180776  0.06621506  0.16867027  1.0
  O  O100  1  0.83511741  0.82189500  0.97163383  1.0
  O  O101  1  0.91174247  0.81850242  0.07860502  1.0
  O  O102  1  0.13949622  0.94255732  0.80857057  1.0
  O  O103  1  0.07457698  0.06001445  0.81597100  1.0
  O  O104  1  0.15610697  0.81711138  0.96830368  1.0
  O  O105  1  0.07777080  0.81194032  0.07346566  1.0
  O  O106  1  0.85095849  0.95032178  0.81680876  1.0
  O  O107  1  0.91462690  0.06795883  0.82319774  1.0
  O  O108  1  0.91381164  0.81439356  0.82132881  1.0
  O  O109  1  0.76236646  0.95307458  0.95777340  1.0
  O  O110  1  0.06752454  0.81003147  0.82274542  1.0
  O  O111  1  0.23616811  0.90532334  0.90775526  1.0
  O  O112  1  0.99351957  0.85721314  0.96365157  1.0
  O  O113  1  0.99421833  0.97281214  0.90694889  1.0
  O  O114  1  0.91224659  0.97508418  0.05683340  1.0
  O  O115  1  0.12455211  0.05033388  0.96265458  1.0
  O  O116  1  0.87552713  0.06263964  0.97218280  1.0
  O  O117  1  0.08877320  0.96801858  0.05130820  1.0
