# generated using pymatgen
data_Zn2H20C23(N4F)2
_symmetry_space_group_name_H-M   'P 1'
_cell_length_a   14.99793317
_cell_length_b   15.06024837
_cell_length_c   15.07044450
_cell_angle_alpha   119.37633831
_cell_angle_beta   106.79782805
_cell_angle_gamma   102.53056570
_symmetry_Int_Tables_number   1
_chemical_formula_structural   Zn2H20C23(N4F)2
_chemical_formula_sum   'Zn4 H40 C46 N16 F4'
_cell_volume   2563.78336188
_cell_formula_units_Z   2
loop_
 _symmetry_equiv_pos_site_id
 _symmetry_equiv_pos_as_xyz
  1  'x, y, z'
loop_
 _atom_site_type_symbol
 _atom_site_label
 _atom_site_symmetry_multiplicity
 _atom_site_fract_x
 _atom_site_fract_y
 _atom_site_fract_z
 _atom_site_occupancy
  Zn  Zn106  1  0.14575806  0.64165101  0.54347427  1.0
  Zn  Zn107  1  0.90895361  0.36432791  0.51166636  1.0
  Zn  Zn108  1  0.99569566  0.63811932  0.66322439  1.0
  Zn  Zn109  1  0.02960149  0.36672193  0.36258675  1.0
  H  H50  1  0.33377899  0.89659911  0.74762106  1.0
  H  H51  1  0.86006936  0.11024470  0.44556025  1.0
  H  H52  1  0.50687592  0.63886743  0.77040418  1.0
  H  H53  1  0.16785621  0.37761992  0.88139525  1.0
  H  H54  1  0.95292659  0.77769585  0.30294956  1.0
  H  H55  1  0.52614483  0.21959754  0.17848097  1.0
  H  H56  1  0.82091654  0.91100232  0.35488954  1.0
  H  H57  1  0.44829056  0.09372774  0.91561605  1.0
  H  H58  1  0.79781622  0.77527724  0.39961910  1.0
  H  H59  1  0.62832295  0.22955189  0.03110839  1.0
  H  H60  1  0.98204615  0.92151061  0.26705527  1.0
  H  H61  1  0.34538545  0.07712334  0.06018294  1.0
  H  H62  1  0.17469899  0.70457995  0.89468223  1.0
  H  H63  1  0.19035891  0.30552518  0.49106583  1.0
  H  H64  1  0.06470777  0.34079152  0.69390124  1.0
  H  H65  1  0.35175820  0.67082922  0.72859092  1.0
  H  H66  1  0.01312356  0.09962115  0.23941260  1.0
  H  H67  1  0.14041787  0.90239776  0.91338078  1.0
  H  H68  1  0.25673757  0.69699193  0.39852593  1.0
  H  H69  1  0.70128936  0.30546816  0.55726088  1.0
  H  H70  1  0.82092413  0.68130262  0.51831394  1.0
  H  H71  1  0.84024779  0.32574975  0.14777957  1.0
  H  H72  1  0.69407924  0.33751578  0.36052207  1.0
  H  H73  1  0.01642775  0.66163925  0.35271981  1.0
  H  H74  1  0.66886254  0.62833238  0.80835594  1.0
  H  H75  1  0.15654261  0.36538997  0.02742048  1.0
  H  H76  1  0.97511754  0.12085120  0.89033058  1.0
  H  H77  1  0.89739591  0.09167394  0.95035613  1.0
  H  H78  1  0.85344694  0.12536946  0.85331803  1.0
  H  H79  1  0.91913865  0.29368007  0.05687161  1.0
  H  H80  1  0.99571007  0.32307771  0.99752467  1.0
  H  H81  1  0.12335388  0.27190102  0.09414488  1.0
  H  H82  1  0.04553455  0.24794212  0.15500476  1.0
  H  H83  1  0.74701208  0.87456585  0.79789685  1.0
  H  H84  1  0.81383162  0.87463514  0.71817319  1.0
  H  H85  1  0.67876174  0.83316585  0.65630281  1.0
  H  H86  1  0.71536010  0.66163161  0.57678555  1.0
  H  H87  1  0.64765772  0.66127685  0.65402299  1.0
  H  H88  1  0.81111556  0.73777588  0.82599213  1.0
  H  H89  1  0.88319956  0.74965235  0.75550365  1.0
  C  C0  1  0.27328308  0.88175092  0.77139590  1.0
  C  C1  1  0.89716707  0.12423195  0.39850894  1.0
  C  C2  1  0.12341081  0.42046850  0.22572525  1.0
  C  C3  1  0.79638765  0.58035082  0.68867347  1.0
  C  C4  1  0.18768468  0.51719668  0.24206333  1.0
  C  C5  1  0.71599282  0.48319028  0.65520902  1.0
  C  C6  1  0.89590935  0.69128915  0.41149578  1.0
  C  C7  1  0.72295341  0.31101059  0.21161789  1.0
  C  C8  1  0.60035955  0.55007915  0.73766994  1.0
  C  C9  1  0.18993162  0.45134415  0.05342781  1.0
  C  C10  1  0.62012384  0.47095117  0.66147556  1.0
  C  C11  1  0.21681817  0.53124882  0.16479470  1.0
  C  C12  1  0.50306443  0.55388232  0.72833091  1.0
  C  C13  1  0.18668635  0.45734315  0.96017135  1.0
  C  C14  1  0.40570514  0.47137890  0.66683350  1.0
  C  C15  1  0.18492458  0.53959239  0.94635596  1.0
  C  C16  1  0.92968903  0.94839122  0.30030375  1.0
  C  C17  1  0.35301351  0.05280524  0.98233593  1.0
  C  C18  1  0.87550745  0.88614699  0.32456460  1.0
  C  C19  1  0.44118217  0.11582073  0.99340901  1.0
  C  C20  1  0.85573919  0.75289601  0.37477215  1.0
  C  C21  1  0.62481700  0.24933704  0.10996568  1.0
  C  C22  1  0.13856219  0.61408948  0.82887956  1.0
  C  C23  1  0.21473369  0.39604947  0.54036991  1.0
  C  C24  1  0.89439847  0.79832618  0.32765992  1.0
  C  C25  1  0.53153541  0.20166977  0.10095402  1.0
  C  C26  1  0.08292754  0.42812747  0.72651537  1.0
  C  C27  1  0.29799105  0.58282149  0.66174045  1.0
  C  C28  1  0.97592528  0.11947441  0.29431522  1.0
  C  C29  1  0.17487281  0.88399357  0.85582050  1.0
  C  C30  1  0.27161901  0.94883445  0.87625354  1.0
  C  C31  1  0.93127671  0.05471437  0.32597795  1.0
  C  C32  1  0.14461399  0.52754814  0.83968084  1.0
  C  C33  1  0.31150126  0.48395050  0.63203840  1.0
  C  C34  1  0.21054852  0.60746097  0.35255913  1.0
  C  C35  1  0.74275925  0.39483215  0.59825284  1.0
  C  C36  1  0.87679191  0.66901676  0.48647203  1.0
  C  C37  1  0.82061521  0.33567418  0.21504162  1.0
  C  C38  1  0.74527224  0.34142859  0.32290966  1.0
  C  C39  1  0.97636490  0.65956780  0.40174475  1.0
  C  C40  1  0.06940176  0.29872661  0.12542337  1.0
  C  C41  1  0.97375872  0.27017858  0.02523214  1.0
  C  C42  1  0.92200927  0.14537662  0.92429033  1.0
  C  C43  1  0.80799184  0.69868981  0.74060185  1.0
  C  C44  1  0.72190802  0.70682178  0.66373888  1.0
  C  C45  1  0.74133013  0.82875587  0.71141009  1.0
  N  N90  1  0.18542865  0.78614229  0.69616488  1.0
  N  N91  1  0.91946149  0.22091981  0.40827353  1.0
  N  N92  1  0.07674268  0.56864684  0.71846112  1.0
  N  N93  1  0.15041703  0.44020345  0.51641710  1.0
  N  N94  1  0.04260728  0.45461968  0.65595343  1.0
  N  N95  1  0.20146759  0.55452421  0.59124123  1.0
  N  N96  1  0.96818160  0.21814722  0.34304431  1.0
  N  N97  1  0.12364462  0.78742160  0.74833862  1.0
  N  N98  1  0.16424625  0.56887170  0.39854979  1.0
  N  N99  1  0.83212706  0.43505223  0.59883590  1.0
  N  N100  1  0.94232919  0.63031711  0.52016125  1.0
  N  N101  1  0.89360630  0.37421022  0.31836028  1.0
  N  N102  1  0.84712556  0.37820238  0.38475091  1.0
  N  N103  1  0.00327233  0.62434760  0.46770583  1.0
  N  N104  1  0.11096073  0.45353041  0.32050476  1.0
  N  N105  1  0.86506655  0.54961044  0.65466290  1.0
  F  F46  1  0.54077781  0.36769080  0.56892904  1.0
  F  F47  1  0.27285686  0.64309869  0.21484731  1.0
  F  F48  1  0.38811167  0.36115366  0.61950976  1.0
  F  F49  1  0.20779555  0.64478357  0.03805509  1.0
