# generated using pymatgen
data_CuH4C3N4O3
_symmetry_space_group_name_H-M   'P 1'
_cell_length_a   8.16098699
_cell_length_b   12.92581694
_cell_length_c   12.92649405
_cell_angle_alpha   115.65119440
_cell_angle_beta   102.21490962
_cell_angle_gamma   102.13540269
_symmetry_Int_Tables_number   1
_chemical_formula_structural   CuH4C3N4O3
_chemical_formula_sum   'Cu6 H24 C18 N24 O18'
_cell_volume   1128.67808796
_cell_formula_units_Z   6
loop_
 _symmetry_equiv_pos_site_id
 _symmetry_equiv_pos_as_xyz
  1  'x, y, z'
loop_
 _atom_site_type_symbol
 _atom_site_label
 _atom_site_symmetry_multiplicity
 _atom_site_fract_x
 _atom_site_fract_y
 _atom_site_fract_z
 _atom_site_occupancy
  Cu  Cu0  1  0.24885152  0.53256801  0.58526248  1.0
  Cu  Cu1  1  0.71603162  0.05295391  0.46735827  1.0
  Cu  Cu2  1  0.66293865  0.41420936  0.94685966  1.0
  Cu  Cu3  1  0.75114853  0.46742077  0.41473254  1.0
  Cu  Cu4  1  0.28397452  0.94704766  0.53265237  1.0
  Cu  Cu5  1  0.33706474  0.58580591  0.05314404  1.0
  H  H6  1  0.34073699  0.35273764  0.36995665  1.0
  H  H7  1  0.98890721  0.01774087  0.64769041  1.0
  H  H8  1  0.97051710  0.63003644  0.98262047  1.0
  H  H9  1  0.65926799  0.64726118  0.63004646  1.0
  H  H10  1  0.01108856  0.98225521  0.35231947  1.0
  H  H11  1  0.02948327  0.36996512  0.01737463  1.0
  H  H12  1  0.14826562  0.36659789  0.32538467  1.0
  H  H13  1  0.78273328  0.96011446  0.63432613  1.0
  H  H14  1  0.82205256  0.67420518  0.04023445  1.0
  H  H15  1  0.85174251  0.63340185  0.67461388  1.0
  H  H16  1  0.21726614  0.03987340  0.36567381  1.0
  H  H17  1  0.17795554  0.32580187  0.95976489  1.0
  H  H18  1  0.71395679  0.69938282  0.42422948  1.0
  H  H19  1  0.01533237  0.72447153  0.30126785  1.0
  H  H20  1  0.29305893  0.57767328  0.27622068  1.0
  H  H21  1  0.28604038  0.30060505  0.57576240  1.0
  H  H22  1  0.98467846  0.27551634  0.69872990  1.0
  H  H23  1  0.70692822  0.42232463  0.72377402  1.0
  H  H24  1  0.85242700  0.84392204  0.48542578  1.0
  H  H25  1  0.00846476  0.64142811  0.15643456  1.0
  H  H26  1  0.36862124  0.51513835  0.35865363  1.0
  H  H27  1  0.14757136  0.15607130  0.51457712  1.0
  H  H28  1  0.99154131  0.35857254  0.84356408  1.0
  H  H29  1  0.63137335  0.48486687  0.64134450  1.0
  C  C30  1  0.97446730  0.72111428  0.47661570  1.0
  C  C31  1  0.25354133  0.75529915  0.27916071  1.0
  C  C32  1  0.49957104  0.52391456  0.24467774  1.0
  C  C33  1  0.02552790  0.27887998  0.52338326  1.0
  C  C34  1  0.74646033  0.24470333  0.72084735  1.0
  C  C35  1  0.50043354  0.47608792  0.75531836  1.0
  C  C36  1  0.24062297  0.72688515  0.54741318  1.0
  C  C37  1  0.51355825  0.82058856  0.27322458  1.0
  C  C38  1  0.69364777  0.45211421  0.17937118  1.0
  C  C39  1  0.75936845  0.27311184  0.45259027  1.0
  C  C40  1  0.48644879  0.17941940  0.72678274  1.0
  C  C41  1  0.30636002  0.54789466  0.82062812  1.0
  C  C42  1  0.43507138  0.75848468  0.60390568  1.0
  C  C43  1  0.67615305  0.84562257  0.24146147  1.0
  C  C44  1  0.83136860  0.39551067  0.15424733  1.0
  C  C45  1  0.56491888  0.24149679  0.39608091  1.0
  C  C46  1  0.32386001  0.15439544  0.75855875  1.0
  C  C47  1  0.16860728  0.60448267  0.84574996  1.0
  N  N48  1  0.96257088  0.61350092  0.47324808  1.0
  N  N49  1  0.34940476  0.85939195  0.38685073  1.0
  N  N50  1  0.49074249  0.52739800  0.14048739  1.0
  N  N51  1  0.03741022  0.38648968  0.52673951  1.0
  N  N52  1  0.65059610  0.14060413  0.61315757  1.0
  N  N53  1  0.50926886  0.47261544  0.85951361  1.0
  N  N54  1  0.83545906  0.75186129  0.43534531  1.0
  N  N55  1  0.08395000  0.68316971  0.24847159  1.0
  N  N56  1  0.40282994  0.56564768  0.31719927  1.0
  N  N57  1  0.16453833  0.24813479  0.56465398  1.0
  N  N58  1  0.91605579  0.31682546  0.75152622  1.0
  N  N59  1  0.59716723  0.43435480  0.68279265  1.0
  N  N60  1  0.13152460  0.61928790  0.51880650  1.0
  N  N61  1  0.51248334  0.89928397  0.38105034  1.0
  N  N62  1  0.61326451  0.48102469  0.10046594  1.0
  N  N63  1  0.86846016  0.38069997  0.48117969  1.0
  N  N64  1  0.48752060  0.10071576  0.61895998  1.0
  N  N65  1  0.38673595  0.51897962  0.89953111  1.0
  N  N66  1  0.14860719  0.79373875  0.52119385  1.0
  N  N67  1  0.35471595  0.72753480  0.20634370  1.0
  N  N68  1  0.62842570  0.47855263  0.27241967  1.0
  N  N69  1  0.85139195  0.20626098  0.47880957  1.0
  N  N70  1  0.64528080  0.27247498  0.79366056  1.0
  N  N71  1  0.37157307  0.52144071  0.72757169  1.0
  O  O72  1  0.47027829  0.67568170  0.62814275  1.0
  O  O73  1  0.79389369  0.95278053  0.32406198  1.0
  O  O74  1  0.84181147  0.37122791  0.04713718  1.0
  O  O75  1  0.52972058  0.32431712  0.37185483  1.0
  O  O76  1  0.20611066  0.04722742  0.67595035  1.0
  O  O77  1  0.15818347  0.62878279  0.95286024  1.0
  O  O78  1  0.54624547  0.85294036  0.62370191  1.0
  O  O79  1  0.69272105  0.77093579  0.14701211  1.0
  O  O80  1  0.92313342  0.37589455  0.22899063  1.0
  O  O81  1  0.45377540  0.14706487  0.37630162  1.0
  O  O82  1  0.30729475  0.22908404  0.85299227  1.0
  O  O83  1  0.07685131  0.62410519  0.77099211  1.0
  O  O84  1  0.26469651  0.40483408  0.39074628  1.0
  O  O85  1  0.86059764  0.98704019  0.59591319  1.0
  O  O86  1  0.87322695  0.60896150  0.01345103  1.0
  O  O87  1  0.73531295  0.59516566  0.60925015  1.0
  O  O88  1  0.13939945  0.01294584  0.40409027  1.0
  O  O89  1  0.12677543  0.39104190  0.98654978  1.0
