# generated using pymatgen
data_AlH12C21NO9
_symmetry_space_group_name_H-M   'P 1'
_cell_length_a   4.13220383
_cell_length_b   23.33150072
_cell_length_c   23.33033902
_cell_angle_alpha   120.00085965
_cell_angle_beta   90.00006877
_cell_angle_gamma   89.99906069
_symmetry_Int_Tables_number   1
_chemical_formula_structural   AlH12C21NO9
_chemical_formula_sum   'Al3 H36 C63 N3 O27'
_cell_volume   1947.92543945
_cell_formula_units_Z   3
loop_
 _symmetry_equiv_pos_site_id
 _symmetry_equiv_pos_as_xyz
  1  'x, y, z'
loop_
 _atom_site_type_symbol
 _atom_site_label
 _atom_site_symmetry_multiplicity
 _atom_site_fract_x
 _atom_site_fract_y
 _atom_site_fract_z
 _atom_site_occupancy
  Al  Al0  1  0.00681778  0.49982070  0.50018150  1.0
  Al  Al1  1  0.00684966  0.16646334  0.83296785  1.0
  Al  Al2  1  0.00678077  0.83368919  0.16685555  1.0
  H  H3  1  0.20041614  0.92035942  0.05128893  1.0
  H  H4  1  0.20835078  0.92273434  0.94684462  1.0
  H  H5  1  0.81376441  0.74876005  0.85946750  1.0
  H  H6  1  0.81379385  0.94401452  0.91790969  1.0
  H  H7  1  0.20049467  0.96424883  0.74632369  1.0
  H  H8  1  0.20832607  0.85743186  0.74394146  1.0
  H  H9  1  0.81379461  0.80720516  0.72263989  1.0
  H  H10  1  0.20047501  0.61539388  0.70241750  1.0
  H  H11  1  0.20832833  0.71983587  0.80923712  1.0
  H  H12  1  0.80788519  0.37062350  0.94873097  1.0
  H  H13  1  0.79824170  0.47688365  0.05368268  1.0
  H  H14  1  0.19409168  0.38861068  0.13959034  1.0
  H  H15  1  0.19405580  0.52707102  0.08234203  1.0
  H  H16  1  0.80787736  0.71790607  0.25522544  1.0
  H  H17  1  0.79825795  0.61295506  0.25652458  1.0
  H  H18  1  0.19405881  0.58431116  0.27805164  1.0
  H  H19  1  0.80788000  0.41144083  0.29601961  1.0
  H  H20  1  0.79823823  0.41013022  0.18975888  1.0
  H  H21  1  0.80788310  0.07820820  0.62925003  1.0
  H  H22  1  0.79703617  0.07689892  0.52291309  1.0
  H  H23  1  0.19260023  0.25100822  0.61143204  1.0
  H  H24  1  0.19260163  0.05526598  0.47292322  1.0
  H  H25  1  0.80786167  0.03740540  0.28227419  1.0
  H  H26  1  0.79702269  0.14375016  0.38729569  1.0
  H  H27  1  0.19259479  0.19375835  0.41566353  1.0
  H  H28  1  0.80785869  0.38439413  0.58845785  1.0
  H  H29  1  0.79701475  0.27937552  0.58978123  1.0
  H  H30  1  0.98999254  0.76013368  0.00776580  1.0
  H  H31  1  0.99009210  0.08093521  0.90653776  1.0
  H  H32  1  0.99007501  0.65890887  0.58571702  1.0
  H  H33  1  0.01980306  0.25247664  0.99088765  1.0
  H  H34  1  0.01977859  0.67577499  0.09492448  1.0
  H  H35  1  0.01978983  0.57174262  0.41418520  1.0
  H  H36  1  0.02021160  0.23837161  0.74766261  1.0
  H  H37  1  0.02018191  0.91902617  0.32406561  1.0
  H  H38  1  0.02021003  0.34261120  0.42827715  1.0
  C  C39  1  0.50451762  0.41251980  0.50219730  1.0
  C  C40  1  0.50692940  0.58858229  0.58845324  1.0
  C  C41  1  0.50484684  0.49787086  0.41047401  1.0
  C  C42  1  0.50696955  0.07819928  0.83346963  1.0
  C  C43  1  0.50454260  0.16444795  0.74364703  1.0
  C  C44  1  0.50484398  0.25617738  0.92072200  1.0
  C  C45  1  0.50686705  0.83319911  0.07809003  1.0
  C  C46  1  0.50449681  0.92301648  0.25415336  1.0
  C  C47  1  0.50481701  0.74593737  0.16880701  1.0
  C  C48  1  0.34112953  0.88358094  0.00943382  1.0
  C  C49  1  0.33927066  0.88421281  0.95025974  1.0
  C  C50  1  0.50254883  0.83455460  0.89471708  1.0
  C  C51  1  0.67849115  0.78675921  0.90103206  1.0
  C  C52  1  0.69511204  0.78799573  0.96128906  1.0
  C  C53  1  0.51507051  0.83541542  0.01552114  1.0
  C  C54  1  0.67853880  0.94758249  0.87991073  1.0
  C  C55  1  0.69519233  0.00659971  0.87867464  1.0
  C  C56  1  0.51518857  0.01341757  0.83125848  1.0
  C  C57  1  0.34116336  0.95916529  0.78309420  1.0
  C  C58  1  0.33928584  0.89936758  0.78246240  1.0
  C  C59  1  0.50258178  0.89347855  0.83211767  1.0
  C  C60  1  0.67852009  0.76564036  0.71907609  1.0
  C  C61  1  0.69517481  0.70538392  0.66005417  1.0
  C  C62  1  0.51515989  0.65115766  0.65324130  1.0
  C  C63  1  0.34114858  0.65724727  0.70749630  1.0
  C  C64  1  0.33928263  0.71641912  0.76730220  1.0
  C  C65  1  0.50257061  0.77195675  0.77318718  1.0
  C  C66  1  0.66713461  0.37519896  0.99036793  1.0
  C  C67  1  0.66772980  0.43472147  0.04982935  1.0
  C  C68  1  0.50382694  0.44004602  0.10507620  1.0
  C  C69  1  0.32905593  0.38559968  0.09823549  1.0
  C  C70  1  0.31377120  0.32681507  0.03771590  1.0
  C  C71  1  0.49363169  0.32062686  0.98367175  1.0
  C  C72  1  0.32904251  0.56841956  0.12068727  1.0
  C  C73  1  0.31375482  0.62894639  0.12243270  1.0
  C  C74  1  0.49359839  0.68298075  0.17029406  1.0
  C  C75  1  0.66712861  0.67627774  0.21816706  1.0
  C  C76  1  0.66773402  0.61681271  0.21821777  1.0
  C  C77  1  0.50382872  0.56157669  0.16829942  1.0
  C  C78  1  0.32903705  0.54596925  0.28105795  1.0
  C  C79  1  0.31376468  0.54423342  0.33984649  1.0
  C  C80  1  0.49362500  0.49637244  0.34601744  1.0
  C  C81  1  0.66714218  0.44849672  0.29144930  1.0
  C  C82  1  0.66773482  0.44844016  0.23192530  1.0
  C  C83  1  0.50382715  0.49836052  0.22660463  1.0
  C  C84  1  0.66659836  0.11518918  0.62464905  1.0
  C  C85  1  0.66666667  0.11515018  0.56514731  1.0
  C  C86  1  0.50221610  0.16505636  0.55992514  1.0
  C  C87  1  0.32784224  0.21269104  0.61443636  1.0
  C  C88  1  0.31365646  0.21097844  0.67322936  1.0
  C  C89  1  0.49362084  0.16306633  0.67925776  1.0
  C  C90  1  0.32784661  0.05225021  0.43159312  1.0
  C  C91  1  0.31363942  0.99345859  0.37109728  1.0
  C  C92  1  0.49361365  0.98741149  0.31714418  1.0
  C  C93  1  0.66658352  0.04201474  0.32386662  1.0
  C  C94  1  0.66666667  0.10152055  0.38331863  1.0
  C  C95  1  0.50220137  0.10675184  0.43845610  1.0
  C  C96  1  0.32781867  0.23508635  0.45398055  1.0
  C  C97  1  0.31364177  0.29558419  0.45568342  1.0
  C  C98  1  0.49360634  0.34952233  0.50358636  1.0
  C  C99  1  0.66657028  0.34280747  0.55147766  1.0
  C  C100  1  0.66666667  0.28335271  0.55152492  1.0
  C  C101  1  0.50219589  0.22822039  0.50162537  1.0
  N  N102  1  0.49364053  0.83333006  0.83334052  1.0
  N  N103  1  0.51125625  0.49999462  0.16666129  1.0
  N  N104  1  0.50891193  0.16668097  0.50001430  1.0
  O  O105  1  0.74753696  0.52680767  0.44866231  1.0
  O  O106  1  0.74617503  0.42148453  0.47278919  1.0
  O  O107  1  0.73997424  0.54810577  0.57505478  1.0
  O  O108  1  0.27391573  0.47077766  0.42438312  1.0
  O  O109  1  0.26662690  0.57922733  0.54973380  1.0
  O  O110  1  0.27388100  0.45347495  0.52980661  1.0
  O  O111  1  0.27391199  0.24226246  0.87971545  1.0
  O  O112  1  0.26668686  0.11692045  0.86283005  1.0
  O  O113  1  0.27393822  0.13683382  0.75698746  1.0
  O  O114  1  0.74752981  0.21798467  0.91146952  1.0
  O  O115  1  0.74622598  0.19384632  0.78201696  1.0
  O  O116  1  0.74003086  0.09159001  0.80638674  1.0
  O  O117  1  0.27390209  0.78694050  0.19590108  1.0
  O  O118  1  0.26658024  0.80383378  0.08744621  1.0
  O  O119  1  0.27384794  0.90966424  0.21320323  1.0
  O  O120  1  0.74752470  0.75518648  0.13986909  1.0
  O  O121  1  0.74613720  0.88463987  0.24519142  1.0
  O  O122  1  0.73993044  0.86027529  0.11857041  1.0
  O  O123  1  0.88235334  0.74130338  0.96437108  1.0
  O  O124  1  0.88246313  0.05637239  0.92537093  1.0
  O  O125  1  0.88243558  0.70230007  0.61027639  1.0
  O  O126  1  0.12818737  0.27664720  0.03422890  1.0
  O  O127  1  0.12816582  0.63243621  0.07575304  1.0
  O  O128  1  0.12818375  0.59091092  0.39001561  1.0
  O  O129  1  0.12867812  0.25766438  0.72358853  1.0
  O  O130  1  0.12866786  0.94310299  0.36743111  1.0
  O  O131  1  0.12866744  0.29924753  0.40899335  1.0
