# generated using pymatgen
data_ZnH3C18SNCl8O5
_symmetry_space_group_name_H-M   'P 1'
_cell_length_a   12.59641911
_cell_length_b   16.86905382
_cell_length_c   17.66089112
_cell_angle_alpha   95.02805006
_cell_angle_beta   90.16407505
_cell_angle_gamma   92.07030464
_symmetry_Int_Tables_number   1
_chemical_formula_structural   ZnH3C18SNCl8O5
_chemical_formula_sum   'Zn2 H6 C36 S2 N2 Cl16 O10'
_cell_volume   3735.80730126
_cell_formula_units_Z   2
loop_
 _symmetry_equiv_pos_site_id
 _symmetry_equiv_pos_as_xyz
  1  'x, y, z'
loop_
 _atom_site_type_symbol
 _atom_site_label
 _atom_site_symmetry_multiplicity
 _atom_site_fract_x
 _atom_site_fract_y
 _atom_site_fract_z
 _atom_site_occupancy
  Zn  Zn0  1  0.49850460  0.41041125  0.49057724  1.0
  Zn  Zn1  1  0.50196572  0.58915105  0.50669047  1.0
  H  H2  1  0.51253920  0.00409272  0.59186818  1.0
  H  H3  1  0.48037782  0.99538873  0.41830244  1.0
  H  H4  1  0.40939948  0.55890679  0.01076545  1.0
  H  H5  1  0.59545695  0.44709519  0.98481870  1.0
  H  H6  1  0.06789533  0.30787042  0.51134560  1.0
  H  H7  1  0.93273843  0.66380905  0.48682506  1.0
  C  C8  1  0.49099561  0.51241417  0.35442029  1.0
  C  C9  1  0.29821748  0.48011108  0.50681091  1.0
  C  C10  1  0.50903138  0.51626601  0.64524252  1.0
  C  C11  1  0.70233299  0.49115388  0.48953675  1.0
  C  C12  1  0.42433509  0.75875801  0.47835046  1.0
  C  C13  1  0.41981431  0.84240298  0.48216844  1.0
  C  C14  1  0.49616861  0.88979474  0.52566919  1.0
  C  C15  1  0.57259715  0.84937893  0.56448718  1.0
  C  C16  1  0.57288851  0.76569803  0.55681803  1.0
  C  C17  1  0.49967787  0.97723558  0.53399550  1.0
  C  C18  1  0.49336274  0.02327606  0.47582559  1.0
  C  C19  1  0.43240164  0.15023121  0.43369909  1.0
  C  C20  1  0.49818846  0.11053726  0.48188976  1.0
  C  C21  1  0.56692435  0.15895562  0.53110890  1.0
  C  C22  1  0.56362407  0.24247391  0.53238305  1.0
  C  C23  1  0.43670540  0.23381217  0.43643002  1.0
  C  C24  1  0.48767116  0.51217320  0.26891736  1.0
  C  C25  1  0.58194007  0.51078152  0.22738196  1.0
  C  C26  1  0.58015580  0.51213145  0.14793159  1.0
  C  C27  1  0.48270174  0.51456195  0.10812957  1.0
  C  C28  1  0.38817551  0.51531706  0.15159920  1.0
  C  C29  1  0.39061695  0.51430963  0.23084677  1.0
  C  C30  1  0.47312309  0.52119124  0.02617155  1.0
  C  C31  1  0.53150903  0.48502568  0.97038709  1.0
  C  C32  1  0.61474541  0.49994616  0.84539913  1.0
  C  C33  1  0.52078701  0.49456908  0.88889900  1.0
  C  C34  1  0.42254664  0.49631406  0.85000012  1.0
  C  C35  1  0.41947388  0.50489295  0.77157875  1.0
  C  C36  1  0.51331170  0.51108050  0.73013111  1.0
  C  C37  1  0.61107113  0.50795508  0.76710784  1.0
  C  C38  1  0.10714824  0.41762334  0.50577190  1.0
  C  C39  1  0.89353998  0.55399956  0.49255776  1.0
  C  C40  1  0.18186713  0.48052216  0.50593106  1.0
  C  C41  1  0.81877606  0.49107690  0.49162758  1.0
  C  C42  1  0.99870710  0.52698999  0.49728421  1.0
  C  C43  1  0.00194653  0.44451261  0.50035245  1.0
  S  S44  1  0.12365985  0.57234976  0.50043715  1.0
  S  S45  1  0.87703604  0.39909745  0.49607043  1.0
  N  N46  1  0.49961923  0.72161354  0.51453650  1.0
  N  N47  1  0.50017734  0.27864185  0.48580817  1.0
  Cl  Cl48  1  0.66923607  0.71795058  0.60017602  1.0
  Cl  Cl49  1  0.66789665  0.90276293  0.61902046  1.0
  Cl  Cl50  1  0.33148880  0.70175216  0.42641774  1.0
  Cl  Cl51  1  0.31862194  0.88436145  0.43630715  1.0
  Cl  Cl52  1  0.65810115  0.11893749  0.58770193  1.0
  Cl  Cl53  1  0.64197761  0.30040821  0.59517682  1.0
  Cl  Cl54  1  0.34550684  0.09639180  0.37238467  1.0
  Cl  Cl55  1  0.36081806  0.28078036  0.37576061  1.0
  Cl  Cl56  1  0.27509835  0.51582171  0.28311518  1.0
  Cl  Cl57  1  0.26703228  0.51604565  0.10601767  1.0
  Cl  Cl58  1  0.70038628  0.50861979  0.27606191  1.0
  Cl  Cl59  1  0.69984007  0.51525067  0.10124083  1.0
  Cl  Cl60  1  0.30380688  0.48366013  0.89632831  1.0
  Cl  Cl61  1  0.30013902  0.50579629  0.72382060  1.0
  Cl  Cl62  1  0.73656599  0.49855430  0.88995819  1.0
  Cl  Cl63  1  0.72602214  0.51371254  0.71470792  1.0
  O  O64  1  0.48203081  0.44515394  0.38039573  1.0
  O  O65  1  0.50199277  0.58058224  0.39047740  1.0
  O  O66  1  0.34603193  0.54826218  0.50704204  1.0
  O  O67  1  0.34117435  0.41273363  0.50595023  1.0
  O  O68  1  0.50285455  0.58513328  0.62240889  1.0
  O  O69  1  0.51284554  0.45021439  0.60603981  1.0
  O  O70  1  0.65592704  0.42213578  0.47795714  1.0
  O  O71  1  0.65809810  0.55757316  0.50054532  1.0
  O  O72  1  0.13310227  0.34057898  0.51001677  1.0
  O  O73  1  0.86758456  0.63114338  0.48883420  1.0
