# generated using pymatgen
data_ZnH26C25NO7
_symmetry_space_group_name_H-M   'P 1'
_cell_length_a   10.83768289
_cell_length_b   16.46034461
_cell_length_c   17.52154890
_cell_angle_alpha   90.21458231
_cell_angle_beta   89.94338439
_cell_angle_gamma   89.65469214
_symmetry_Int_Tables_number   1
_chemical_formula_structural   ZnH26C25NO7
_chemical_formula_sum   'Zn2 H52 C50 N2 O14'
_cell_volume   3125.62378371
_cell_formula_units_Z   2
loop_
 _symmetry_equiv_pos_site_id
 _symmetry_equiv_pos_as_xyz
  1  'x, y, z'
loop_
 _atom_site_type_symbol
 _atom_site_label
 _atom_site_symmetry_multiplicity
 _atom_site_fract_x
 _atom_site_fract_y
 _atom_site_fract_z
 _atom_site_occupancy
  Zn  Zn0  1  0.50997685  0.41780443  0.49809075  1.0
  Zn  Zn1  1  0.51161743  0.58513221  0.49618094  1.0
  H  H2  1  0.12795279  0.37357599  0.49940127  1.0
  H  H3  1  0.11350631  0.63027936  0.46073860  1.0
  H  H4  1  0.12988301  0.41819913  0.40836046  1.0
  H  H5  1  0.13588598  0.56016857  0.38588218  1.0
  H  H6  1  0.88024917  0.48725627  0.60450319  1.0
  H  H7  1  0.89360181  0.58884377  0.57375590  1.0
  H  H8  1  0.46009522  0.36488782  0.72991050  1.0
  H  H9  1  0.46978043  0.62487748  0.73991971  1.0
  H  H10  1  0.33628602  0.38324704  0.27384281  1.0
  H  H11  1  0.51798278  0.61124143  0.24951212  1.0
  H  H12  1  0.37356747  0.28951010  0.41704425  1.0
  H  H13  1  0.33049157  0.71489641  0.46775976  1.0
  H  H14  1  0.64935036  0.28962587  0.57945847  1.0
  H  H15  1  0.70389836  0.71139378  0.51459216  1.0
  H  H16  1  0.65996158  0.13626944  0.58006033  1.0
  H  H17  1  0.71229252  0.86515711  0.51820803  1.0
  H  H18  1  0.39270558  0.08524871  0.35574745  1.0
  H  H19  1  0.27981690  0.08586665  0.42853514  1.0
  H  H20  1  0.28775236  0.16872051  0.36358854  1.0
  H  H21  1  0.26104097  0.91988111  0.50681152  1.0
  H  H22  1  0.29761845  0.91855524  0.40853035  1.0
  H  H23  1  0.21343394  0.83651048  0.44890611  1.0
  H  H24  1  0.91553890  0.33293619  0.29067138  1.0
  H  H25  1  0.04271887  0.31122589  0.35235344  1.0
  H  H26  1  0.02856400  0.40943594  0.30784096  1.0
  H  H27  1  0.81814494  0.55119931  0.25611284  1.0
  H  H28  1  0.75319614  0.59516905  0.34115582  1.0
  H  H29  1  0.76644684  0.48702659  0.33213096  1.0
  H  H30  1  0.90039793  0.25052568  0.56411510  1.0
  H  H31  1  0.02330614  0.26632608  0.49795105  1.0
  H  H32  1  0.86741949  0.25877179  0.46394104  1.0
  H  H33  1  0.93546477  0.69455595  0.33592829  1.0
  H  H34  1  0.03012413  0.72796128  0.41336476  1.0
  H  H35  1  0.87272096  0.76096071  0.40771200  1.0
  H  H36  1  0.20123272  0.45124532  0.64627650  1.0
  H  H37  1  0.05656886  0.47037795  0.69087362  1.0
  H  H38  1  0.06764145  0.39614530  0.61779975  1.0
  H  H39  1  0.09357647  0.65553341  0.57530279  1.0
  H  H40  1  0.06563932  0.61427119  0.66686609  1.0
  H  H41  1  0.21365790  0.60276061  0.62428830  1.0
  H  H42  1  0.40105664  0.28606527  0.83795845  1.0
  H  H43  1  0.44848222  0.32800366  0.92735409  1.0
  H  H44  1  0.29259591  0.33475435  0.90004144  1.0
  H  H45  1  0.42947554  0.69685694  0.85564178  1.0
  H  H46  1  0.31112151  0.65117480  0.91160679  1.0
  H  H47  1  0.46524910  0.64340116  0.94182169  1.0
  H  H48  1  0.15706922  0.33815325  0.21339189  1.0
  H  H49  1  0.28955200  0.27392107  0.19782705  1.0
  H  H50  1  0.16379073  0.27283345  0.13116703  1.0
  H  H51  1  0.55081923  0.73258085  0.08034038  1.0
  H  H52  1  0.62254299  0.67512613  0.15524973  1.0
  H  H53  1  0.47356160  0.72090827  0.17042117  1.0
  C  C54  1  0.46745314  0.49537930  0.34988524  1.0
  C  C55  1  0.27098817  0.50651312  0.50345353  1.0
  C  C56  1  0.50517442  0.49825369  0.64526488  1.0
  C  C57  1  0.74668861  0.50190789  0.48310223  1.0
  C  C58  1  0.08922846  0.42331206  0.46552396  1.0
  C  C59  1  0.08777038  0.56981998  0.44037189  1.0
  C  C60  1  0.94730818  0.41721979  0.46325933  1.0
  C  C61  1  0.94750038  0.56687285  0.42607365  1.0
  C  C62  1  0.07007750  0.52265594  0.57821255  1.0
  C  C63  1  0.13033870  0.50562219  0.49799302  1.0
  C  C64  1  0.88912195  0.50246093  0.48189610  1.0
  C  C65  1  0.92834457  0.52695476  0.56420804  1.0
  C  C66  1  0.41231728  0.41672292  0.83953020  1.0
  C  C67  1  0.42097144  0.56660854  0.84574710  1.0
  C  C68  1  0.44865664  0.42046729  0.76333963  1.0
  C  C69  1  0.45454130  0.56742705  0.76911545  1.0
  C  C70  1  0.47037784  0.49509782  0.72778600  1.0
  C  C71  1  0.40083689  0.49038811  0.88149229  1.0
  C  C72  1  0.37668565  0.48889009  0.96067466  1.0
  C  C73  1  0.36890914  0.49048221  0.03028711  1.0
  C  C74  1  0.33705497  0.43179890  0.15846542  1.0
  C  C75  1  0.44215847  0.56134197  0.14428201  1.0
  C  C76  1  0.36413604  0.43221865  0.23628160  1.0
  C  C77  1  0.46790620  0.56210665  0.22218027  1.0
  C  C78  1  0.43154069  0.49662394  0.26733482  1.0
  C  C79  1  0.37964350  0.49476509  0.11018808  1.0
  C  C80  1  0.43091700  0.16762138  0.44847055  1.0
  C  C81  1  0.40683324  0.83629344  0.47621386  1.0
  C  C82  1  0.43407318  0.25214062  0.45244154  1.0
  C  C83  1  0.41245610  0.75170689  0.47781055  1.0
  C  C84  1  0.58997132  0.25252345  0.54338704  1.0
  C  C85  1  0.62248592  0.74950810  0.50532516  1.0
  C  C86  1  0.59509210  0.16831327  0.54333548  1.0
  C  C87  1  0.62623830  0.83373732  0.50633445  1.0
  C  C88  1  0.51486006  0.12446597  0.49553398  1.0
  C  C89  1  0.51766947  0.87851092  0.49182365  1.0
  C  C90  1  0.51759097  0.03855494  0.49438705  1.0
  C  C91  1  0.51866682  0.96443776  0.49290941  1.0
  C  C92  1  0.34301923  0.12492033  0.39620684  1.0
  C  C93  1  0.28821487  0.87981607  0.45921181  1.0
  C  C94  1  0.97718408  0.35895566  0.33394216  1.0
  C  C95  1  0.81011080  0.54520777  0.31828915  1.0
  C  C96  1  0.92569652  0.28122423  0.51089457  1.0
  C  C97  1  0.93569180  0.70964868  0.39720133  1.0
  C  C98  1  0.10149122  0.45567978  0.63620587  1.0
  C  C99  1  0.11409171  0.60364297  0.61254507  1.0
  C  C100  1  0.38755004  0.33693621  0.87783257  1.0
  C  C101  1  0.40642541  0.64396139  0.89070166  1.0
  C  C102  1  0.21802245  0.31110367  0.16967777  1.0
  C  C103  1  0.53416012  0.69120412  0.12801604  1.0
  N  N104  1  0.51078696  0.29327417  0.49841443  1.0
  N  N105  1  0.51654957  0.70968915  0.49190697  1.0
  O  O106  1  0.45140737  0.42876762  0.38552460  1.0
  O  O107  1  0.51174253  0.56029145  0.37819932  1.0
  O  O108  1  0.32512940  0.44101435  0.52243338  1.0
  O  O109  1  0.32411006  0.57338828  0.48815409  1.0
  O  O110  1  0.54118327  0.43234443  0.61321050  1.0
  O  O111  1  0.49348297  0.56678333  0.61231577  1.0
  O  O112  1  0.68934870  0.43674848  0.46870185  1.0
  O  O113  1  0.69562880  0.56856316  0.50288641  1.0
  O  O114  1  0.89805939  0.38612594  0.39345531  1.0
  O  O115  1  0.93421584  0.54805917  0.34716110  1.0
  O  O116  1  0.90643465  0.36532071  0.52416771  1.0
  O  O117  1  0.89105954  0.64440005  0.44245097  1.0
  O  O118  1  0.27122487  0.37221985  0.12272251  1.0
  O  O119  1  0.47617099  0.62165860  0.09541539  1.0
