# generated using pymatgen
data_ZnH9C21I3N(ClO2)2
_symmetry_space_group_name_H-M   'P 1'
_cell_length_a   11.42313305
_cell_length_b   18.33401193
_cell_length_c   19.57663376
_cell_angle_alpha   85.52517435
_cell_angle_beta   83.85164610
_cell_angle_gamma   75.54170502
_symmetry_Int_Tables_number   1
_chemical_formula_structural   ZnH9C21I3N(ClO2)2
_chemical_formula_sum   'Zn2 H18 C42 I6 N2 Cl4 O8'
_cell_volume   3941.68346337
_cell_formula_units_Z   2
loop_
 _symmetry_equiv_pos_site_id
 _symmetry_equiv_pos_as_xyz
  1  'x, y, z'
loop_
 _atom_site_type_symbol
 _atom_site_label
 _atom_site_symmetry_multiplicity
 _atom_site_fract_x
 _atom_site_fract_y
 _atom_site_fract_z
 _atom_site_occupancy
  Zn  Zn0  1  0.52603775  0.41910106  0.50659308  1.0
  Zn  Zn1  1  0.47396114  0.58089606  0.49340632  1.0
  H  H2  1  0.65616308  0.12723431  0.57497417  1.0
  H  H3  1  0.46031530  0.37713798  0.29344925  1.0
  H  H4  1  0.54341136  0.62042758  0.83389174  1.0
  H  H5  1  0.45654217  0.37959523  0.16610224  1.0
  H  H6  1  0.50495629  0.39174450  0.84951556  1.0
  H  H7  1  0.49504426  0.60826882  0.15049538  1.0
  H  H8  1  0.50747389  0.39378928  0.72151099  1.0
  H  H9  1  0.49254548  0.60619925  0.27850406  1.0
  H  H10  1  0.34632446  0.46975266  0.93459535  1.0
  H  H11  1  0.65365057  0.53027528  0.06540751  1.0
  H  H12  1  0.34387108  0.87276551  0.42502052  1.0
  H  H13  1  0.38157472  0.33735048  0.45694672  1.0
  H  H14  1  0.61840112  0.66263327  0.54305904  1.0
  H  H15  1  0.60252853  0.06644860  0.40570223  1.0
  H  H16  1  0.39749845  0.93353700  0.59429276  1.0
  H  H17  1  0.91123048  0.45489094  0.41627655  1.0
  H  H18  1  0.08875559  0.54512208  0.58371385  1.0
  H  H19  1  0.53967328  0.62286486  0.70654151  1.0
  C  C20  1  0.48270996  0.49037179  0.36964915  1.0
  C  C21  1  0.51434496  0.50426570  0.92639073  1.0
  C  C22  1  0.60172204  0.24696824  0.54952680  1.0
  C  C23  1  0.39829586  0.75302817  0.45046082  1.0
  C  C24  1  0.59423703  0.17221573  0.54775071  1.0
  C  C25  1  0.40577564  0.82777711  0.45224285  1.0
  C  C26  1  0.50723253  0.15540367  0.51059679  1.0
  C  C27  1  0.49278056  0.84457559  0.48939734  1.0
  C  C28  1  0.42820984  0.21583694  0.47752561  1.0
  C  C29  1  0.57180702  0.78414555  0.52247851  1.0
  C  C30  1  0.44101831  0.28885305  0.48170978  1.0
  C  C31  1  0.51730897  0.50962675  0.63034552  1.0
  C  C32  1  0.55897383  0.71113783  0.51828701  1.0
  C  C33  1  0.55767017  0.03743551  0.44727168  1.0
  C  C34  1  0.44233885  0.96255061  0.55271665  1.0
  C  C35  1  0.26616046  0.51511387  0.52406392  1.0
  C  C36  1  0.73383719  0.48489561  0.47593960  1.0
  C  C37  1  0.55521046  0.96257628  0.44131787  1.0
  C  C38  1  0.44479821  0.03743009  0.55867625  1.0
  C  C39  1  0.49731539  0.92422925  0.49409090  1.0
  C  C40  1  0.50267880  0.07575802  0.50591828  1.0
  C  C41  1  0.13342786  0.51981469  0.53597472  1.0
  C  C42  1  0.52283640  0.50849262  0.70649653  1.0
  C  C43  1  0.86656905  0.48018174  0.46402989  1.0
  C  C44  1  0.06480438  0.49778412  0.49382668  1.0
  C  C45  1  0.93520818  0.50218570  0.50618630  1.0
  C  C46  1  0.53370207  0.57211726  0.73830813  1.0
  C  C47  1  0.46628325  0.42788314  0.26169050  1.0
  C  C48  1  0.53547828  0.57066549  0.80944180  1.0
  C  C49  1  0.46449077  0.42934831  0.19055775  1.0
  C  C50  1  0.52335614  0.50603118  0.85031647  1.0
  C  C51  1  0.47661458  0.49398594  0.14968749  1.0
  C  C52  1  0.51309135  0.44237077  0.81806380  1.0
  C  C53  1  0.47716570  0.49150614  0.29350783  1.0
  C  C54  1  0.48689300  0.55764185  0.18194560  1.0
  C  C55  1  0.51426310  0.44320275  0.74691417  1.0
  C  C56  1  0.48573699  0.55680153  0.25309565  1.0
  C  C57  1  0.41522500  0.48218831  0.96312789  1.0
  C  C58  1  0.58474748  0.51784190  0.03687342  1.0
  C  C59  1  0.40068820  0.47793460  0.03477852  1.0
  C  C60  1  0.59928865  0.52209565  0.96522266  1.0
  C  C61  1  0.48563708  0.49576502  0.07361795  1.0
  I  I62  1  0.84970810  0.54302042  0.60309154  1.0
  I  I63  1  0.15032912  0.45689891  0.39694029  1.0
  I  I64  1  0.28937032  0.20010586  0.42257623  1.0
  I  I65  1  0.71066126  0.79986073  0.57740921  1.0
  I  I66  1  0.73405570  0.26964885  0.60542634  1.0
  I  I67  1  0.26595676  0.73035905  0.39454970  1.0
  N  N68  1  0.52720553  0.30396461  0.51662190  1.0
  N  N69  1  0.47278538  0.69603216  0.48336240  1.0
  Cl  Cl70  1  0.62607112  0.91694943  0.36853359  1.0
  Cl  Cl71  1  0.37397294  0.08302898  0.63146122  1.0
  Cl  Cl72  1  0.27139071  0.45369009  0.07441010  1.0
  Cl  Cl73  1  0.72855767  0.54635345  0.92559184  1.0
  O  O74  1  0.50147992  0.42658284  0.40289786  1.0
  O  O75  1  0.49851241  0.57341701  0.59710315  1.0
  O  O76  1  0.46973983  0.55406904  0.39520238  1.0
  O  O77  1  0.53032059  0.44591799  0.60479415  1.0
  O  O78  1  0.33650161  0.44962278  0.52298811  1.0
  O  O79  1  0.66351697  0.55038053  0.47705140  1.0
  O  O80  1  0.29621485  0.57775103  0.51825000  1.0
  O  O81  1  0.70376957  0.42225552  0.48172280  1.0
