# generated using pymatgen
data_AlC21N3(OF2)6
_symmetry_space_group_name_H-M   'P 1'
_cell_length_a   3.97415590
_cell_length_b   28.14163370
_cell_length_c   28.14152379
_cell_angle_alpha   60.00046701
_cell_angle_beta   89.99982857
_cell_angle_gamma   89.99966343
_symmetry_Int_Tables_number   1
_chemical_formula_structural   AlC21N3(OF2)6
_chemical_formula_sum   'Al2 C42 N6 O12 F24'
_cell_volume   2725.67763506
_cell_formula_units_Z   2
loop_
 _symmetry_equiv_pos_site_id
 _symmetry_equiv_pos_as_xyz
  1  'x, y, z'
loop_
 _atom_site_type_symbol
 _atom_site_label
 _atom_site_symmetry_multiplicity
 _atom_site_fract_x
 _atom_site_fract_y
 _atom_site_fract_z
 _atom_site_occupancy
  Al  Al0  1  0.00204235  0.50000011  0.00000395  1.0
  Al  Al1  1  0.00203671  0.16666420  0.66666969  1.0
  C  C2  1  0.50123394  0.58372924  0.95376240  1.0
  C  C3  1  0.50120981  0.46251349  0.08373537  1.0
  C  C4  1  0.50122393  0.45375816  0.96251454  1.0
  C  C5  1  0.50121206  0.20415064  0.58293993  1.0
  C  C6  1  0.50124072  0.21290755  0.70415831  1.0
  C  C7  1  0.50122316  0.08293484  0.71291085  1.0
  C  C8  1  0.49923690  0.23237853  0.52161679  1.0
  C  C9  1  0.50546130  0.28972863  0.49012683  1.0
  C  C10  1  0.50215753  0.31697612  0.43299467  1.0
  C  C11  1  0.49972524  0.28701704  0.40473504  1.0
  C  C12  1  0.49685250  0.22900180  0.43713384  1.0
  C  C13  1  0.49280123  0.20246128  0.49421020  1.0
  C  C14  1  0.49683796  0.43765797  0.22954023  1.0
  C  C15  1  0.49971990  0.37964445  0.26193986  1.0
  C  C16  1  0.50216915  0.34969062  0.23367612  1.0
  C  C17  1  0.50546552  0.37693719  0.17654437  1.0
  C  C18  1  0.49923193  0.43428479  0.14505729  1.0
  C  C19  1  0.49278939  0.46420012  0.17246346  1.0
  C  C20  1  0.49922673  0.24600665  0.73238061  1.0
  C  C21  1  0.50546550  0.22014727  0.78972927  1.0
  C  C22  1  0.50217835  0.25003114  0.81697378  1.0
  C  C23  1  0.49972414  0.30824862  0.78702252  1.0
  C  C24  1  0.49684315  0.33386474  0.72900693  1.0
  C  C25  1  0.49279793  0.30333018  0.70246612  1.0
  C  C26  1  0.49685594  0.33280102  0.93766370  1.0
  C  C27  1  0.49973215  0.35841882  0.87964687  1.0
  C  C28  1  0.50216451  0.41663840  0.84969069  1.0
  C  C29  1  0.50546241  0.44652201  0.87693643  1.0
  C  C30  1  0.49922701  0.42066091  0.93428853  1.0
  C  C31  1  0.49279881  0.36333570  0.96420286  1.0
  C  C32  1  0.49923369  0.02161174  0.74600676  1.0
  C  C33  1  0.50546812  0.99012642  0.72014553  1.0
  C  C34  1  0.50217769  0.93299298  0.75003237  1.0
  C  C35  1  0.49972930  0.90473162  0.80824777  1.0
  C  C36  1  0.49684724  0.93712780  0.83386333  1.0
  C  C37  1  0.49279775  0.99420686  0.80332695  1.0
  C  C38  1  0.49683640  0.72953446  0.83280551  1.0
  C  C39  1  0.49971657  0.76193182  0.85841942  1.0
  C  C40  1  0.50216985  0.73367212  0.91663646  1.0
  C  C41  1  0.50545692  0.67653832  0.94652330  1.0
  C  C42  1  0.49922760  0.64505262  0.92066239  1.0
  C  C43  1  0.49279109  0.67245662  0.86334230  1.0
  N  N44  1  0.49989404  0.30725005  0.34816496  1.0
  N  N45  1  0.49989834  0.35941068  0.31851074  1.0
  N  N46  1  0.49990183  0.34458579  0.80725554  1.0
  N  N47  1  0.49990170  0.32208174  0.85941509  1.0
  N  N48  1  0.49990116  0.84816132  0.84458647  1.0
  N  N49  1  0.49989447  0.81850211  0.82208073  1.0
  O  O50  1  0.26571963  0.44505774  0.99639324  1.0
  O  O51  1  0.26571284  0.55854718  0.94506185  1.0
  O  O52  1  0.26571537  0.49639219  0.05855187  1.0
  O  O53  1  0.73875808  0.48813519  0.95011369  1.0
  O  O54  1  0.73876768  0.45011117  0.06175413  1.0
  O  O55  1  0.73875866  0.56175187  0.98813998  1.0
  O  O56  1  0.26571342  0.10811707  0.72160934  1.0
  O  O57  1  0.26571844  0.17027465  0.60811769  1.0
  O  O58  1  0.26570915  0.22160611  0.67027590  1.0
  O  O59  1  0.73876284  0.10491436  0.67853000  1.0
  O  O60  1  0.73876343  0.17852972  0.71655752  1.0
  O  O61  1  0.73875634  0.21655389  0.60491749  1.0
  F  F62  1  0.49355692  0.14721351  0.52296376  1.0
  F  F63  1  0.49914319  0.19841424  0.41286168  1.0
  F  F64  1  0.50433312  0.31976798  0.51531277  1.0
  F  F65  1  0.50038777  0.37194005  0.40628491  1.0
  F  F66  1  0.49913441  0.46824588  0.25381239  1.0
  F  F67  1  0.49355856  0.51944809  0.14370950  1.0
  F  F68  1  0.50039853  0.29472638  0.26038793  1.0
  F  F69  1  0.50434165  0.34690029  0.15135638  1.0
  F  F70  1  0.49355683  0.32982440  0.64721789  1.0
  F  F71  1  0.49913468  0.38872426  0.69842090  1.0
  F  F72  1  0.50434296  0.16492143  0.81976442  1.0
  F  F73  1  0.50039932  0.22177867  0.87193986  1.0
  F  F74  1  0.49915155  0.27794094  0.96825014  1.0
  F  F75  1  0.49355865  0.33684042  0.01945249  1.0
  F  F76  1  0.50038555  0.44489224  0.79472543  1.0
  F  F77  1  0.50432678  0.50174666  0.84689940  1.0
  F  F78  1  0.49355856  0.02295922  0.82982211  1.0
  F  F79  1  0.49913943  0.91285776  0.88872194  1.0
  F  F80  1  0.50433769  0.01531322  0.66492124  1.0
  F  F81  1  0.50039956  0.90628186  0.72177892  1.0
  F  F82  1  0.49912631  0.75380440  0.77794567  1.0
  F  F83  1  0.49355188  0.64370372  0.83684704  1.0
  F  F84  1  0.50039251  0.76038329  0.94488910  1.0
  F  F85  1  0.50432199  0.65135227  0.00174708  1.0
