# generated using pymatgen
data_Zn4H24C36N4O17
_symmetry_space_group_name_H-M   'P 1'
_cell_length_a   18.39915096
_cell_length_b   18.39899058
_cell_length_c   24.99811450
_cell_angle_alpha   111.53903979
_cell_angle_beta   111.56263621
_cell_angle_gamma   90.10440682
_symmetry_Int_Tables_number   1
_chemical_formula_structural   Zn4H24C36N4O17
_chemical_formula_sum   'Zn8 H48 C72 N8 O34'
_cell_volume   7228.62143605
_cell_formula_units_Z   2
loop_
 _symmetry_equiv_pos_site_id
 _symmetry_equiv_pos_as_xyz
  1  'x, y, z'
loop_
 _atom_site_type_symbol
 _atom_site_label
 _atom_site_symmetry_multiplicity
 _atom_site_fract_x
 _atom_site_fract_y
 _atom_site_fract_z
 _atom_site_occupancy
  Zn  Zn0  1  0.77696044  0.18990157  0.55337468  1.0
  Zn  Zn1  1  0.22304057  0.81010066  0.44662650  1.0
  Zn  Zn2  1  0.18980410  0.77687467  0.55334576  1.0
  Zn  Zn3  1  0.81019593  0.22312625  0.44665589  1.0
  Zn  Zn4  1  0.77646485  0.36354001  0.55333998  1.0
  Zn  Zn5  1  0.22353369  0.63646274  0.44666233  1.0
  Zn  Zn6  1  0.36347433  0.77641711  0.55338107  1.0
  Zn  Zn7  1  0.63652570  0.22358640  0.44662080  1.0
  H  H8  1  0.87921851  0.25633840  0.74591025  1.0
  H  H9  1  0.12078837  0.74365994  0.25409238  1.0
  H  H10  1  0.25626217  0.87931120  0.74587397  1.0
  H  H11  1  0.74373807  0.12068443  0.25412890  1.0
  H  H12  1  0.86655738  0.48960491  0.74586455  1.0
  H  H13  1  0.13344230  0.51039191  0.25413535  1.0
  H  H14  1  0.48956236  0.86669336  0.74591289  1.0
  H  H15  1  0.51043731  0.13330919  0.25408802  1.0
  H  H16  1  0.64217166  0.02569309  0.57123567  1.0
  H  H17  1  0.35783080  0.97430785  0.42876540  1.0
  H  H18  1  0.02556018  0.92910641  0.57129311  1.0
  H  H19  1  0.97444248  0.07089630  0.42870856  1.0
  H  H20  1  0.92906884  0.54549349  0.57122610  1.0
  H  H21  1  0.07092853  0.45450751  0.42877445  1.0
  H  H22  1  0.54562311  0.64215784  0.57126209  1.0
  H  H23  1  0.45437676  0.35785040  0.42873801  1.0
  H  H24  1  0.35781773  0.45427114  0.42871032  1.0
  H  H25  1  0.64218338  0.54573459  0.57128964  1.0
  H  H26  1  0.97426279  0.35784247  0.42877325  1.0
  H  H27  1  0.02573399  0.64215510  0.57122445  1.0
  H  H28  1  0.07088886  0.97436358  0.42873770  1.0
  H  H29  1  0.92910842  0.02563657  0.57126081  1.0
  H  H30  1  0.45445898  0.07093937  0.42876398  1.0
  H  H31  1  0.54554266  0.92906133  0.57123685  1.0
  H  H32  1  0.05289170  0.28817774  0.87472359  1.0
  H  H33  1  0.97383977  0.21085640  0.81282622  1.0
  H  H34  1  0.00199291  0.22280609  0.89267030  1.0
  H  H35  1  0.02616151  0.78914460  0.18717551  1.0
  H  H36  1  0.94711209  0.71182351  0.12527483  1.0
  H  H37  1  0.99801496  0.77719615  0.10733209  1.0
  H  H38  1  0.21075971  0.97383673  0.81285302  1.0
  H  H39  1  0.28816756  0.05276871  0.87476280  1.0
  H  H40  1  0.22277925  0.00186525  0.89268734  1.0
  H  H41  1  0.71183198  0.94722962  0.12523804  1.0
  H  H42  1  0.78924079  0.02615642  0.18714854  1.0
  H  H43  1  0.77722197  0.99812911  0.10731484  1.0
  H  H44  1  0.82200547  0.58657289  0.87477252  1.0
  H  H45  1  0.83899619  0.60208392  0.81285430  1.0
  H  H46  1  0.89081194  0.66990030  0.89268906  1.0
  H  H47  1  0.16099879  0.39791203  0.18714711  1.0
  H  H48  1  0.17799473  0.41342071  0.12523068  1.0
  H  H49  1  0.10918366  0.33009726  0.10731279  1.0
  H  H50  1  0.60197242  0.83900475  0.81282314  1.0
  H  H51  1  0.58655256  0.82182343  0.87471375  1.0
  H  H52  1  0.66986150  0.89068420  0.89266826  1.0
  H  H53  1  0.41345025  0.17818335  0.12529498  1.0
  H  H54  1  0.39802387  0.16098885  0.18717888  1.0
  H  H55  1  0.33014042  0.10931660  0.10733149  1.0
  C  C56  1  0.89059502  0.32012067  0.77216890  1.0
  C  C57  1  0.10940953  0.67987928  0.22783414  1.0
  C  C58  1  0.01397075  0.57978715  0.54028922  1.0
  C  C59  1  0.03945502  0.98605986  0.45968280  1.0
  C  C60  1  0.96054068  0.01393688  0.54031169  1.0
  C  C61  1  0.47367663  0.03950133  0.45970510  1.0
  C  C62  1  0.52632305  0.96049682  0.54029317  1.0
  C  C63  1  0.44626843  0.94626488  0.50000201  1.0
  C  C64  1  0.55373563  0.05373640  0.49999881  1.0
  C  C65  1  0.94638361  0.05366893  0.49998425  1.0
  C  C66  1  0.05360905  0.94632436  0.50000796  1.0
  C  C67  1  0.05371190  0.55371268  0.50000076  1.0
  C  C68  1  0.32004304  0.89071005  0.77214641  1.0
  C  C69  1  0.94628819  0.44628845  0.49999814  1.0
  C  C70  1  0.55367546  0.44639388  0.50000389  1.0
  C  C71  1  0.44632535  0.55361056  0.49999179  1.0
  C  C72  1  0.67995894  0.10928824  0.22785735  1.0
  C  C73  1  0.93542153  0.43544936  0.87080782  1.0
  C  C74  1  0.06458080  0.56455052  0.12919397  1.0
  C  C75  1  0.43535555  0.93538751  0.87080891  1.0
  C  C76  1  0.56464874  0.06461366  0.12919359  1.0
  C  C77  1  0.99543947  0.25403341  0.86172872  1.0
  C  C78  1  0.88143695  0.45209932  0.77214032  1.0
  C  C79  1  0.00456273  0.74596484  0.13827322  1.0
  C  C80  1  0.25398208  0.99533872  0.86174825  1.0
  C  C81  1  0.74601700  0.00465516  0.13825286  1.0
  C  C82  1  0.86640334  0.60775095  0.86174806  1.0
  C  C83  1  0.13359415  0.39224518  0.13825353  1.0
  C  C84  1  0.60769270  0.86629123  0.86172540  1.0
  C  C85  1  0.39230789  0.13370982  0.13827758  1.0
  C  C86  1  0.11856573  0.54790025  0.22786056  1.0
  C  C87  1  0.45204509  0.88157310  0.77217027  1.0
  C  C88  1  0.54795531  0.11842751  0.22783048  1.0
  C  C89  1  0.92357953  0.35291648  0.83746957  1.0
  C  C90  1  0.07642443  0.64708262  0.16253084  1.0
  C  C91  1  0.35283491  0.92354544  0.83744604  1.0
  C  C92  1  0.64716744  0.07645255  0.16255682  1.0
  C  C93  1  0.91390212  0.48460325  0.83744092  1.0
  C  C94  1  0.08610002  0.51539486  0.16256028  1.0
  C  C95  1  0.48454898  0.91389185  0.83747122  1.0
  C  C96  1  0.51545300  0.08610910  0.16252927  1.0
  C  C97  1  0.86982898  0.36993233  0.73980351  1.0
  C  C98  1  0.13017575  0.63006421  0.26019967  1.0
  C  C99  1  0.36986667  0.86997738  0.73980681  1.0
  C  C100  1  0.63013217  0.13002234  0.26019364  1.0
  C  C101  1  0.03005608  0.53003901  0.06016095  1.0
  C  C102  1  0.96994720  0.46996273  0.93984093  1.0
  C  C103  1  0.53012579  0.03010559  0.06015927  1.0
  C  C104  1  0.46987760  0.96989519  0.93984223  1.0
  C  C105  1  0.66512626  0.16502850  0.33018089  1.0
  C  C106  1  0.33487658  0.83497214  0.66981929  1.0
  C  C107  1  0.16515954  0.66505916  0.33018992  1.0
  C  C108  1  0.83484203  0.33494454  0.66981096  1.0
  C  C109  1  0.88907793  0.11111695  0.50001162  1.0
  C  C110  1  0.11091987  0.88888223  0.49997937  1.0
  C  C111  1  0.11118186  0.61116462  0.49999404  1.0
  C  C112  1  0.88881896  0.38883325  0.50000633  1.0
  C  C113  1  0.61111174  0.38907786  0.49999086  1.0
  C  C114  1  0.38889575  0.61093559  0.50001387  1.0
  C  C115  1  0.38878217  0.88878491  0.50000077  1.0
  C  C116  1  0.61121881  0.11121787  0.50000097  1.0
  C  C117  1  0.57979642  0.01396904  0.54029369  1.0
  C  C118  1  0.42020467  0.98603285  0.45970418  1.0
  C  C119  1  0.01390601  0.96054035  0.54033748  1.0
  C  C120  1  0.98608755  0.03945152  0.45965329  1.0
  C  C121  1  0.96050220  0.52632677  0.54029479  1.0
  C  C122  1  0.03949554  0.47367393  0.45970486  1.0
  C  C123  1  0.52636988  0.57977057  0.54030884  1.0
  C  C124  1  0.47363076  0.42023594  0.45968834  1.0
  C  C125  1  0.42019992  0.47356610  0.45965335  1.0
  C  C126  1  0.57979943  0.52643963  0.54034244  1.0
  C  C127  1  0.98602819  0.42021293  0.45970921  1.0
  N  N128  1  0.92908568  0.51868365  0.96902507  1.0
  N  N129  1  0.07091783  0.48131875  0.03097628  1.0
  N  N130  1  0.51866542  0.92907613  0.96905671  1.0
  N  N131  1  0.48133952  0.07092554  0.03094509  1.0
  N  N132  1  0.03996926  0.45037537  0.96905726  1.0
  N  N133  1  0.96003475  0.54962702  0.03094468  1.0
  N  N134  1  0.45035957  0.03995406  0.96902517  1.0
  N  N135  1  0.54964458  0.96004681  0.03097583  1.0
  O  O136  1  0.75004503  0.25004585  0.49999699  1.0
  O  O137  1  0.25946305  0.82282272  0.64271374  1.0
  O  O138  1  0.18011667  0.61675509  0.35729481  1.0
  O  O139  1  0.81988332  0.38323730  0.64270836  1.0
  O  O140  1  0.61679041  0.18000977  0.35725758  1.0
  O  O141  1  0.38320446  0.81998973  0.64274443  1.0
  O  O142  1  0.17725030  0.74047083  0.35726250  1.0
  O  O143  1  0.82274946  0.25952300  0.64273736  1.0
  O  O144  1  0.74053182  0.17717936  0.35728849  1.0
  O  O145  1  0.24995548  0.74995638  0.50000360  1.0
  O  O146  1  0.87835528  0.14466504  0.46173956  1.0
  O  O147  1  0.12164579  0.85533608  0.53826051  1.0
  O  O148  1  0.14474679  0.58373342  0.46177031  1.0
  O  O149  1  0.85525601  0.41626127  0.53823162  1.0
  O  O150  1  0.58363919  0.31727205  0.46168810  1.0
  O  O151  1  0.41636276  0.68273211  0.53830968  1.0
  O  O152  1  0.31695200  0.87798592  0.46176948  1.0
  O  O153  1  0.68304927  0.12201948  0.53823489  1.0
  O  O154  1  0.12197427  0.68298209  0.53823741  1.0
  O  O155  1  0.87802380  0.31701886  0.46176190  1.0
  O  O156  1  0.85558078  0.12194478  0.53830262  1.0
  O  O157  1  0.14441781  0.87805560  0.46169671  1.0
  O  O158  1  0.41621874  0.85518491  0.53823827  1.0
  O  O159  1  0.58378250  0.14481539  0.46176216  1.0
  O  O160  1  0.68291593  0.41661551  0.53825522  1.0
  O  O161  1  0.31708479  0.58339108  0.46174619  1.0
  O  O162  1  0.93999618  0.30691088  0.87177091  1.0
  O  O163  1  0.06001085  0.69308979  0.12823286  1.0
  O  O164  1  0.30680014  0.93983058  0.87170717  1.0
  O  O165  1  0.69320472  0.06016758  0.12829587  1.0
  O  O166  1  0.93187896  0.56490184  0.87169345  1.0
  O  O167  1  0.06812180  0.43509847  0.12830640  1.0
  O  O168  1  0.56485232  0.93177231  0.87177564  1.0
  O  O169  1  0.43514780  0.06822827  0.12822270  1.0
