# generated using pymatgen
data_Zn4H14C23O13
_symmetry_space_group_name_H-M   'P 1'
_cell_length_a   18.61503894
_cell_length_b   18.61874401
_cell_length_c   18.62256842
_cell_angle_alpha   89.61060647
_cell_angle_beta   60.41370321
_cell_angle_gamma   119.96646004
_symmetry_Int_Tables_number   1
_chemical_formula_structural   Zn4H14C23O13
_chemical_formula_sum   'Zn8 H28 C46 O26'
_cell_volume   4579.12632242
_cell_formula_units_Z   2
loop_
 _symmetry_equiv_pos_site_id
 _symmetry_equiv_pos_as_xyz
  1  'x, y, z'
loop_
 _atom_site_type_symbol
 _atom_site_label
 _atom_site_symmetry_multiplicity
 _atom_site_fract_x
 _atom_site_fract_y
 _atom_site_fract_z
 _atom_site_occupancy
  Zn  Zn0  1  0.41378774  0.95564000  0.12994980  1.0
  Zn  Zn1  1  0.58565558  0.12823916  0.95768998  1.0
  Zn  Zn2  1  0.41346620  0.95563703  0.95791986  1.0
  Zn  Zn3  1  0.58572208  0.95603563  0.95836850  1.0
  Zn  Zn4  1  0.58565846  0.54397644  0.36996172  1.0
  Zn  Zn5  1  0.58576200  0.54357189  0.54210325  1.0
  Zn  Zn6  1  0.41346944  0.37185297  0.54218180  1.0
  Zn  Zn7  1  0.41393104  0.54434332  0.54165374  1.0
  H  H8  1  0.64082509  0.02839041  0.29220714  1.0
  H  H9  1  0.90715788  0.31287902  0.79127792  1.0
  H  H10  1  0.42514797  0.72058673  0.10532715  1.0
  H  H11  1  0.91703261  0.15295022  0.80116771  1.0
  H  H12  1  0.38226245  0.18745875  0.71117868  1.0
  H  H13  1  0.57079057  0.34464465  0.69210291  1.0
  H  H14  1  0.39888531  0.09365042  0.78833775  1.0
  H  H15  1  0.53676818  0.26307911  0.80762642  1.0
  H  H16  1  0.39639703  0.18719530  0.40537006  1.0
  H  H17  1  0.54555336  0.34692466  0.23554301  1.0
  H  H18  1  0.38744143  0.09394613  0.31289610  1.0
  H  H19  1  0.91731903  0.71790027  0.34683243  1.0
  H  H20  1  0.56461206  0.26422140  0.15328562  1.0
  H  H21  1  0.35851773  0.56677196  0.11294308  1.0
  H  H22  1  0.35862517  0.47151300  0.20820895  1.0
  H  H23  1  0.42536361  0.53066832  0.29530360  1.0
  H  H24  1  0.57459526  0.77933415  0.39471090  1.0
  H  H25  1  0.64086240  0.93304160  0.38747293  1.0
  H  H26  1  0.57453634  0.96948088  0.20478993  1.0
  H  H27  1  0.90663159  0.69960075  0.18732405  1.0
  H  H28  1  0.08222874  0.23576477  0.69995076  1.0
  H  H29  1  0.09239816  0.80156132  0.09480129  1.0
  H  H30  1  0.08242362  0.78127101  0.26458231  1.0
  H  H31  1  0.39732309  0.70990359  0.69706926  1.0
  H  H32  1  0.54591070  0.69879458  0.71845259  1.0
  H  H33  1  0.38728274  0.79226123  0.80018390  1.0
  H  H34  1  0.56492778  0.80017668  0.78258636  1.0
  H  H35  1  0.09294356  0.40604714  0.70718046  1.0
  C  C36  1  0.77379980  0.13766414  0.86493528  1.0
  C  C37  1  0.61143376  0.90619324  0.34883588  1.0
  C  C38  1  0.61142144  0.96033090  0.29473275  1.0
  C  C39  1  0.22559244  0.86066111  0.13665120  1.0
  C  C40  1  0.57474880  0.92750662  0.24562043  1.0
  C  C41  1  0.94462471  0.72230277  0.22044298  1.0
  C  C42  1  0.88556664  0.69693834  0.30880811  1.0
  C  C43  1  0.05459961  0.77815015  0.16565168  1.0
  C  C44  1  0.11388297  0.80281900  0.19507479  1.0
  C  C45  1  0.44452746  0.72389361  0.72091675  1.0
  C  C46  1  0.49844186  0.68938631  0.69624066  1.0
  C  C47  1  0.42511339  0.57258888  0.25445156  1.0
  C  C48  1  0.44315108  0.77728414  0.77747096  1.0
  C  C49  1  0.50582771  0.81056287  0.80360130  1.0
  C  C50  1  0.05489427  0.33490409  0.72264605  1.0
  C  C51  1  0.50132055  0.13555300  0.13840589  1.0
  C  C52  1  0.11391953  0.30554006  0.68901857  1.0
  C  C53  1  0.94488407  0.27973997  0.77680639  1.0
  C  C54  1  0.88554413  0.19100996  0.81120947  1.0
  C  C55  1  0.44124766  0.21972369  0.72295656  1.0
  C  C56  1  0.50805773  0.30805348  0.68558431  1.0
  C  C57  1  0.44292244  0.16441654  0.77656344  1.0
  C  C58  1  0.46401882  0.66149254  0.25248241  1.0
  C  C59  1  0.49369015  0.19383464  0.81410549  1.0
  C  C60  1  0.44385544  0.22028235  0.33451836  1.0
  C  C61  1  0.49766174  0.30897347  0.30507724  1.0
  C  C62  1  0.44305840  0.16508473  0.27973645  1.0
  C  C63  1  0.50014584  0.86333716  0.86249086  1.0
  C  C64  1  0.50592987  0.19440157  0.19135340  1.0
  C  C65  1  0.49814305  0.63620769  0.63770191  1.0
  C  C66  1  0.49689515  0.36238009  0.36341152  1.0
  C  C67  1  0.77377595  0.63930077  0.36176148  1.0
  C  C68  1  0.22565553  0.36431849  0.63474299  1.0
  C  C69  1  0.46401416  0.71661670  0.19735179  1.0
  C  C70  1  0.50194337  0.36223125  0.63354215  1.0
  C  C71  1  0.49999924  0.63901276  0.36101542  1.0
  C  C72  1  0.49562499  0.13566347  0.86633347  1.0
  C  C73  1  0.49994263  0.86112680  0.13880065  1.0
  C  C74  1  0.42502518  0.67955978  0.14744540  1.0
  C  C75  1  0.38812258  0.59371233  0.15144753  1.0
  C  C76  1  0.38817751  0.53961360  0.20555220  1.0
  C  C77  1  0.50004971  0.69626849  0.30371850  1.0
  C  C78  1  0.53600871  0.78352943  0.30249450  1.0
  C  C79  1  0.53596728  0.83865297  0.24739406  1.0
  C  C80  1  0.50003617  0.80392859  0.19604776  1.0
  C  C81  1  0.57475925  0.82042577  0.35260682  1.0
  O  O82  1  0.49956479  0.99878711  0.00110146  1.0
  O  O83  1  0.26936735  0.32491558  0.61127226  1.0
  O  O84  1  0.56538537  0.44554761  0.60951520  1.0
  O  O85  1  0.72977512  0.05423919  0.88845648  1.0
  O  O86  1  0.43835452  0.61652559  0.44356689  1.0
  O  O87  1  0.43554613  0.32305401  0.61700614  1.0
  O  O88  1  0.56153925  0.61796491  0.32210242  1.0
  O  O89  1  0.73040907  0.61468037  0.32200792  1.0
  O  O90  1  0.26911584  0.44745259  0.61572993  1.0
  O  O91  1  0.55708614  0.61197412  0.61790690  1.0
  O  O92  1  0.43921541  0.32277839  0.44619118  1.0
  O  O93  1  0.43799963  0.05237831  0.17820646  1.0
  O  O94  1  0.26974502  0.88142035  0.17595380  1.0
  O  O95  1  0.56323526  0.17488314  0.05531364  1.0
  O  O96  1  0.43612821  0.88206671  0.88656596  1.0
  O  O97  1  0.55501154  0.17512632  0.89027888  1.0
  O  O98  1  0.56037650  0.88257559  0.05620030  1.0
  O  O99  1  0.43969388  0.05273351  0.88306836  1.0
  O  O100  1  0.43940902  0.88317511  0.17783857  1.0
  O  O101  1  0.56172807  0.88567167  0.88442301  1.0
  O  O102  1  0.73060668  0.17734154  0.88342175  1.0
  O  O103  1  0.26859061  0.88491784  0.05383057  1.0
  O  O104  1  0.49959099  0.50117995  0.49880016  1.0
  O  O105  1  0.44091297  0.61893887  0.61190791  1.0
  O  O106  1  0.55599743  0.44581502  0.32397826  1.0
  O  O107  1  0.72994645  0.61909409  0.44485590  1.0
