# generated using pymatgen
data_Zn4H10C29(N2O13)2
_symmetry_space_group_name_H-M   'P 1'
_cell_length_a   13.15900204
_cell_length_b   13.22783936
_cell_length_c   15.15233989
_cell_angle_alpha   83.76912394
_cell_angle_beta   79.52138458
_cell_angle_gamma   88.00016775
_symmetry_Int_Tables_number   1
_chemical_formula_structural   Zn4H10C29(N2O13)2
_chemical_formula_sum   'Zn4 H10 C29 N4 O26'
_cell_volume   2577.87785659
_cell_formula_units_Z   1
loop_
 _symmetry_equiv_pos_site_id
 _symmetry_equiv_pos_as_xyz
  1  'x, y, z'
loop_
 _atom_site_type_symbol
 _atom_site_label
 _atom_site_symmetry_multiplicity
 _atom_site_fract_x
 _atom_site_fract_y
 _atom_site_fract_z
 _atom_site_occupancy
  Zn  Zn0  1  0.59303989  0.57619387  0.54974841  1.0
  Zn  Zn1  1  0.57715781  0.39755002  0.42422706  1.0
  Zn  Zn2  1  0.43801957  0.59989808  0.41016480  1.0
  Zn  Zn3  1  0.39290134  0.43797898  0.58888418  1.0
  H  H4  1  0.29642941  0.54477611  0.01462790  1.0
  H  H5  1  0.72062376  0.47480426  0.96960081  1.0
  H  H6  1  0.56795154  0.08872607  0.46891764  1.0
  H  H7  1  0.91917028  0.37469165  0.43076317  1.0
  H  H8  1  0.07723875  0.61278829  0.55212151  1.0
  H  H9  1  0.27535381  0.49696998  0.14214912  1.0
  H  H10  1  0.84107524  0.64941296  0.44980262  1.0
  H  H11  1  0.80213762  0.47237359  0.09080333  1.0
  H  H12  1  0.22029452  0.58048853  0.89167627  1.0
  H  H13  1  0.65642717  0.44620539  0.74370192  1.0
  C  C14  1  0.45883462  0.23399884  0.54167369  1.0
  C  C15  1  0.53759089  0.77296616  0.46540339  1.0
  C  C16  1  0.77379562  0.45696762  0.46826334  1.0
  C  C17  1  0.23096715  0.54469736  0.50770118  1.0
  C  C18  1  0.52626107  0.49436395  0.25811310  1.0
  C  C19  1  0.48787648  0.51136005  0.72982402  1.0
  C  C20  1  0.53476521  0.49310362  0.15748106  1.0
  C  C21  1  0.48047010  0.51248888  0.83023613  1.0
  C  C22  1  0.37243626  0.52743007  0.97654433  1.0
  C  C23  1  0.38352054  0.53511191  0.88355282  1.0
  C  C24  1  0.56686566  0.49140838  0.87062001  1.0
  C  C25  1  0.55743669  0.49182085  0.96671436  1.0
  C  C26  1  0.45731633  0.50422981  0.02124149  1.0
  C  C27  1  0.44700446  0.49781562  0.11774033  1.0
  C  C28  1  0.63398441  0.48738986  0.10255416  1.0
  C  C29  1  0.64401753  0.48232203  0.01042673  1.0
  C  C30  1  0.54270820  0.88731663  0.46373199  1.0
  C  C31  1  0.50564587  0.94411896  0.53169507  1.0
  C  C32  1  0.44650805  0.12175521  0.56716435  1.0
  C  C33  1  0.50868775  0.05379305  0.52251409  1.0
  C  C34  1  0.11759853  0.55673825  0.50978299  1.0
  C  C35  1  0.06133699  0.50654693  0.46337558  1.0
  C  C36  1  0.88780843  0.44661137  0.45349726  1.0
  C  C37  1  0.94962471  0.52072475  0.46794080  1.0
  C  C38  1  0.34349823  0.49156625  0.17634480  1.0
  C  C39  1  0.90356761  0.62396957  0.48782845  1.0
  C  C40  1  0.73091141  0.49023373  0.13932977  1.0
  C  C41  1  0.29390882  0.57428789  0.84235121  1.0
  C  C42  1  0.66574339  0.46566493  0.81137864  1.0
  N  N43  1  0.59210314  0.93845330  0.37553703  1.0
  N  N44  1  0.11567781  0.42996517  0.40504304  1.0
  N  N45  1  0.46408249  0.88695135  0.62042996  1.0
  N  N46  1  0.36033769  0.09174709  0.64109011  1.0
  O  O47  1  0.50024378  0.50277048  0.49363046  1.0
  O  O48  1  0.38751004  0.29097779  0.57798102  1.0
  O  O49  1  0.60385324  0.72275886  0.50395044  1.0
  O  O50  1  0.72650387  0.40236452  0.42508464  1.0
  O  O51  1  0.28783599  0.58963793  0.43877926  1.0
  O  O52  1  0.54360985  0.41033327  0.30243811  1.0
  O  O53  1  0.43949036  0.44090852  0.70538334  1.0
  O  O54  1  0.50600559  0.58076852  0.28727351  1.0
  O  O55  1  0.54575659  0.57794842  0.67999427  1.0
  O  O56  1  0.73274616  0.51860204  0.52505591  1.0
  O  O57  1  0.25757935  0.49730634  0.57754559  1.0
  O  O58  1  0.53917740  0.26006404  0.48416495  1.0
  O  O59  1  0.47124093  0.74275103  0.42428231  1.0
  O  O60  1  0.33048915  0.47806708  0.25880419  1.0
  O  O61  1  0.53763472  0.95338596  0.31724934  1.0
  O  O62  1  0.68423974  0.95939303  0.36817256  1.0
  O  O63  1  0.93376875  0.67954803  0.53658105  1.0
  O  O64  1  0.08330938  0.41899672  0.33494091  1.0
  O  O65  1  0.18993515  0.38334407  0.43060375  1.0
  O  O66  1  0.73558771  0.51252176  0.21469329  1.0
  O  O67  1  0.29831223  0.60109965  0.76207393  1.0
  O  O68  1  0.75197115  0.46312187  0.83124809  1.0
  O  O69  1  0.47785792  0.92604045  0.68767526  1.0
  O  O70  1  0.42304453  0.80443295  0.62039392  1.0
  O  O71  1  0.36123676  0.12478781  0.71387456  1.0
  O  O72  1  0.29440787  0.03600653  0.62373550  1.0
