# generated using pymatgen
data_Cu4SiH12(CN)20
_symmetry_space_group_name_H-M   'P 1'
_cell_length_a   23.43394673
_cell_length_b   23.54257471
_cell_length_c   24.46425492
_cell_angle_alpha   89.99076622
_cell_angle_beta   90.78389099
_cell_angle_gamma   89.83298108
_symmetry_Int_Tables_number   1
_chemical_formula_structural   Cu4SiH12(CN)20
_chemical_formula_sum   'Cu12 Si3 H36 C60 N60'
_cell_volume   13495.49714442
_cell_formula_units_Z   3
loop_
 _symmetry_equiv_pos_site_id
 _symmetry_equiv_pos_as_xyz
  1  'x, y, z'
loop_
 _atom_site_type_symbol
 _atom_site_label
 _atom_site_symmetry_multiplicity
 _atom_site_fract_x
 _atom_site_fract_y
 _atom_site_fract_z
 _atom_site_occupancy
  Cu  Cu0  1  0.18721369  0.86207171  0.77262904  1.0
  Cu  Cu1  1  0.09788600  0.75994183  0.76459179  1.0
  Cu  Cu2  1  0.16569795  0.78602760  0.87525993  1.0
  Cu  Cu3  1  0.26801835  0.13312917  0.23361378  1.0
  Cu  Cu4  1  0.16492778  0.22007273  0.22605673  1.0
  Cu  Cu5  1  0.27619624  0.24379080  0.15906789  1.0
  Cu  Cu6  1  0.77902113  0.12936144  0.76092953  1.0
  Cu  Cu7  1  0.87460798  0.22269375  0.79162487  1.0
  Cu  Cu8  1  0.76839092  0.20407292  0.86775249  1.0
  Cu  Cu9  1  0.77446815  0.88709188  0.20724313  1.0
  Cu  Cu10  1  0.87772535  0.79908873  0.22421541  1.0
  Cu  Cu11  1  0.77924162  0.77402414  0.13755731  1.0
  Si  Si12  1  0.99547761  0.48769957  0.02280448  1.0
  Si  Si13  1  0.00428303  0.02032977  0.49274851  1.0
  Si  Si14  1  0.48985872  0.98920283  0.97610417  1.0
  H  H15  1  0.15114530  0.93299647  0.66872841  1.0
  H  H16  1  0.03460420  0.79133823  0.65193833  1.0
  H  H17  1  0.25825871  0.83546124  0.95890227  1.0
  H  H18  1  0.30096500  0.92707220  0.81141483  1.0
  H  H19  1  0.03944163  0.64133554  0.79698508  1.0
  H  H20  1  0.11715009  0.69046396  0.95159971  1.0
  H  H21  1  0.23057816  0.05934011  0.33728500  1.0
  H  H22  1  0.08638572  0.17393425  0.32019049  1.0
  H  H23  1  0.38617950  0.21614432  0.09164819  1.0
  H  H24  1  0.36199852  0.05646783  0.17621233  1.0
  H  H25  1  0.08002655  0.30941138  0.17083308  1.0
  H  H26  1  0.23842421  0.35539930  0.09308722  1.0
  H  H27  1  0.83065255  0.07905336  0.65327568  1.0
  H  H28  1  0.95939634  0.20496572  0.69233844  1.0
  H  H29  1  0.65700921  0.15350712  0.91836932  1.0
  H  H30  1  0.66852408  0.04907702  0.77308141  1.0
  H  H31  1  0.94000266  0.32055386  0.85714921  1.0
  H  H32  1  0.79385411  0.29538285  0.96099641  1.0
  H  H33  1  0.80096928  0.97364981  0.30386306  1.0
  H  H34  1  0.94391570  0.85781338  0.32264490  1.0
  H  H35  1  0.67156616  0.79173987  0.05872027  1.0
  H  H36  1  0.66961189  0.95006499  0.14895962  1.0
  H  H37  1  0.96123959  0.69360841  0.20097919  1.0
  H  H38  1  0.82121848  0.65731687  0.08886103  1.0
  H  H39  1  0.09162270  0.98892678  0.58397208  1.0
  H  H40  1  0.03002382  0.10874780  0.40289369  1.0
  H  H41  1  0.90201253  0.03885617  0.56831957  1.0
  H  H42  1  0.98630971  0.92677108  0.40827753  1.0
  H  H43  1  0.41411220  0.95267942  0.86965832  1.0
  H  H44  1  0.57718426  0.98728503  0.07460888  1.0
  H  H45  1  0.41175831  0.00524711  0.07456727  1.0
  H  H46  1  0.57512176  0.08472598  0.95790845  1.0
  H  H47  1  0.06621774  0.59511674  0.00089619  1.0
  H  H48  1  0.97965633  0.40414565  0.92899010  1.0
  H  H49  1  0.89043448  0.56594026  0.04508435  1.0
  H  H50  1  0.02300334  0.39179851  0.10508275  1.0
  C  C51  1  0.12669917  0.89414973  0.67249094  1.0
  C  C52  1  0.08185087  0.87339516  0.63969696  1.0
  C  C53  1  0.06727781  0.82151075  0.66406145  1.0
  C  C54  1  0.26040615  0.85360287  0.91824998  1.0
  C  C55  1  0.30071165  0.89143988  0.89712798  1.0
  C  C56  1  0.28283941  0.90036398  0.84284484  1.0
  C  C57  1  0.06237678  0.66168820  0.83040050  1.0
  C  C58  1  0.06790956  0.64452964  0.88520341  1.0
  C  C59  1  0.10191927  0.68661649  0.90966955  1.0
  C  C60  1  0.19995078  0.09182505  0.32542592  1.0
  C  C61  1  0.14693801  0.10477769  0.34848918  1.0
  C  C62  1  0.12591830  0.15014734  0.31687099  1.0
  C  C63  1  0.37333629  0.18174591  0.11822746  1.0
  C  C64  1  0.39226270  0.12518919  0.11921671  1.0
  C  C65  1  0.36073687  0.09972242  0.16088405  1.0
  C  C66  1  0.12352007  0.31340911  0.15668062  1.0
  C  C67  1  0.14660059  0.35140419  0.11876422  1.0
  C  C68  1  0.20471464  0.33687407  0.11717943  1.0
  C  C69  1  0.85705806  0.11248580  0.67056132  1.0
  C  C70  1  0.90886759  0.13484429  0.65232155  1.0
  C  C71  1  0.92262694  0.17710716  0.69072101  1.0
  C  C72  1  0.66808667  0.13282267  0.88031269  1.0
  C  C73  1  0.64123417  0.08771235  0.85274533  1.0
  C  C74  1  0.67400807  0.07976423  0.80576929  1.0
  C  C75  1  0.90100549  0.30709736  0.87668936  1.0
  C  C76  1  0.87584225  0.32670419  0.92494530  1.0
  C  C77  1  0.82610558  0.29413431  0.92964348  1.0
  C  C78  1  0.83236844  0.93992050  0.30077117  1.0
  C  C79  1  0.88150883  0.93012916  0.33282565  1.0
  C  C80  1  0.90563628  0.88085539  0.31047732  1.0
  C  C81  1  0.67918121  0.82703783  0.08629821  1.0
  C  C82  1  0.65001897  0.87907568  0.08948657  1.0
  C  C83  1  0.67788443  0.90828608  0.13207751  1.0
  C  C84  1  0.92212195  0.69327136  0.17677650  1.0
  C  C85  1  0.90403676  0.65379013  0.13718373  1.0
  C  C86  1  0.85078369  0.67436372  0.11915544  1.0
  C  C87  1  0.05456546  0.90105472  0.59343897  1.0
  C  C88  1  0.06248370  0.95510103  0.57279158  1.0
  C  C89  1  0.12028360  0.07657672  0.39396036  1.0
  C  C90  1  0.06590866  0.08203482  0.41456764  1.0
  C  C91  1  0.94204735  0.11702919  0.60592847  1.0
  C  C92  1  0.93449453  0.07143777  0.57103754  1.0
  C  C93  1  0.90244741  0.96356750  0.37837091  1.0
  C  C94  1  0.95191159  0.95756585  0.40916312  1.0
  C  C95  1  0.34904457  0.91460214  0.92690901  1.0
  C  C96  1  0.39777933  0.94200946  0.90956484  1.0
  C  C97  1  0.60302324  0.89717137  0.05469768  1.0
  C  C98  1  0.57359081  0.94806472  0.05167655  1.0
  C  C99  1  0.43074207  0.09927223  0.08079337  1.0
  C  C100  1  0.43442158  0.04353007  0.06349382  1.0
  C  C101  1  0.59262668  0.05580436  0.87163000  1.0
  C  C102  1  0.56753952  0.05840308  0.92228220  1.0
  C  C103  1  0.04327704  0.59520821  0.91086000  1.0
  C  C104  1  0.04524538  0.57783974  0.96484790  1.0
  C  C105  1  0.89623778  0.37103000  0.96110839  1.0
  C  C106  1  0.94540944  0.40299508  0.95823039  1.0
  C  C107  1  0.93546890  0.60487056  0.11816427  1.0
  C  C108  1  0.92506306  0.56854518  0.07478203  1.0
  C  C109  1  0.11722973  0.39470859  0.08713571  1.0
  C  C110  1  0.05988734  0.40845231  0.08424609  1.0
  N  N111  1  0.10091543  0.81238165  0.70839688  1.0
  N  N112  1  0.13784041  0.85742162  0.71352200  1.0
  N  N113  1  0.23530750  0.86982590  0.83244189  1.0
  N  N114  1  0.22155262  0.84081168  0.87918485  1.0
  N  N115  1  0.11556096  0.72600528  0.87214323  1.0
  N  N116  1  0.09104974  0.71059626  0.82296896  1.0
  N  N117  1  0.16372279  0.16320140  0.27784002  1.0
  N  N118  1  0.20959674  0.12698910  0.28310809  1.0
  N  N119  1  0.32524793  0.13842724  0.18285313  1.0
  N  N120  1  0.33290907  0.18924997  0.15621179  1.0
  N  N121  1  0.21525865  0.29328824  0.15165908  1.0
  N  N122  1  0.16489709  0.27876743  0.17616908  1.0
  N  N123  1  0.88186485  0.17953262  0.72903810  1.0
  N  N124  1  0.84114823  0.13950219  0.71647015  1.0
  N  N125  1  0.71737497  0.11738749  0.80569742  1.0
  N  N126  1  0.71359473  0.15026918  0.85191352  1.0
  N  N127  1  0.82208387  0.25784869  0.88713235  1.0
  N  N128  1  0.86849476  0.26587376  0.85429047  1.0
  N  N129  1  0.87314337  0.86263752  0.26815416  1.0
  N  N130  1  0.82775532  0.89933130  0.26211788  1.0
  N  N131  1  0.72064566  0.87593295  0.15262132  1.0
  N  N132  1  0.72140456  0.82561564  0.12417593  1.0
  N  N133  1  0.83820388  0.72267125  0.14602900  1.0
  N  N134  1  0.88243882  0.73443137  0.18170264  1.0
  N  N135  1  0.99267497  0.91030673  0.52570614  1.0
  N  N136  1  0.01161764  0.87574640  0.56288709  1.0
  N  N137  1  0.02389108  0.96052975  0.53071468  1.0
  N  N138  1  0.11541835  0.01568670  0.46182140  1.0
  N  N139  1  0.14850823  0.03561538  0.42460362  1.0
  N  N140  1  0.06328614  0.04405107  0.45679479  1.0
  N  N141  1  0.01398481  0.11966193  0.54918070  1.0
  N  N142  1  0.99109103  0.14498259  0.59039694  1.0
  N  N143  1  0.97923401  0.07350727  0.53568842  1.0
  N  N144  1  0.90098723  0.03243493  0.43909263  1.0
  N  N145  1  0.87304957  0.00987773  0.39859541  1.0
  N  N146  1  0.95056587  0.00038181  0.44687878  1.0
  N  N147  1  0.39874741  0.93314509  0.00124460  1.0
  N  N148  1  0.35199841  0.91040903  0.98324564  1.0
  N  N149  1  0.42820441  0.95341672  0.95636651  1.0
  N  N150  1  0.53956170  0.88687593  0.98852609  1.0
  N  N151  1  0.58029611  0.86144539  0.01514870  1.0
  N  N152  1  0.53396385  0.94090517  0.01054440  1.0
  N  N153  1  0.49324521  0.09889906  0.01486854  1.0
  N  N154  1  0.46787628  0.13102994  0.04993408  1.0
  N  N155  1  0.47330445  0.04370989  0.02218306  1.0
  N  N156  1  0.52320769  0.99323196  0.86945829  1.0
  N  N157  1  0.56364829  0.01553827  0.84099803  1.0
  N  N158  1  0.52403618  0.01972782  0.92056138  1.0
  N  N159  1  0.99286040  0.51679926  0.91431210  1.0
  N  N160  1  0.01085694  0.55617469  0.88201620  1.0
  N  N161  1  0.01365155  0.52917465  0.96664026  1.0
  N  N162  1  0.89378495  0.42981283  0.03097578  1.0
  N  N163  1  0.86646005  0.38930133  0.00630545  1.0
  N  N164  1  0.94347350  0.43956221  0.00160439  1.0
  N  N165  1  0.00792930  0.54538496  0.11724142  1.0
  N  N166  1  0.98649926  0.58843425  0.14257725  1.0
  N  N167  1  0.97016623  0.53139885  0.07462894  1.0
  N  N168  1  0.10965380  0.46393138  0.02711357  1.0
  N  N169  1  0.14541935  0.43004606  0.05136560  1.0
  N  N170  1  0.05560217  0.45137026  0.04672779  1.0
