# generated using pymatgen
data_CoH14(C11N6)2
_symmetry_space_group_name_H-M   'P 1'
_cell_length_a   8.69735517
_cell_length_b   16.08806190
_cell_length_c   16.08987819
_cell_angle_alpha   116.80306560
_cell_angle_beta   100.37366837
_cell_angle_gamma   100.39011101
_symmetry_Int_Tables_number   1
_chemical_formula_structural   CoH14(C11N6)2
_chemical_formula_sum   'Co3 H42 C66 N36'
_cell_volume   1886.88234959
_cell_formula_units_Z   3
loop_
 _symmetry_equiv_pos_site_id
 _symmetry_equiv_pos_as_xyz
  1  'x, y, z'
loop_
 _atom_site_type_symbol
 _atom_site_label
 _atom_site_symmetry_multiplicity
 _atom_site_fract_x
 _atom_site_fract_y
 _atom_site_fract_z
 _atom_site_occupancy
  Co  Co0  1  0.00000220  0.50000088  0.50000004  1.0
  Co  Co1  1  0.50000229  0.50000313  0.00000061  1.0
  Co  Co2  1  0.49999705  0.99999867  0.50000149  1.0
  H  H3  1  0.27760294  0.36906477  0.03573144  1.0
  H  H4  1  0.24195341  0.96443930  0.33355688  1.0
  H  H5  1  0.90839311  0.66646721  0.63086067  1.0
  H  H6  1  0.72240479  0.63093510  0.96426843  1.0
  H  H7  1  0.75804337  0.03556001  0.66644445  1.0
  H  H8  1  0.09160783  0.33353041  0.36914430  1.0
  H  H9  1  0.20059798  0.37327682  0.17900874  1.0
  H  H10  1  0.02178623  0.82133914  0.19450143  1.0
  H  H11  1  0.82771019  0.80565443  0.62679348  1.0
  H  H12  1  0.79940398  0.62672570  0.82098894  1.0
  H  H13  1  0.97821377  0.17866041  0.80549698  1.0
  H  H14  1  0.17228527  0.19434921  0.37321223  1.0
  H  H15  1  0.59617056  0.64031615  0.36296181  1.0
  H  H16  1  0.23267381  0.63693265  0.27730943  1.0
  H  H17  1  0.95547174  0.72260395  0.35951119  1.0
  H  H18  1  0.40383164  0.35968124  0.63704098  1.0
  H  H19  1  0.76732400  0.36306596  0.72268461  1.0
  H  H20  1  0.04452870  0.27739404  0.64049744  1.0
  H  H21  1  0.65268185  0.62940153  0.21242279  1.0
  H  H22  1  0.43968766  0.78741113  0.41705360  1.0
  H  H23  1  0.02291739  0.58298941  0.37045039  1.0
  H  H24  1  0.34732187  0.37060194  0.78758073  1.0
  H  H25  1  0.56031007  0.21258535  0.58294262  1.0
  H  H26  1  0.97708282  0.41701059  0.62955312  1.0
  H  H27  1  0.60675937  0.70127312  0.66723545  1.0
  H  H28  1  0.93991431  0.33319563  0.03435472  1.0
  H  H29  1  0.90511562  0.96564047  0.29861615  1.0
  H  H30  1  0.39324209  0.29872354  0.33276588  1.0
  H  H31  1  0.06008269  0.66679950  0.96564004  1.0
  H  H32  1  0.09487962  0.03435898  0.70138445  1.0
  H  H33  1  0.38207689  0.73240453  0.88285833  1.0
  H  H34  1  0.50015931  0.11718170  0.84969836  1.0
  H  H35  1  0.64997368  0.15035217  0.26733922  1.0
  H  H36  1  0.61792331  0.26759671  0.11714518  1.0
  H  H37  1  0.49983126  0.88281825  0.15029057  1.0
  H  H38  1  0.35002652  0.84965218  0.73266429  1.0
  H  H39  1  0.11402206  0.61590514  0.75172813  1.0
  H  H40  1  0.36281670  0.24805877  0.86392040  1.0
  H  H41  1  0.49811931  0.13583372  0.38383445  1.0
  H  H42  1  0.88597559  0.38409667  0.24827028  1.0
  H  H43  1  0.63717452  0.75194537  0.13607217  1.0
  H  H44  1  0.50189060  0.86417378  0.61616979  1.0
  C  C45  1  0.34419094  0.42841503  0.10941635  1.0
  C  C46  1  0.23469807  0.89071861  0.31925300  1.0
  C  C47  1  0.91570231  0.68082359  0.57149584  1.0
  C  C48  1  0.65581328  0.57158993  0.89058351  1.0
  C  C49  1  0.76530112  0.10927995  0.68074614  1.0
  C  C50  1  0.08430162  0.31917908  0.42851278  1.0
  C  C51  1  0.30214239  0.43107838  0.18929441  1.0
  C  C52  1  0.11283505  0.81092488  0.24199573  1.0
  C  C53  1  0.87137332  0.75816863  0.56896223  1.0
  C  C54  1  0.69786155  0.56892277  0.81070254  1.0
  C  C55  1  0.88716540  0.18907407  0.75800123  1.0
  C  C56  1  0.12863098  0.24183565  0.43104712  1.0
  C  C57  1  0.39027961  0.50911231  0.28310817  1.0
  C  C58  1  0.10687107  0.71701848  0.22610471  1.0
  C  C59  1  0.88116407  0.77399643  0.49089254  1.0
  C  C60  1  0.60972740  0.49088730  0.71689024  1.0
  C  C61  1  0.89312936  0.28298046  0.77389224  1.0
  C  C62  1  0.11883643  0.22600554  0.50911389  1.0
  C  C63  1  0.52304899  0.57938655  0.29144970  1.0
  C  C64  1  0.23111681  0.70850526  0.28796505  1.0
  C  C65  1  0.94343585  0.71206434  0.42051524  1.0
  C  C66  1  0.47695290  0.42061571  0.70855017  1.0
  C  C67  1  0.76888560  0.29149417  0.71203118  1.0
  C  C68  1  0.05656574  0.28793625  0.57949338  1.0
  C  C69  1  0.55509319  0.57324050  0.20799734  1.0
  C  C70  1  0.34657233  0.79190835  0.36535087  1.0
  C  C71  1  0.98149918  0.63469392  0.42661831  1.0
  C  C72  1  0.44490709  0.42676413  0.79200399  1.0
  C  C73  1  0.65342496  0.20808937  0.63464681  1.0
  C  C74  1  0.01850060  0.36530360  0.57338667  1.0
  C  C75  1  0.33951798  0.52137094  0.36796635  1.0
  C  C76  1  0.97123936  0.63226029  0.15343707  1.0
  C  C77  1  0.81780293  0.84652911  0.47867934  1.0
  C  C78  1  0.66049247  0.47862565  0.63203425  1.0
  C  C79  1  0.02876224  0.36773628  0.84655988  1.0
  C  C80  1  0.18219502  0.15347156  0.52132199  1.0
  C  C81  1  0.32784270  0.57469288  0.51130298  1.0
  C  C82  1  0.81630724  0.48890138  0.06339251  1.0
  C  C83  1  0.75262805  0.93650341  0.42529770  1.0
  C  C84  1  0.67216153  0.42530712  0.48869689  1.0
  C  C85  1  0.18369195  0.51109718  0.93660663  1.0
  C  C86  1  0.24737377  0.06349921  0.57470436  1.0
  C  C87  1  0.34990532  0.62025594  0.61500575  1.0
  C  C88  1  0.73498791  0.38513015  0.00528199  1.0
  C  C89  1  0.72919758  0.99457547  0.37958307  1.0
  C  C90  1  0.65009731  0.37974332  0.38499558  1.0
  C  C91  1  0.26500741  0.61486833  0.99471642  1.0
  C  C92  1  0.27079847  0.00542559  0.62041680  1.0
  C  C93  1  0.49750128  0.68379320  0.68786961  1.0
  C  C94  1  0.81003758  0.31244261  0.99620022  1.0
  C  C95  1  0.81331688  0.00373619  0.31598604  1.0
  C  C96  1  0.50249938  0.31620495  0.31213245  1.0
  C  C97  1  0.18995482  0.68755232  0.00379236  1.0
  C  C98  1  0.18668151  0.99626324  0.68401383  1.0
  C  C99  1  0.37341915  0.69979042  0.80550809  1.0
  C  C100  1  0.56864909  0.19458386  0.89444069  1.0
  C  C101  1  0.67367136  0.10554325  0.29994916  1.0
  C  C102  1  0.62658267  0.30020847  0.19449397  1.0
  C  C103  1  0.43133907  0.80541497  0.10555042  1.0
  C  C104  1  0.32632973  0.89445801  0.70005144  1.0
  C  C105  1  0.22547633  0.63606238  0.73403153  1.0
  C  C106  1  0.49190894  0.26591544  0.90193700  1.0
  C  C107  1  0.58931874  0.09791333  0.36370128  1.0
  C  C108  1  0.77452936  0.36393659  0.26597125  1.0
  C  C109  1  0.50808185  0.73408497  0.09805704  1.0
  C  C110  1  0.41068154  0.90208757  0.63630005  1.0
  N  N111  1  0.46586347  0.49972159  0.11740922  1.0
  N  N112  1  0.34810678  0.88257766  0.38253085  1.0
  N  N113  1  0.96577971  0.61751401  0.50009996  1.0
  N  N114  1  0.53413841  0.50028440  0.88259065  1.0
  N  N115  1  0.65188964  0.11742066  0.61746975  1.0
  N  N116  1  0.03422232  0.38248719  0.49990720  1.0
  N  N117  1  0.43318294  0.58344023  0.46190707  1.0
  N  N118  1  0.97091566  0.53829370  0.12158208  1.0
  N  N119  1  0.84913009  0.87835322  0.41649709  1.0
  N  N120  1  0.56682904  0.41655684  0.53809426  1.0
  N  N121  1  0.02908559  0.46170189  0.87841415  1.0
  N  N122  1  0.15087442  0.12165060  0.58350569  1.0
  N  N123  1  0.17792222  0.51201383  0.45046203  1.0
  N  N124  1  0.72730594  0.54974989  0.06148519  1.0
  N  N125  1  0.66565268  0.93840828  0.48811358  1.0
  N  N126  1  0.82208165  0.48798829  0.54953711  1.0
  N  N127  1  0.27269405  0.45024904  0.93851322  1.0
  N  N128  1  0.33434724  0.06159163  0.51188702  1.0
  N  N129  1  0.18379589  0.47648664  0.35849116  1.0
  N  N130  1  0.82511924  0.64178695  0.11797237  1.0
  N  N131  1  0.70716401  0.88197390  0.52371407  1.0
  N  N132  1  0.81620915  0.52351311  0.64150798  1.0
  N  N133  1  0.17488157  0.35820924  0.88202531  1.0
  N  N134  1  0.29283204  0.11802344  0.47628580  1.0
  N  N135  1  0.21314776  0.59671386  0.63905265  1.0
  N  N136  1  0.57431251  0.36095548  0.95752810  1.0
  N  N137  1  0.61620157  0.04229282  0.40313968  1.0
  N  N138  1  0.78685487  0.40328664  0.36094868  1.0
  N  N139  1  0.42568237  0.63904423  0.04247177  1.0
  N  N140  1  0.38379601  0.95770873  0.59686092  1.0
  N  N141  1  0.50970978  0.72396783  0.78276298  1.0
  N  N142  1  0.72764439  0.21749671  0.94148009  1.0
  N  N143  1  0.78563250  0.05851558  0.27579646  1.0
  N  N144  1  0.49028933  0.27603232  0.21723834  1.0
  N  N145  1  0.27234305  0.78249829  0.05850957  1.0
  N  N146  1  0.21436896  0.94148481  0.72420487  1.0
