# generated using pymatgen
data_Zr3H14C48(O4F3)4
_symmetry_space_group_name_H-M   'P 1'
_cell_length_a   21.64765692
_cell_length_b   21.64786000
_cell_length_c   21.64765870
_cell_angle_alpha   60.00097960
_cell_angle_beta   60.00118994
_cell_angle_gamma   60.00045253
_symmetry_Int_Tables_number   1
_chemical_formula_structural   Zr3H14C48(O4F3)4
_chemical_formula_sum   'Zr6 H28 C96 O32 F24'
_cell_volume   7173.48851426
_cell_formula_units_Z   2
loop_
 _symmetry_equiv_pos_site_id
 _symmetry_equiv_pos_as_xyz
  1  'x, y, z'
loop_
 _atom_site_type_symbol
 _atom_site_label
 _atom_site_symmetry_multiplicity
 _atom_site_fract_x
 _atom_site_fract_y
 _atom_site_fract_z
 _atom_site_occupancy
  Zr  Zr0  1  0.58169896  0.08171125  0.91830589  1.0
  Zr  Zr1  1  0.41831637  0.91826077  0.08169372  1.0
  Zr  Zr2  1  0.41828234  0.08171349  0.91826852  1.0
  Zr  Zr3  1  0.58174216  0.91826863  0.08170764  1.0
  Zr  Zr4  1  0.41830771  0.08166049  0.08168480  1.0
  Zr  Zr5  1  0.58173613  0.91829662  0.91826560  1.0
  H  H6  1  0.43567759  0.19293265  0.93570481  1.0
  H  H7  1  0.43568608  0.93569142  0.19293329  1.0
  H  H8  1  0.43568749  0.93568202  0.93567679  1.0
  H  H9  1  0.69295854  0.93569063  0.93567870  1.0
  H  H10  1  0.60073097  0.28261930  0.90098133  1.0
  H  H11  1  0.40100070  0.28260090  0.10079144  1.0
  H  H12  1  0.60080131  0.71561195  0.90100496  1.0
  H  H13  1  0.40102372  0.71561921  0.10076755  1.0
  H  H14  1  0.78261770  0.10073407  0.71567573  1.0
  H  H15  1  0.78259493  0.90101063  0.71560642  1.0
  H  H16  1  0.21561236  0.10080174  0.28258510  1.0
  H  H17  1  0.21561265  0.90102838  0.28259047  1.0
  H  H18  1  0.40101091  0.10075342  0.28259563  1.0
  H  H19  1  0.60082000  0.90101231  0.28255628  1.0
  H  H20  1  0.40103359  0.10080274  0.71558819  1.0
  H  H21  1  0.60078827  0.90101738  0.71560882  1.0
  H  H22  1  0.78264724  0.71570268  0.90095504  1.0
  H  H23  1  0.78259827  0.71564076  0.10078211  1.0
  H  H24  1  0.21561824  0.28260804  0.90100420  1.0
  H  H25  1  0.21561727  0.28259321  0.10078543  1.0
  H  H26  1  0.40097571  0.28263036  0.71566663  1.0
  H  H27  1  0.60079094  0.28257665  0.71563719  1.0
  H  H28  1  0.40101850  0.71560854  0.28258794  1.0
  H  H29  1  0.60078216  0.71560951  0.28260263  1.0
  H  H30  1  0.78265265  0.90101483  0.10070124  1.0
  H  H31  1  0.78257248  0.10082380  0.90096952  1.0
  H  H32  1  0.21560631  0.90104690  0.10076045  1.0
  H  H33  1  0.21563668  0.10081674  0.90098403  1.0
  C  C34  1  0.50175327  0.20580610  0.00179272  1.0
  C  C35  1  0.29063945  0.00178460  0.20579844  1.0
  C  C36  1  0.50179922  0.79063356  0.00176537  1.0
  C  C37  1  0.70581293  0.00177186  0.79064211  1.0
  C  C38  1  0.50177928  0.20580630  0.79065439  1.0
  C  C39  1  0.70581820  0.00179739  0.00174933  1.0
  C  C40  1  0.50178381  0.79063013  0.20580556  1.0
  C  C41  1  0.29063834  0.00179275  0.00176957  1.0
  C  C42  1  0.29063445  0.20580673  0.00178172  1.0
  C  C43  1  0.50178994  0.00178246  0.79062527  1.0
  C  C44  1  0.70582223  0.79065254  0.00177542  1.0
  C  C45  1  0.50179392  0.00176974  0.20578851  1.0
  C  C46  1  0.50116787  0.27531528  0.00119162  1.0
  C  C47  1  0.55701112  0.30777167  0.94441489  1.0
  C  C48  1  0.55535959  0.37224456  0.94477448  1.0
  C  C49  1  0.49984293  0.40715403  0.99984235  1.0
  C  C50  1  0.44479299  0.37223422  0.05538858  1.0
  C  C51  1  0.44442068  0.30776068  0.05705443  1.0
  C  C52  1  0.49960937  0.47225136  0.99959146  1.0
  C  C53  1  0.49962403  0.52854813  0.99959405  1.0
  C  C54  1  0.49987845  0.59314489  0.99985176  1.0
  C  C55  1  0.55541646  0.62757624  0.94480225  1.0
  C  C56  1  0.55707763  0.69075362  0.94443647  1.0
  C  C57  1  0.50122032  0.72229565  0.00119653  1.0
  C  C58  1  0.44445818  0.69075981  0.05705055  1.0
  C  C59  1  0.44482476  0.62757959  0.05538864  1.0
  C  C60  1  0.77531640  0.00117929  0.72232218  1.0
  C  C61  1  0.80777300  0.05701926  0.69080381  1.0
  C  C62  1  0.87224506  0.05536490  0.62762329  1.0
  C  C63  1  0.90714975  0.99985068  0.59316117  1.0
  C  C64  1  0.87222874  0.94480011  0.62758416  1.0
  C  C65  1  0.80775739  0.94442996  0.69076243  1.0
  C  C66  1  0.97224945  0.99961490  0.52854984  1.0
  C  C67  1  0.02854850  0.99962617  0.47223842  1.0
  C  C68  1  0.09314540  0.99987984  0.40712698  1.0
  C  C69  1  0.12757658  0.05541737  0.37220783  1.0
  C  C70  1  0.19075552  0.05707644  0.30773288  1.0
  C  C71  1  0.22229777  0.00121724  0.27528548  1.0
  C  C72  1  0.19075225  0.94446252  0.30773393  1.0
  C  C73  1  0.12757316  0.94482853  0.37220943  1.0
  C  C74  1  0.50122247  0.00119330  0.27527438  1.0
  C  C75  1  0.44445333  0.05703810  0.30773544  1.0
  C  C76  1  0.44482696  0.05538624  0.37220310  1.0
  C  C77  1  0.49990027  0.99986644  0.40709733  1.0
  C  C78  1  0.55543513  0.94481434  0.37217642  1.0
  C  C79  1  0.55708864  0.94444214  0.30770985  1.0
  C  C80  1  0.49966803  0.99962095  0.47218845  1.0
  C  C81  1  0.49965671  0.99963615  0.52849801  1.0
  C  C82  1  0.49989068  0.99988370  0.59311276  1.0
  C  C83  1  0.44484006  0.05542219  0.62754710  1.0
  C  C84  1  0.44446995  0.05707882  0.69072938  1.0
  C  C85  1  0.50122235  0.00121975  0.72227886  1.0
  C  C86  1  0.55707363  0.94445585  0.69074056  1.0
  C  C87  1  0.55541677  0.94482344  0.62756228  1.0
  C  C88  1  0.77533557  0.72235307  0.00117084  1.0
  C  C89  1  0.80780363  0.69083740  0.94438649  1.0
  C  C90  1  0.87228056  0.62766880  0.94474492  1.0
  C  C91  1  0.90717884  0.59319107  0.99983059  1.0
  C  C92  1  0.87225393  0.62763056  0.05537260  1.0
  C  C93  1  0.80777816  0.69080125  0.05703447  1.0
  C  C94  1  0.97225282  0.52857123  0.99960289  1.0
  C  C95  1  0.02855407  0.47224785  0.99961257  1.0
  C  C96  1  0.09315616  0.40714868  0.99985560  1.0
  C  C97  1  0.12759018  0.37223767  0.94479391  1.0
  C  C98  1  0.19076231  0.30776045  0.94443501  1.0
  C  C99  1  0.22230488  0.27530485  0.00119933  1.0
  C  C100  1  0.19076237  0.30775261  0.05705582  1.0
  C  C101  1  0.12759160  0.37222841  0.05539444  1.0
  C  C102  1  0.50118454  0.27531199  0.72233823  1.0
  C  C103  1  0.44441292  0.30777679  0.69080414  1.0
  C  C104  1  0.44478548  0.37224439  0.62762328  1.0
  C  C105  1  0.49986413  0.40714200  0.59316900  1.0
  C  C106  1  0.55540132  0.37221662  0.62760687  1.0
  C  C107  1  0.55705334  0.30774485  0.69078881  1.0
  C  C108  1  0.49962092  0.47223645  0.52855681  1.0
  C  C109  1  0.49960947  0.52854247  0.47224531  1.0
  C  C110  1  0.49985968  0.59313809  0.40713638  1.0
  C  C111  1  0.44481336  0.62757042  0.37220861  1.0
  C  C112  1  0.44445143  0.69074636  0.30773674  1.0
  C  C113  1  0.50120875  0.72229205  0.27529398  1.0
  C  C114  1  0.55706089  0.69074813  0.30774687  1.0
  C  C115  1  0.55539680  0.62757493  0.37221879  1.0
  C  C116  1  0.77532152  0.00122007  0.00114107  1.0
  C  C117  1  0.80779358  0.94445613  0.05698104  1.0
  C  C118  1  0.87226077  0.94483479  0.05531099  1.0
  C  C119  1  0.90715520  0.99991523  0.99978135  1.0
  C  C120  1  0.87221760  0.05544130  0.94473601  1.0
  C  C121  1  0.80775032  0.05708687  0.94438180  1.0
  C  C122  1  0.97223624  0.99969006  0.99953980  1.0
  C  C123  1  0.02854158  0.99968704  0.99956056  1.0
  C  C124  1  0.09313946  0.99992475  0.99982708  1.0
  C  C125  1  0.12756172  0.94486751  0.05537022  1.0
  C  C126  1  0.19074961  0.94448414  0.05703756  1.0
  C  C127  1  0.22230381  0.00123564  0.00118294  1.0
  C  C128  1  0.19077347  0.05709052  0.94441740  1.0
  C  C129  1  0.12759437  0.05544360  0.94477431  1.0
  O  O130  1  0.55421455  0.17895569  0.94915647  1.0
  O  O131  1  0.31767883  0.94914582  0.17894923  1.0
  O  O132  1  0.44915293  0.81767036  0.05421550  1.0
  O  O133  1  0.67895051  0.05422333  0.81768085  1.0
  O  O134  1  0.44914504  0.17895503  0.81767885  1.0
  O  O135  1  0.67897625  0.94915984  0.05420422  1.0
  O  O136  1  0.55423359  0.81766650  0.17895536  1.0
  O  O137  1  0.31767426  0.05423968  0.94913477  1.0
  O  O138  1  0.31767576  0.17894605  0.05422947  1.0
  O  O139  1  0.55423365  0.94914496  0.81766526  1.0
  O  O140  1  0.67896723  0.81767551  0.94914721  1.0
  O  O141  1  0.44915583  0.05420797  0.17894089  1.0
  O  O142  1  0.44914413  0.05422844  0.81766693  1.0
  O  O143  1  0.67896541  0.81767876  0.05423280  1.0
  O  O144  1  0.55425015  0.94913576  0.17893752  1.0
  O  O145  1  0.31766767  0.17896154  0.94914103  1.0
  O  O146  1  0.55422885  0.17894842  0.81768748  1.0
  O  O147  1  0.31767825  0.94914951  0.05421234  1.0
  O  O148  1  0.44914790  0.81766660  0.17895692  1.0
  O  O149  1  0.67895513  0.05424859  0.94912326  1.0
  O  O150  1  0.67896871  0.94913585  0.81766772  1.0
  O  O151  1  0.44912905  0.17894256  0.05423572  1.0
  O  O152  1  0.31768608  0.05422549  0.17894709  1.0
  O  O153  1  0.55424453  0.81767388  0.94913512  1.0
  O  O154  1  0.63811123  0.95396291  0.95396389  1.0
  O  O155  1  0.45397966  0.95396174  0.95395220  1.0
  O  O156  1  0.45398699  0.95394141  0.13808564  1.0
  O  O157  1  0.45396461  0.13808586  0.95396186  1.0
  O  O158  1  0.39825678  0.03388887  0.03389273  1.0
  O  O159  1  0.53393992  0.03389143  0.03391812  1.0
  O  O160  1  0.53393292  0.89826463  0.03389354  1.0
  O  O161  1  0.53390812  0.03390831  0.89826766  1.0
  F  F162  1  0.39043080  0.40400298  0.10907206  1.0
  F  F163  1  0.60902833  0.40402577  0.89038412  1.0
  F  F164  1  0.39043675  0.59650835  0.10906559  1.0
  F  F165  1  0.60908804  0.59649991  0.89043027  1.0
  F  F166  1  0.90399607  0.89043825  0.59649850  1.0
  F  F167  1  0.90402602  0.10903151  0.59656998  1.0
  F  F168  1  0.09649952  0.89044277  0.40399027  1.0
  F  F169  1  0.09650030  0.10909186  0.40398255  1.0
  F  F170  1  0.60911696  0.89044675  0.40395169  1.0
  F  F171  1  0.39044110  0.10905315  0.40398974  1.0
  F  F172  1  0.60909173  0.89044557  0.59648908  1.0
  F  F173  1  0.39046954  0.10910564  0.59646772  1.0
  F  F174  1  0.90400589  0.59654482  0.10906376  1.0
  F  F175  1  0.90406458  0.59662023  0.89034634  1.0
  F  F176  1  0.09651893  0.40400225  0.10906544  1.0
  F  F177  1  0.09651951  0.40401585  0.89041591  1.0
  F  F178  1  0.60908353  0.40397608  0.59653186  1.0
  F  F179  1  0.39039624  0.40403176  0.59655725  1.0
  F  F180  1  0.60906705  0.59650241  0.40400102  1.0
  F  F181  1  0.39043723  0.59649361  0.40398172  1.0
  F  F182  1  0.90397360  0.10913294  0.89036286  1.0
  F  F183  1  0.90405552  0.89045099  0.10897370  1.0
  F  F184  1  0.09653291  0.10911391  0.89038635  1.0
  F  F185  1  0.09648479  0.89048484  0.10904811  1.0
