# generated using pymatgen
data_ZnH15C19N5O4
_symmetry_space_group_name_H-M   'P 1'
_cell_length_a   11.08238183
_cell_length_b   15.95617828
_cell_length_c   17.29496276
_cell_angle_alpha   83.74957196
_cell_angle_beta   89.39675894
_cell_angle_gamma   86.69338897
_symmetry_Int_Tables_number   1
_chemical_formula_structural   ZnH15C19N5O4
_chemical_formula_sum   'Zn2 H30 C38 N10 O8'
_cell_volume   3035.04164197
_cell_formula_units_Z   2
loop_
 _symmetry_equiv_pos_site_id
 _symmetry_equiv_pos_as_xyz
  1  'x, y, z'
loop_
 _atom_site_type_symbol
 _atom_site_label
 _atom_site_symmetry_multiplicity
 _atom_site_fract_x
 _atom_site_fract_y
 _atom_site_fract_z
 _atom_site_occupancy
  Zn  Zn0  1  0.50554037  0.40959544  0.49558152  1.0
  Zn  Zn1  1  0.49616420  0.58910883  0.49275494  1.0
  H  H2  1  0.62345816  0.71308505  0.56063141  1.0
  H  H3  1  0.62613692  0.87079231  0.56220670  1.0
  H  H4  1  0.31703885  0.89534236  0.41023642  1.0
  H  H5  1  0.67136141  0.10277060  0.59146264  1.0
  H  H6  1  0.37419066  0.12678154  0.43012154  1.0
  H  H7  1  0.38174569  0.28494723  0.42700828  1.0
  H  H8  1  0.49135543  0.61973924  0.73351944  1.0
  H  H9  1  0.49286991  0.61636740  0.87916503  1.0
  H  H10  1  0.50579894  0.34537867  0.89844617  1.0
  H  H11  1  0.48621224  0.65897215  0.09031961  1.0
  H  H12  1  0.50750654  0.38791307  0.11006605  1.0
  H  H13  1  0.50989343  0.38493868  0.25564066  1.0
  H  H14  1  0.22309353  0.59979918  0.60051956  1.0
  H  H15  1  0.77570954  0.60153680  0.61174096  1.0
  H  H16  1  0.88989304  0.40164195  0.43316831  1.0
  H  H17  1  0.11585400  0.39718746  0.42997184  1.0
  H  H18  1  0.29092086  0.66439696  0.42796290  1.0
  H  H19  1  0.23344865  0.76238099  0.38493724  1.0
  H  H20  1  0.70443711  0.33277334  0.56914426  1.0
  H  H21  1  0.75482179  0.23516366  0.61734745  1.0
  H  H22  1  0.50082240  0.33417218  0.68884797  1.0
  H  H23  1  0.49527735  0.27708287  0.78177299  1.0
  H  H24  1  0.49409064  0.67107748  0.29945704  1.0
  H  H25  1  0.49561244  0.72772971  0.20633210  1.0
  H  H26  1  0.10426353  0.77073701  0.68909509  1.0
  H  H27  1  0.22856841  0.69450157  0.69194321  1.0
  H  H28  1  0.11262272  0.68584371  0.76371141  1.0
  H  H29  1  0.89246057  0.68722892  0.76981654  1.0
  H  H30  1  0.76615120  0.69256477  0.70667771  1.0
  H  H31  1  0.87494915  0.77100362  0.69453927  1.0
  C  C32  1  0.49501998  0.49366135  0.64712659  1.0
  C  C33  1  0.73890711  0.50146953  0.50451279  1.0
  C  C34  1  0.50372097  0.51121506  0.34197231  1.0
  C  C35  1  0.26287388  0.49122574  0.49615720  1.0
  C  C36  1  0.55676491  0.75624125  0.52889470  1.0
  C  C37  1  0.55891926  0.84246979  0.52962363  1.0
  C  C38  1  0.47044754  0.89307412  0.48523839  1.0
  C  C39  1  0.38525022  0.85574081  0.44415352  1.0
  C  C40  1  0.38656964  0.76656961  0.44832364  1.0
  C  C41  1  0.60629168  0.14228242  0.55484930  1.0
  C  C42  1  0.52331089  0.10481579  0.51219879  1.0
  C  C43  1  0.43943010  0.15535734  0.46402685  1.0
  C  C44  1  0.44432192  0.24170059  0.46218841  1.0
  C  C45  1  0.60759369  0.23145143  0.54837888  1.0
  C  C46  1  0.49815929  0.48556240  0.73325046  1.0
  C  C47  1  0.49494198  0.55998820  0.77081032  1.0
  C  C48  1  0.49546030  0.55879039  0.85073692  1.0
  C  C49  1  0.49886871  0.47964535  0.89630146  1.0
  C  C50  1  0.50252572  0.40516464  0.86106267  1.0
  C  C51  1  0.50308813  0.40567772  0.77939838  1.0
  C  C52  1  0.49150575  0.59924920  0.12779425  1.0
  C  C53  1  0.49712805  0.52465567  0.09265725  1.0
  C  C54  1  0.50323036  0.44560988  0.13836613  1.0
  C  C55  1  0.50428371  0.44463599  0.21829765  1.0
  C  C56  1  0.49925234  0.51913034  0.25575381  1.0
  C  C57  1  0.49163590  0.59892032  0.20942986  1.0
  C  C58  1  0.12832503  0.49405746  0.50526753  1.0
  C  C59  1  0.06517935  0.54953663  0.55362310  1.0
  C  C60  1  0.06544815  0.44032982  0.46478401  1.0
  C  C61  1  0.12472869  0.60067716  0.60190262  1.0
  C  C62  1  0.06265170  0.65069547  0.65124859  1.0
  C  C63  1  0.87380483  0.49803444  0.51013989  1.0
  C  C64  1  0.93873039  0.44248036  0.46689554  1.0
  C  C65  1  0.93541357  0.55085819  0.55649322  1.0
  C  C66  1  0.87384652  0.60200773  0.60822271  1.0
  C  C67  1  0.93356136  0.65099119  0.65483172  1.0
  C  C68  1  0.13076886  0.70301099  0.70144220  1.0
  C  C69  1  0.86300894  0.70300558  0.70913793  1.0
  N  N70  1  0.47426635  0.71847639  0.48922742  1.0
  N  N71  1  0.46003592  0.98264731  0.47810632  1.0
  N  N72  1  0.53255523  0.01517090  0.52051623  1.0
  N  N73  1  0.52500537  0.27970499  0.50312043  1.0
  N  N74  1  0.49920140  0.46810720  0.97861352  1.0
  N  N75  1  0.49645597  0.53609250  0.01036849  1.0
  N  N76  1  0.30317512  0.72718030  0.41119957  1.0
  N  N77  1  0.68890600  0.27071395  0.58734298  1.0
  N  N78  1  0.51079784  0.33088553  0.74761028  1.0
  N  N79  1  0.48160683  0.67394148  0.24094231  1.0
  O  O80  1  0.49659520  0.42593219  0.61301628  1.0
  O  O81  1  0.49056514  0.56802290  0.61094072  1.0
  O  O82  1  0.68223981  0.57323531  0.49789317  1.0
  O  O83  1  0.68987821  0.43069370  0.50448965  1.0
  O  O84  1  0.50451745  0.57931002  0.37548120  1.0
  O  O85  1  0.50703546  0.43711148  0.37851105  1.0
  O  O86  1  0.31787216  0.41920606  0.49683182  1.0
  O  O87  1  0.31355531  0.56183603  0.48720932  1.0
