# generated using pymatgen
data_MgH7C11SN2O3
_symmetry_space_group_name_H-M   'P 1'
_cell_length_a   6.80267332
_cell_length_b   35.91887537
_cell_length_c   35.92346996
_cell_angle_alpha   119.62097475
_cell_angle_beta   93.58012732
_cell_angle_gamma   93.63295108
_symmetry_Int_Tables_number   1
_chemical_formula_structural   MgH7C11SN2O3
_chemical_formula_sum   'Mg6 H42 C66 S6 N12 O18'
_cell_volume   7570.63705790
_cell_formula_units_Z   6
loop_
 _symmetry_equiv_pos_site_id
 _symmetry_equiv_pos_as_xyz
  1  'x, y, z'
loop_
 _atom_site_type_symbol
 _atom_site_label
 _atom_site_symmetry_multiplicity
 _atom_site_fract_x
 _atom_site_fract_y
 _atom_site_fract_z
 _atom_site_occupancy
  Mg  Mg0  1  0.99595227  0.69568693  0.33268014  1.0
  Mg  Mg1  1  0.30017377  0.63694204  0.30431951  1.0
  Mg  Mg2  1  0.66301891  0.66734132  0.36304195  1.0
  Mg  Mg3  1  0.30218179  0.30600498  0.67023742  1.0
  Mg  Mg4  1  0.99622175  0.36435782  0.69406446  1.0
  Mg  Mg5  1  0.63209794  0.32981021  0.63571074  1.0
  H  H6  1  0.44447375  0.60270061  0.07295707  1.0
  H  H7  1  0.84158085  0.47035492  0.39728444  1.0
  H  H8  1  0.37176886  0.92679144  0.52954733  1.0
  H  H9  1  0.92646809  0.56913574  0.04133965  1.0
  H  H10  1  0.35731721  0.47217519  0.43096126  1.0
  H  H11  1  0.88623551  0.95876486  0.52796996  1.0
  H  H12  1  0.78375414  0.50123099  0.97635915  1.0
  H  H13  1  0.28267652  0.47499188  0.49883160  1.0
  H  H14  1  0.80865816  0.02373988  0.52500055  1.0
  H  H15  1  0.84123464  0.42192722  0.92949528  1.0
  H  H16  1  0.41949203  0.50740037  0.57805261  1.0
  H  H17  1  0.91282919  0.07041860  0.49241959  1.0
  H  H18  1  0.25652541  0.45894025  0.90433176  1.0
  H  H19  1  0.79804475  0.44529969  0.54105751  1.0
  H  H20  1  0.35320251  0.09569927  0.55454197  1.0
  H  H21  1  0.04557281  0.37731862  0.79592261  1.0
  H  H22  1  0.66882551  0.41869154  0.62277941  1.0
  H  H23  1  0.25022546  0.20410788  0.58126299  1.0
  H  H24  1  0.75965327  0.42839284  0.81641874  1.0
  H  H25  1  0.33194897  0.38811980  0.57167860  1.0
  H  H26  1  0.94366526  0.18361808  0.61185792  1.0
  H  H27  1  0.57358745  0.45195005  0.88046619  1.0
  H  H28  1  0.12240598  0.42855833  0.54808561  1.0
  H  H29  1  0.69374188  0.11955317  0.57139018  1.0
  H  H30  1  0.36042933  0.45550197  0.95989209  1.0
  H  H31  1  0.90507041  0.50423541  0.54438126  1.0
  H  H32  1  0.40168528  0.03999127  0.49555944  1.0
  H  H33  1  0.50271294  0.52342444  0.02470606  1.0
  H  H34  1  0.97933710  0.50126699  0.47652498  1.0
  H  H35  1  0.47890730  0.97513643  0.49859033  1.0
  H  H36  1  0.03224797  0.56200212  0.09512191  1.0
  H  H37  1  0.46943651  0.53310653  0.43801366  1.0
  H  H38  1  0.93719543  0.90489907  0.46683725  1.0
  H  H39  1  0.25288012  0.63457223  0.20608660  1.0
  H  H40  1  0.61779300  0.57159487  0.36548985  1.0
  H  H41  1  0.04622117  0.79390353  0.42849086  1.0
  H  H42  1  0.53710912  0.58341091  0.18252112  1.0
  H  H43  1  0.95292835  0.59904077  0.41661351  1.0
  H  H44  1  0.35434991  0.81756554  0.40089855  1.0
  H  H45  1  0.72199692  0.56630878  0.11934375  1.0
  H  H46  1  0.15483760  0.55301177  0.43372238  1.0
  H  H47  1  0.60234323  0.88073528  0.44689434  1.0
  C  C48  1  0.25672962  0.61008097  0.11618927  1.0
  C  C49  1  0.64622563  0.50615637  0.38997781  1.0
  C  C50  1  0.14018215  0.88374819  0.49383281  1.0
  C  C51  1  0.22510234  0.55082539  0.03802644  1.0
  C  C52  1  0.67422834  0.48719216  0.44919052  1.0
  C  C53  1  0.18790118  0.96190298  0.51274466  1.0
  C  C54  1  0.02102359  0.54380797  0.02421925  1.0
  C  C55  1  0.47726002  0.48035011  0.45624484  1.0
  C  C56  1  0.99784207  0.97581121  0.51965717  1.0
  C  C57  1  0.94113806  0.50581559  0.98747388  1.0
  C  C58  1  0.43544890  0.48151123  0.49420438  1.0
  C  C59  1  0.95482007  0.01257773  0.51843622  1.0
  C  C60  1  0.06138031  0.47371463  0.96316379  1.0
  C  C61  1  0.58784705  0.48927837  0.52624464  1.0
  C  C62  1  0.09938273  0.03680603  0.51054729  1.0
  C  C63  1  0.03706982  0.41047018  0.88686895  1.0
  C  C64  1  0.62699997  0.47633247  0.58953807  1.0
  C  C65  1  0.15095728  0.11310602  0.52357457  1.0
  C  C66  1  0.29658438  0.41560641  0.84210420  1.0
  C  C67  1  0.88174975  0.42658069  0.58447933  1.0
  C  C68  1  0.45513207  0.15791797  0.57340215  1.0
  C  C69  1  0.20197054  0.38858234  0.80086269  1.0
  C  C70  1  0.81399845  0.41237975  0.61152174  1.0
  C  C71  1  0.40165040  0.19916450  0.58759989  1.0
  C  C72  1  0.30564949  0.37503207  0.76440390  1.0
  C  C73  1  0.93115003  0.38950010  0.62508206  1.0
  C  C74  1  0.54165144  0.23563350  0.61051485  1.0
  C  C75  1  0.51218983  0.38963789  0.77036823  1.0
  C  C76  1  0.12312049  0.38085658  0.61046263  1.0
  C  C77  1  0.74216867  0.22967453  0.61917542  1.0
  C  C78  1  0.60254444  0.41769812  0.81255817  1.0
  C  C79  1  0.18552127  0.39497183  0.58239437  1.0
  C  C80  1  0.79047013  0.18747836  0.60504057  1.0
  C  C81  1  0.49874276  0.43088333  0.84809578  1.0
  C  C82  1  0.06863037  0.41728257  0.56918165  1.0
  C  C83  1  0.65122523  0.15193430  0.58268744  1.0
  C  C84  1  0.63484380  0.37689440  0.73450264  1.0
  C  C85  1  0.25837636  0.35773920  0.62320580  1.0
  C  C86  1  0.90060854  0.26554313  0.64231346  1.0
  C  C87  1  0.26561632  0.48081194  0.97687204  1.0
  C  C88  1  0.78493233  0.49591552  0.51910527  1.0
  C  C89  1  0.28986151  0.02304641  0.50390081  1.0
  C  C90  1  0.34534741  0.51882115  0.01361962  1.0
  C  C91  1  0.82660103  0.49472283  0.48112534  1.0
  C  C92  1  0.33270258  0.98627473  0.50513736  1.0
  C  C93  1  0.00018692  0.59977236  0.15892070  1.0
  C  C94  1  0.39973862  0.55913480  0.40025339  1.0
  C  C95  1  0.84082335  0.84111992  0.44086383  1.0
  C  C96  1  0.09621403  0.62328173  0.20052683  1.0
  C  C97  1  0.47237231  0.57726236  0.37676195  1.0
  C  C98  1  0.89519204  0.79949456  0.42277508  1.0
  C  C99  1  0.99305171  0.63325290  0.23653505  1.0
  C  C100  1  0.35919272  0.60326679  0.36677445  1.0
  C  C101  1  0.75606828  0.76349310  0.39675791  1.0
  C  C102  1  0.78608582  0.61862577  0.22965452  1.0
  C  C103  1  0.16679298  0.61097631  0.38137693  1.0
  C  C104  1  0.55604361  0.77038508  0.38901351  1.0
  C  C105  1  0.69453567  0.59411984  0.18704227  1.0
  C  C106  1  0.09969240  0.59287581  0.40589613  1.0
  C  C107  1  0.50717379  0.81302031  0.40709217  1.0
  C  C108  1  0.79761666  0.58447645  0.15199718  1.0
  C  C109  1  0.21237842  0.56749280  0.41554635  1.0
  C  C110  1  0.64526966  0.84806817  0.43248247  1.0
  C  C111  1  0.66345959  0.62796275  0.26495829  1.0
  C  C112  1  0.03493872  0.63693142  0.37202810  1.0
  C  C113  1  0.39820346  0.73508036  0.36305633  1.0
  S  S114  1  0.38643129  0.65608168  0.15240750  1.0
  S  S115  1  0.72992598  0.49637069  0.34396709  1.0
  S  S116  1  0.23282065  0.84750337  0.50367346  1.0
  S  S117  1  0.91491983  0.36240499  0.85386131  1.0
  S  S118  1  0.55287176  0.49145177  0.63761810  1.0
  S  S119  1  0.06125990  0.14607830  0.50855733  1.0
  N  N120  1  0.31221834  0.58909337  0.07460806  1.0
  N  N121  1  0.72296645  0.48559280  0.41095198  1.0
  N  N122  1  0.23804093  0.92525381  0.51433017  1.0
  N  N123  1  0.97287807  0.43523385  0.92716590  1.0
  N  N124  1  0.53778213  0.49175113  0.56472381  1.0
  N  N125  1  0.04680936  0.07277735  0.50803188  1.0
  N  N126  1  0.19603680  0.43004873  0.87917845  1.0
  N  N127  1  0.76663721  0.44912617  0.56999021  1.0
  N  N128  1  0.31766897  0.12082978  0.55079819  1.0
  N  N129  1  0.09818115  0.58886122  0.12203016  1.0
  N  N130  1  0.50863899  0.53317527  0.41116870  1.0
  N  N131  1  0.97583129  0.87798352  0.46682073  1.0
  O  O132  1  0.48236624  0.61246121  0.25741598  1.0
  O  O133  1  0.86919720  0.64486205  0.38749732  1.0
  O  O134  1  0.22469981  0.74263304  0.35511682  1.0
  O  O135  1  0.74323308  0.65303331  0.30420064  1.0
  O  O136  1  0.08991282  0.65112752  0.34698580  1.0
  O  O137  1  0.43884025  0.69582363  0.34885553  1.0
  O  O138  1  0.09616521  0.65579062  0.27559028  1.0
  O  O139  1  0.43988763  0.61977613  0.34422415  1.0
  O  O140  1  0.82016733  0.72442370  0.38023475  1.0
  O  O141  1  0.81562406  0.39225797  0.74087624  1.0
  O  O142  1  0.42378100  0.34871753  0.60780864  1.0
  O  O143  1  0.07493298  0.25917500  0.65131637  1.0
  O  O144  1  0.55522510  0.34899472  0.69595731  1.0
  O  O145  1  0.20650829  0.34711789  0.65111805  1.0
  O  O146  1  0.85941413  0.30408991  0.65295945  1.0
  O  O147  1  0.20273687  0.34929789  0.72579497  1.0
  O  O148  1  0.85377702  0.37660938  0.65079882  1.0
  O  O149  1  0.47723567  0.27424839  0.62342857  1.0
