# generated using pymatgen
data_Zn2H24C34N2O17
_symmetry_space_group_name_H-M   'P 1'
_cell_length_a   9.88238924
_cell_length_b   10.88141068
_cell_length_c   15.98645080
_cell_angle_alpha   91.97249776
_cell_angle_beta   93.54593184
_cell_angle_gamma   91.80874331
_symmetry_Int_Tables_number   1
_chemical_formula_structural   Zn2H24C34N2O17
_chemical_formula_sum   'Zn2 H24 C34 N2 O17'
_cell_volume   1713.80610577
_cell_formula_units_Z   1
loop_
 _symmetry_equiv_pos_site_id
 _symmetry_equiv_pos_as_xyz
  1  'x, y, z'
loop_
 _atom_site_type_symbol
 _atom_site_label
 _atom_site_symmetry_multiplicity
 _atom_site_fract_x
 _atom_site_fract_y
 _atom_site_fract_z
 _atom_site_occupancy
  Zn  Zn0  1  0.35869744  0.49537635  0.50215928  1.0
  Zn  Zn1  1  0.65929355  0.50792603  0.49668405  1.0
  H  H2  1  0.42374304  0.31015865  0.90558015  1.0
  H  H3  1  0.23668887  0.90554097  0.73959216  1.0
  H  H4  1  0.35575987  0.78487797  0.63626176  1.0
  H  H5  1  0.69052753  0.79349852  0.43275253  1.0
  H  H6  1  0.95203675  0.66020749  0.64815196  1.0
  H  H7  1  0.79712086  0.31623018  0.19721250  1.0
  H  H8  1  0.05458024  0.18628889  0.21453528  1.0
  H  H9  1  0.23967564  0.30444452  0.40028093  1.0
  H  H10  1  0.24327890  0.56002808  0.64199289  1.0
  H  H11  1  0.69337059  0.54596158  0.09461182  1.0
  H  H12  1  0.65998305  0.28756009  0.07163085  1.0
  H  H13  1  0.54242373  0.69379379  0.95158547  1.0
  H  H14  1  0.67737409  0.37410083  0.94590626  1.0
  H  H15  1  0.72755590  0.53135473  0.95185956  1.0
  H  H16  1  0.27999941  0.70727777  0.05890357  1.0
  H  H17  1  0.50980414  0.69915618  0.15688058  1.0
  H  H18  1  0.37022172  0.64616050  0.92639506  1.0
  H  H19  1  0.68424562  0.11537890  0.43118186  1.0
  H  H20  1  0.45479245  0.28961911  0.05019433  1.0
  H  H21  1  0.75546763  0.41197516  0.34020904  1.0
  H  H22  1  0.26099494  0.36990317  0.11649640  1.0
  H  H23  1  0.30182775  0.42465957  0.91785985  1.0
  H  H24  1  0.38224898  0.24214554  0.63774535  1.0
  H  H25  1  0.24873614  0.13594312  0.74088442  1.0
  C  C26  1  0.53597613  0.27119019  0.51316135  1.0
  C  C27  1  0.30207194  0.08265849  0.69498226  1.0
  C  C28  1  0.29527955  0.95299283  0.69401033  1.0
  C  C29  1  0.46323362  0.48976107  0.33914828  1.0
  C  C30  1  0.36251528  0.88466241  0.63618726  1.0
  C  C31  1  0.44197594  0.94226047  0.57653855  1.0
  C  C32  1  0.44832170  0.07452485  0.57781346  1.0
  C  C33  1  0.53337485  0.13460775  0.52124197  1.0
  C  C34  1  0.61558758  0.06863369  0.47144909  1.0
  C  C35  1  0.61233671  0.93863598  0.47072270  1.0
  C  C36  1  0.52092323  0.87431818  0.51902311  1.0
  C  C37  1  0.40268505  0.39558721  0.94030533  1.0
  C  C38  1  0.86161245  0.39040338  0.35272143  1.0
  C  C39  1  0.92695579  0.31679316  0.29695504  1.0
  C  C40  1  0.06355865  0.28296682  0.31537844  1.0
  C  C41  1  0.51007360  0.73883743  0.50777552  1.0
  C  C42  1  0.13545527  0.33027257  0.38659816  1.0
  C  C43  1  0.07368777  0.41288179  0.44080761  1.0
  C  C44  1  0.93322621  0.43859762  0.42630468  1.0
  C  C45  1  0.94437510  0.56088165  0.54864872  1.0
  C  C46  1  0.08641406  0.53902351  0.56166520  1.0
  C  C47  1  0.50500686  0.51488349  0.66740814  1.0
  C  C48  1  0.51049090  0.49687775  0.92318209  1.0
  C  C49  1  0.40079308  0.37461705  0.03482008  1.0
  C  C50  1  0.63593201  0.46715307  0.06422512  1.0
  C  C51  1  0.64772404  0.46561873  0.96827481  1.0
  C  C52  1  0.51794635  0.51467115  0.75777932  1.0
  C  C53  1  0.48361297  0.48134018  0.08406537  1.0
  C  C54  1  0.46517217  0.62128817  0.95992959  1.0
  C  C55  1  0.44152334  0.61153784  0.05394006  1.0
  C  C56  1  0.52000635  0.50648415  0.83345286  1.0
  C  C57  1  0.46875665  0.47745798  0.17319553  1.0
  C  C58  1  0.45803060  0.48285420  0.24847666  1.0
  C  C59  1  0.37677840  0.14198529  0.63738832  1.0
  N  N60  1  0.87046635  0.51139925  0.48400531  1.0
  N  N61  1  0.14884984  0.46993938  0.50770127  1.0
  O  O62  1  0.42150440  0.32049370  0.50017527  1.0
  O  O63  1  0.69786069  0.88320556  0.42000552  1.0
  O  O64  1  0.88385551  0.63365246  0.60354103  1.0
  O  O65  1  0.87081184  0.26764022  0.22255492  1.0
  O  O66  1  0.12282934  0.20632010  0.26051849  1.0
  O  O67  1  0.14789704  0.59228595  0.63101319  1.0
  O  O68  1  0.69478516  0.36198156  0.10233958  1.0
  O  O69  1  0.30373820  0.62333248  0.07169363  1.0
  O  O70  1  0.52331158  0.70637082  0.09702407  1.0
  O  O71  1  0.65153564  0.32659236  0.51772018  1.0
  O  O72  1  0.35579157  0.51479269  0.37480267  1.0
  O  O73  1  0.57867222  0.46959402  0.37462698  1.0
  O  O74  1  0.40128932  0.68042998  0.52179038  1.0
  O  O75  1  0.61603685  0.68551767  0.48084484  1.0
  O  O76  1  0.38247451  0.49663467  0.63484027  1.0
  O  O77  1  0.60941863  0.52910490  0.62722797  1.0
  O  O78  1  0.26415719  0.35907158  0.05571633  1.0
