# generated using pymatgen
data_Al4H19C28O20F3
_symmetry_space_group_name_H-M   'P 1'
_cell_length_a   6.67344905
_cell_length_b   13.15952263
_cell_length_c   16.96404685
_cell_angle_alpha   90.53561912
_cell_angle_beta   89.82176155
_cell_angle_gamma   89.62898776
_symmetry_Int_Tables_number   1
_chemical_formula_structural   Al4H19C28O20F3
_chemical_formula_sum   'Al4 H19 C28 O20 F3'
_cell_volume   1489.66866004
_cell_formula_units_Z   1
loop_
 _symmetry_equiv_pos_site_id
 _symmetry_equiv_pos_as_xyz
  1  'x, y, z'
loop_
 _atom_site_type_symbol
 _atom_site_label
 _atom_site_symmetry_multiplicity
 _atom_site_fract_x
 _atom_site_fract_y
 _atom_site_fract_z
 _atom_site_occupancy
  Al  Al0  1  0.88277996  0.49801453  0.50139328  1.0
  Al  Al1  1  0.38246772  0.50018898  0.50106905  1.0
  Al  Al2  1  0.38205266  0.00964630  0.00528094  1.0
  Al  Al3  1  0.88104740  0.00957048  0.00404558  1.0
  H  H4  1  0.38868232  0.31235788  0.16152531  1.0
  H  H5  1  0.06516546  0.43128228  0.22451506  1.0
  H  H6  1  0.28909536  0.31892901  0.71146507  1.0
  H  H7  1  0.82943623  0.20732107  0.81470119  1.0
  H  H8  1  0.28934434  0.19634622  0.79866187  1.0
  H  H9  1  0.93664494  0.80522572  0.19264412  1.0
  H  H10  1  0.47823629  0.82013302  0.21279133  1.0
  H  H11  1  0.93519530  0.71079560  0.31834266  1.0
  H  H12  1  0.48043956  0.68904749  0.29292508  1.0
  H  H13  1  0.93429649  0.80644101  0.81231617  1.0
  H  H14  1  0.47252730  0.80250609  0.80997665  1.0
  H  H15  1  0.93048939  0.68773648  0.69991199  1.0
  H  H16  1  0.79997191  0.26539639  0.19355466  1.0
  H  H17  1  0.87672213  0.19279894  0.34686520  1.0
  H  H18  1  0.83315835  0.29924889  0.68769386  1.0
  H  H19  1  0.63143750  0.37468441  0.46768257  1.0
  H  H20  1  0.12749065  0.62790723  0.47488505  1.0
  H  H21  1  0.63052363  0.13388311  0.03946591  1.0
  H  H22  1  0.13166578  0.88160187  0.03060634  1.0
  C  C23  1  0.62922630  0.61742191  0.39151112  1.0
  C  C24  1  0.63523655  0.61957711  0.60798516  1.0
  C  C25  1  0.13829704  0.38710788  0.61199366  1.0
  C  C26  1  0.13226172  0.37555407  0.39376002  1.0
  C  C27  1  0.09443864  0.35116118  0.23672811  1.0
  C  C28  1  0.27465494  0.28688736  0.20318383  1.0
  C  C29  1  0.12644357  0.19710888  0.18578398  1.0
  C  C30  1  0.94781898  0.26079840  0.22068027  1.0
  C  C31  1  0.98959680  0.21885481  0.30507419  1.0
  C  C32  1  0.16817449  0.15485398  0.27158247  1.0
  C  C33  1  0.31591012  0.24525039  0.28735774  1.0
  C  C34  1  0.13764406  0.30920393  0.32240668  1.0
  C  C35  1  0.97629309  0.28519256  0.71698045  1.0
  C  C36  1  0.14144175  0.32686938  0.68475272  1.0
  C  C37  1  0.97467301  0.22433826  0.78800843  1.0
  C  C38  1  0.13951448  0.18555234  0.82289846  1.0
  C  C39  1  0.79198017  0.78842257  0.21984388  1.0
  C  C40  1  0.62683159  0.82977179  0.18702531  1.0
  C  C41  1  0.79162879  0.72489882  0.28940931  1.0
  C  C42  1  0.62742022  0.68060116  0.32014618  1.0
  C  C43  1  0.78757545  0.78456815  0.78935255  1.0
  C  C44  1  0.62405829  0.82133888  0.82782171  1.0
  C  C45  1  0.78754493  0.71826227  0.72106654  1.0
  C  C46  1  0.62785497  0.68889619  0.67781522  1.0
  C  C47  1  0.63638210  0.88939389  0.89703687  1.0
  C  C48  1  0.63032536  0.89215458  0.11517042  1.0
  C  C49  1  0.12595349  0.13211934  0.11361916  1.0
  C  C50  1  0.13375074  0.12424737  0.89515881  1.0
  O  O51  1  0.46915997  0.60146257  0.57473706  1.0
  O  O52  1  0.79637673  0.59886504  0.42511509  1.0
  O  O53  1  0.95942301  0.40681290  0.41551221  1.0
  O  O54  1  0.80643409  0.58510153  0.58800545  1.0
  O  O55  1  0.97159419  0.40213527  0.57728988  1.0
  O  O56  1  0.45702400  0.58627894  0.41393130  1.0
  O  O57  1  0.63287547  0.43691597  0.49883431  1.0
  O  O58  1  0.30844105  0.41950172  0.58882634  1.0
  O  O59  1  0.29911116  0.39715386  0.42578192  1.0
  O  O60  1  0.13080130  0.56125713  0.49861650  1.0
  O  O61  1  0.79884713  0.91165748  0.08310944  1.0
  O  O62  1  0.46835054  0.91227096  0.92909989  1.0
  O  O63  1  0.30443602  0.09549615  0.92082988  1.0
  O  O64  1  0.45806579  0.92112673  0.09087723  1.0
  O  O65  1  0.29650904  0.11067572  0.08357626  1.0
  O  O66  1  0.80707434  0.92035237  0.92029271  1.0
  O  O67  1  0.63087472  0.07225192  0.00771491  1.0
  O  O68  1  0.95563398  0.10259115  0.08925115  1.0
  O  O69  1  0.96485959  0.10496315  0.92672306  1.0
  O  O70  1  0.13207919  0.94856423  0.00741160  1.0
  F  F71  1  0.43978030  0.72162397  0.69571027  1.0
  F  F72  1  0.20517833  0.05502788  0.28851932  1.0
  F  F73  1  0.50268613  0.23590922  0.32027289  1.0
