# generated using pymatgen
data_AlH4C8ClO5
_symmetry_space_group_name_H-M   'P 1'
_cell_length_a   6.64599233
_cell_length_b   13.75070181
_cell_length_c   16.18726692
_cell_angle_alpha   90.01264921
_cell_angle_beta   90.47478688
_cell_angle_gamma   90.52136944
_symmetry_Int_Tables_number   1
_chemical_formula_structural   AlH4C8ClO5
_chemical_formula_sum   'Al4 H16 C32 Cl4 O20'
_cell_volume   1479.19461539
_cell_formula_units_Z   4
loop_
 _symmetry_equiv_pos_site_id
 _symmetry_equiv_pos_as_xyz
  1  'x, y, z'
loop_
 _atom_site_type_symbol
 _atom_site_label
 _atom_site_symmetry_multiplicity
 _atom_site_fract_x
 _atom_site_fract_y
 _atom_site_fract_z
 _atom_site_occupancy
  Al  Al0  1  0.99730923  0.00021512  0.50286881  1.0
  Al  Al1  1  0.49673490  0.00320910  0.50048355  1.0
  Al  Al2  1  0.00496166  0.50373905  0.99884993  1.0
  Al  Al3  1  0.50470297  0.50058966  0.99952129  1.0
  H  H4  1  0.25142848  0.87970228  0.53041469  1.0
  H  H5  1  0.75550636  0.12082324  0.46769789  1.0
  H  H6  1  0.26212636  0.62331245  0.03144557  1.0
  H  H7  1  0.75885447  0.38199406  0.03509904  1.0
  H  H8  1  0.03833713  0.73840082  0.83926366  1.0
  H  H9  1  0.45235813  0.62959934  0.76977142  1.0
  H  H10  1  0.02768381  0.85366873  0.71887135  1.0
  H  H11  1  0.55003154  0.35796214  0.23049767  1.0
  H  H12  1  0.96257370  0.26080479  0.15102129  1.0
  H  H13  1  0.53669023  0.23897440  0.34721846  1.0
  H  H14  1  0.94347624  0.34777345  0.77855289  1.0
  H  H15  1  0.53824148  0.26143433  0.85318551  1.0
  H  H16  1  0.95382571  0.22684444  0.66235156  1.0
  H  H17  1  0.05463933  0.65594574  0.22539007  1.0
  H  H18  1  0.46924166  0.74907590  0.14404532  1.0
  H  H19  1  0.03885790  0.77445154  0.34282552  1.0
  C  C20  1  0.74777429  0.89063318  0.38559565  1.0
  C  C21  1  0.73822454  0.88117492  0.60986520  1.0
  C  C22  1  0.24663555  0.11275352  0.61721791  1.0
  C  C23  1  0.24836787  0.11738739  0.38900675  1.0
  C  C24  1  0.76605066  0.62327732  0.10850424  1.0
  C  C25  1  0.74420073  0.61139680  0.88450486  1.0
  C  C26  1  0.24084546  0.38479479  0.89040007  1.0
  C  C27  1  0.26159573  0.38729941  0.11346903  1.0
  C  C28  1  0.73547092  0.80724225  0.67741776  1.0
  C  C29  1  0.74447209  0.67858063  0.81211127  1.0
  C  C30  1  0.57399561  0.74230128  0.69139557  1.0
  C  C31  1  0.90869744  0.74059236  0.79772562  1.0
  C  C32  1  0.57786776  0.67922979  0.75872106  1.0
  C  C33  1  0.90257237  0.80414629  0.73108956  1.0
  C  C34  1  0.24305185  0.18434309  0.31619291  1.0
  C  C35  1  0.25554197  0.31766081  0.18434087  1.0
  C  C36  1  0.08111579  0.19035821  0.25961985  1.0
  C  C37  1  0.41885847  0.31123909  0.23929206  1.0
  C  C38  1  0.08757750  0.25708128  0.19473701  1.0
  C  C39  1  0.41097138  0.24533326  0.30410466  1.0
  C  C40  1  0.25107142  0.17816740  0.69118938  1.0
  C  C41  1  0.24247442  0.31312058  0.82134308  1.0
  C  C42  1  0.41491078  0.18649027  0.74671490  1.0
  C  C43  1  0.07552573  0.30313092  0.76849386  1.0
  C  C44  1  0.41111746  0.25443147  0.81065503  1.0
  C  C45  1  0.08160220  0.23638878  0.70422104  1.0
  C  C46  1  0.74602988  0.82637918  0.31078994  1.0
  C  C47  1  0.76097715  0.69398274  0.17843686  1.0
  C  C48  1  0.58631617  0.82021987  0.25307113  1.0
  C  C49  1  0.92349726  0.70168603  0.23384085  1.0
  C  C50  1  0.59350531  0.75362989  0.18813486  1.0
  C  C51  1  0.91438948  0.76704938  0.29902516  1.0
  Cl  Cl52  1  0.36826778  0.73195287  0.62500865  1.0
  Cl  Cl53  1  0.87316678  0.11397949  0.26398092  1.0
  Cl  Cl54  1  0.62148642  0.11122567  0.74173485  1.0
  Cl  Cl55  1  0.38041744  0.89607339  0.25630039  1.0
  O  O56  1  0.92052797  0.91931714  0.41047446  1.0
  O  O57  1  0.57208584  0.91913355  0.58929213  1.0
  O  O58  1  0.41102936  0.09885742  0.57965563  1.0
  O  O59  1  0.08428436  0.09840539  0.42552350  1.0
  O  O60  1  0.07414976  0.07965466  0.59603202  1.0
  O  O61  1  0.42096052  0.08654728  0.41061406  1.0
  O  O62  1  0.58076444  0.90807952  0.41989650  1.0
  O  O63  1  0.90906035  0.90229202  0.57923514  1.0
  O  O64  1  0.24716011  0.94183332  0.50195325  1.0
  O  O65  1  0.74919006  0.06194663  0.50056834  1.0
  O  O66  1  0.93600580  0.58620486  0.09144653  1.0
  O  O67  1  0.57736988  0.57098544  0.90262167  1.0
  O  O68  1  0.40531841  0.39904601  0.92977636  1.0
  O  O69  1  0.09647154  0.40335985  0.07538879  1.0
  O  O70  1  0.07475050  0.42610949  0.90590867  1.0
  O  O71  1  0.43248068  0.42456339  0.09613021  1.0
  O  O72  1  0.60049099  0.60545531  0.07066698  1.0
  O  O73  1  0.90965767  0.60030277  0.92341355  1.0
  O  O74  1  0.25715337  0.56298413  0.00048154  1.0
  O  O75  1  0.75508439  0.44168233  0.00334474  1.0
