# generated using pymatgen
data_Zn4H11C26O16F3
_symmetry_space_group_name_H-M   'P 1'
_cell_length_a   18.66628406
_cell_length_b   18.66539285
_cell_length_c   22.33216808
_cell_angle_alpha   114.35363434
_cell_angle_beta   114.54668927
_cell_angle_gamma   90.09535418
_symmetry_Int_Tables_number   1
_chemical_formula_structural   Zn4H11C26O16F3
_chemical_formula_sum   'Zn8 H22 C52 O32 F6'
_cell_volume   6305.80554594
_cell_formula_units_Z   2
loop_
 _symmetry_equiv_pos_site_id
 _symmetry_equiv_pos_as_xyz
  1  'x, y, z'
loop_
 _atom_site_type_symbol
 _atom_site_label
 _atom_site_symmetry_multiplicity
 _atom_site_fract_x
 _atom_site_fract_y
 _atom_site_fract_z
 _atom_site_occupancy
  Zn  Zn0  1  0.11561250  0.53380613  0.56275673  1.0
  Zn  Zn1  1  0.53172436  0.94311571  0.56185309  1.0
  Zn  Zn2  1  0.94539218  0.53382414  0.56416535  1.0
  Zn  Zn3  1  0.96905333  0.38078721  0.44258774  1.0
  Zn  Zn4  1  0.38158443  0.96997079  0.44065655  1.0
  Zn  Zn5  1  0.53357810  0.11558793  0.56290669  1.0
  Zn  Zn6  1  0.96666640  0.54930726  0.43393421  1.0
  Zn  Zn7  1  0.55497756  0.97082581  0.43779631  1.0
  H  H8  1  0.69403013  0.16938911  0.44127402  1.0
  H  H9  1  0.79544901  0.70146602  0.58280105  1.0
  H  H10  1  0.68315953  0.77540500  0.56700057  1.0
  H  H11  1  0.25181204  0.17277892  0.45069564  1.0
  H  H12  1  0.16827864  0.24759999  0.48052637  1.0
  H  H13  1  0.33286739  0.66354730  0.04785163  1.0
  H  H14  1  0.66493143  0.32779883  0.04802196  1.0
  H  H15  1  0.15692782  0.71143650  0.44945657  1.0
  H  H16  1  0.14741903  0.77275003  0.04498751  1.0
  H  H17  1  0.77409271  0.14180647  0.04168576  1.0
  H  H18  1  0.16855879  0.83555967  0.95571713  1.0
  H  H19  1  0.83529749  0.16556824  0.95235113  1.0
  H  H20  1  0.68843283  0.29184073  0.58231957  1.0
  H  H21  1  0.28706155  0.68474039  0.57468026  1.0
  H  H22  1  0.71759374  0.41164674  0.59792539  1.0
  H  H23  1  0.40449384  0.72039765  0.59499908  1.0
  H  H24  1  0.73459626  0.87765272  0.46258463  1.0
  H  H25  1  0.79411757  0.65062896  0.39275663  1.0
  H  H26  1  0.41666613  0.74384720  0.98732929  1.0
  H  H27  1  0.74325910  0.41402757  0.98819117  1.0
  H  H28  1  0.80796080  0.24989012  0.47960137  1.0
  H  H29  1  0.24362326  0.81204950  0.47638274  1.0
  C  C30  1  0.90283989  0.39229539  0.30151404  1.0
  C  C31  1  0.64239310  0.13765936  0.77855468  1.0
  C  C32  1  0.19570642  0.31120786  0.50856177  1.0
  C  C33  1  0.29683502  0.70175334  0.02696342  1.0
  C  C34  1  0.70281716  0.29219182  0.02645723  1.0
  C  C35  1  0.14110928  0.64126852  0.77995429  1.0
  C  C36  1  0.36099466  0.85521291  0.22354400  1.0
  C  C37  1  0.86193542  0.35098660  0.22190994  1.0
  C  C38  1  0.30865858  0.73690249  0.97765708  1.0
  C  C39  1  0.73689061  0.30542216  0.97703233  1.0
  C  C40  1  0.40121212  0.89435332  0.30319543  1.0
  C  C41  1  0.21459661  0.71311587  0.92515384  1.0
  C  C42  1  0.71290039  0.21176134  0.92366733  1.0
  C  C43  1  0.29761735  0.82100655  0.02729213  1.0
  C  C44  1  0.82147420  0.29374002  0.02566300  1.0
  C  C45  1  0.28730940  0.78659975  0.07825593  1.0
  C  C46  1  0.78821614  0.28181702  0.07663328  1.0
  C  C47  1  0.20516172  0.79795997  0.97697986  1.0
  C  C48  1  0.79815816  0.20168346  0.97451536  1.0
  C  C49  1  0.19314752  0.76280059  0.02559774  1.0
  C  C50  1  0.76384548  0.18815981  0.02299748  1.0
  C  C51  1  0.17559927  0.67515288  0.84722671  1.0
  C  C52  1  0.67502199  0.17305330  0.84578614  1.0
  C  C53  1  0.10072580  0.60139826  0.70040028  1.0
  C  C54  1  0.60323541  0.09798127  0.69904285  1.0
  C  C55  1  0.32658834  0.82359625  0.15628047  1.0
  C  C56  1  0.20433577  0.67986203  0.97682233  1.0
  C  C57  1  0.82716915  0.31899855  0.15463964  1.0
  C  C58  1  0.70754750  0.27204181  0.53873179  1.0
  C  C59  1  0.26514591  0.71085130  0.53602429  1.0
  C  C60  1  0.68039143  0.19432456  0.48790318  1.0
  C  C61  1  0.18540297  0.69041626  0.49094772  1.0
  C  C62  1  0.68049737  0.20009334  0.97528403  1.0
  C  C63  1  0.75918520  0.33293564  0.54095202  1.0
  C  C64  1  0.32596264  0.76330760  0.53894676  1.0
  C  C65  1  0.80793983  0.31328573  0.50754739  1.0
  C  C66  1  0.30700926  0.81277255  0.50608026  1.0
  C  C67  1  0.71868828  0.77218701  0.53795909  1.0
  C  C68  1  0.77253498  0.71777334  0.53760904  1.0
  C  C69  1  0.70933093  0.82510851  0.50885261  1.0
  C  C70  1  0.79615742  0.67957059  0.48414894  1.0
  C  C71  1  0.13093045  0.63691536  0.49521120  1.0
  C  C72  1  0.62992146  0.13745315  0.49251503  1.0
  C  C73  1  0.86189288  0.36793998  0.50546706  1.0
  C  C74  1  0.36296917  0.86694679  0.50544914  1.0
  C  C75  1  0.85781342  0.62945857  0.49301812  1.0
  C  C76  1  0.64664830  0.87419278  0.50748719  1.0
  C  C77  1  0.13934811  0.36656596  0.50535105  1.0
  C  C78  1  0.36734280  0.14013672  0.49772745  1.0
  C  C79  1  0.33215099  0.27621474  0.54330480  1.0
  C  C80  1  0.27680515  0.33217755  0.54232639  1.0
  C  C81  1  0.31302544  0.19745536  0.49517820  1.0
  O  O82  1  0.99904351  0.49900196  0.50008323  1.0
  O  O83  1  0.33004615  0.89967024  0.46257847  1.0
  O  O84  1  0.89926730  0.33333333  0.46762075  1.0
  O  O85  1  0.92423776  0.46855311  0.32994914  1.0
  O  O86  1  0.47785079  0.90281850  0.33373130  1.0
  O  O87  1  0.02410133  0.58121315  0.66963267  1.0
  O  O88  1  0.59195006  0.02141705  0.66750476  1.0
  O  O89  1  0.49973546  0.99926895  0.49975385  1.0
  O  O90  1  0.91349876  0.34925136  0.33523899  1.0
  O  O91  1  0.35629665  0.91663246  0.33477939  1.0
  O  O92  1  0.14592838  0.59027487  0.66867064  1.0
  O  O93  1  0.58378589  0.14419435  0.66823112  1.0
  O  O94  1  0.05575870  0.62511446  0.45262894  1.0
  O  O95  1  0.60920211  0.06478655  0.44192851  1.0
  O  O96  1  0.86840706  0.44383918  0.54010668  1.0
  O  O97  1  0.43840794  0.87831290  0.54645849  1.0
  O  O98  1  0.87571484  0.60086841  0.43877983  1.0
  O  O99  1  0.64252928  0.91712701  0.47370414  1.0
  O  O100  1  0.06520723  0.33224944  0.46159107  1.0
  O  O101  1  0.33299238  0.06610910  0.45405542  1.0
  O  O102  1  0.88814739  0.61884470  0.55058493  1.0
  O  O103  1  0.60287394  0.87078618  0.53762709  1.0
  O  O104  1  0.16823032  0.44178944  0.54559039  1.0
  O  O105  1  0.16292116  0.60736367  0.54016836  1.0
  O  O106  1  0.44211795  0.16841373  0.54181781  1.0
  O  O107  1  0.75701824  0.41066680  0.57966350  1.0
  O  O108  1  0.40373487  0.76042997  0.57737793  1.0
  O  O109  1  0.75665928  0.83855242  0.48059568  1.0
  O  O110  1  0.76457536  0.68223361  0.41861529  1.0
  O  O111  1  0.61162003  0.16493848  0.54579827  1.0
  O  O112  1  0.36156912  0.72177285  0.94778495  1.0
  O  O113  1  0.72102044  0.35933448  0.94815924  1.0
  F  F114  1  0.40685685  0.31255538  0.59919957  1.0
  F  F115  1  0.89343346  0.34179202  0.05186453  1.0
  F  F116  1  0.34527302  0.89315695  0.05348916  1.0
  F  F117  1  0.31634724  0.40952264  0.57997211  1.0
  F  F118  1  0.15652503  0.60775916  0.95050153  1.0
  F  F119  1  0.60841275  0.15223140  0.94899857  1.0
