# generated using pymatgen
data_Al2H30C38N3O19F7
_symmetry_space_group_name_H-M   'P 1'
_cell_length_a   6.61062007
_cell_length_b   22.66036373
_cell_length_c   25.43426558
_cell_angle_alpha   89.42407395
_cell_angle_beta   89.27609789
_cell_angle_gamma   89.82308901
_symmetry_Int_Tables_number   1
_chemical_formula_structural   Al2H30C38N3O19F7
_chemical_formula_sum   'Al4 H60 C76 N6 O38 F14'
_cell_volume   3809.51569769
_cell_formula_units_Z   2
loop_
 _symmetry_equiv_pos_site_id
 _symmetry_equiv_pos_as_xyz
  1  'x, y, z'
loop_
 _atom_site_type_symbol
 _atom_site_label
 _atom_site_symmetry_multiplicity
 _atom_site_fract_x
 _atom_site_fract_y
 _atom_site_fract_z
 _atom_site_occupancy
  Al  Al0  1  0.71714491  0.25242383  0.25189639  1.0
  Al  Al1  1  0.28609130  0.74932667  0.74829249  1.0
  Al  Al2  1  0.21793186  0.25329958  0.25294198  1.0
  Al  Al3  1  0.78621208  0.74626979  0.74738859  1.0
  H  H4  1  0.31246253  0.51139540  0.91684492  1.0
  H  H5  1  0.68758927  0.49316780  0.08760906  1.0
  H  H6  1  0.99437649  0.58045397  0.80060426  1.0
  H  H7  1  0.06689838  0.64250278  0.83846222  1.0
  H  H8  1  0.00134242  0.57362416  0.87098311  1.0
  H  H9  1  0.94029090  0.36515485  0.16840618  1.0
  H  H10  1  0.00065830  0.43166439  0.20220868  1.0
  H  H11  1  0.98844330  0.43266316  0.13187016  1.0
  H  H12  1  0.21593866  0.53226069  0.73598990  1.0
  H  H13  1  0.47677385  0.54680857  0.72274745  1.0
  H  H14  1  0.34318575  0.49413898  0.68326747  1.0
  H  H15  1  0.00273452  0.42382258  0.29718138  1.0
  H  H16  1  0.95381376  0.37054246  0.34889351  1.0
  H  H17  1  0.96941528  0.44775647  0.36372856  1.0
  H  H18  1  0.97971195  0.47500024  0.57218422  1.0
  H  H19  1  0.06663557  0.53001663  0.52645677  1.0
  H  H20  1  0.98208560  0.55114366  0.59152432  1.0
  H  H21  1  0.45362456  0.55974526  0.35826876  1.0
  H  H22  1  0.61608277  0.51683177  0.31583323  1.0
  H  H23  1  0.71273707  0.58088248  0.34772812  1.0
  H  H24  1  0.38371945  0.41401656  0.55912629  1.0
  H  H25  1  0.39327916  0.33636736  0.54352799  1.0
  H  H26  1  0.17215979  0.36783096  0.57418125  1.0
  H  H27  1  0.59751978  0.60592950  0.44073927  1.0
  H  H28  1  0.84595072  0.63130167  0.42405132  1.0
  H  H29  1  0.66477851  0.68172690  0.45218275  1.0
  H  H30  1  0.05893516  0.29314084  0.48481124  1.0
  H  H31  1  0.31416039  0.26506140  0.48242836  1.0
  H  H32  1  0.11939548  0.22901102  0.44660051  1.0
  H  H33  1  0.91089564  0.77219636  0.56031073  1.0
  H  H34  1  0.72506536  0.73991244  0.51899144  1.0
  H  H35  1  0.97574797  0.70862963  0.52196486  1.0
  H  H36  1  0.46569898  0.96653819  0.87088079  1.0
  H  H37  1  0.67115097  0.01454914  0.85234704  1.0
  H  H38  1  0.49677059  0.03552415  0.90368800  1.0
  H  H39  1  0.33679998  0.20540482  0.01241769  1.0
  H  H40  1  0.19262553  0.17132975  0.96130529  1.0
  H  H41  1  0.46210635  0.16122908  0.96366850  1.0
  H  H42  1  0.00123826  0.93333199  0.38209851  1.0
  H  H43  1  0.26486778  0.91817367  0.37011340  1.0
  H  H44  1  0.13455443  0.97070177  0.32938599  1.0
  H  H45  1  0.74292637  0.08474296  0.62950742  1.0
  H  H46  1  0.00455456  0.06854486  0.61576937  1.0
  H  H47  1  0.87647603  0.03284291  0.67024504  1.0
  H  H48  1  0.11850279  0.84471712  0.45716246  1.0
  H  H49  1  0.27561325  0.79854607  0.49800577  1.0
  H  H50  1  0.38581040  0.84051745  0.44454062  1.0
  H  H51  1  0.72540302  0.20343966  0.50195722  1.0
  H  H52  1  0.87981419  0.15709404  0.54332367  1.0
  H  H53  1  0.61208069  0.16182755  0.55520813  1.0
  H  H54  1  0.49937210  0.84003217  0.64709375  1.0
  H  H55  1  0.57358662  0.85330053  0.57932233  1.0
  H  H56  1  0.58343104  0.78018293  0.60763375  1.0
  H  H57  1  0.50627303  0.16034263  0.35201298  1.0
  H  H58  1  0.41699972  0.22051623  0.39033060  1.0
  H  H59  1  0.42754968  0.14781385  0.41949725  1.0
  H  H60  1  0.46629177  0.17893758  0.23234408  1.0
  H  H61  1  0.54239870  0.82022617  0.77039426  1.0
  H  H62  1  0.96333192  0.32501071  0.27444224  1.0
  H  H63  1  0.04590957  0.67852022  0.72075294  1.0
  C  C64  1  0.46387769  0.32486208  0.18117808  1.0
  C  C65  1  0.53495410  0.67724343  0.82023872  1.0
  C  C66  1  0.46921220  0.32065544  0.32512985  1.0
  C  C67  1  0.53349422  0.68058170  0.67497555  1.0
  C  C68  1  0.97154852  0.17913454  0.32130241  1.0
  C  C69  1  0.03254377  0.82247012  0.67916961  1.0
  C  C70  1  0.96903210  0.18539817  0.17975970  1.0
  C  C71  1  0.03270542  0.81501042  0.82141887  1.0
  C  C72  1  0.97889364  0.14428445  0.13416129  1.0
  C  C73  1  0.02361865  0.85587771  0.86730386  1.0
  C  C74  1  0.13750877  0.14704015  0.09709790  1.0
  C  C75  1  0.86569628  0.89701811  0.87362072  1.0
  C  C76  1  0.14564522  0.11099416  0.05280421  1.0
  C  C77  1  0.85125029  0.93547140  0.91647126  1.0
  C  C78  1  0.99345386  0.06818969  0.04628032  1.0
  C  C79  1  0.00404149  0.93208427  0.95499988  1.0
  C  C80  1  0.83859601  0.06344628  0.08423174  1.0
  C  C81  1  0.16014528  0.89079265  0.94933672  1.0
  C  C82  1  0.82972983  0.10147752  0.12684091  1.0
  C  C83  1  0.17163626  0.85344033  0.90637650  1.0
  C  C84  1  0.99945870  0.02980416  0.00051774  1.0
  C  C85  1  0.00033975  0.97058125  0.00080695  1.0
  C  C86  1  0.03805119  0.86569260  0.63424960  1.0
  C  C87  1  0.96378510  0.13602183  0.36621747  1.0
  C  C88  1  0.91278895  0.91530864  0.63363307  1.0
  C  C89  1  0.08919535  0.08646516  0.36702417  1.0
  C  C90  1  0.91440049  0.95689417  0.59261813  1.0
  C  C91  1  0.08678640  0.04489505  0.40805296  1.0
  C  C92  1  0.04884320  0.94758025  0.54959753  1.0
  C  C93  1  0.95163910  0.05442039  0.45091958  1.0
  C  C94  1  0.17705802  0.89753126  0.54933272  1.0
  C  C95  1  0.82338688  0.10446295  0.45094590  1.0
  C  C96  1  0.17352292  0.85747100  0.59176455  1.0
  C  C97  1  0.82775604  0.14444687  0.40848962  1.0
  C  C98  1  0.46727081  0.36580878  0.13448506  1.0
  C  C99  1  0.52992703  0.63810622  0.86812251  1.0
  C  C100  1  0.59534555  0.41603002  0.13190237  1.0
  C  C101  1  0.40172330  0.58802345  0.87163267  1.0
  C  C102  1  0.59209005  0.45405370  0.08874240  1.0
  C  C103  1  0.40820282  0.55041280  0.91493483  1.0
  C  C104  1  0.46380340  0.44360570  0.04616911  1.0
  C  C105  1  0.53946579  0.56133940  0.95680945  1.0
  C  C106  1  0.33806858  0.39376178  0.04823147  1.0
  C  C107  1  0.66378666  0.61150884  0.95413880  1.0
  C  C108  1  0.33936475  0.35618317  0.09195727  1.0
  C  C109  1  0.65849610  0.64887214  0.91021544  1.0
  C  C110  1  0.46291585  0.36347551  0.36955447  1.0
  C  C111  1  0.53175345  0.64014702  0.62892280  1.0
  C  C112  1  0.58462684  0.41386433  0.36624238  1.0
  C  C113  1  0.39551039  0.59267460  0.62831614  1.0
  C  C114  1  0.57326487  0.45792799  0.40483380  1.0
  C  C115  1  0.38572633  0.55502545  0.58480620  1.0
  C  C116  1  0.44894243  0.44848740  0.44994665  1.0
  C  C117  1  0.52062221  0.56404657  0.54155234  1.0
  C  C118  1  0.33135308  0.39614428  0.45414578  1.0
  C  C119  1  0.65771591  0.61223911  0.54230866  1.0
  C  C120  1  0.33360673  0.35437631  0.41361028  1.0
  C  C121  1  0.66356098  0.65040292  0.58551643  1.0
  C  C122  1  0.07301843  0.59426229  0.83607444  1.0
  C  C123  1  0.92327669  0.41335738  0.16821903  1.0
  C  C124  1  0.33094048  0.53586754  0.70482207  1.0
  C  C125  1  0.92149641  0.41547924  0.33438500  1.0
  C  C126  1  0.05944854  0.51713570  0.56812276  1.0
  C  C127  1  0.60899459  0.54344661  0.35161584  1.0
  C  C128  1  0.29635788  0.37594030  0.54606417  1.0
  C  C129  1  0.71949810  0.63565956  0.45202513  1.0
  C  C130  1  0.17411098  0.27179507  0.46010849  1.0
  C  C131  1  0.85525345  0.73063465  0.54440098  1.0
  C  C132  1  0.57610918  0.99847014  0.88519115  1.0
  C  C133  1  0.32365955  0.16649608  0.98729157  1.0
  C  C134  1  0.14741672  0.95236541  0.36941755  1.0
  C  C135  1  0.85925667  0.05020819  0.62996665  1.0
  C  C136  1  0.26833433  0.84009185  0.47534874  1.0
  C  C137  1  0.73080209  0.16192835  0.52471543  1.0
  C  C138  1  0.50188616  0.82214472  0.60723196  1.0
  C  C139  1  0.50013533  0.17884207  0.39162714  1.0
  N  N140  1  0.08003101  0.99002503  0.50954790  1.0
  N  N141  1  0.92003272  0.01210422  0.49103494  1.0
  N  N142  1  0.44950090  0.47923546  0.00086415  1.0
  N  N143  1  0.55572506  0.52580319  0.00215528  1.0
  N  N144  1  0.40769231  0.49136357  0.48833599  1.0
  N  N145  1  0.55737205  0.52261161  0.50164281  1.0
  O  O146  1  0.30173050  0.31001108  0.30309062  1.0
  O  O147  1  0.70273257  0.69061303  0.69634123  1.0
  O  O148  1  0.63211699  0.31237908  0.20199031  1.0
  O  O149  1  0.36650404  0.69114658  0.80028873  1.0
  O  O150  1  0.79644460  0.20602902  0.19184520  1.0
  O  O151  1  0.20710783  0.79852823  0.80617048  1.0
  O  O152  1  0.63934583  0.29906827  0.31164372  1.0
  O  O153  1  0.36490120  0.70208378  0.68975918  1.0
  O  O154  1  0.80633040  0.18974420  0.29800771  1.0
  O  O155  1  0.20015614  0.81118895  0.70097249  1.0
  O  O156  1  0.29088998  0.30649719  0.19609139  1.0
  O  O157  1  0.70928960  0.69220320  0.80345099  1.0
  O  O158  1  0.46790292  0.21638116  0.25047734  1.0
  O  O159  1  0.53769636  0.78427824  0.75006063  1.0
  O  O160  1  0.14336897  0.20088784  0.30992679  1.0
  O  O161  1  0.86099729  0.80137422  0.69190088  1.0
  O  O162  1  0.13415677  0.19609836  0.20255246  1.0
  O  O163  1  0.86654175  0.80013370  0.80125475  1.0
  O  O164  1  0.96583174  0.28919901  0.25388993  1.0
  O  O165  1  0.03883559  0.71116479  0.74528996  1.0
  O  O166  1  0.27968320  0.57408538  0.83022166  1.0
  O  O167  1  0.71316093  0.42977386  0.17410037  1.0
  O  O168  1  0.26651657  0.58312065  0.67043736  1.0
  O  O169  1  0.70910519  0.42169596  0.32287300  1.0
  O  O170  1  0.26039311  0.50710806  0.58827531  1.0
  O  O171  1  0.67483463  0.51015659  0.39715756  1.0
  O  O172  1  0.20212921  0.38772374  0.49627735  1.0
  O  O173  1  0.79791134  0.61962797  0.50250094  1.0
  O  O174  1  0.21449243  0.30527532  0.41277492  1.0
  O  O175  1  0.79430036  0.69638022  0.58972787  1.0
  O  O176  1  0.69764182  0.97357732  0.92648598  1.0
  O  O177  1  0.30501821  0.11283354  0.01808847  1.0
  O  O178  1  0.21026520  0.99642936  0.40613356  1.0
  O  O179  1  0.79053632  0.00535940  0.59486689  1.0
  O  O180  1  0.30908158  0.89004340  0.50786731  1.0
  O  O181  1  0.69032401  0.11200446  0.49219708  1.0
  O  O182  1  0.29754313  0.80883286  0.59093202  1.0
  O  O183  1  0.70282391  0.19290667  0.40880599  1.0
  F  F184  1  0.29023782  0.18579407  0.10347779  1.0
  F  F185  1  0.71860416  0.90010361  0.83672965  1.0
  F  F186  1  0.21216071  0.38137062  0.00844774  1.0
  F  F187  1  0.79190162  0.62418218  0.99322448  1.0
  F  F188  1  0.21445002  0.30909825  0.09091089  1.0
  F  F189  1  0.78056373  0.69660096  0.91018180  1.0
  F  F190  1  0.32659327  0.81461737  0.90440801  1.0
  F  F191  1  0.67592522  0.09486429  0.16190084  1.0
  F  F192  1  0.00607986  0.94220896  0.04832871  1.0
  F  F193  1  0.00855489  0.05849061  0.95283454  1.0
  F  F194  1  0.69183758  0.02268541  0.07947971  1.0
  F  F195  1  0.30740670  0.88783590  0.98561289  1.0
  F  F196  1  0.21744253  0.07668484  0.32562578  1.0
  F  F197  1  0.78587598  0.92533786  0.67529739  1.0
