# generated using pymatgen
data_AlH7(C2O)5
_symmetry_space_group_name_H-M   'P 1'
_cell_length_a   7.05200712
_cell_length_b   11.18506529
_cell_length_c   11.18536186
_cell_angle_alpha   77.84480237
_cell_angle_beta   71.67111532
_cell_angle_gamma   71.67540991
_symmetry_Int_Tables_number   1
_chemical_formula_structural   AlH7(C2O)5
_chemical_formula_sum   'Al2 H14 C20 O10'
_cell_volume   788.90937423
_cell_formula_units_Z   2
loop_
 _symmetry_equiv_pos_site_id
 _symmetry_equiv_pos_as_xyz
  1  'x, y, z'
loop_
 _atom_site_type_symbol
 _atom_site_label
 _atom_site_symmetry_multiplicity
 _atom_site_fract_x
 _atom_site_fract_y
 _atom_site_fract_z
 _atom_site_occupancy
  Al  Al0  1  0.49976310  0.50003701  0.50049143  1.0
  Al  Al1  1  0.00024897  0.49949963  0.49995340  1.0
  H  H2  1  0.25003705  0.62649519  0.37343521  1.0
  H  H3  1  0.75002438  0.37292155  0.62701234  1.0
  H  H4  1  0.23901990  0.49935447  0.11840270  1.0
  H  H5  1  0.35668719  0.50064011  0.88275810  1.0
  H  H6  1  0.65388422  0.41667807  0.89013075  1.0
  H  H7  1  0.58011231  0.58613568  0.87028745  1.0
  H  H8  1  0.46048870  0.58404775  0.10906696  1.0
  H  H9  1  0.53603746  0.41456901  0.12887945  1.0
  H  H10  1  0.14330621  0.11720330  0.49937051  1.0
  H  H11  1  0.26102749  0.88156224  0.50064842  1.0
  H  H12  1  0.03951566  0.89097428  0.41594472  1.0
  H  H13  1  0.96396658  0.87115412  0.58541444  1.0
  H  H14  1  0.84607121  0.10989082  0.58332788  1.0
  H  H15  1  0.91985852  0.12975508  0.41387173  1.0
  C  C16  1  0.63909205  0.72396039  0.49979276  1.0
  C  C17  1  0.86094224  0.50020997  0.27603124  1.0
  C  C18  1  0.36241304  0.27563504  0.50036195  1.0
  C  C19  1  0.13756115  0.49964603  0.72435276  1.0
  C  C20  1  0.06504148  0.50068670  0.86411433  1.0
  C  C21  1  0.92907625  0.49963449  0.13621851  1.0
  C  C22  1  0.86393004  0.50065647  0.93418065  1.0
  C  C23  1  0.13323733  0.49975345  0.06599417  1.0
  C  C24  1  0.79822927  0.50004056  0.06572544  1.0
  C  C25  1  0.19878104  0.50042157  0.93473941  1.0
  C  C26  1  0.65558931  0.50098301  0.92497166  1.0
  C  C27  1  0.58122570  0.49975159  0.07436497  1.0
  C  C28  1  0.57095750  0.86377002  0.50036481  1.0
  C  C29  1  0.43494287  0.13587192  0.49932073  1.0
  C  C30  1  0.70178837  0.93428210  0.49995674  1.0
  C  C31  1  0.30121238  0.06522670  0.49959212  1.0
  C  C32  1  0.63605872  0.06582509  0.49934731  1.0
  C  C33  1  0.36680468  0.93397581  0.50024699  1.0
  C  C34  1  0.91877661  0.92566532  0.50023956  1.0
  C  C35  1  0.84440432  0.07504663  0.49902005  1.0
  O  O36  1  0.50383485  0.67067454  0.49882117  1.0
  O  O37  1  0.99618696  0.50117502  0.32931174  1.0
  O  O38  1  0.17311849  0.32881525  0.50111734  1.0
  O  O39  1  0.32687576  0.49888099  0.67116797  1.0
  O  O40  1  0.49698793  0.32923664  0.50186304  1.0
  O  O41  1  0.00298826  0.49813126  0.67076546  1.0
  O  O42  1  0.82841764  0.67041632  0.49883491  1.0
  O  O43  1  0.67160010  0.50115379  0.32957565  1.0
  O  O44  1  0.25004449  0.55761582  0.44237216  1.0
  O  O45  1  0.74995223  0.44186580  0.55813233  1.0
