# generated using pymatgen
data_Zn2H66(C19O8)3
_symmetry_space_group_name_H-M   'P 1'
_cell_length_a   9.71854640
_cell_length_b   20.33148165
_cell_length_c   20.33206720
_cell_angle_alpha   59.99896243
_cell_angle_beta   90.00021906
_cell_angle_gamma   89.99929287
_symmetry_Int_Tables_number   1
_chemical_formula_structural   Zn2H66(C19O8)3
_chemical_formula_sum   'Zn4 H132 C114 O48'
_cell_volume   3479.18857627
_cell_formula_units_Z   2
loop_
 _symmetry_equiv_pos_site_id
 _symmetry_equiv_pos_as_xyz
  1  'x, y, z'
loop_
 _atom_site_type_symbol
 _atom_site_label
 _atom_site_symmetry_multiplicity
 _atom_site_fract_x
 _atom_site_fract_y
 _atom_site_fract_z
 _atom_site_occupancy
  Zn  Zn0  1  0.42881093  0.66666667  0.66666667  1.0
  Zn  Zn1  1  0.07118991  0.33333333  0.33333333  1.0
  Zn  Zn2  1  0.57118855  0.33333333  0.33333333  1.0
  Zn  Zn3  1  0.92881471  0.66666667  0.66666667  1.0
  H  H4  1  0.49576930  0.64207915  0.79641221  1.0
  H  H5  1  0.49574683  0.79639740  0.56152136  1.0
  H  H6  1  0.49577076  0.56150295  0.64209447  1.0
  H  H7  1  0.00425574  0.20360409  0.35790402  1.0
  H  H8  1  0.00424181  0.43848384  0.20358973  1.0
  H  H9  1  0.00423350  0.35791298  0.43848946  1.0
  H  H10  1  0.50424870  0.35792908  0.20359085  1.0
  H  H11  1  0.50424133  0.20359777  0.43848577  1.0
  H  H12  1  0.50424518  0.43849336  0.35790422  1.0
  H  H13  1  0.99576740  0.79639903  0.64208979  1.0
  H  H14  1  0.99576693  0.56149997  0.79641472  1.0
  H  H15  1  0.99574952  0.64207764  0.56152486  1.0
  H  H16  1  0.63987696  0.65295464  0.75269024  1.0
  H  H17  1  0.63986887  0.75268158  0.59437093  1.0
  H  H18  1  0.63988452  0.59435380  0.65296643  1.0
  H  H19  1  0.86012696  0.24731762  0.34704247  1.0
  H  H20  1  0.86012555  0.40563804  0.24731022  1.0
  H  H21  1  0.86012693  0.34704323  0.40563783  1.0
  H  H22  1  0.36012560  0.34705927  0.24730998  1.0
  H  H23  1  0.36013267  0.24731870  0.40563512  1.0
  H  H24  1  0.36013142  0.40564420  0.34704322  1.0
  H  H25  1  0.13987149  0.75267698  0.65296347  1.0
  H  H26  1  0.13988113  0.59435088  0.75269118  1.0
  H  H27  1  0.13987357  0.65294285  0.59437237  1.0
  H  H28  1  0.95205647  0.81629243  0.79213218  1.0
  H  H29  1  0.95205827  0.79210068  0.39154352  1.0
  H  H30  1  0.95204969  0.39156595  0.81631709  1.0
  H  H31  1  0.54796491  0.20790053  0.18365279  1.0
  H  H32  1  0.54793309  0.60843033  0.20787932  1.0
  H  H33  1  0.54795250  0.18369216  0.60843023  1.0
  H  H34  1  0.04792551  0.18367548  0.20788858  1.0
  H  H35  1  0.04795561  0.20788142  0.60843916  1.0
  H  H36  1  0.04797756  0.60844114  0.18364670  1.0
  H  H37  1  0.45203971  0.79211168  0.81632713  1.0
  H  H38  1  0.45207256  0.39156938  0.79213046  1.0
  H  H39  1  0.45204080  0.81636831  0.39154966  1.0
  H  H40  1  0.78274888  0.86292354  0.84762938  1.0
  H  H41  1  0.78274479  0.84762420  0.28940989  1.0
  H  H42  1  0.78272958  0.28943634  0.86293710  1.0
  H  H43  1  0.71728397  0.15237940  0.13704384  1.0
  H  H44  1  0.71723362  0.71055710  0.15237870  1.0
  H  H45  1  0.71725661  0.13706603  0.71057265  1.0
  H  H46  1  0.21722488  0.13705288  0.15237286  1.0
  H  H47  1  0.21724645  0.15237664  0.71057719  1.0
  H  H48  1  0.21728945  0.71057359  0.13704052  1.0
  H  H49  1  0.28274020  0.84761577  0.86295887  1.0
  H  H50  1  0.28276689  0.28943636  0.84763617  1.0
  H  H51  1  0.28273258  0.86297230  0.28941634  1.0
  H  H52  1  0.94775538  0.71367242  0.07116088  1.0
  H  H53  1  0.94776218  0.07112553  0.21517140  1.0
  H  H54  1  0.94774379  0.21515998  0.71368289  1.0
  H  H55  1  0.55224733  0.92888142  0.28629073  1.0
  H  H56  1  0.55223322  0.78482896  0.92884782  1.0
  H  H57  1  0.55221130  0.28631832  0.78484291  1.0
  H  H58  1  0.05222557  0.28631934  0.92885189  1.0
  H  H59  1  0.05221878  0.92883499  0.78485256  1.0
  H  H60  1  0.05224231  0.78482043  0.28630555  1.0
  H  H61  1  0.44775729  0.07115748  0.71369208  1.0
  H  H62  1  0.44775596  0.21516166  0.07116158  1.0
  H  H63  1  0.44777995  0.71368878  0.21518580  1.0
  H  H64  1  0.12302130  0.66813118  0.01577246  1.0
  H  H65  1  0.12302988  0.01571842  0.31609601  1.0
  H  H66  1  0.12302329  0.31608666  0.66814887  1.0
  H  H67  1  0.37697882  0.98428728  0.33180790  1.0
  H  H68  1  0.37697500  0.68389774  0.98423905  1.0
  H  H69  1  0.37694747  0.33185687  0.68390628  1.0
  H  H70  1  0.87696274  0.33185888  0.98424755  1.0
  H  H71  1  0.87696960  0.98423473  0.68391000  1.0
  H  H72  1  0.87697824  0.68389375  0.33182039  1.0
  H  H73  1  0.62300934  0.01575616  0.66815346  1.0
  H  H74  1  0.62303580  0.31608891  0.01577627  1.0
  H  H75  1  0.62304274  0.66817579  0.31611653  1.0
  H  H76  1  0.15808696  0.80213612  0.75962879  1.0
  H  H77  1  0.15811402  0.75957760  0.43824592  1.0
  H  H78  1  0.15808462  0.43823347  0.80215232  1.0
  H  H79  1  0.34190492  0.24042925  0.19781602  1.0
  H  H80  1  0.34189889  0.56176564  0.24038224  1.0
  H  H81  1  0.34192853  0.19785253  0.56176115  1.0
  H  H82  1  0.84189296  0.19784599  0.24038487  1.0
  H  H83  1  0.84192353  0.24038577  0.56175793  1.0
  H  H84  1  0.84190971  0.56175318  0.19781923  1.0
  H  H85  1  0.65807809  0.75960681  0.80215345  1.0
  H  H86  1  0.65808618  0.43823180  0.75963261  1.0
  H  H87  1  0.65812137  0.80218296  0.43825090  1.0
  H  H88  1  0.06925595  0.71586484  0.78202032  1.0
  H  H89  1  0.06924267  0.78197591  0.50211085  1.0
  H  H90  1  0.06925947  0.50211560  0.71588513  1.0
  H  H91  1  0.43076246  0.21802740  0.28408614  1.0
  H  H92  1  0.43074007  0.49788360  0.21799984  1.0
  H  H93  1  0.43075011  0.28412214  0.49787935  1.0
  H  H94  1  0.93074867  0.28410421  0.21801462  1.0
  H  H95  1  0.93074652  0.21799938  0.49787868  1.0
  H  H96  1  0.93075544  0.49787616  0.28409174  1.0
  H  H97  1  0.56925862  0.78198992  0.71588581  1.0
  H  H98  1  0.56925323  0.50211895  0.78201000  1.0
  H  H99  1  0.56924936  0.71591960  0.50211975  1.0
  H  H100  1  0.88068275  0.79069996  0.10122094  1.0
  H  H101  1  0.88070710  0.10120986  0.10806867  1.0
  H  H102  1  0.88068092  0.10807628  0.79070834  1.0
  H  H103  1  0.61930065  0.89879554  0.20927621  1.0
  H  H104  1  0.61930657  0.89191830  0.89878084  1.0
  H  H105  1  0.61929991  0.20929520  0.89192803  1.0
  H  H106  1  0.11932187  0.20929804  0.89878674  1.0
  H  H107  1  0.11929546  0.89877508  0.89193472  1.0
  H  H108  1  0.11927946  0.89192457  0.20928365  1.0
  H  H109  1  0.38069060  0.10122008  0.79070987  1.0
  H  H110  1  0.38068159  0.10807233  0.10122020  1.0
  H  H111  1  0.38073147  0.79070905  0.10808292  1.0
  H  H112  1  0.74177327  0.85259616  0.08841200  1.0
  H  H113  1  0.74182416  0.08841705  0.05897527  1.0
  H  H114  1  0.74177831  0.05898160  0.85260004  1.0
  H  H115  1  0.75817903  0.91158844  0.14739020  1.0
  H  H116  1  0.75821256  0.94100780  0.91158556  1.0
  H  H117  1  0.75821571  0.14740579  0.94101616  1.0
  H  H118  1  0.25821386  0.14741377  0.91158529  1.0
  H  H119  1  0.25821442  0.91158038  0.94103122  1.0
  H  H120  1  0.25817795  0.94102039  0.14739089  1.0
  H  H121  1  0.24177311  0.08841695  0.85261084  1.0
  H  H122  1  0.24178794  0.05899021  0.08841966  1.0
  H  H123  1  0.24183007  0.85260357  0.05898387  1.0
  H  H124  1  0.88996759  0.88719178  0.02903988  1.0
  H  H125  1  0.88999636  0.02903225  0.08376672  1.0
  H  H126  1  0.88997416  0.08376706  0.88719823  1.0
  H  H127  1  0.61000576  0.97097269  0.11279677  1.0
  H  H128  1  0.61001606  0.91623248  0.97095848  1.0
  H  H129  1  0.61001488  0.11280399  0.91623761  1.0
  H  H130  1  0.11002263  0.11281645  0.97095826  1.0
  H  H131  1  0.11001238  0.97096405  0.91624722  1.0
  H  H132  1  0.10999857  0.91622640  0.11279402  1.0
  H  H133  1  0.38997519  0.02903270  0.88721213  1.0
  H  H134  1  0.38997519  0.08376950  0.02904377  1.0
  H  H135  1  0.39001135  0.88720083  0.08377650  1.0
  C  C136  1  0.05430323  0.74192885  0.90005760  1.0
  C  C137  1  0.05428669  0.90001565  0.35800805  1.0
  C  C138  1  0.05428286  0.35801717  0.74193467  1.0
  C  C139  1  0.44573011  0.09998950  0.25802431  1.0
  C  C140  1  0.44569368  0.64198438  0.09995306  1.0
  C  C141  1  0.44570079  0.25807154  0.64197841  1.0
  C  C142  1  0.94569830  0.25806746  0.09996175  1.0
  C  C143  1  0.94570456  0.09994771  0.64199187  1.0
  C  C144  1  0.94572382  0.64197800  0.25803065  1.0
  C  C145  1  0.55427863  0.90004542  0.74194622  1.0
  C  C146  1  0.55430168  0.35802385  0.90005541  1.0
  C  C147  1  0.55429457  0.74197303  0.35802369  1.0
  C  C148  1  0.95422089  0.79489001  0.85314113  1.0
  C  C149  1  0.95422844  0.85311140  0.35193575  1.0
  C  C150  1  0.95420888  0.35196387  0.79490641  1.0
  C  C151  1  0.54580187  0.14688925  0.20505905  1.0
  C  C152  1  0.54576431  0.64803476  0.14687025  1.0
  C  C153  1  0.54577819  0.20509735  0.64803436  1.0
  C  C154  1  0.04576624  0.20508017  0.14687751  1.0
  C  C155  1  0.04577927  0.14687013  0.64804180  1.0
  C  C156  1  0.04582455  0.64804550  0.20505526  1.0
  C  C157  1  0.45420583  0.85312352  0.79491616  1.0
  C  C158  1  0.45422796  0.35195701  0.85314350  1.0
  C  C159  1  0.45419556  0.79495632  0.35194844  1.0
  C  C160  1  0.85675035  0.82052793  0.88527814  1.0
  C  C161  1  0.85677392  0.88526031  0.29416302  1.0
  C  C162  1  0.85674659  0.29418859  0.82054494  1.0
  C  C163  1  0.64325297  0.11474382  0.17943174  1.0
  C  C164  1  0.64323069  0.70581060  0.11473136  1.0
  C  C165  1  0.64323160  0.17945820  0.70581750  1.0
  C  C166  1  0.14320694  0.17944735  0.11473992  1.0
  C  C167  1  0.14325128  0.11472691  0.70582399  1.0
  C  C168  1  0.14327141  0.70580487  0.17943796  1.0
  C  C169  1  0.35673107  0.88526554  0.82055305  1.0
  C  C170  1  0.35678525  0.29418967  0.88527273  1.0
  C  C171  1  0.35675244  0.82057218  0.29418777  1.0
  C  C172  1  0.85489270  0.79457630  0.96358181  1.0
  C  C173  1  0.85490719  0.96356095  0.24182707  1.0
  C  C174  1  0.85488886  0.24183621  0.79458874  1.0
  C  C175  1  0.64510930  0.03644264  0.20539140  1.0
  C  C176  1  0.64509315  0.75815853  0.03642494  1.0
  C  C177  1  0.64508051  0.20541314  0.75816736  1.0
  C  C178  1  0.14508209  0.20541433  0.03642808  1.0
  C  C179  1  0.14509743  0.03642116  0.75817380  1.0
  C  C180  1  0.14513737  0.75816180  0.20540123  1.0
  C  C181  1  0.35488503  0.96357127  0.79459899  1.0
  C  C182  1  0.35490838  0.24183948  0.96358569  1.0
  C  C183  1  0.35488706  0.79460304  0.24183615  1.0
  C  C184  1  0.95078306  0.73789012  0.00983075  1.0
  C  C185  1  0.95080164  0.00979219  0.25227622  1.0
  C  C186  1  0.95077884  0.25227557  0.73790282  1.0
  C  C187  1  0.54921718  0.99021361  0.26206811  1.0
  C  C188  1  0.54920674  0.74771896  0.99017862  1.0
  C  C189  1  0.54918735  0.26210071  0.74772850  1.0
  C  C190  1  0.04918247  0.26210505  0.99018720  1.0
  C  C191  1  0.04921327  0.99016549  0.74773883  1.0
  C  C192  1  0.04921549  0.74770483  0.26208858  1.0
  C  C193  1  0.45075966  0.00982700  0.73790745  1.0
  C  C194  1  0.45080920  0.25228585  0.00982664  1.0
  C  C195  1  0.45080802  0.73790979  0.25229851  1.0
  C  C196  1  0.04983413  0.71211236  0.97947922  1.0
  C  C197  1  0.04982184  0.97943118  0.30840945  1.0
  C  C198  1  0.04981357  0.30840399  0.71212363  1.0
  C  C199  1  0.45019283  0.02057343  0.28783916  1.0
  C  C200  1  0.45015842  0.69158857  0.02053032  1.0
  C  C201  1  0.45015497  0.28788110  0.69159091  1.0
  C  C202  1  0.95017461  0.28787770  0.02053686  1.0
  C  C203  1  0.95016529  0.02052651  0.69159773  1.0
  C  C204  1  0.95020134  0.69158834  0.28784951  1.0
  C  C205  1  0.54981385  0.97946717  0.71212804  1.0
  C  C206  1  0.54982357  0.30840263  0.97948420  1.0
  C  C207  1  0.54981775  0.71215155  0.30841518  1.0
  C  C208  1  0.15971058  0.73972257  0.79512243  1.0
  C  C209  1  0.15970855  0.79508024  0.46515703  1.0
  C  C210  1  0.15971081  0.46515288  0.73973988  1.0
  C  C211  1  0.34030251  0.20492652  0.26022937  1.0
  C  C212  1  0.34028363  0.53484462  0.20489054  1.0
  C  C213  1  0.34029568  0.26026608  0.53483969  1.0
  C  C214  1  0.84028787  0.26026181  0.20489993  1.0
  C  C215  1  0.84029710  0.20489221  0.53484031  1.0
  C  C216  1  0.84030204  0.53484059  0.26023170  1.0
  C  C217  1  0.65970109  0.79510045  0.73974219  1.0
  C  C218  1  0.65970968  0.46515850  0.79511852  1.0
  C  C219  1  0.65971305  0.73976771  0.46516387  1.0
  C  C220  1  0.28918499  0.70976073  0.77684519  1.0
  C  C221  1  0.28916250  0.77680548  0.51340714  1.0
  C  C222  1  0.28917902  0.51338430  0.70978570  1.0
  C  C223  1  0.21082830  0.22318985  0.29020427  1.0
  C  C224  1  0.21082772  0.48660014  0.22317364  1.0
  C  C225  1  0.21082718  0.29021888  0.48660485  1.0
  C  C226  1  0.71082169  0.29022592  0.22317702  1.0
  C  C227  1  0.71083492  0.22317378  0.48660450  1.0
  C  C228  1  0.71083280  0.48660519  0.29020017  1.0
  C  C229  1  0.78916912  0.77682178  0.70978922  1.0
  C  C230  1  0.78918616  0.51339162  0.77684061  1.0
  C  C231  1  0.78917023  0.70979105  0.51340769  1.0
  C  C232  1  0.74999366  0.82273660  0.00000160  1.0
  C  C233  1  0.75000601  0.00000297  0.17725797  1.0
  C  C234  1  0.74998729  0.17725814  0.82274484  1.0
  C  C235  1  0.24999820  0.17727004  0.00000572  1.0
  C  C236  1  0.24999244  0.99999617  0.82276488  1.0
  C  C237  1  0.25000862  0.82274742  0.17725349  1.0
  C  C238  1  0.82007105  0.83847336  0.05853626  1.0
  C  C239  1  0.82009363  0.05852696  0.10298632  1.0
  C  C240  1  0.82006923  0.10298377  0.83848162  1.0
  C  C241  1  0.67991288  0.94148019  0.16151014  1.0
  C  C242  1  0.67991553  0.89700903  0.94146260  1.0
  C  C243  1  0.67991763  0.16152240  0.89701810  1.0
  C  C244  1  0.17993152  0.16152918  0.94147407  1.0
  C  C245  1  0.17990791  0.94145571  0.89703493  1.0
  C  C246  1  0.17989526  0.89701310  0.16151236  1.0
  C  C247  1  0.32007733  0.05853940  0.83849167  1.0
  C  C248  1  0.32007160  0.10299466  0.05853240  1.0
  C  C249  1  0.32011374  0.83848298  0.10299032  1.0
  O  O250  1  0.15860608  0.71718028  0.87440340  1.0
  O  O251  1  0.15858780  0.87435490  0.40841416  1.0
  O  O252  1  0.15858269  0.40841768  0.71719041  1.0
  O  O253  1  0.34141901  0.12565132  0.28276202  1.0
  O  O254  1  0.34139797  0.59157877  0.12560829  1.0
  O  O255  1  0.34140895  0.28281847  0.59157181  1.0
  O  O256  1  0.84141809  0.28281716  0.12561735  1.0
  O  O257  1  0.84141991  0.12560277  0.59157877  1.0
  O  O258  1  0.84143428  0.59158658  0.28276889  1.0
  O  O259  1  0.65857017  0.87439042  0.71719084  1.0
  O  O260  1  0.65858401  0.40842663  0.87440061  1.0
  O  O261  1  0.65857817  0.71723065  0.40841818  1.0
  O  O262  1  0.29035657  0.72045287  0.70902145  1.0
  O  O263  1  0.29036337  0.70900213  0.57053326  1.0
  O  O264  1  0.29037089  0.57051934  0.72047288  1.0
  O  O265  1  0.20964407  0.29100680  0.27952703  1.0
  O  O266  1  0.20963925  0.42947809  0.29099091  1.0
  O  O267  1  0.20964070  0.27953536  0.42946846  1.0
  O  O268  1  0.70962542  0.27953150  0.29099600  1.0
  O  O269  1  0.70964331  0.29099418  0.42947035  1.0
  O  O270  1  0.70964505  0.42946901  0.27952290  1.0
  O  O271  1  0.79036363  0.70900143  0.72047701  1.0
  O  O272  1  0.79037463  0.57052333  0.70901506  1.0
  O  O273  1  0.79037112  0.72046549  0.57053829  1.0
  O  O274  1  0.38184758  0.67963260  0.82611788  1.0
  O  O275  1  0.38184540  0.82610877  0.49425278  1.0
  O  O276  1  0.38185247  0.49423344  0.67965400  1.0
  O  O277  1  0.11816396  0.17390814  0.32033738  1.0
  O  O278  1  0.11815910  0.50574369  0.17388323  1.0
  O  O279  1  0.11815046  0.32034753  0.50575632  1.0
  O  O280  1  0.61815190  0.32037166  0.17388864  1.0
  O  O281  1  0.61816745  0.17388810  0.50575744  1.0
  O  O282  1  0.61816244  0.50576004  0.32033086  1.0
  O  O283  1  0.88183552  0.82610917  0.67965622  1.0
  O  O284  1  0.88185581  0.49424466  0.82611846  1.0
  O  O285  1  0.88184696  0.67964650  0.49425384  1.0
  O  O286  1  0.55121083  0.62455959  0.76600633  1.0
  O  O287  1  0.55119192  0.76600079  0.60944292  1.0
  O  O288  1  0.55121663  0.60942744  0.62456986  1.0
  O  O289  1  0.94879997  0.23399608  0.37543550  1.0
  O  O290  1  0.94879636  0.39056103  0.23399260  1.0
  O  O291  1  0.94879718  0.37543658  0.39056329  1.0
  O  O292  1  0.44879482  0.37545148  0.23399088  1.0
  O  O293  1  0.44879418  0.23399380  0.39056204  1.0
  O  O294  1  0.44880445  0.39056716  0.37543362  1.0
  O  O295  1  0.05120774  0.76599681  0.62456785  1.0
  O  O296  1  0.05121752  0.60942562  0.76601338  1.0
  O  O297  1  0.05120024  0.62454836  0.60944551  1.0
