# generated using pymatgen
data_Zr3H20C48(Cl3O8)2
_symmetry_space_group_name_H-M   'P 1'
_cell_length_a   21.70259528
_cell_length_b   21.70268024
_cell_length_c   21.70254516
_cell_angle_alpha   59.99918305
_cell_angle_beta   59.99932517
_cell_angle_gamma   89.99868755
_symmetry_Int_Tables_number   1
_chemical_formula_structural   Zr3H20C48(Cl3O8)2
_chemical_formula_sum   'Zr6 H40 C96 Cl12 O32'
_cell_volume   7227.96257792
_cell_formula_units_Z   2
loop_
 _symmetry_equiv_pos_site_id
 _symmetry_equiv_pos_as_xyz
  1  'x, y, z'
loop_
 _atom_site_type_symbol
 _atom_site_label
 _atom_site_symmetry_multiplicity
 _atom_site_fract_x
 _atom_site_fract_y
 _atom_site_fract_z
 _atom_site_occupancy
  Zr  Zr0  1  0.58143784  0.08143273  0.99999641  1.0
  Zr  Zr1  1  0.41857224  0.91858275  0.99999588  1.0
  Zr  Zr2  1  0.41857050  0.08144093  0.99999792  1.0
  Zr  Zr3  1  0.58143975  0.91856778  0.99999486  1.0
  Zr  Zr4  1  0.41855635  0.91854482  0.16290522  1.0
  Zr  Zr5  1  0.58145481  0.08145713  0.83709083  1.0
  H  H6  1  0.43587143  0.06412183  0.12826648  1.0
  H  H7  1  0.43587269  0.80761698  0.12825478  1.0
  H  H8  1  0.43587552  0.06413760  0.87174140  1.0
  H  H9  1  0.69239176  0.06412787  0.87173899  1.0
  H  H10  1  0.59563799  0.09242873  0.18634033  1.0
  H  H11  1  0.59984276  0.09949720  0.29558504  1.0
  H  H12  1  0.40055188  0.90123808  0.50102644  1.0
  H  H13  1  0.59877706  0.09946757  0.49897616  1.0
  H  H14  1  0.40762804  0.90432785  0.81365898  1.0
  H  H15  1  0.40056369  0.90012441  0.70441069  1.0
  H  H16  1  0.77877558  0.28197679  0.81366195  1.0
  H  H17  1  0.89509117  0.39542458  0.70441282  1.0
  H  H18  1  0.90226180  0.40157432  0.49897741  1.0
  H  H19  1  0.09844339  0.59774933  0.50102430  1.0
  H  H20  1  0.21798423  0.72128803  0.18634173  1.0
  H  H21  1  0.10453144  0.60497520  0.29559122  1.0
  H  H22  1  0.40761596  0.72126235  0.37438810  1.0
  H  H23  1  0.40056267  0.60495963  0.49490611  1.0
  H  H24  1  0.59880124  0.59776349  0.30277892  1.0
  H  H25  1  0.40055650  0.40157255  0.69719178  1.0
  H  H26  1  0.59569311  0.28201730  0.62559991  1.0
  H  H27  1  0.59991402  0.39548589  0.50507139  1.0
  H  H28  1  0.77881305  0.09246573  0.62558006  1.0
  H  H29  1  0.89514631  0.09953901  0.50506962  1.0
  H  H30  1  0.90227541  0.90124345  0.69719858  1.0
  H  H31  1  0.09845623  0.09946506  0.30280501  1.0
  H  H32  1  0.21799885  0.90432173  0.37439957  1.0
  H  H33  1  0.10455280  0.90012434  0.49492253  1.0
  H  H34  1  0.40757064  0.28197931  0.99680123  1.0
  H  H35  1  0.40051022  0.39543199  0.99966125  1.0
  H  H36  1  0.59876968  0.40156517  0.00068919  1.0
  H  H37  1  0.40054601  0.59774493  0.00069778  1.0
  H  H38  1  0.59568539  0.72128395  0.99670236  1.0
  H  H39  1  0.59988956  0.60496667  0.99956621  1.0
  H  H40  1  0.77880859  0.90439419  0.00319203  1.0
  H  H41  1  0.89510922  0.90021214  0.00036017  1.0
  H  H42  1  0.90221423  0.09949384  0.99934092  1.0
  H  H43  1  0.09843339  0.90130381  0.99929766  1.0
  H  H44  1  0.21800255  0.09243055  0.00329226  1.0
  H  H45  1  0.10454089  0.09950145  0.00044349  1.0
  C  C46  1  0.49997904  0.99612503  0.20916161  1.0
  C  C47  1  0.29087032  0.79473108  0.20915404  1.0
  C  C48  1  0.50388666  0.00002380  0.79084342  1.0
  C  C49  1  0.70528770  0.20914037  0.79084109  1.0
  C  C50  1  0.50386692  0.20913452  0.99615593  1.0
  C  C51  1  0.70528542  0.00001994  0.00385137  1.0
  C  C52  1  0.49999143  0.79473088  0.99613228  1.0
  C  C53  1  0.29086580  0.99614979  0.00386414  1.0
  C  C54  1  0.29086661  0.00000557  0.20526589  1.0
  C  C55  1  0.50000012  0.20914653  0.79473475  1.0
  C  C56  1  0.70529386  0.99613967  0.79472106  1.0
  C  C57  1  0.50388674  0.79472454  0.20525351  1.0
  C  C58  1  0.49714646  0.99419676  0.28041704  1.0
  C  C59  1  0.55334774  0.05098527  0.25592879  1.0
  C  C60  1  0.55567221  0.05492442  0.31652836  1.0
  C  C61  1  0.50025511  0.00054062  0.40635001  1.0
  C  C62  1  0.44364373  0.94347671  0.43204353  1.0
  C  C63  1  0.44174210  0.94000370  0.37059706  1.0
  C  C64  1  0.50020883  0.00155594  0.47101008  1.0
  C  C65  1  0.49847503  0.99980431  0.52897934  1.0
  C  C66  1  0.49949095  0.99974292  0.59364860  1.0
  C  C67  1  0.55654090  0.05636554  0.56795946  1.0
  C  C68  1  0.56001191  0.05826073  0.62940970  1.0
  C  C69  1  0.50583205  0.00284990  0.71958526  1.0
  C  C70  1  0.44905783  0.94663416  0.74406868  1.0
  C  C71  1  0.44512279  0.94430837  0.68346970  1.0
  C  C72  1  0.77461513  0.27756331  0.71958679  1.0
  C  C73  1  0.80691973  0.30927390  0.74407420  1.0
  C  C74  1  0.87145925  0.37219738  0.68347238  1.0
  C  C75  1  0.90689287  0.40660122  0.59365171  1.0
  C  C76  1  0.87551886  0.37568410  0.56795965  1.0
  C  C77  1  0.81059913  0.31233737  0.62940997  1.0
  C  C78  1  0.97256707  0.47121545  0.52899090  1.0
  C  C79  1  0.02878469  0.52744965  0.47102115  1.0
  C  C80  1  0.09339214  0.59313550  0.40635260  1.0
  C  C81  1  0.12432622  0.62449730  0.43204105  1.0
  C  C82  1  0.18767045  0.68942016  0.37058992  1.0
  C  C83  1  0.22243700  0.72541764  0.28041341  1.0
  C  C84  1  0.19070208  0.69312638  0.25593087  1.0
  C  C85  1  0.12777597  0.62859404  0.31653043  1.0
  C  C86  1  0.50583365  0.72540728  0.27173062  1.0
  C  C87  1  0.44904767  0.69310970  0.36024343  1.0
  C  C88  1  0.44512457  0.62858342  0.42710069  1.0
  C  C89  1  0.49950156  0.59314337  0.40711784  1.0
  C  C90  1  0.55655460  0.62450136  0.31913433  1.0
  C  C91  1  0.56001586  0.68941756  0.25232106  1.0
  C  C92  1  0.49849576  0.52746989  0.47274067  1.0
  C  C93  1  0.50024218  0.47123859  0.52722851  1.0
  C  C94  1  0.50028938  0.40661930  0.59285578  1.0
  C  C95  1  0.44365382  0.37568570  0.68083794  1.0
  C  C96  1  0.44175206  0.31233440  0.74765886  1.0
  C  C97  1  0.49716304  0.27757214  0.72825166  1.0
  C  C98  1  0.55338766  0.30930312  0.63973943  1.0
  C  C99  1  0.55571917  0.37223457  0.57287880  1.0
  C  C100  1  0.77462105  0.99419952  0.72824024  1.0
  C  C101  1  0.80695264  0.05101553  0.63972827  1.0
  C  C102  1  0.87149431  0.05495046  0.57287605  1.0
  C  C103  1  0.90691342  0.00055593  0.59286359  1.0
  C  C104  1  0.87553225  0.94348260  0.68084616  1.0
  C  C105  1  0.81061116  0.94001663  0.74765914  1.0
  C  C106  1  0.97258836  0.00156146  0.52724392  1.0
  C  C107  1  0.02880570  0.99980111  0.47276348  1.0
  C  C108  1  0.09340397  0.99973723  0.40713830  1.0
  C  C109  1  0.12433514  0.05636189  0.31915250  1.0
  C  C110  1  0.18767529  0.05825054  0.25233668  1.0
  C  C111  1  0.22243714  0.00284077  0.27175039  1.0
  C  C112  1  0.19071009  0.94662408  0.36026303  1.0
  C  C113  1  0.12778631  0.94430431  0.42711906  1.0
  C  C114  1  0.50580581  0.27755809  0.99705707  1.0
  C  C115  1  0.44901336  0.30927575  0.99764641  1.0
  C  C116  1  0.44508291  0.37220149  0.99925742  1.0
  C  C117  1  0.49946564  0.40659921  0.00029338  1.0
  C  C118  1  0.55653020  0.37567724  0.99983831  1.0
  C  C119  1  0.55999360  0.31232937  0.99826897  1.0
  C  C120  1  0.49845758  0.47121406  0.00135374  1.0
  C  C121  1  0.50021107  0.52744590  0.00134125  1.0
  C  C122  1  0.50027298  0.59313470  0.00025592  1.0
  C  C123  1  0.44364512  0.62449173  0.99983489  1.0
  C  C124  1  0.44175464  0.68941750  0.99825028  1.0
  C  C125  1  0.49716125  0.72541283  0.99701756  1.0
  C  C126  1  0.55338069  0.69312011  0.99758132  1.0
  C  C127  1  0.55570599  0.62858656  0.99918829  1.0
  C  C128  1  0.77460415  0.00287497  0.00295927  1.0
  C  C129  1  0.80693029  0.94668614  0.00235824  1.0
  C  C130  1  0.87145354  0.94436504  0.00076988  1.0
  C  C131  1  0.90687602  0.99979075  0.99974197  1.0
  C  C132  1  0.87548505  0.05639947  0.00019132  1.0
  C  C133  1  0.81057113  0.05828151  0.00175062  1.0
  C  C134  1  0.97254726  0.99984888  0.99869287  1.0
  C  C135  1  0.02876391  0.00160792  0.99869586  1.0
  C  C136  1  0.09338478  0.00058647  0.99975133  1.0
  C  C137  1  0.12431842  0.94352913  0.00016916  1.0
  C  C138  1  0.18766258  0.94004267  0.00174557  1.0
  C  C139  1  0.22243812  0.99422009  0.00296700  1.0
  C  C140  1  0.19071579  0.05100429  0.00241621  1.0
  C  C141  1  0.12778741  0.05494901  0.00081395  1.0
  Cl  Cl142  1  0.36801560  0.86633574  0.41358237  1.0
  Cl  Cl143  1  0.63367531  0.13199810  0.58642550  1.0
  Cl  Cl144  1  0.77991042  0.28159650  0.58642743  1.0
  Cl  Cl145  1  0.21841831  0.72010121  0.41357530  1.0
  Cl  Cl146  1  0.63368670  0.72010065  0.14790611  1.0
  Cl  Cl147  1  0.36801906  0.28159094  0.85207202  1.0
  Cl  Cl148  1  0.77991592  0.86633858  0.85207361  1.0
  Cl  Cl149  1  0.21842524  0.13199123  0.14792165  1.0
  Cl  Cl150  1  0.63366388  0.28158448  0.99832555  1.0
  Cl  Cl151  1  0.36801629  0.72009240  0.99832554  1.0
  Cl  Cl152  1  0.77987389  0.13201005  0.00168486  1.0
  Cl  Cl153  1  0.21840780  0.86637115  0.00167144  1.0
  O  O154  1  0.55243394  0.04981916  0.13069677  1.0
  O  O155  1  0.31687792  0.81950540  0.13068800  1.0
  O  O156  1  0.45018501  0.94757398  0.86930908  1.0
  O  O157  1  0.68051497  0.18312907  0.86930829  1.0
  O  O158  1  0.45016527  0.18312839  0.99740267  1.0
  O  O159  1  0.68053513  0.94756831  0.00259695  1.0
  O  O160  1  0.55244974  0.81949772  0.99736880  1.0
  O  O161  1  0.31687806  0.04984448  0.00261945  1.0
  O  O162  1  0.31687367  0.94755040  0.23295987  1.0
  O  O163  1  0.55245242  0.18313445  0.76704544  1.0
  O  O164  1  0.68053299  0.04984204  0.76702619  1.0
  O  O165  1  0.45019215  0.81949169  0.23294810  1.0
  O  O166  1  0.44910984  0.18065191  0.87481027  1.0
  O  O167  1  0.67610053  0.94455165  0.87480108  1.0
  O  O168  1  0.55546779  0.82390879  0.12517458  1.0
  O  O169  1  0.31936067  0.05090227  0.12518983  1.0
  O  O170  1  0.55545351  0.18064524  0.99545667  1.0
  O  O171  1  0.31935257  0.94456408  0.00455422  1.0
  O  O172  1  0.44909567  0.82391261  0.99545127  1.0
  O  O173  1  0.67609303  0.05090568  0.00455333  1.0
  O  O174  1  0.67610822  0.18065517  0.76843548  1.0
  O  O175  1  0.44909252  0.94453523  0.23156931  1.0
  O  O176  1  0.31935750  0.82390191  0.23156313  1.0
  O  O177  1  0.55547393  0.05090877  0.76843870  1.0
  O  O178  1  0.63769378  0.04590101  0.90819184  1.0
  O  O179  1  0.45412295  0.04591658  0.90819070  1.0
  O  O180  1  0.45410349  0.86231366  0.09180148  1.0
  O  O181  1  0.45409551  0.04588094  0.09180853  1.0
  O  O182  1  0.39861608  0.96620327  0.06760792  1.0
  O  O183  1  0.53379464  0.96619605  0.06759883  1.0
  O  O184  1  0.53380564  0.96622442  0.93238846  1.0
  O  O185  1  0.53380636  0.10139333  0.93239181  1.0
