# generated using pymatgen
data_CuH6C6(NO)2
_symmetry_space_group_name_H-M   'P 1'
_cell_length_a   13.88652956
_cell_length_b   13.88654130
_cell_length_c   13.88651900
_cell_angle_alpha   105.55236412
_cell_angle_beta   105.55022471
_cell_angle_gamma   117.63254713
_symmetry_Int_Tables_number   1
_chemical_formula_structural   CuH6C6(NO)2
_chemical_formula_sum   'Cu4 H24 C24 N8 O8'
_cell_volume   2029.60272362
_cell_formula_units_Z   4
loop_
 _symmetry_equiv_pos_site_id
 _symmetry_equiv_pos_as_xyz
  1  'x, y, z'
loop_
 _atom_site_type_symbol
 _atom_site_label
 _atom_site_symmetry_multiplicity
 _atom_site_fract_x
 _atom_site_fract_y
 _atom_site_fract_z
 _atom_site_occupancy
  Cu  Cu0  1  0.48158846  0.58246676  0.10087769  1.0
  Cu  Cu1  1  0.48158969  0.38071199  0.89912267  1.0
  Cu  Cu2  1  0.33246657  0.73158667  0.60087976  1.0
  Cu  Cu3  1  0.13070553  0.73158535  0.39911962  1.0
  H  H4  1  0.33442798  0.73644175  0.92907820  1.0
  H  H5  1  0.49557315  0.83059458  0.00301198  1.0
  H  H6  1  0.40968440  0.73548081  0.05518355  1.0
  H  H7  1  0.80736226  0.40534893  0.07092061  1.0
  H  H8  1  0.82758393  0.49256245  0.99698895  1.0
  H  H9  1  0.68029675  0.35450211  0.94481536  1.0
  H  H10  1  0.48644799  0.05737557  0.90202776  1.0
  H  H11  1  0.58058031  0.07758454  0.83501291  1.0
  H  H12  1  0.48547615  0.93030113  0.82579886  1.0
  H  H13  1  0.15534690  0.58441950  0.09797292  1.0
  H  H14  1  0.24256984  0.74556593  0.16498604  1.0
  H  H15  1  0.10450120  0.65967507  0.17420040  1.0
  H  H16  1  0.80736440  0.73644212  0.40201453  1.0
  H  H17  1  0.82758360  0.83059433  0.33502220  1.0
  H  H18  1  0.68029778  0.73548043  0.32579645  1.0
  H  H19  1  0.33442786  0.40534947  0.59798577  1.0
  H  H20  1  0.49557422  0.49256269  0.66497820  1.0
  H  H21  1  0.40968508  0.35450157  0.67420411  1.0
  H  H22  1  0.15534746  0.05737399  0.57092760  1.0
  H  H23  1  0.24257063  0.07758294  0.49700407  1.0
  H  H24  1  0.10450231  0.93030036  0.44482726  1.0
  H  H25  1  0.48644615  0.58442017  0.42907176  1.0
  H  H26  1  0.58057898  0.74556661  0.50299521  1.0
  H  H27  1  0.48547408  0.65967675  0.55517343  1.0
  C  C28  1  0.41726495  0.64066759  0.91117303  1.0
  C  C29  1  0.41383039  0.74104617  0.97909683  1.0
  C  C30  1  0.72949458  0.50609215  0.08882711  1.0
  C  C31  1  0.76194861  0.43473292  0.02090238  1.0
  C  C32  1  0.39064388  0.97948902  0.72341526  1.0
  C  C33  1  0.49103570  0.01195180  0.82721836  1.0
  C  C34  1  0.25607334  0.66722844  0.27658423  1.0
  C  C35  1  0.18473149  0.66381617  0.17278068  1.0
  C  C36  1  0.72949473  0.64066673  0.22340307  1.0
  C  C37  1  0.76194933  0.74104629  0.32721701  1.0
  C  C38  1  0.41726427  0.50609211  0.77659668  1.0
  C  C39  1  0.41383020  0.43473372  0.67278402  1.0
  C  C40  1  0.25607425  0.97948875  0.58884576  1.0
  C  C41  1  0.18473302  0.01195119  0.52091616  1.0
  C  C42  1  0.39064297  0.66722871  0.41115373  1.0
  C  C43  1  0.49103491  0.66381677  0.47908307  1.0
  C  C44  1  0.39587012  0.59813801  0.79773238  1.0
  C  C45  1  0.36205846  0.64154835  0.72050947  1.0
  C  C46  1  0.80040368  0.59813551  0.20226782  1.0
  C  C47  1  0.92103723  0.64154615  0.27949002  1.0
  C  C48  1  0.34810539  0.05039032  0.70228590  1.0
  C  C49  1  0.39153186  0.17103909  0.77950832  1.0
  C  C50  1  0.34810412  0.64582011  0.29771440  1.0
  C  C51  1  0.39152912  0.61202149  0.22049107  1.0
  N  N52  1  0.44770351  0.57655151  0.95310479  1.0
  N  N53  1  0.62344812  0.49460002  0.04689507  1.0
  N  N54  1  0.32654041  0.87344315  0.62885532  1.0
  N  N55  1  0.24458748  0.69768527  0.37114530  1.0
  N  N56  1  0.62344820  0.57655311  0.12884890  1.0
  N  N57  1  0.44770322  0.49459934  0.87115187  1.0
  N  N58  1  0.24458732  0.87344298  0.54690360  1.0
  N  N59  1  0.32653981  0.69768542  0.45309681  1.0
  O  O60  1  0.34752072  0.72878753  0.74899031  1.0
  O  O61  1  0.97979702  0.59852984  0.25100976  1.0
  O  O62  1  0.47877170  0.22979719  0.88127879  1.0
  O  O63  1  0.34851537  0.59748807  0.11871987  1.0
  O  O64  1  0.97979705  0.72878547  0.38126777  1.0
  O  O65  1  0.34752090  0.59853097  0.61873283  1.0
  O  O66  1  0.34852099  0.22979784  0.75102594  1.0
  O  O67  1  0.47877287  0.59749657  0.24897552  1.0
