# generated using pymatgen
data_ZnH17C26N5O8
_symmetry_space_group_name_H-M   'P 1'
_cell_length_a   17.15537742
_cell_length_b   18.31971100
_cell_length_c   19.55272852
_cell_angle_alpha   87.67120224
_cell_angle_beta   88.92529035
_cell_angle_gamma   83.37194289
_symmetry_Int_Tables_number   1
_chemical_formula_structural   ZnH17C26N5O8
_chemical_formula_sum   'Zn2 H34 C52 N10 O16'
_cell_volume   6098.33675624
_cell_formula_units_Z   2
loop_
 _symmetry_equiv_pos_site_id
 _symmetry_equiv_pos_as_xyz
  1  'x, y, z'
loop_
 _atom_site_type_symbol
 _atom_site_label
 _atom_site_symmetry_multiplicity
 _atom_site_fract_x
 _atom_site_fract_y
 _atom_site_fract_z
 _atom_site_occupancy
  Zn  Zn0  1  0.50748738  0.42497744  0.49665814  1.0
  Zn  Zn1  1  0.49088661  0.58382634  0.49594445  1.0
  H  H2  1  0.73123703  0.60496388  0.44504087  1.0
  H  H3  1  0.27395469  0.39644212  0.42663657  1.0
  H  H4  1  0.24578708  0.62671685  0.46649283  1.0
  H  H5  1  0.75030755  0.37558330  0.50430182  1.0
  H  H6  1  0.99226526  0.57995805  0.41860104  1.0
  H  H7  1  0.00523168  0.41100351  0.42822723  1.0
  H  H8  1  0.89113510  0.36164480  0.46810987  1.0
  H  H9  1  0.10327082  0.63361684  0.44077482  1.0
  H  H10  1  0.13214743  0.40207075  0.40088343  1.0
  H  H11  1  0.87051191  0.59203106  0.40710303  1.0
  H  H12  1  0.44026661  0.60317880  0.27813066  1.0
  H  H13  1  0.55613075  0.39657976  0.71121473  1.0
  H  H14  1  0.43076669  0.59784359  0.15135371  1.0
  H  H15  1  0.56537095  0.39333494  0.83804807  1.0
  H  H16  1  0.59781814  0.40242318  0.15666736  1.0
  H  H17  1  0.40010171  0.58954055  0.84330489  1.0
  H  H18  1  0.62869284  0.46002379  0.05083606  1.0
  H  H19  1  0.36803590  0.52605549  0.94472042  1.0
  H  H20  1  0.61602115  0.45678148  0.92567547  1.0
  H  H21  1  0.38078470  0.52917079  0.06983504  1.0
  H  H22  1  0.45816232  0.31879225  0.40621605  1.0
  H  H23  1  0.56867942  0.69364528  0.42285736  1.0
  H  H24  1  0.44411676  0.18435819  0.40947097  1.0
  H  H25  1  0.58225176  0.82774722  0.42815747  1.0
  H  H26  1  0.62966760  0.05115380  0.50959900  1.0
  H  H27  1  0.37232055  0.95733440  0.49068785  1.0
  H  H28  1  0.64224231  0.16992842  0.62036085  1.0
  H  H29  1  0.58460556  0.10178328  0.61335053  1.0
  H  H30  1  0.33305661  0.83013326  0.60207306  1.0
  H  H31  1  0.38803157  0.90196481  0.59975642  1.0
  H  H32  1  0.60619439  0.28353441  0.63807712  1.0
  H  H33  1  0.61618093  0.35506358  0.57903947  1.0
  H  H34  1  0.35936593  0.71577917  0.62082957  1.0
  H  H35  1  0.36543683  0.65057967  0.56052729  1.0
  C  C36  1  0.47668382  0.49709936  0.62837872  1.0
  C  C37  1  0.52119619  0.50980975  0.36491609  1.0
  C  C38  1  0.64888207  0.50058338  0.50092084  1.0
  C  C39  1  0.35182433  0.50613071  0.47048915  1.0
  C  C40  1  0.73290901  0.49170458  0.47918397  1.0
  C  C41  1  0.26807235  0.51076961  0.45000548  1.0
  C  C42  1  0.76722408  0.55209691  0.45041117  1.0
  C  C43  1  0.23575173  0.44804952  0.42978142  1.0
  C  C44  1  0.84518935  0.54442161  0.42940568  1.0
  C  C45  1  0.15639566  0.45155795  0.41559475  1.0
  C  C46  1  0.89218198  0.47614592  0.43718051  1.0
  C  C47  1  0.10661078  0.51801304  0.42148392  1.0
  C  C48  1  0.85608057  0.41521658  0.46314363  1.0
  C  C49  1  0.14086907  0.58153101  0.43738570  1.0
  C  C50  1  0.77777431  0.42282055  0.48404390  1.0
  C  C51  1  0.22010811  0.57799181  0.45202770  1.0
  C  C52  1  0.97664607  0.46757425  0.42494859  1.0
  C  C53  1  0.02152217  0.52366722  0.41851625  1.0
  C  C54  1  0.47471548  0.56000039  0.25026881  1.0
  C  C55  1  0.52178551  0.43823358  0.74094132  1.0
  C  C56  1  0.46905254  0.55612366  0.17978766  1.0
  C  C57  1  0.52746363  0.43720726  0.81187292  1.0
  C  C58  1  0.51301933  0.49965206  0.14439602  1.0
  C  C59  1  0.48418989  0.49128672  0.85064663  1.0
  C  C60  1  0.56352298  0.44770379  0.18190727  1.0
  C  C61  1  0.43430647  0.54593421  0.81580355  1.0
  C  C62  1  0.56855192  0.45273020  0.25235753  1.0
  C  C63  1  0.42904793  0.54540429  0.74500024  1.0
  C  C64  1  0.52411836  0.50796927  0.28834408  1.0
  C  C65  1  0.47288807  0.49282972  0.70551653  1.0
  C  C66  1  0.57108470  0.47332538  0.02786560  1.0
  C  C67  1  0.42564072  0.51256090  0.96765310  1.0
  C  C68  1  0.56389433  0.47144504  0.95722961  1.0
  C  C69  1  0.43284123  0.51437954  0.03823355  1.0
  C  C70  1  0.49113751  0.49143614  0.92572569  1.0
  C  C71  1  0.50579060  0.49534045  0.06969043  1.0
  C  C72  1  0.48454667  0.28145537  0.44629462  1.0
  C  C73  1  0.53176819  0.72936428  0.45648697  1.0
  C  C74  1  0.47628211  0.20752200  0.44921205  1.0
  C  C75  1  0.53946550  0.80294005  0.46066238  1.0
  C  C76  1  0.51072714  0.16229858  0.50322512  1.0
  C  C77  1  0.49062751  0.84598721  0.50621324  1.0
  C  C78  1  0.55397046  0.19374598  0.55196965  1.0
  C  C79  1  0.43511262  0.81248441  0.54625153  1.0
  C  C80  1  0.56128149  0.27053797  0.54441201  1.0
  C  C81  1  0.42926675  0.73596636  0.53752384  1.0
  C  C82  1  0.57194428  0.03177034  0.50976719  1.0
  C  C83  1  0.42899315  0.97656499  0.49937418  1.0
  C  C84  1  0.56717649  0.95641897  0.51357732  1.0
  C  C85  1  0.43306626  0.05189677  0.50093598  1.0
  C  C86  1  0.49607792  0.92580407  0.50832612  1.0
  C  C87  1  0.50421878  0.08241679  0.50602152  1.0
  N  N88  1  0.52499692  0.31256158  0.49400215  1.0
  N  N89  1  0.47823341  0.69642297  0.49495364  1.0
  N  N90  1  0.58791347  0.15671042  0.60949648  1.0
  N  N91  1  0.38711355  0.84716015  0.59559867  1.0
  N  N92  1  0.60897893  0.30072594  0.58818678  1.0
  N  N93  1  0.37028704  0.70410799  0.57078324  1.0
  N  N94  1  0.64182043  0.90911212  0.52560428  1.0
  N  N95  1  0.35722526  0.09927699  0.49880695  1.0
  N  N96  1  0.62526498  0.39730573  0.28760797  1.0
  N  N97  1  0.37299198  0.60164682  0.71153527  1.0
  O  O98  1  0.47384827  0.43727119  0.59858739  1.0
  O  O99  1  0.49574256  0.57077452  0.39039336  1.0
  O  O100  1  0.48665935  0.55958878  0.60146978  1.0
  O  O101  1  0.54149649  0.44925482  0.39732440  1.0
  O  O102  1  0.61924339  0.44402495  0.52625424  1.0
  O  O103  1  0.37545168  0.56410898  0.49336925  1.0
  O  O104  1  0.61043590  0.56379161  0.49157957  1.0
  O  O105  1  0.39433620  0.44489760  0.46411808  1.0
  O  O106  1  0.64201299  0.86171265  0.57241817  1.0
  O  O107  1  0.69889628  0.92202501  0.48915495  1.0
  O  O108  1  0.34668219  0.14780072  0.54122788  1.0
  O  O109  1  0.30928459  0.08539353  0.45589224  1.0
  O  O110  1  0.68315595  0.41978404  0.31265707  1.0
  O  O111  1  0.61224635  0.33226587  0.28614955  1.0
  O  O112  1  0.33026700  0.58121159  0.66748695  1.0
  O  O113  1  0.37119467  0.66618113  0.72982607  1.0
