# generated using pymatgen
data_Mg2H12C17(NO2)4
_symmetry_space_group_name_H-M   'P 1'
_cell_length_a   6.93716675
_cell_length_b   32.63650069
_cell_length_c   32.64124137
_cell_angle_alpha   119.51271418
_cell_angle_beta   94.07260157
_cell_angle_gamma   94.05727798
_symmetry_Int_Tables_number   1
_chemical_formula_structural   Mg2H12C17(NO2)4
_chemical_formula_sum   'Mg6 H36 C51 N12 O24'
_cell_volume   6367.22686946
_cell_formula_units_Z   3
loop_
 _symmetry_equiv_pos_site_id
 _symmetry_equiv_pos_as_xyz
  1  'x, y, z'
loop_
 _atom_site_type_symbol
 _atom_site_label
 _atom_site_symmetry_multiplicity
 _atom_site_fract_x
 _atom_site_fract_y
 _atom_site_fract_z
 _atom_site_occupancy
  Mg  Mg0  1  0.71796152  0.69726466  0.33006868  1.0
  Mg  Mg1  1  0.31192969  0.30318063  0.66987025  1.0
  Mg  Mg2  1  0.02080539  0.63269903  0.30266666  1.0
  Mg  Mg3  1  0.00902643  0.36678764  0.69689688  1.0
  Mg  Mg4  1  0.38774840  0.66989002  0.36722165  1.0
  Mg  Mg5  1  0.64211019  0.33023764  0.63332193  1.0
  H  H6  1  0.06814674  0.38839301  0.80851254  1.0
  H  H7  1  0.06019584  0.43430251  0.88633779  1.0
  H  H8  1  0.99006369  0.46358214  0.95925889  1.0
  H  H9  1  0.24982373  0.55127654  0.02560478  1.0
  H  H10  1  0.17954002  0.50833366  0.04232243  1.0
  H  H11  1  0.89855141  0.56309849  0.02418703  1.0
  H  H12  1  0.65675906  0.57378253  0.06955950  1.0
  H  H13  1  0.94379767  0.61953326  0.18621114  1.0
  H  H14  1  0.22909498  0.57975827  0.17222727  1.0
  H  H15  1  0.38447196  0.56037649  0.10036995  1.0
  H  H16  1  0.59062233  0.47363339  0.90053205  1.0
  H  H17  1  0.77268441  0.44034233  0.82980214  1.0
  H  H18  1  0.67960261  0.42021450  0.61167417  1.0
  H  H19  1  0.62552858  0.45207015  0.56571883  1.0
  H  H20  1  0.52642943  0.49581064  0.53646452  1.0
  H  H21  1  0.69883302  0.47442037  0.44882172  1.0
  H  H22  1  0.67083499  0.53409392  0.49168343  1.0
  H  H23  1  0.33572606  0.46100451  0.43679586  1.0
  H  H24  1  0.08236524  0.49568038  0.42624993  1.0
  H  H25  1  0.32337495  0.56650410  0.38043358  1.0
  H  H26  1  0.64849704  0.59238134  0.42007567  1.0
  H  H27  1  0.82298605  0.53990050  0.43950750  1.0
  H  H28  1  0.11649004  0.42680975  0.52633553  1.0
  H  H29  1  0.33182763  0.38932881  0.55961009  1.0
  H  H30  1  0.25921684  0.19156336  0.57994996  1.0
  H  H31  1  0.17338624  0.11372630  0.54805993  1.0
  H  H32  1  0.03053602  0.04072958  0.50424412  1.0
  H  H33  1  0.22431913  0.97444700  0.52559663  1.0
  H  H34  1  0.13708584  0.95764922  0.46591206  1.0
  H  H35  1  0.87462730  0.97578838  0.53887308  1.0
  H  H36  1  0.58704106  0.93051158  0.50416012  1.0
  H  H37  1  0.75719596  0.81381079  0.43325153  1.0
  H  H38  1  0.05634538  0.82774305  0.40758913  1.0
  H  H39  1  0.28367656  0.89961757  0.46000150  1.0
  H  H40  1  0.68969537  0.09959000  0.57321208  1.0
  H  H41  1  0.94250393  0.17036472  0.61072093  1.0
  C  C42  1  0.32327261  0.38080539  0.77374720  1.0
  C  C43  1  0.22424514  0.39971730  0.81401105  1.0
  C  C44  1  0.31745671  0.43252766  0.85928678  1.0
  C  C45  1  0.25187040  0.48434373  0.94329918  1.0
  C  C46  1  0.13277334  0.52419838  0.02089744  1.0
  C  C47  1  0.91378112  0.55265096  0.08203071  1.0
  C  C48  1  0.67426068  0.58864274  0.13869027  1.0
  C  C49  1  0.78701679  0.61084667  0.18287464  1.0
  C  C50  1  0.69982280  0.62403203  0.22480409  1.0
  C  C51  1  0.49325576  0.61203285  0.22031676  1.0
  C  C52  1  0.38486386  0.58936852  0.17519894  1.0
  C  C53  1  0.47173779  0.57830083  0.13489518  1.0
  C  C54  1  0.38408392  0.62200573  0.26053696  1.0
  C  C55  1  0.51901339  0.44737872  0.86559524  1.0
  C  C56  1  0.61802578  0.42866668  0.82616380  1.0
  C  C57  1  0.52843861  0.39564114  0.78002239  1.0
  C  C58  1  0.64767302  0.37992835  0.74074921  1.0
  C  C59  1  0.94216434  0.39296922  0.61924005  1.0
  C  C60  1  0.82426428  0.41431790  0.60030955  1.0
  C  C61  1  0.88453172  0.42672622  0.56745326  1.0
  C  C62  1  0.76710435  0.45892937  0.51565840  1.0
  C  C63  1  0.60858076  0.49677297  0.47582978  1.0
  C  C64  1  0.36053277  0.52934145  0.44732444  1.0
  C  C65  1  0.08466714  0.54991378  0.41130060  1.0
  C  C66  1  0.17526571  0.57187388  0.38908280  1.0
  C  C67  1  0.07507294  0.60063098  0.37588176  1.0
  C  C68  1  0.88042255  0.60814113  0.38781566  1.0
  C  C69  1  0.79465220  0.58572119  0.41048603  1.0
  C  C70  1  0.89242737  0.55647571  0.42157602  1.0
  C  C71  1  0.76151608  0.63841775  0.37785501  1.0
  C  C72  1  0.07116159  0.41812490  0.55258142  1.0
  C  C73  1  0.18884328  0.39738702  0.57128999  1.0
  C  C74  1  0.13231556  0.38431902  0.60434664  1.0
  C  C75  1  0.26742061  0.36081883  0.62008842  1.0
  C  C76  1  0.54909624  0.22637548  0.60714129  1.0
  C  C77  1  0.40982494  0.18609189  0.58581555  1.0
  C  C78  1  0.45777203  0.14081414  0.57336151  1.0
  C  C79  1  0.30834301  0.05676091  0.54102788  1.0
  C  C80  1  0.11191764  0.97910020  0.50321269  1.0
  C  C81  1  0.83162757  0.91797684  0.47056036  1.0
  C  C82  1  0.53521366  0.86132645  0.44991779  1.0
  C  C83  1  0.60371978  0.81712420  0.42792077  1.0
  C  C84  1  0.47459064  0.77517754  0.39923651  1.0
  C  C85  1  0.27247504  0.77965500  0.39177351  1.0
  C  C86  1  0.20917474  0.82477554  0.41421941  1.0
  C  C87  1  0.33640468  0.86508992  0.44342794  1.0
  C  C88  1  0.12318595  0.73940965  0.36153430  1.0
  C  C89  1  0.65302230  0.13453182  0.58192321  1.0
  C  C90  1  0.79143359  0.17398321  0.60266825  1.0
  C  C91  1  0.74790696  0.22012164  0.61576265  1.0
  C  C92  1  0.90651463  0.25938337  0.63926373  1.0
  N  N93  1  0.20200838  0.44867468  0.89625374  1.0
  N  N94  1  0.10202810  0.48992028  0.97046584  1.0
  N  N95  1  0.95497212  0.54349316  0.03737933  1.0
  N  N96  1  0.75430433  0.57736231  0.09622684  1.0
  N  N97  1  0.75286780  0.44755268  0.55131501  1.0
  N  N98  1  0.61210573  0.48067385  0.51014898  1.0
  N  N99  1  0.41144874  0.49384191  0.45642269  1.0
  N  N100  1  0.17615629  0.51878651  0.42265585  1.0
  N  N101  1  0.30534400  0.10383505  0.55251691  1.0
  N  N102  1  0.13147105  0.02953821  0.51935111  1.0
  N  N103  1  0.91769198  0.96261324  0.50606429  1.0
  N  N104  1  0.65780996  0.90381602  0.48106121  1.0
  O  O105  1  0.20538116  0.60562678  0.25387156  1.0
  O  O106  1  0.47379093  0.64853744  0.30298333  1.0
  O  O107  1  0.81154908  0.64783456  0.26686285  1.0
  O  O108  1  0.82823709  0.39532998  0.74755353  1.0
  O  O109  1  0.56487707  0.34958445  0.69836165  1.0
  O  O110  1  0.21888781  0.35048299  0.73175894  1.0
  O  O111  1  0.41139323  0.50921613  0.95915641  1.0
  O  O112  1  0.00894621  0.53946158  0.10571896  1.0
  O  O113  1  0.59934506  0.64822073  0.39426808  1.0
  O  O114  1  0.82498832  0.65432665  0.35135370  1.0
  O  O115  1  0.16328636  0.61890871  0.35213730  1.0
  O  O116  1  0.43254213  0.35222618  0.60467145  1.0
  O  O117  1  0.21528337  0.34884411  0.65049422  1.0
  O  O118  1  0.86829400  0.38140127  0.64962991  1.0
  O  O119  1  0.90152814  0.44978247  0.49072707  1.0
  O  O120  1  0.46854915  0.56628023  0.46054624  1.0
  O  O121  1  0.95113772  0.74604945  0.35180238  1.0
  O  O122  1  0.17057814  0.69696783  0.34562876  1.0
  O  O123  1  0.54425396  0.73312034  0.38096622  1.0
  O  O124  1  0.08019588  0.25256679  0.64789409  1.0
  O  O125  1  0.86635966  0.30176680  0.65122417  1.0
  O  O126  1  0.48674717  0.26834830  0.61871575  1.0
  O  O127  1  0.45203949  0.04091813  0.55005472  1.0
  O  O128  1  0.90297654  0.89427054  0.43366564  1.0
