# generated using pymatgen
data_ZnH2C6NO5
_symmetry_space_group_name_H-M   'P 1'
_cell_length_a   7.81372367
_cell_length_b   8.74865682
_cell_length_c   14.93852882
_cell_angle_alpha   94.73520872
_cell_angle_beta   97.32642383
_cell_angle_gamma   97.44596431
_symmetry_Int_Tables_number   1
_chemical_formula_structural   ZnH2C6NO5
_chemical_formula_sum   'Zn2 H4 C12 N2 O10'
_cell_volume   999.20417614
_cell_formula_units_Z   2
loop_
 _symmetry_equiv_pos_site_id
 _symmetry_equiv_pos_as_xyz
  1  'x, y, z'
loop_
 _atom_site_type_symbol
 _atom_site_label
 _atom_site_symmetry_multiplicity
 _atom_site_fract_x
 _atom_site_fract_y
 _atom_site_fract_z
 _atom_site_occupancy
  Zn  Zn0  1  0.30532018  0.49197824  0.45979367  1.0
  Zn  Zn1  1  0.69470949  0.50809050  0.54020909  1.0
  H  H2  1  0.70103171  0.01656191  0.51917173  1.0
  H  H3  1  0.29898392  0.98351823  0.48083802  1.0
  H  H4  1  0.79157064  0.47989876  0.36390031  1.0
  H  H5  1  0.20846072  0.52018321  0.63611031  1.0
  C  C6  1  0.54029638  0.78758210  0.50273702  1.0
  C  C7  1  0.49814194  0.49547923  0.04086177  1.0
  C  C8  1  0.56668944  0.95909986  0.50592247  1.0
  C  C9  1  0.43332849  0.04097359  0.49408910  1.0
  C  C10  1  0.45972359  0.21248905  0.49727315  1.0
  C  C11  1  0.53608080  0.52186086  0.69495883  1.0
  C  C12  1  0.46392813  0.47813441  0.30504007  1.0
  C  C13  1  0.51776020  0.51984072  0.78943944  1.0
  C  C14  1  0.48220023  0.47999706  0.21053582  1.0
  C  C15  1  0.50851499  0.51283603  0.87042324  1.0
  C  C16  1  0.49138898  0.48688861  0.12956074  1.0
  C  C17  1  0.50171110  0.50420625  0.95909962  1.0
  N  N18  1  0.92463910  0.49735164  0.47915672  1.0
  N  N19  1  0.07539607  0.50273270  0.52085266  1.0
  O  O20  1  0.38531295  0.71633858  0.48373775  1.0
  O  O21  1  0.07729368  0.51738559  0.61148884  1.0
  O  O22  1  0.61470787  0.28373169  0.51625891  1.0
  O  O23  1  0.67847775  0.72542423  0.51991545  1.0
  O  O24  1  0.32154002  0.27464733  0.48010213  1.0
  O  O25  1  0.40131079  0.52073925  0.63685995  1.0
  O  O26  1  0.59872846  0.47936724  0.36313466  1.0
  O  O27  1  0.69036216  0.52315548  0.67504202  1.0
  O  O28  1  0.30965409  0.47685785  0.32496494  1.0
  O  O29  1  0.92273430  0.48266512  0.38852008  1.0
