# generated using pymatgen
data_Cu4H16C21N8
_symmetry_space_group_name_H-M   'P 1'
_cell_length_a   20.42303575
_cell_length_b   20.45052183
_cell_length_c   20.60120580
_cell_angle_alpha   93.87025732
_cell_angle_beta   89.88633894
_cell_angle_gamma   89.83664444
_symmetry_Int_Tables_number   1
_chemical_formula_structural   Cu4H16C21N8
_chemical_formula_sum   'Cu12 H48 C63 N24'
_cell_volume   8584.65751316
_cell_formula_units_Z   3
loop_
 _symmetry_equiv_pos_site_id
 _symmetry_equiv_pos_as_xyz
  1  'x, y, z'
loop_
 _atom_site_type_symbol
 _atom_site_label
 _atom_site_symmetry_multiplicity
 _atom_site_fract_x
 _atom_site_fract_y
 _atom_site_fract_z
 _atom_site_occupancy
  Cu  Cu0  1  0.77267602  0.75618129  0.86695466  1.0
  Cu  Cu1  1  0.87555937  0.77496337  0.75382497  1.0
  Cu  Cu2  1  0.74923009  0.86834256  0.77264991  1.0
  Cu  Cu3  1  0.77783650  0.25041912  0.13509703  1.0
  Cu  Cu4  1  0.88472941  0.25203664  0.24523990  1.0
  Cu  Cu5  1  0.77321702  0.14173180  0.23794026  1.0
  Cu  Cu6  1  0.23663045  0.77586895  0.11772852  1.0
  Cu  Cu7  1  0.12066860  0.75636391  0.21772575  1.0
  Cu  Cu8  1  0.20890075  0.88346883  0.23348272  1.0
  Cu  Cu9  1  0.24805457  0.21909676  0.87600885  1.0
  Cu  Cu10  1  0.13019024  0.21414534  0.77324872  1.0
  Cu  Cu11  1  0.24029722  0.10442582  0.76583030  1.0
  H  H12  1  0.83093531  0.63370371  0.92914276  1.0
  H  H13  1  0.97919627  0.66159354  0.78296225  1.0
  H  H14  1  0.63061152  0.94486860  0.84412984  1.0
  H  H15  1  0.65968940  0.78722890  0.97150185  1.0
  H  H16  1  0.94397555  0.83879740  0.63612567  1.0
  H  H17  1  0.76591945  0.95447725  0.65148407  1.0
  H  H18  1  0.83425884  0.35685255  0.04612727  1.0
  H  H19  1  0.98163090  0.36186186  0.19741732  1.0
  H  H20  1  0.65139266  0.05742065  0.18366846  1.0
  H  H21  1  0.65031170  0.21504614  0.05338768  1.0
  H  H22  1  0.95917213  0.21589449  0.37231873  1.0
  H  H23  1  0.81841674  0.05770197  0.35379167  1.0
  H  H24  1  0.20591723  0.65874339  0.01135657  1.0
  H  H25  1  0.05161789  0.63223869  0.15167522  1.0
  H  H26  1  0.32671095  0.98183919  0.21305224  1.0
  H  H27  1  0.36542087  0.83301663  0.05792027  1.0
  H  H28  1  0.02629293  0.78059405  0.34074640  1.0
  H  H29  1  0.13578920  0.96211887  0.34981083  1.0
  H  H30  1  0.21388284  0.35139942  0.95814010  1.0
  H  H31  1  0.04907545  0.33856001  0.82590376  1.0
  H  H32  1  0.35695415  0.01359370  0.80692080  1.0
  H  H33  1  0.36604140  0.16843573  0.96090939  1.0
  H  H34  1  0.03773105  0.16057660  0.65682453  1.0
  H  H35  1  0.19653007  0.01947714  0.63941667  1.0
  H  H36  1  0.00396848  0.55575110  0.86297579  1.0
  H  H37  1  0.90833991  0.56432166  0.97903118  1.0
  H  H38  1  0.00556175  0.44727637  0.10123914  1.0
  H  H39  1  0.90827024  0.43114570  0.98722738  1.0
  H  H40  1  0.11646819  0.55861256  0.97408855  1.0
  H  H41  1  0.00480617  0.55528681  0.07416952  1.0
  H  H42  1  0.11670258  0.44205675  0.98875842  1.0
  H  H43  1  0.00396235  0.43680995  0.88972148  1.0
  H  H44  1  0.55313497  0.87267541  0.00626726  1.0
  H  H45  1  0.57169943  0.00073511  0.93780373  1.0
  H  H46  1  0.45628184  0.99764894  0.89545225  1.0
  H  H47  1  0.43632436  0.08563801  0.02131012  1.0
  H  H48  1  0.55276269  0.12491852  0.02833196  1.0
  H  H49  1  0.56887930  0.00122788  0.10441015  1.0
  H  H50  1  0.44109836  0.00318427  0.13993649  1.0
  H  H51  1  0.43815771  0.91481783  0.01284702  1.0
  H  H52  1  0.85163852  0.98981644  0.55345087  1.0
  H  H53  1  0.98206407  0.91413878  0.55868685  1.0
  H  H54  1  0.98687584  0.87228293  0.44120542  1.0
  H  H55  1  0.05824054  0.00385636  0.43118194  1.0
  H  H56  1  0.10277252  0.00074291  0.54424332  1.0
  H  H57  1  0.97740041  0.08123435  0.57495001  1.0
  H  H58  1  0.97585935  0.12402155  0.46197604  1.0
  H  H59  1  0.89166380  0.00054694  0.43393384  1.0
  C  C60  1  0.86152591  0.64923147  0.88992713  1.0
  C  C61  1  0.92187722  0.62409172  0.86645480  1.0
  C  C62  1  0.93681406  0.66328336  0.81494459  1.0
  C  C63  1  0.64624737  0.90226405  0.86877608  1.0
  C  C64  1  0.62249738  0.87773774  0.92650337  1.0
  C  C65  1  0.66059191  0.82133356  0.93333951  1.0
  C  C66  1  0.89696928  0.86128650  0.64838347  1.0
  C  C67  1  0.86399065  0.91252385  0.61969935  1.0
  C  C68  1  0.80592005  0.92001178  0.65611930  1.0
  C  C69  1  0.86465794  0.35050017  0.08841187  1.0
  C  C70  1  0.92403175  0.38084536  0.10726068  1.0
  C  C71  1  0.93955681  0.35308446  0.16590371  1.0
  C  C72  1  0.66012564  0.10056205  0.15701254  1.0
  C  C73  1  0.62601776  0.12374650  0.10382384  1.0
  C  C74  1  0.65941886  0.18143437  0.09099176  1.0
  C  C75  1  0.91957305  0.18224004  0.35923859  1.0
  C  C76  1  0.90176893  0.12414070  0.38735019  1.0
  C  C77  1  0.84819380  0.10109866  0.34961075  1.0
  C  C78  1  0.17262482  0.66056970  0.05259668  1.0
  C  C79  1  0.11763510  0.62152195  0.06331038  1.0
  C  C80  1  0.09370734  0.64699926  0.12397583  1.0
  C  C81  1  0.32720933  0.93941935  0.17837962  1.0
  C  C82  1  0.37108142  0.92341258  0.12712031  1.0
  C  C83  1  0.34673018  0.86382999  0.09881699  1.0
  C  C84  1  0.05972105  0.82088572  0.33443398  1.0
  C  C85  1  0.06386513  0.88198986  0.36964818  1.0
  C  C86  1  0.11527032  0.91374067  0.33893413  1.0
  C  C87  1  0.17839738  0.33915257  0.92007219  1.0
  C  C88  1  0.11934477  0.37088767  0.90643743  1.0
  C  C89  1  0.09419324  0.33281650  0.85273730  1.0
  C  C90  1  0.35101618  0.05726243  0.83941516  1.0
  C  C91  1  0.38492641  0.07601707  0.89689719  1.0
  C  C92  1  0.35531664  0.13583547  0.91850837  1.0
  C  C93  1  0.08154494  0.13111079  0.66154620  1.0
  C  C94  1  0.10332166  0.07543463  0.62356760  1.0
  C  C95  1  0.16300103  0.05955577  0.65245736  1.0
  C  C96  1  0.97665447  0.99902578  0.49981310  1.0
  C  C97  1  0.99325410  0.49768042  0.98134389  1.0
  C  C98  1  0.50313306  0.00039483  0.01973096  1.0
  C  C99  1  0.96107882  0.57222176  0.89167111  1.0
  C  C100  1  0.94964903  0.54625586  0.94890236  1.0
  C  C101  1  0.96218837  0.42868662  0.07488940  1.0
  C  C102  1  0.94999203  0.45021913  0.01582567  1.0
  C  C103  1  0.08976269  0.57058901  0.01940886  1.0
  C  C104  1  0.03209734  0.54127753  0.02960140  1.0
  C  C105  1  0.09013100  0.42560956  0.94461242  1.0
  C  C106  1  0.03179070  0.45330483  0.93313332  1.0
  C  C107  1  0.57225220  0.90503401  0.97049957  1.0
  C  C108  1  0.55034675  0.96718420  0.97113174  1.0
  C  C109  1  0.43606219  0.03862647  0.92622056  1.0
  C  C110  1  0.45758768  0.04746595  0.98787362  1.0
  C  C111  1  0.57248518  0.09482855  0.06579440  1.0
  C  C112  1  0.54880745  0.03380944  0.06939151  1.0
  C  C113  1  0.42576438  0.96223325  0.10643860  1.0
  C  C114  1  0.45524675  0.95349494  0.04798991  1.0
  C  C115  1  0.88608806  0.95261655  0.56848095  1.0
  C  C116  1  0.94656726  0.94964855  0.54234881  1.0
  C  C117  1  0.02264497  0.90660078  0.42335807  1.0
  C  C118  1  0.02426932  0.96846767  0.45006120  1.0
  C  C119  1  0.07249585  0.03896157  0.56924032  1.0
  C  C120  1  0.01016816  0.04557883  0.54961467  1.0
  C  C121  1  0.93654206  0.09436787  0.43910406  1.0
  C  C122  1  0.92851391  0.03287829  0.45731451  1.0
  N  N123  1  0.88927133  0.70851848  0.80874373  1.0
  N  N124  1  0.84255085  0.69948977  0.85535124  1.0
  N  N125  1  0.70397227  0.81337119  0.88388809  1.0
  N  N126  1  0.69479679  0.86352854  0.84371606  1.0
  N  N127  1  0.80469589  0.87698257  0.70303091  1.0
  N  N128  1  0.86125147  0.84036507  0.69791913  1.0
  N  N129  1  0.89318370  0.30954960  0.18061948  1.0
  N  N130  1  0.84668768  0.30815855  0.13245004  1.0
  N  N131  1  0.70972033  0.19145625  0.13275309  1.0
  N  N132  1  0.70992841  0.14131824  0.17397264  1.0
  N  N133  1  0.83559835  0.14228495  0.30274039  1.0
  N  N134  1  0.88016029  0.19260646  0.30844921  1.0
  N  N135  1  0.13134838  0.69725414  0.14701605  1.0
  N  N136  1  0.18043735  0.70595553  0.10272245  1.0
  N  N137  1  0.29258121  0.84622284  0.13069839  1.0
  N  N138  1  0.28018370  0.89326199  0.18002593  1.0
  N  N139  1  0.13950876  0.87444354  0.28951218  1.0
  N  N140  1  0.10494026  0.81677847  0.28642864  1.0
  N  N141  1  0.13506379  0.28253302  0.83622480  1.0
  N  N142  1  0.18745042  0.28628280  0.87815518  1.0
  N  N143  1  0.30752901  0.15103667  0.87697406  1.0
  N  N144  1  0.30465670  0.10211194  0.82799598  1.0
  N  N145  1  0.17552439  0.10208536  0.70377924  1.0
  N  N146  1  0.12507214  0.14673243  0.70919570  1.0
