# generated using pymatgen
data_Al2H16C24S2O11
_symmetry_space_group_name_H-M   'P 1'
_cell_length_a   6.65406851
_cell_length_b   12.55593394
_cell_length_c   15.24070955
_cell_angle_alpha   105.71136985
_cell_angle_beta   101.05148554
_cell_angle_gamma   102.37807429
_symmetry_Int_Tables_number   1
_chemical_formula_structural   Al2H16C24S2O11
_chemical_formula_sum   'Al2 H16 C24 S2 O11'
_cell_volume   1154.26032449
_cell_formula_units_Z   1
loop_
 _symmetry_equiv_pos_site_id
 _symmetry_equiv_pos_as_xyz
  1  'x, y, z'
loop_
 _atom_site_type_symbol
 _atom_site_label
 _atom_site_symmetry_multiplicity
 _atom_site_fract_x
 _atom_site_fract_y
 _atom_site_fract_z
 _atom_site_occupancy
  Al  Al0  1  0.00164054  0.50376846  0.50060157  1.0
  Al  Al1  1  0.49865247  0.49881799  0.49927966  1.0
  H  H2  1  0.34570443  0.59678819  0.61680143  1.0
  H  H3  1  0.66987068  0.35736609  0.43270140  1.0
  H  H4  1  0.63662026  0.42460852  0.92099883  1.0
  H  H5  1  0.36889315  0.56343959  0.07665945  1.0
  H  H6  1  0.79165063  0.42405863  0.21342881  1.0
  H  H7  1  0.69822803  0.42862042  0.05118179  1.0
  H  H8  1  0.20810084  0.59136632  0.79290999  1.0
  H  H9  1  0.30082465  0.58762724  0.95519991  1.0
  H  H10  1  0.23270735  0.85628393  0.54090849  1.0
  H  H11  1  0.38145217  0.38140317  0.78862925  1.0
  H  H12  1  0.45781329  0.34988243  0.68059220  1.0
  H  H13  1  0.41010400  0.48286817  0.72685215  1.0
  H  H14  1  0.58186957  0.51161850  0.28051500  1.0
  H  H15  1  0.55106577  0.65055799  0.31488487  1.0
  H  H16  1  0.62636543  0.60090108  0.20855334  1.0
  H  H17  1  0.58228002  0.09821575  0.44967059  1.0
  C  C18  1  0.83001098  0.70077671  0.51124781  1.0
  C  C19  1  0.83477719  0.51798021  0.66685136  1.0
  C  C20  1  0.16101069  0.29918697  0.48512039  1.0
  C  C21  1  0.16697382  0.48882455  0.33636579  1.0
  C  C22  1  0.87233656  0.51390117  0.76540445  1.0
  C  C23  1  0.12907223  0.49052537  0.23714310  1.0
  C  C24  1  0.70771912  0.46755093  0.80260971  1.0
  C  C25  1  0.76495318  0.46344962  0.89463908  1.0
  C  C26  1  0.29513498  0.52993518  0.19797812  1.0
  C  C27  1  0.23871704  0.53190533  0.10527338  1.0
  C  C28  1  0.91715743  0.45414001  0.18207091  1.0
  C  C29  1  0.86580054  0.45695893  0.09027578  1.0
  C  C30  1  0.08314897  0.55563526  0.82232479  1.0
  C  C31  1  0.13471659  0.55256125  0.91402223  1.0
  C  C32  1  0.97565509  0.50457226  0.95250434  1.0
  C  C33  1  0.02670162  0.49739036  0.04951770  1.0
  C  C34  1  0.88597288  0.11382515  0.47194633  1.0
  C  C35  1  0.09366632  0.88648543  0.52320392  1.0
  C  C36  1  0.09377683  0.18181723  0.48766309  1.0
  C  C37  1  0.88844675  0.81892658  0.50745190  1.0
  C  C38  1  0.09247937  0.99400698  0.51170006  1.0
  C  C39  1  0.88618232  0.00626085  0.48609149  1.0
  C  C40  1  0.47731900  0.41785472  0.74708486  1.0
  C  C41  1  0.52603086  0.57508341  0.25277492  1.0
  S  S42  1  0.28670635  0.11499391  0.52091164  1.0
  S  S43  1  0.69272899  0.88500473  0.47759735  1.0
  O  O44  1  0.98448892  0.65792523  0.52728803  1.0
  O  O45  1  0.65751415  0.53145464  0.62876880  1.0
  O  O46  1  0.36077264  0.34384975  0.49739989  1.0
  O  O47  1  0.02141479  0.50564922  0.37756441  1.0
  O  O48  1  0.01435350  0.34805961  0.47123751  1.0
  O  O49  1  0.33829997  0.46934256  0.37340268  1.0
  O  O50  1  0.63346088  0.65166787  0.49833769  1.0
  O  O51  1  0.98620058  0.50882412  0.62744183  1.0
  O  O52  1  0.29704504  0.55854324  0.54909287  1.0
  O  O53  1  0.70607310  0.44107066  0.45384127  1.0
  O  O54  1  0.71215062  0.14834915  0.44505197  1.0
