# generated using pymatgen
data_Zn2H35C46N2O8F5
_symmetry_space_group_name_H-M   'P 1'
_cell_length_a   11.79865032
_cell_length_b   12.52413276
_cell_length_c   13.24731796
_cell_angle_alpha   86.53439652
_cell_angle_beta   82.26624516
_cell_angle_gamma   66.93260135
_symmetry_Int_Tables_number   1
_chemical_formula_structural   Zn2H35C46N2O8F5
_chemical_formula_sum   'Zn2 H35 C46 N2 O8 F5'
_cell_volume   1784.56703775
_cell_formula_units_Z   1
loop_
 _symmetry_equiv_pos_site_id
 _symmetry_equiv_pos_as_xyz
  1  'x, y, z'
loop_
 _atom_site_type_symbol
 _atom_site_label
 _atom_site_symmetry_multiplicity
 _atom_site_fract_x
 _atom_site_fract_y
 _atom_site_fract_z
 _atom_site_occupancy
  Zn  Zn0  1  0.10406678  0.51917915  0.48535754  1.0
  Zn  Zn1  1  0.89306586  0.45850766  0.51211818  1.0
  H  H2  1  0.11241641  0.11178178  0.37476285  1.0
  H  H3  1  0.92515735  0.69919051  0.20224792  1.0
  H  H4  1  0.18677090  0.68045556  0.58307788  1.0
  H  H5  1  0.60891742  0.29487923  0.37932695  1.0
  H  H6  1  0.80944841  0.29984810  0.41928977  1.0
  H  H7  1  0.48599067  0.77233218  0.32948594  1.0
  H  H8  1  0.62921208  0.60292810  0.58315088  1.0
  H  H9  1  0.27634246  0.91793405  0.32282372  1.0
  H  H10  1  0.54829818  0.15728090  0.51880792  1.0
  H  H11  1  0.69068773  0.70463400  0.39118669  1.0
  H  H12  1  0.00727421  0.77459981  0.86511116  1.0
  H  H13  1  0.04248501  0.71400632  0.74083480  1.0
  H  H14  1  0.91302826  0.84713498  0.76844163  1.0
  H  H15  1  0.84753124  0.68117161  0.76011737  1.0
  H  H16  1  0.80382826  0.74304606  0.88193941  1.0
  H  H17  1  0.19425698  0.85099843  0.62909219  1.0
  H  H18  1  0.21713269  0.75685784  0.73718098  1.0
  H  H19  1  0.27067341  0.87137858  0.72771532  1.0
  H  H20  1  0.44977621  0.68739791  0.68925888  1.0
  H  H21  1  0.42716865  0.77761185  0.58098478  1.0
  H  H22  1  0.33842361  0.02767473  0.70999745  1.0
  H  H23  1  0.49105445  0.02323552  0.67645279  1.0
  H  H24  1  0.38461983  0.12754069  0.76471628  1.0
  H  H25  1  0.39549426  0.22623391  0.59553296  1.0
  H  H26  1  0.24956622  0.22783594  0.63696880  1.0
  H  H27  1  0.04249537  0.83373413  0.38747972  1.0
  H  H28  1  0.99687711  0.98623447  0.40294531  1.0
  H  H29  1  0.12730899  0.88737352  0.45807940  1.0
  H  H30  1  0.94657463  0.96192689  0.59174194  1.0
  H  H31  1  0.98979839  0.81118194  0.57516173  1.0
  H  H32  1  0.90412757  0.30579704  0.24071689  1.0
  H  H33  1  0.95328821  0.23901105  0.11903322  1.0
  H  H34  1  0.01781554  0.16111927  0.22777775  1.0
  H  H35  1  0.16966570  0.23495895  0.13056067  1.0
  H  H36  1  0.11529780  0.30245024  0.24934613  1.0
  C  C37  1  0.98841642  0.49133042  0.69501916  1.0
  C  C38  1  0.56637767  0.98297521  0.48410476  1.0
  C  C39  1  0.65543331  0.86786782  0.46482113  1.0
  C  C40  1  0.43755625  0.01384197  0.46840053  1.0
  C  C41  1  0.41268188  0.93926973  0.40475540  1.0
  C  C42  1  0.50761758  0.82819288  0.37732558  1.0
  C  C43  1  0.62152347  0.79082259  0.41095609  1.0
  C  C44  1  0.33734827  0.11362705  0.51203756  1.0
  C  C45  1  0.20298876  0.08064075  0.40202059  1.0
  C  C46  1  0.77869872  0.83599376  0.49025619  1.0
  C  C47  1  0.00416667  0.51069754  0.18908180  1.0
  C  C48  1  0.86196928  0.70971363  0.49380370  1.0
  C  C49  1  0.99636460  0.47913135  0.80819739  1.0
  C  C50  1  0.06774635  0.34521299  0.94805754  1.0
  C  C51  1  0.05282237  0.36636190  0.84678270  1.0
  C  C52  1  0.95198797  0.57352581  0.87345287  1.0
  C  C53  1  0.96992790  0.55324139  0.97917834  1.0
  C  C54  1  0.02752101  0.43611764  0.01987573  1.0
  C  C55  1  0.04175061  0.41537082  0.12615625  1.0
  C  C56  1  0.95241937  0.62518281  0.15207163  1.0
  C  C57  1  0.93518381  0.64361866  0.05144232  1.0
  C  C58  1  0.60950239  0.36374471  0.42529155  1.0
  C  C59  1  0.01372166  0.49636252  0.30152119  1.0
  C  C60  1  0.71952577  0.36607537  0.44635338  1.0
  C  C61  1  0.61834303  0.53609647  0.54109489  1.0
  C  C62  1  0.49960853  0.54113199  0.52624555  1.0
  C  C63  1  0.49728261  0.45178593  0.46576406  1.0
  C  C64  1  0.37845250  0.45666085  0.45127305  1.0
  C  C65  1  0.27734260  0.61985230  0.55079225  1.0
  C  C66  1  0.38549795  0.62890746  0.56918821  1.0
  C  C67  1  0.12374287  0.26819569  0.49300532  1.0
  C  C68  1  0.29412792  0.97475653  0.37232151  1.0
  C  C69  1  0.22339047  0.14991158  0.47180006  1.0
  C  C70  1  0.82045268  0.91943780  0.51764388  1.0
  C  C71  1  0.73219092  0.03429452  0.52324833  1.0
  C  C72  1  0.60956410  0.06649886  0.51073908  1.0
  C  C73  1  0.88445104  0.69272145  0.82878523  1.0
  C  C74  1  0.96693570  0.76137649  0.79936421  1.0
  C  C75  1  0.38567102  0.72569923  0.63148720  1.0
  C  C76  1  0.25967214  0.80513747  0.68394000  1.0
  C  C77  1  0.34370236  0.16935057  0.60901008  1.0
  C  C78  1  0.39350945  0.08139396  0.69432775  1.0
  C  C79  1  0.95042003  0.89633710  0.53844528  1.0
  C  C80  1  0.03427628  0.90101186  0.44053457  1.0
  C  C81  1  0.08683949  0.29580852  0.17507841  1.0
  C  C82  1  0.98450730  0.24739291  0.19148336  1.0
  N  N83  1  0.27384623  0.53465973  0.49203387  1.0
  N  N84  1  0.72280018  0.45167761  0.50321097  1.0
  O  O85  1  0.05416909  0.53990913  0.64350895  1.0
  O  O86  1  0.91924532  0.44877171  0.66157359  1.0
  O  O87  1  0.97689519  0.68094554  0.46202264  1.0
  O  O88  1  0.81198308  0.64046809  0.53124009  1.0
  O  O89  1  0.11220750  0.49420777  0.33158473  1.0
  O  O90  1  0.91912410  0.49111085  0.35710146  1.0
  O  O91  1  0.16123101  0.34678571  0.51170721  1.0
  O  O92  1  0.01106088  0.28590926  0.48566188  1.0
  F  F93  1  0.12481713  0.23186963  0.97551347  1.0
  F  F94  1  0.88315957  0.75725421  0.02126081  1.0
  F  F95  1  0.09531314  0.27448068  0.78277776  1.0
  F  F96  1  0.37287048  0.37574433  0.39260831  1.0
  F  F97  1  0.77035389  0.11989364  0.54496662  1.0
