# generated using pymatgen
data_ZnH24C31(NO4)2
_symmetry_space_group_name_H-M   'P 1'
_cell_length_a   9.48807500
_cell_length_b   10.99368827
_cell_length_c   28.02092314
_cell_angle_alpha   88.08832978
_cell_angle_beta   87.75004360
_cell_angle_gamma   89.09387244
_symmetry_Int_Tables_number   1
_chemical_formula_structural   ZnH24C31(NO4)2
_chemical_formula_sum   'Zn2 H48 C62 N4 O16'
_cell_volume   2918.64609198
_cell_formula_units_Z   2
loop_
 _symmetry_equiv_pos_site_id
 _symmetry_equiv_pos_as_xyz
  1  'x, y, z'
loop_
 _atom_site_type_symbol
 _atom_site_label
 _atom_site_symmetry_multiplicity
 _atom_site_fract_x
 _atom_site_fract_y
 _atom_site_fract_z
 _atom_site_occupancy
  Zn  Zn0  1  0.64187127  0.50379289  0.49699966  1.0
  Zn  Zn1  1  0.36003922  0.50727844  0.50233819  1.0
  H  H2  1  0.71814629  0.55827471  0.34312985  1.0
  H  H3  1  0.27519734  0.42373285  0.65533507  1.0
  H  H4  1  0.71871152  0.49714365  0.64805156  1.0
  H  H5  1  0.27230239  0.50228017  0.35283043  1.0
  H  H6  1  0.71963278  0.49481528  0.73790547  1.0
  H  H7  1  0.26922165  0.48943096  0.26325510  1.0
  H  H8  1  0.43030118  0.76652237  0.86749876  1.0
  H  H9  1  0.52469650  0.20052564  0.13300898  1.0
  H  H10  1  0.42831886  0.78376504  0.95567416  1.0
  H  H11  1  0.52696721  0.18166848  0.04493951  1.0
  H  H12  1  0.45512178  0.79519516  0.02291817  1.0
  H  H13  1  0.54268376  0.17533519  0.97657317  1.0
  H  H14  1  0.27835264  0.89398402  0.50537276  1.0
  H  H15  1  0.73120430  0.11692743  0.49245949  1.0
  H  H16  1  0.27883737  0.12319268  0.49848694  1.0
  H  H17  1  0.73078851  0.88781480  0.49920305  1.0
  H  H18  1  0.12936282  0.37987529  0.55751170  1.0
  H  H19  1  0.87224795  0.63355039  0.44298988  1.0
  H  H20  1  0.14354833  0.63682958  0.44586194  1.0
  H  H21  1  0.85814852  0.37490166  0.55405309  1.0
  H  H22  1  0.94810020  0.57297267  0.24259351  1.0
  H  H23  1  0.86246123  0.62257387  0.29609809  1.0
  H  H24  1  0.83138216  0.74106672  0.19636657  1.0
  H  H25  1  0.74087786  0.79015728  0.24856943  1.0
  H  H26  1  0.97318031  0.83885980  0.28476116  1.0
  H  H27  1  0.95703518  0.91752159  0.22905014  1.0
  H  H28  1  0.06646505  0.78561208  0.23325831  1.0
  H  H29  1  0.24331074  0.22807510  0.75573896  1.0
  H  H30  1  0.14739704  0.29969423  0.70853688  1.0
  H  H31  1  0.07529936  0.33243323  0.81489073  1.0
  H  H32  1  0.97615126  0.38873623  0.76665047  1.0
  H  H33  1  0.93102650  0.16956920  0.74366484  1.0
  H  H34  1  0.86424177  0.20011423  0.80186721  1.0
  H  H35  1  0.02541325  0.11681086  0.79392603  1.0
  H  H36  1  0.49043649  0.01065988  0.11220641  1.0
  H  H37  1  0.53572818  0.94114653  0.05700587  1.0
  H  H38  1  0.68750898  0.89996973  0.15109911  1.0
  H  H39  1  0.72846509  0.82088375  0.09833528  1.0
  H  H40  1  0.78931307  0.02015407  0.05444001  1.0
  H  H41  1  0.89516405  0.99298230  0.10458301  1.0
  H  H42  1  0.75317802  0.09917489  0.10799250  1.0
  H  H43  1  0.55932223  0.95857329  0.88670940  1.0
  H  H44  1  0.50856581  0.02155831  0.94251385  1.0
  H  H45  1  0.80155973  0.03679851  0.89174021  1.0
  H  H46  1  0.75835018  0.10231470  0.94717037  1.0
  H  H47  1  0.70534739  0.89231286  0.98379752  1.0
  H  H48  1  0.88084750  0.90019568  0.96001700  1.0
  H  H49  1  0.75023148  0.82696353  0.92807888  1.0
  C  C50  1  0.50458213  0.74236819  0.50552402  1.0
  C  C51  1  0.50483404  0.26858571  0.49288878  1.0
  C  C52  1  0.50047844  0.53326677  0.40564821  1.0
  C  C53  1  0.49408643  0.47072034  0.59349868  1.0
  C  C54  1  0.48246940  0.62371731  0.17635962  1.0
  C  C55  1  0.50746196  0.34716902  0.82285374  1.0
  C  C56  1  0.50217258  0.39587828  0.18316695  1.0
  C  C57  1  0.47324528  0.57397090  0.81683306  1.0
  C  C58  1  0.36686436  0.50566269  0.28114445  1.0
  C  C59  1  0.62348898  0.47768321  0.71930683  1.0
  C  C60  1  0.36812683  0.51317753  0.33058216  1.0
  C  C61  1  0.62322873  0.47878071  0.66969153  1.0
  C  C62  1  0.62103200  0.54594575  0.32459356  1.0
  C  C63  1  0.37254556  0.43613132  0.67382270  1.0
  C  C64  1  0.61997534  0.53977396  0.27490083  1.0
  C  C65  1  0.37286578  0.43312484  0.72364940  1.0
  C  C66  1  0.49112191  0.51867931  0.25359388  1.0
  C  C67  1  0.49920188  0.45577565  0.74601511  1.0
  C  C68  1  0.48870041  0.50093975  0.10179310  1.0
  C  C69  1  0.48906400  0.46744003  0.89779957  1.0
  C  C70  1  0.47749592  0.61606618  0.12376108  1.0
  C  C71  1  0.50849870  0.35352672  0.87550318  1.0
  C  C72  1  0.46693521  0.72103236  0.09407242  1.0
  C  C73  1  0.52854171  0.24825861  0.90487369  1.0
  C  C74  1  0.50172599  0.39302272  0.13047467  1.0
  C  C75  1  0.46967859  0.57544060  0.86948726  1.0
  C  C76  1  0.49590400  0.53256380  0.35226655  1.0
  C  C77  1  0.49703997  0.45973184  0.64688048  1.0
  C  C78  1  0.46992223  0.59212292  0.96990678  1.0
  C  C79  1  0.50413523  0.37535273  0.02976311  1.0
  C  C80  1  0.50698758  0.36812953  0.97750612  1.0
  C  C81  1  0.47556954  0.60015293  0.02186505  1.0
  C  C82  1  0.48857692  0.47649581  0.94873524  1.0
  C  C83  1  0.48946247  0.49151072  0.05086959  1.0
  C  C84  1  0.44696527  0.69502255  0.94031827  1.0
  C  C85  1  0.51625119  0.27173300  0.05984566  1.0
  C  C86  1  0.44719697  0.68666619  0.89084849  1.0
  C  C87  1  0.51499250  0.28071330  0.10933983  1.0
  C  C88  1  0.46666371  0.71120083  0.04411809  1.0
  C  C89  1  0.52702295  0.25795269  0.95499847  1.0
  C  C90  1  0.37666586  0.94402308  0.50245897  1.0
  C  C91  1  0.63286443  0.06691687  0.49527296  1.0
  C  C92  1  0.37693479  0.07038582  0.49869914  1.0
  C  C93  1  0.63260784  0.94053779  0.49897966  1.0
  C  C94  1  0.50496785  0.13253965  0.49519692  1.0
  C  C95  1  0.50450767  0.87839689  0.50263515  1.0
  C  C96  1  0.06996842  0.43529915  0.53208596  1.0
  C  C97  1  0.93168105  0.57731063  0.46815116  1.0
  C  C98  1  0.07781221  0.57972067  0.46989801  1.0
  C  C99  1  0.92386136  0.43248604  0.53018840  1.0
  C  C100  1  0.85352919  0.62017826  0.25710560  1.0
  C  C101  1  0.84031115  0.74830860  0.23522242  1.0
  C  C102  1  0.96607832  0.82654320  0.24614753  1.0
  C  C103  1  0.17536437  0.30691697  0.74618591  1.0
  C  C104  1  0.04351125  0.31203794  0.77865864  1.0
  C  C105  1  0.96177044  0.19315709  0.77960291  1.0
  C  C106  1  0.53852344  0.92921956  0.09633835  1.0
  C  C107  1  0.68933296  0.90867290  0.11188099  1.0
  C  C108  1  0.78669351  0.01096446  0.09371323  1.0
  C  C109  1  0.58138142  0.03183296  0.91094300  1.0
  C  C110  1  0.73519255  0.02549619  0.92463326  1.0
  C  C111  1  0.76972190  0.90469147  0.95048966  1.0
  N  N112  1  0.48828245  0.51136685  0.20249341  1.0
  N  N113  1  0.49833659  0.45997976  0.79721037  1.0
  N  N114  1  0.85714847  0.50347051  0.49820680  1.0
  N  N115  1  0.14457910  0.50866986  0.50185727  1.0
  O  O116  1  0.62418840  0.68794671  0.50349575  1.0
  O  O117  1  0.38532109  0.32322940  0.49388851  1.0
  O  O118  1  0.62439448  0.32035093  0.49081239  1.0
  O  O119  1  0.38531073  0.69027602  0.50921340  1.0
  O  O120  1  0.62135956  0.53088106  0.42405003  1.0
  O  O121  1  0.37355544  0.47406734  0.57482001  1.0
  O  O122  1  0.61242376  0.47795960  0.57050125  1.0
  O  O123  1  0.38241017  0.53402563  0.42899352  1.0
  O  O124  1  0.48188518  0.71889742  0.19813439  1.0
  O  O125  1  0.51532339  0.25270861  0.80051281  1.0
  O  O126  1  0.45677823  0.66615323  0.79135977  1.0
  O  O127  1  0.51384367  0.30346396  0.20885724  1.0
  O  O128  1  0.73664972  0.54646629  0.24478479  1.0
  O  O129  1  0.25361966  0.41683191  0.75234716  1.0
  O  O130  1  0.44795795  0.83193748  0.11357836  1.0
  O  O131  1  0.54752258  0.14070537  0.88354868  1.0
