# generated using pymatgen
data_Zn4H4C20O17F2
_symmetry_space_group_name_H-M   'P 1'
_cell_length_a   15.94196670
_cell_length_b   15.94276067
_cell_length_c   17.10399536
_cell_angle_alpha   117.55057565
_cell_angle_beta   117.54927106
_cell_angle_gamma   90.41694179
_symmetry_Int_Tables_number   1
_chemical_formula_structural   Zn4H4C20O17F2
_chemical_formula_sum   'Zn8 H8 C40 O34 F4'
_cell_volume   3279.08087518
_cell_formula_units_Z   2
loop_
 _symmetry_equiv_pos_site_id
 _symmetry_equiv_pos_as_xyz
  1  'x, y, z'
loop_
 _atom_site_type_symbol
 _atom_site_label
 _atom_site_symmetry_multiplicity
 _atom_site_fract_x
 _atom_site_fract_y
 _atom_site_fract_z
 _atom_site_occupancy
  Zn  Zn0  1  0.89479585  0.29253537  0.58761217  1.0
  Zn  Zn1  1  0.29623182  0.69571543  0.59030305  1.0
  Zn  Zn2  1  0.69571983  0.29623667  0.59031327  1.0
  Zn  Zn3  1  0.30427907  0.70376626  0.40969056  1.0
  Zn  Zn4  1  0.70376595  0.30428461  0.40969641  1.0
  Zn  Zn5  1  0.10519840  0.70746238  0.41238427  1.0
  Zn  Zn6  1  0.70745178  0.10520614  0.41237715  1.0
  Zn  Zn7  1  0.29254341  0.89479483  0.58762326  1.0
  H  H8  1  0.11388362  0.41668833  0.07035377  1.0
  H  H9  1  0.79280067  0.19521135  0.82345325  1.0
  H  H10  1  0.19499776  0.79317854  0.82342229  1.0
  H  H11  1  0.80500721  0.20681702  0.17657709  1.0
  H  H12  1  0.20719487  0.80479246  0.17654557  1.0
  H  H13  1  0.88611736  0.58330977  0.92964596  1.0
  H  H14  1  0.58313223  0.88580815  0.92968023  1.0
  H  H15  1  0.41686967  0.11419425  0.07032010  1.0
  C  C16  1  0.61165222  0.10822022  0.22224190  1.0
  C  C17  1  0.47322262  0.97255234  0.49978771  1.0
  C  C18  1  0.97255470  0.47321900  0.49978812  1.0
  C  C19  1  0.02744361  0.52677203  0.50020380  1.0
  C  C20  1  0.52677661  0.02745480  0.50021886  1.0
  C  C21  1  0.52681837  0.47318335  0.50000472  1.0
  C  C22  1  0.47317688  0.52681345  0.49999151  1.0
  C  C23  1  0.38834512  0.89178133  0.77775834  1.0
  C  C24  1  0.90792920  0.40897153  0.49978127  1.0
  C  C25  1  0.09206891  0.59101983  0.50021024  1.0
  C  C26  1  0.59102437  0.09207758  0.50022482  1.0
  C  C27  1  0.40897888  0.90792668  0.49978254  1.0
  C  C28  1  0.59082339  0.40918362  0.50000748  1.0
  C  C29  1  0.89180027  0.38831536  0.77775114  1.0
  C  C30  1  0.40917283  0.59081433  0.49999064  1.0
  C  C31  1  0.90930667  0.09068244  0.49998527  1.0
  C  C32  1  0.09069051  0.90931701  0.50001360  1.0
  C  C33  1  0.97319353  0.02679965  0.49999184  1.0
  C  C34  1  0.02680153  0.97319734  0.50000014  1.0
  C  C35  1  0.10820086  0.61168520  0.22224884  1.0
  C  C36  1  0.06442616  0.49016116  0.96906510  1.0
  C  C37  1  0.93557458  0.50983849  0.03093470  1.0
  C  C38  1  0.50964768  0.93561319  0.03095920  1.0
  C  C39  1  0.49035322  0.06438979  0.96904246  1.0
  C  C40  1  0.06342519  0.45392910  0.03882037  1.0
  C  C41  1  0.93657793  0.54607045  0.96118080  1.0
  C  C42  1  0.54597617  0.93640909  0.96120707  1.0
  C  C43  1  0.45402612  0.06359264  0.03879407  1.0
  C  C44  1  0.05010475  0.55385743  0.10691800  1.0
  C  C45  1  0.94989559  0.44614252  0.89308210  1.0
  C  C46  1  0.44616525  0.94987599  0.89308790  1.0
  C  C47  1  0.55383664  0.05012640  0.10691243  1.0
  C  C48  1  0.05105669  0.59213980  0.03635244  1.0
  C  C49  1  0.94894486  0.40785889  0.96364787  1.0
  C  C50  1  0.40777700  0.94912846  0.96364497  1.0
  C  C51  1  0.59222352  0.05087309  0.03635378  1.0
  C  C52  1  0.10341372  0.68830969  0.06426976  1.0
  C  C53  1  0.89659085  0.31168567  0.93572720  1.0
  C  C54  1  0.31149645  0.89696160  0.93569520  1.0
  C  C55  1  0.68850247  0.10304153  0.06430366  1.0
  O  O56  1  0.75002556  0.24997133  0.49999795  1.0
  O  O57  1  0.34543555  0.93743915  0.73296644  1.0
  O  O58  1  0.93745104  0.34538344  0.73295173  1.0
  O  O59  1  0.06254790  0.65461812  0.26704777  1.0
  O  O60  1  0.81813377  0.37496775  0.42570358  1.0
  O  O61  1  0.18186166  0.62502994  0.57429354  1.0
  O  O62  1  0.62502699  0.18187277  0.57430178  1.0
  O  O63  1  0.37498219  0.81813052  0.42571124  1.0
  O  O64  1  0.24997222  0.75002871  0.50000151  1.0
  O  O65  1  0.63016295  0.39899382  0.44725712  1.0
  O  O66  1  0.36983560  0.60100646  0.55274332  1.0
  O  O67  1  0.60102213  0.36985654  0.55276691  1.0
  O  O68  1  0.39897484  0.63014410  0.44723316  1.0
  O  O69  1  0.81813479  0.04912368  0.45499095  1.0
  O  O70  1  0.18186161  0.95087551  0.54500693  1.0
  O  O71  1  0.95086623  0.18184970  0.54497466  1.0
  O  O72  1  0.04912995  0.81814962  0.45502778  1.0
  O  O73  1  0.94811243  0.39327339  0.57380987  1.0
  O  O74  1  0.05188371  0.60671706  0.42618221  1.0
  O  O75  1  0.60672554  0.05189490  0.42619864  1.0
  O  O76  1  0.39326980  0.94810818  0.57380314  1.0
  O  O77  1  0.61250341  0.19854471  0.26504025  1.0
  O  O78  1  0.38749689  0.80145840  0.73495858  1.0
  O  O79  1  0.80148325  0.38750052  0.73496168  1.0
  O  O80  1  0.19851684  0.61250307  0.26504059  1.0
  O  O81  1  0.65456001  0.06256238  0.26703526  1.0
  O  O82  1  0.08522978  0.71153992  0.00067270  1.0
  O  O83  1  0.17425286  0.74528000  0.16647381  1.0
  O  O84  1  0.91478842  0.28844573  0.99932041  1.0
  O  O85  1  0.82573569  0.25472724  0.83352773  1.0
  O  O86  1  0.28814229  0.91534237  0.99923809  1.0
  O  O87  1  0.25457298  0.82602866  0.83351821  1.0
  O  O88  1  0.71185057  0.08466903  0.00075800  1.0
  O  O89  1  0.74543380  0.17396464  0.16648260  1.0
  F  F90  1  0.13175476  0.48239045  0.94035247  1.0
  F  F91  1  0.86824622  0.51760642  0.05964677  1.0
  F  F92  1  0.51723183  0.86832480  0.05969851  1.0
  F  F93  1  0.48277067  0.13167696  0.94030192  1.0
