# generated using pymatgen
data_ZnH10C11NO6
_symmetry_space_group_name_H-M   'P 1'
_cell_length_a   9.55956347
_cell_length_b   10.99388780
_cell_length_c   11.19573197
_cell_angle_alpha   92.92124505
_cell_angle_beta   90.24564261
_cell_angle_gamma   91.26813958
_symmetry_Int_Tables_number   1
_chemical_formula_structural   ZnH10C11NO6
_chemical_formula_sum   'Zn2 H20 C22 N2 O12'
_cell_volume   1174.80114747
_cell_formula_units_Z   2
loop_
 _symmetry_equiv_pos_site_id
 _symmetry_equiv_pos_as_xyz
  1  'x, y, z'
loop_
 _atom_site_type_symbol
 _atom_site_label
 _atom_site_symmetry_multiplicity
 _atom_site_fract_x
 _atom_site_fract_y
 _atom_site_fract_z
 _atom_site_occupancy
  Zn  Zn0  1  0.64629140  0.50635632  0.50332582  1.0
  Zn  Zn1  1  0.36324523  0.49741126  0.49337645  1.0
  H  H2  1  0.28658479  0.88194570  0.46838854  1.0
  H  H3  1  0.28817234  0.11062311  0.46233142  1.0
  H  H4  1  0.72857260  0.12298511  0.53738585  1.0
  H  H5  1  0.72897423  0.89410328  0.53622732  1.0
  H  H6  1  0.13656103  0.36245928  0.61902465  1.0
  H  H7  1  0.14297366  0.64660039  0.38912809  1.0
  H  H8  1  0.86742306  0.36511331  0.62114021  1.0
  H  H9  1  0.87455581  0.65356244  0.39629986  1.0
  H  H10  1  0.26240498  0.21443003  0.00016930  1.0
  H  H11  1  0.43764022  0.19842267  0.94904773  1.0
  H  H12  1  0.35006108  0.12022173  0.74713383  1.0
  H  H13  1  0.28053470  0.02979810  0.86131518  1.0
  H  H14  1  0.17380148  0.13888047  0.79526606  1.0
  H  H15  1  0.11455408  0.40286776  0.97011623  1.0
  H  H16  1  0.18610495  0.55359300  0.98918107  1.0
  H  H17  1  0.06314331  0.58518558  0.18283707  1.0
  H  H18  1  0.93846224  0.53038743  0.07241470  1.0
  H  H19  1  0.00521156  0.42966019  0.17728271  1.0
  H  H20  1  0.63107185  0.61719601  0.85383294  1.0
  H  H21  1  0.69883734  0.43237522  0.16650059  1.0
  C  C22  1  0.50846869  0.73911920  0.50198518  1.0
  C  C23  1  0.50724829  0.26534142  0.49741879  1.0
  C  C24  1  0.50381012  0.47833184  0.26565216  1.0
  C  C25  1  0.49444093  0.49740975  0.73129185  1.0
  C  C26  1  0.40915153  0.42168944  0.92930551  1.0
  C  C27  1  0.39605653  0.43534058  0.05950008  1.0
  C  C28  1  0.49061697  0.49756828  0.86433302  1.0
  C  C29  1  0.50845652  0.44499670  0.13621983  1.0
  C  C30  1  0.38299793  0.93563949  0.48237882  1.0
  C  C31  1  0.38351123  0.06195530  0.47990330  1.0
  C  C32  1  0.50825877  0.12953794  0.49989566  1.0
  C  C33  1  0.50791174  0.87514005  0.50202511  1.0
  C  C34  1  0.63267613  0.06914468  0.52152937  1.0
  C  C35  1  0.63282960  0.94264196  0.52111520  1.0
  C  C36  1  0.07622812  0.42538460  0.56824094  1.0
  C  C37  1  0.07984833  0.58486400  0.44097870  1.0
  C  C38  1  0.93077294  0.42795468  0.57067245  1.0
  C  C39  1  0.93453172  0.58836179  0.44450579  1.0
  C  C40  1  0.32965250  0.21511937  0.92036723  1.0
  C  C41  1  0.28074122  0.12087996  0.82508254  1.0
  C  C42  1  0.14936643  0.47405613  0.03715927  1.0
  C  C43  1  0.03232700  0.50706431  0.12278451  1.0
  N  N44  1  0.86167805  0.50889198  0.50828701  1.0
  N  N45  1  0.14876028  0.50294655  0.50200749  1.0
  O  O46  1  0.62599316  0.68824574  0.48480009  1.0
  O  O47  1  0.62044783  0.32379974  0.52697817  1.0
  O  O48  1  0.39225932  0.68396910  0.51919096  1.0
  O  O49  1  0.39359468  0.31273073  0.46600586  1.0
  O  O50  1  0.62323355  0.47147850  0.31941095  1.0
  O  O51  1  0.60936860  0.53859047  0.68809406  1.0
  O  O52  1  0.39120954  0.51285810  0.31566453  1.0
  O  O53  1  0.38572086  0.46545302  0.67138834  1.0
  O  O54  1  0.32527189  0.33400299  0.86961298  1.0
  O  O55  1  0.26356129  0.42892185  0.10631430  1.0
  O  O56  1  0.57421823  0.58625562  0.91919568  1.0
  O  O57  1  0.64000243  0.42089658  0.09403006  1.0
