# generated using pymatgen
data_CdH12C16(N2O3)2
_symmetry_space_group_name_H-M   'P 1'
_cell_length_a   7.65898281
_cell_length_b   21.26388111
_cell_length_c   21.27006285
_cell_angle_alpha   118.57182655
_cell_angle_beta   96.88852605
_cell_angle_gamma   96.90362509
_symmetry_Int_Tables_number   1
_chemical_formula_structural   CdH12C16(N2O3)2
_chemical_formula_sum   'Cd6 H72 C96 N24 O36'
_cell_volume   2956.92464871
_cell_formula_units_Z   6
loop_
 _symmetry_equiv_pos_site_id
 _symmetry_equiv_pos_as_xyz
  1  'x, y, z'
loop_
 _atom_site_type_symbol
 _atom_site_label
 _atom_site_symmetry_multiplicity
 _atom_site_fract_x
 _atom_site_fract_y
 _atom_site_fract_z
 _atom_site_occupancy
  Cd  Cd0  1  0.47860819  0.72833790  0.23022320  1.0
  Cd  Cd1  1  0.75038918  0.50197130  0.27177967  1.0
  Cd  Cd2  1  0.24846790  0.76976453  0.49801185  1.0
  Cd  Cd3  1  0.24960876  0.49802854  0.72822021  1.0
  Cd  Cd4  1  0.75153083  0.23023451  0.50198777  1.0
  Cd  Cd5  1  0.52139274  0.27166257  0.76977677  1.0
  H  H6  1  0.78129575  0.40831656  0.77660657  1.0
  H  H7  1  0.37317043  0.36814047  0.59166711  1.0
  H  H8  1  0.00439770  0.22347913  0.63189844  1.0
  H  H9  1  0.62683003  0.63185953  0.40833238  1.0
  H  H10  1  0.99560228  0.77651985  0.36810112  1.0
  H  H11  1  0.21870219  0.59168356  0.22339304  1.0
  H  H12  1  0.94298011  0.53313762  0.86718166  1.0
  H  H13  1  0.40969370  0.33382860  0.46681247  1.0
  H  H14  1  0.07530176  0.13290456  0.66616864  1.0
  H  H15  1  0.59030771  0.66617289  0.53318741  1.0
  H  H16  1  0.92469618  0.86709474  0.33383180  1.0
  H  H17  1  0.05701657  0.46686310  0.13281746  1.0
  H  H18  1  0.68814362  0.50992406  0.02821238  1.0
  H  H19  1  0.17807584  0.51805015  0.48990729  1.0
  H  H20  1  0.66016185  0.97169503  0.48175835  1.0
  H  H21  1  0.82192572  0.48195253  0.51009433  1.0
  H  H22  1  0.33984064  0.02830411  0.51824083  1.0
  H  H23  1  0.31185684  0.49007594  0.97178711  1.0
  H  H24  1  0.53401343  0.38619422  0.92983311  1.0
  H  H25  1  0.14800784  0.54345481  0.61364047  1.0
  H  H26  1  0.60459716  0.07008036  0.45638548  1.0
  H  H27  1  0.85199277  0.45654611  0.38636103  1.0
  H  H28  1  0.39540360  0.92991809  0.54361356  1.0
  H  H29  1  0.46598875  0.61380619  0.07016680  1.0
  H  H30  1  0.03736039  0.63923784  0.94156471  1.0
  H  H31  1  0.39792148  0.30209348  0.36067219  1.0
  H  H32  1  0.09586767  0.05849696  0.69776103  1.0
  H  H33  1  0.60207536  0.69790788  0.63932921  1.0
  H  H34  1  0.90413780  0.94150307  0.30223795  1.0
  H  H35  1  0.96263755  0.36076227  0.05843489  1.0
  H  H36  1  0.20613587  0.75980808  0.03837493  1.0
  H  H37  1  0.44683397  0.27855318  0.24023749  1.0
  H  H38  1  0.16827957  0.96165778  0.72140894  1.0
  H  H39  1  0.55316193  0.72144670  0.75976352  1.0
  H  H40  1  0.83172435  0.03834277  0.27859165  1.0
  H  H41  1  0.79386033  0.24019134  0.96162453  1.0
  H  H42  1  0.03335287  0.71583781  0.20169404  1.0
  H  H43  1  0.31782880  0.48585522  0.28423098  1.0
  H  H44  1  0.83214606  0.79825656  0.51417769  1.0
  H  H45  1  0.68217118  0.51414458  0.71576777  1.0
  H  H46  1  0.16785534  0.20174301  0.48582411  1.0
  H  H47  1  0.96664680  0.28416244  0.79830625  1.0
  H  H48  1  0.86736586  0.59588298  0.10696249  1.0
  H  H49  1  0.27126333  0.51085874  0.40403955  1.0
  H  H50  1  0.76053118  0.89303962  0.48908331  1.0
  H  H51  1  0.72873808  0.48914275  0.59596034  1.0
  H  H52  1  0.23946629  0.10695866  0.51091719  1.0
  H  H53  1  0.13263254  0.40411787  0.89303731  1.0
  H  H54  1  0.11098728  0.87647702  0.13657748  1.0
  H  H55  1  0.23445847  0.26024907  0.12369075  1.0
  H  H56  1  0.97501981  0.86339089  0.73983235  1.0
  H  H57  1  0.76553900  0.73975003  0.87630894  1.0
  H  H58  1  0.02498709  0.13660919  0.26016941  1.0
  H  H59  1  0.88901317  0.12352298  0.86342201  1.0
  H  H60  1  0.27979836  0.00107614  0.23930986  1.0
  H  H61  1  0.27850992  0.23837651  0.99909077  1.0
  H  H62  1  0.04102292  0.76062622  0.76165947  1.0
  H  H63  1  0.72148754  0.76162258  0.00090891  1.0
  H  H64  1  0.95898304  0.23937347  0.23834080  1.0
  H  H65  1  0.72020209  0.99892413  0.76068936  1.0
  H  H66  1  0.48253446  0.00826813  0.34292608  1.0
  H  H67  1  0.47468788  0.33468895  0.99185090  1.0
  H  H68  1  0.14024596  0.65698798  0.66526191  1.0
  H  H69  1  0.52531006  0.66531034  0.00814952  1.0
  H  H70  1  0.85975623  0.34301216  0.33473827  1.0
  H  H71  1  0.51746522  0.99173240  0.65707394  1.0
  H  H72  1  0.51933521  0.89105160  0.34168876  1.0
  H  H73  1  0.62888947  0.45065541  0.10900399  1.0
  H  H74  1  0.17825729  0.65824415  0.54929984  1.0
  H  H75  1  0.37110800  0.54934341  0.89099596  1.0
  H  H76  1  0.82174065  0.34175541  0.45070031  1.0
  H  H77  1  0.48066273  0.10894879  0.65831058  1.0
  C  C78  1  0.76412903  0.43297697  0.83309157  1.0
  C  C79  1  0.33123444  0.39994708  0.56698123  1.0
  C  C80  1  0.93083112  0.16696520  0.60004597  1.0
  C  C81  1  0.66876649  0.60005339  0.43301873  1.0
  C  C82  1  0.06916886  0.83303351  0.39995387  1.0
  C  C83  1  0.23586891  0.56702369  0.16690749  1.0
  C  C84  1  0.85559218  0.50327238  0.88491957  1.0
  C  C85  1  0.35216967  0.38142115  0.49666066  1.0
  C  C86  1  0.97030920  0.11514602  0.61854208  1.0
  C  C87  1  0.64783221  0.61858081  0.50333970  1.0
  C  C88  1  0.02968952  0.88485274  0.38145781  1.0
  C  C89  1  0.14440702  0.49672822  0.11507943  1.0
  C  C90  1  0.83595980  0.53391134  0.95813367  1.0
  C  C91  1  0.30185347  0.42395960  0.46596560  1.0
  C  C92  1  0.87774656  0.04187563  0.57592036  1.0
  C  C93  1  0.69814762  0.57604261  0.53403556  1.0
  C  C94  1  0.12225467  0.95812329  0.42407915  1.0
  C  C95  1  0.16403939  0.46608899  0.04186561  1.0
  C  C96  1  0.71510883  0.49029375  0.97352527  1.0
  C  C97  1  0.22472820  0.48299594  0.50954812  1.0
  C  C98  1  0.74173458  0.02641181  0.51684531  1.0
  C  C99  1  0.77527116  0.51700586  0.49045262  1.0
  C  C100  1  0.25826744  0.97358658  0.48315367  1.0
  C  C101  1  0.28489037  0.50970631  0.02647428  1.0
  C  C102  1  0.62752387  0.42073691  0.91882673  1.0
  C  C103  1  0.20691966  0.49789044  0.57912049  1.0
  C  C104  1  0.70896719  0.08112643  0.50197944  1.0
  C  C105  1  0.79308050  0.50211029  0.42088028  1.0
  C  C106  1  0.29103405  0.91887222  0.49802034  1.0
  C  C107  1  0.37247784  0.57926276  0.08117298  1.0
  C  C108  1  0.93720984  0.60707096  0.01582304  1.0
  C  C109  1  0.32994468  0.40851231  0.39282650  1.0
  C  C110  1  0.92143671  0.98419766  0.59138202  1.0
  C  C111  1  0.67005421  0.59148902  0.60717377  1.0
  C  C112  1  0.07856374  0.01580179  0.40861802  1.0
  C  C113  1  0.06278857  0.39292935  0.98417731  1.0
  C  C114  1  0.03528528  0.65503754  0.99831390  1.0
  C  C115  1  0.38011075  0.34306775  0.34488053  1.0
  C  C116  1  0.03706389  0.00172837  0.65682418  1.0
  C  C117  1  0.61988610  0.65693390  0.65512061  1.0
  C  C118  1  0.96293829  0.99827231  0.34317545  1.0
  C  C119  1  0.96471266  0.34496258  0.00168571  1.0
  C  C120  1  0.13008252  0.72372673  0.05300063  1.0
  C  C121  1  0.40660235  0.32919157  0.27628184  1.0
  C  C122  1  0.07746049  0.94702401  0.67075158  1.0
  C  C123  1  0.59339182  0.67080817  0.72371849  1.0
  C  C124  1  0.92254264  0.05297652  0.32925008  1.0
  C  C125  1  0.86991541  0.27627338  0.94699898  1.0
  C  C126  1  0.13282073  0.74640583  0.12698509  1.0
  C  C127  1  0.38677587  0.38056797  0.25365379  1.0
  C  C128  1  0.00633462  0.87300726  0.61942759  1.0
  C  C129  1  0.61321860  0.61943077  0.74634554  1.0
  C  C130  1  0.99366852  0.12699327  0.38057407  1.0
  C  C131  1  0.86717847  0.25359423  0.87301447  1.0
  C  C132  1  0.03660345  0.69885530  0.14477124  1.0
  C  C133  1  0.33803880  0.44587486  0.30117980  1.0
  C  C134  1  0.89227215  0.85520424  0.55412597  1.0
  C  C135  1  0.66195914  0.55412525  0.69881980  1.0
  C  C136  1  0.10773003  0.14479535  0.44587475  1.0
  C  C137  1  0.96339481  0.30114355  0.85522765  1.0
  C  C138  1  0.93934554  0.63062261  0.09001598  1.0
  C  C139  1  0.30871202  0.45922735  0.36932726  1.0
  C  C140  1  0.84955253  0.90998308  0.54071722  1.0
  C  C141  1  0.69128687  0.54077398  0.63067301  1.0
  C  C142  1  0.15044839  0.09001684  0.45928328  1.0
  C  C143  1  0.06065319  0.36937616  0.90998392  1.0
  C  C144  1  0.23077663  0.81967226  0.18543760  1.0
  C  C145  1  0.41145313  0.36582847  0.18042117  1.0
  C  C146  1  0.04591467  0.81453114  0.63419714  1.0
  C  C147  1  0.58854308  0.63417041  0.81957884  1.0
  C  C148  1  0.95408672  0.18546952  0.36580356  1.0
  C  C149  1  0.76922257  0.18032780  0.81456196  1.0
  C  C150  1  0.20576472  0.88244983  0.18245011  1.0
  C  C151  1  0.32339458  0.30010544  0.11767694  1.0
  C  C152  1  0.02396167  0.81751229  0.69993983  1.0
  C  C153  1  0.67659942  0.69989229  0.88232247  1.0
  C  C154  1  0.97604271  0.18248845  0.30006149  1.0
  C  C155  1  0.79423526  0.11754970  0.81754891  1.0
  C  C156  1  0.29637613  0.95088824  0.23935265  1.0
  C  C157  1  0.34551384  0.28857261  0.04924350  1.0
  C  C158  1  0.05770704  0.76058980  0.71145471  1.0
  C  C159  1  0.65448237  0.71142627  0.95075651  1.0
  C  C160  1  0.94229688  0.23941075  0.28854588  1.0
  C  C161  1  0.70362432  0.04911203  0.76064657  1.0
  C  C162  1  0.40963669  0.95520774  0.29838017  1.0
  C  C163  1  0.45482755  0.34322363  0.04490646  1.0
  C  C164  1  0.11201090  0.70156130  0.65676150  1.0
  C  C165  1  0.54516991  0.65677492  0.95509377  1.0
  C  C166  1  0.88798955  0.29843815  0.34323854  1.0
  C  C167  1  0.59036250  0.04479286  0.70161882  1.0
  C  C168  1  0.42907357  0.89091136  0.29783132  1.0
  C  C169  1  0.53867794  0.40695784  0.10916842  1.0
  C  C170  1  0.13194526  0.70212119  0.59303342  1.0
  C  C171  1  0.46131780  0.59304030  0.89083140  1.0
  C  C172  1  0.86805441  0.29787906  0.40696687  1.0
  C  C173  1  0.57092563  0.10908870  0.70216824  1.0
  N  N174  1  0.48518970  0.75907474  0.37770166  1.0
  N  N175  1  0.72591847  0.61867726  0.24098547  1.0
  N  N176  1  0.10759247  0.62227721  0.38129347  1.0
  N  N177  1  0.27408073  0.38132252  0.75901435  1.0
  N  N178  1  0.89240720  0.37772277  0.61870709  1.0
  N  N179  1  0.51480998  0.24092579  0.62229836  1.0
  N  N180  1  0.69412817  0.79345538  0.16448277  1.0
  N  N181  1  0.90087645  0.37115624  0.20663831  1.0
  N  N182  1  0.52967854  0.83558048  0.62888474  1.0
  N  N183  1  0.09912495  0.62884415  0.79336267  1.0
  N  N184  1  0.47032018  0.16441938  0.37111406  1.0
  N  N185  1  0.30587150  0.20654487  0.83551752  1.0
  N  N186  1  0.65261130  0.39138180  0.84949322  1.0
  N  N187  1  0.26136771  0.45794851  0.60853353  1.0
  N  N188  1  0.80316673  0.15051169  0.54198223  1.0
  N  N189  1  0.73863197  0.54205202  0.39146649  1.0
  N  N190  1  0.19683199  0.84948735  0.45801740  1.0
  N  N191  1  0.34738742  0.60861806  0.15050559  1.0
  N  N192  1  0.34255065  0.82439814  0.24269270  1.0
  N  N193  1  0.51856452  0.41834412  0.17566589  1.0
  N  N194  1  0.10038473  0.75725631  0.58166304  1.0
  N  N195  1  0.48143169  0.58165503  0.82433384  1.0
  N  N196  1  0.89961495  0.24274395  0.41833726  1.0
  N  N197  1  0.65744903  0.17560239  0.75730732  1.0
  O  O198  1  0.60325351  0.79060695  0.35839311  1.0
  O  O199  1  0.81239001  0.56781871  0.20944641  1.0
  O  O200  1  0.24490997  0.64154278  0.43212065  1.0
  O  O201  1  0.18760919  0.43218080  0.79055368  1.0
  O  O202  1  0.75509096  0.35845714  0.56787986  1.0
  O  O203  1  0.39674491  0.20939364  0.64160697  1.0
  O  O204  1  0.51295826  0.77066311  0.44236383  1.0
  O  O205  1  0.74218171  0.67176992  0.22939774  1.0
  O  O206  1  0.07059863  0.55760616  0.32821077  1.0
  O  O207  1  0.25781796  0.32823006  0.77060282  1.0
  O  O208  1  0.92939978  0.44239388  0.67178986  1.0
  O  O209  1  0.48704141  0.22933742  0.55763619  1.0
  O  O210  1  0.34386740  0.71742255  0.33166569  1.0
  O  O211  1  0.62626610  0.61428327  0.28264507  1.0
  O  O212  1  0.01246364  0.66837605  0.38569624  1.0
  O  O213  1  0.37373262  0.38571604  0.71735428  1.0
  O  O214  1  0.98753477  0.33162371  0.61430466  1.0
  O  O215  1  0.65613226  0.28257797  0.66833432  1.0
  O  O216  1  0.56284565  0.73783581  0.12716040  1.0
  O  O217  1  0.82515908  0.38942674  0.26223349  1.0
  O  O218  1  0.43534121  0.87281591  0.61061218  1.0
  O  O219  1  0.17484531  0.61057428  0.73776757  1.0
  O  O220  1  0.56465798  0.12718442  0.38938710  1.0
  O  O221  1  0.43715701  0.26216507  0.87283997  1.0
  O  O222  1  0.77255070  0.82334599  0.13494311  1.0
  O  O223  1  0.94940272  0.31172544  0.17677769  1.0
  O  O224  1  0.63775075  0.86521863  0.68827475  1.0
  O  O225  1  0.05059694  0.68827481  0.82322260  1.0
  O  O226  1  0.36224797  0.13478123  0.31172405  1.0
  O  O227  1  0.22744819  0.17665479  0.86505771  1.0
  O  O228  1  0.73807863  0.81650466  0.23302451  1.0
  O  O229  1  0.92183741  0.41666751  0.18359371  1.0
  O  O230  1  0.50537152  0.76703696  0.58342264  1.0
  O  O231  1  0.07816352  0.58333296  0.81640625  1.0
  O  O232  1  0.49462642  0.23296316  0.41657697  1.0
  O  O233  1  0.26191978  0.18349592  0.76697556  1.0
