# generated using pymatgen
data_AlH9C21N(O2F)3
_symmetry_space_group_name_H-M   'P 1'
_cell_length_a   4.10853564
_cell_length_b   13.49598657
_cell_length_c   13.49614176
_cell_angle_alpha   59.99928137
_cell_angle_beta   89.99962239
_cell_angle_gamma   90.00035098
_symmetry_Int_Tables_number   1
_chemical_formula_structural   AlH9C21N(O2F)3
_chemical_formula_sum   'Al1 H9 C21 N1 O6 F3'
_cell_volume   648.08029096
_cell_formula_units_Z   1
loop_
 _symmetry_equiv_pos_site_id
 _symmetry_equiv_pos_as_xyz
  1  'x, y, z'
loop_
 _atom_site_type_symbol
 _atom_site_label
 _atom_site_symmetry_multiplicity
 _atom_site_fract_x
 _atom_site_fract_y
 _atom_site_fract_z
 _atom_site_occupancy
  Al  Al0  1  0.01292978  0.99999916  0.50000492  1.0
  H  H1  1  0.20932378  0.97191482  0.21220292  1.0
  H  H2  1  0.20816353  0.86937816  0.10387958  1.0
  H  H3  1  0.78540000  0.60023193  0.36983925  1.0
  H  H4  1  0.78544545  0.86984579  0.02993301  1.0
  H  H5  1  0.20931205  0.71220440  0.81588829  1.0
  H  H6  1  0.20815919  0.60388113  0.02674953  1.0
  H  H7  1  0.78545333  0.52993649  0.10023709  1.0
  H  H8  1  0.20925635  0.31588535  0.47190163  1.0
  H  H9  1  0.20810840  0.52674912  0.36936485  1.0
  C  C10  1  0.51170325  0.91577836  0.67468626  1.0
  C  C11  1  0.51172830  0.17467567  0.40955076  1.0
  C  C12  1  0.51170602  0.90954454  0.41577867  1.0
  C  C13  1  0.33977538  0.89109394  0.24566997  1.0
  C  C14  1  0.33596873  0.83264688  0.18514208  1.0
  C  C15  1  0.49560618  0.72694860  0.22775986  1.0
  C  C16  1  0.65865229  0.68162030  0.33291683  1.0
  C  C17  1  0.65747424  0.74151758  0.39147185  1.0
  C  C18  1  0.50263715  0.84663985  0.35053096  1.0
  C  C19  1  0.65864916  0.83292026  0.98544494  1.0
  C  C20  1  0.65751440  0.89146973  0.86703495  1.0
  C  C21  1  0.50264442  0.85053211  0.80282501  1.0
  C  C22  1  0.33977442  0.74566843  0.86324845  1.0
  C  C23  1  0.33595848  0.68514509  0.98220822  1.0
  C  C24  1  0.49563253  0.72777230  0.04529746  1.0
  C  C25  1  0.65868662  0.48546482  0.18162118  1.0
  C  C26  1  0.65751887  0.36701720  0.24151734  1.0
  C  C27  1  0.50263949  0.30283340  0.34664080  1.0
  C  C28  1  0.33974704  0.36324807  0.39107925  1.0
  C  C29  1  0.33594464  0.48220903  0.33263876  1.0
  C  C30  1  0.49560918  0.54530110  0.22694381  1.0
  N  N31  1  0.49235203  0.66666629  0.16666547  1.0
  O  O32  1  0.75126917  0.97670567  0.39586382  1.0
  O  O33  1  0.75128040  0.89585734  0.62743764  1.0
  O  O34  1  0.75126498  0.12744288  0.47670466  1.0
  O  O35  1  0.27884109  0.89197513  0.48462304  1.0
  O  O36  1  0.27885667  0.12340218  0.39198441  1.0
  O  O37  1  0.27885270  0.98461397  0.62341110  1.0
  F  F38  1  0.81803593  0.69516237  0.49335561  1.0
  F  F39  1  0.81807449  0.99335935  0.81148174  1.0
  F  F40  1  0.81810400  0.31148626  0.19517050  1.0
