# generated using pymatgen
data_AlH7C8N2O5
_symmetry_space_group_name_H-M   'P 1'
_cell_length_a   6.67540204
_cell_length_b   10.87068345
_cell_length_c   18.04793032
_cell_angle_alpha   89.78157387
_cell_angle_beta   87.47879095
_cell_angle_gamma   89.46623796
_symmetry_Int_Tables_number   1
_chemical_formula_structural   AlH7C8N2O5
_chemical_formula_sum   'Al4 H28 C32 N8 O20'
_cell_volume   1308.33729005
_cell_formula_units_Z   4
loop_
 _symmetry_equiv_pos_site_id
 _symmetry_equiv_pos_as_xyz
  1  'x, y, z'
loop_
 _atom_site_type_symbol
 _atom_site_label
 _atom_site_symmetry_multiplicity
 _atom_site_fract_x
 _atom_site_fract_y
 _atom_site_fract_z
 _atom_site_occupancy
  Al  Al0  1  0.99626895  0.00088353  0.49764585  1.0
  Al  Al1  1  0.49572519  0.99966888  0.50040451  1.0
  Al  Al2  1  0.00435121  0.50090761  0.99966400  1.0
  Al  Al3  1  0.50366379  0.49950496  0.00226708  1.0
  H  H4  1  0.23617515  0.15453308  0.52918992  1.0
  H  H5  1  0.74877828  0.83560158  0.50635734  1.0
  H  H6  1  0.26359777  0.34621994  0.97015521  1.0
  H  H7  1  0.75078154  0.66522842  0.99647640  1.0
  H  H8  1  0.44966758  0.35548235  0.20534822  1.0
  H  H9  1  0.04981590  0.14093145  0.29303703  1.0
  H  H10  1  0.95955777  0.74917133  0.84012664  1.0
  H  H11  1  0.54002433  0.75304165  0.66077272  1.0
  H  H12  1  0.54134483  0.74372740  0.16113505  1.0
  H  H13  1  0.95903839  0.75484583  0.33970700  1.0
  H  H14  1  0.46311921  0.25415659  0.84060828  1.0
  H  H15  1  0.03744872  0.24743892  0.65884798  1.0
  H  H16  1  0.37893333  0.20929568  0.38510424  1.0
  H  H17  1  0.27133491  0.29662983  0.31653701  1.0
  H  H18  1  0.12024863  0.28755255  0.11345764  1.0
  H  H19  1  0.22778209  0.19957435  0.18164180  1.0
  H  H20  1  0.87104646  0.90186064  0.66541091  1.0
  H  H21  1  0.77562440  0.86915625  0.75498982  1.0
  H  H22  1  0.63062286  0.60193107  0.83589808  1.0
  H  H23  1  0.72761403  0.63814275  0.74633568  1.0
  H  H24  1  0.62499273  0.90253871  0.33317179  1.0
  H  H25  1  0.72103123  0.86701489  0.24426081  1.0
  H  H26  1  0.87374840  0.59632790  0.16758598  1.0
  H  H27  1  0.77611975  0.63581022  0.25632683  1.0
  H  H28  1  0.37642097  0.09065482  0.67133765  1.0
  H  H29  1  0.28162863  0.13186767  0.75944738  1.0
  H  H30  1  0.12372914  0.41105030  0.82817558  1.0
  H  H31  1  0.21878544  0.37000284  0.74014123  1.0
  C  C32  1  0.72916920  0.13471095  0.60645028  1.0
  C  C33  1  0.75925210  0.13543067  0.39383002  1.0
  C  C34  1  0.26481396  0.86758396  0.39288703  1.0
  C  C35  1  0.23043066  0.86369516  0.60561901  1.0
  C  C36  1  0.77111495  0.36691114  0.89300454  1.0
  C  C37  1  0.74081353  0.36269481  0.10507494  1.0
  C  C38  1  0.23534260  0.63137775  0.10785264  1.0
  C  C39  1  0.26931366  0.63801596  0.89506974  1.0
  C  C40  1  0.74766742  0.19483441  0.32039868  1.0
  C  C41  1  0.75185690  0.30175362  0.17807502  1.0
  C  C42  1  0.56939896  0.25430759  0.29667745  1.0
  C  C43  1  0.92987322  0.24189719  0.20167494  1.0
  C  C44  1  0.57995067  0.30650994  0.22543667  1.0
  C  C45  1  0.91941148  0.18973690  0.27290999  1.0
  C  C46  1  0.23280476  0.80473615  0.67965849  1.0
  C  C47  1  0.26660629  0.69715843  0.82119069  1.0
  C  C48  1  0.06217586  0.80561547  0.73049586  1.0
  C  C49  1  0.43707207  0.69598745  0.77026063  1.0
  C  C50  1  0.08661204  0.75136333  0.80015464  1.0
  C  C51  1  0.41277620  0.75072752  0.70062918  1.0
  C  C52  1  0.26492242  0.80585577  0.32012135  1.0
  C  C53  1  0.23559202  0.69244934  0.18074459  1.0
  C  C54  1  0.43617954  0.80442042  0.26958430  1.0
  C  C55  1  0.06464505  0.69327039  0.23144871  1.0
  C  C56  1  0.41393041  0.74742753  0.20092605  1.0
  C  C57  1  0.08664278  0.75096721  0.30002249  1.0
  C  C58  1  0.73285165  0.19471735  0.67987357  1.0
  C  C59  1  0.76779156  0.30670469  0.81963733  1.0
  C  C60  1  0.56444959  0.19459697  0.73167403  1.0
  C  C61  1  0.93626279  0.30679440  0.76786073  1.0
  C  C62  1  0.58921052  0.25137541  0.80025059  1.0
  C  C63  1  0.91151395  0.25000581  0.69928353  1.0
  N  N64  1  0.39670493  0.26603324  0.34051667  1.0
  N  N65  1  0.10228069  0.22988270  0.15761351  1.0
  N  N66  1  0.87849911  0.85326393  0.71325511  1.0
  N  N67  1  0.61884845  0.64610869  0.78677398  1.0
  N  N68  1  0.61847249  0.85234684  0.28618254  1.0
  N  N69  1  0.88444609  0.64279316  0.21570299  1.0
  N  N70  1  0.38205258  0.14501435  0.71661532  1.0
  N  N71  1  0.11866809  0.35634908  0.78301505  1.0
  O  O72  1  0.89351790  0.12342169  0.56782354  1.0
  O  O73  1  0.59669611  0.12376137  0.43387658  1.0
  O  O74  1  0.43202845  0.90798657  0.41514107  1.0
  O  O75  1  0.06129778  0.90237577  0.58301364  1.0
  O  O76  1  0.09914606  0.87905311  0.43057574  1.0
  O  O77  1  0.39681246  0.87518891  0.56829529  1.0
  O  O78  1  0.55971133  0.09525385  0.58551061  1.0
  O  O79  1  0.93026561  0.09741301  0.41391719  1.0
  O  O80  1  0.24504446  0.07927527  0.50052527  1.0
  O  O81  1  0.74715554  0.92393687  0.49971102  1.0
  O  O82  1  0.94030811  0.40672404  0.91396929  1.0
  O  O83  1  0.56991213  0.40137694  0.08528400  1.0
  O  O84  1  0.40089831  0.62036870  0.06998710  1.0
  O  O85  1  0.10317246  0.62653996  0.93259717  1.0
  O  O86  1  0.06800514  0.59103451  0.08556903  1.0
  O  O87  1  0.43860373  0.59912039  0.91748173  1.0
  O  O88  1  0.60665743  0.37796085  0.93157579  1.0
  O  O89  1  0.90355309  0.37522363  0.06526127  1.0
  O  O90  1  0.25493879  0.42124810  0.99903176  1.0
  O  O91  1  0.75278514  0.57651219  0.00075784  1.0
