# generated using pymatgen
data_ZnH13C10N5O4
_symmetry_space_group_name_H-M   'P 1'
_cell_length_a   9.04860057
_cell_length_b   9.66197767
_cell_length_c   11.63369532
_cell_angle_alpha   67.70659984
_cell_angle_beta   90.00020140
_cell_angle_gamma   90.00005051
_symmetry_Int_Tables_number   1
_chemical_formula_structural   ZnH13C10N5O4
_chemical_formula_sum   'Zn2 H26 C20 N10 O8'
_cell_volume   941.07845868
_cell_formula_units_Z   2
loop_
 _symmetry_equiv_pos_site_id
 _symmetry_equiv_pos_as_xyz
  1  'x, y, z'
loop_
 _atom_site_type_symbol
 _atom_site_label
 _atom_site_symmetry_multiplicity
 _atom_site_fract_x
 _atom_site_fract_y
 _atom_site_fract_z
 _atom_site_occupancy
  Zn  Zn0  1  0.42909601  0.13882663  0.07458057  1.0
  Zn  Zn1  1  0.92909603  0.86117324  0.92541881  1.0
  H  H2  1  0.42943194  0.65388599  0.93326146  1.0
  H  H3  1  0.92943423  0.34611277  0.06674000  1.0
  H  H4  1  0.42697023  0.77414035  0.16866671  1.0
  H  H5  1  0.92696812  0.22585617  0.83133459  1.0
  H  H6  1  0.75467779  0.59126941  0.93473381  1.0
  H  H7  1  0.25467909  0.40873055  0.06526592  1.0
  H  H8  1  0.75003276  0.09627988  0.98667179  1.0
  H  H9  1  0.25003540  0.90371673  0.01332986  1.0
  H  H10  1  0.30972661  0.18040811  0.26189437  1.0
  H  H11  1  0.80972685  0.81959182  0.73810467  1.0
  H  H12  1  0.27095481  0.01250848  0.27236931  1.0
  H  H13  1  0.77095517  0.98749705  0.72762526  1.0
  H  H14  1  0.56116765  0.53080638  0.16468880  1.0
  H  H15  1  0.06116474  0.46919256  0.83531073  1.0
  H  H16  1  0.75704432  0.54138133  0.15155558  1.0
  H  H17  1  0.25704147  0.45861638  0.84844315  1.0
  H  H18  1  0.34333191  0.70725929  0.68788817  1.0
  H  H19  1  0.84333415  0.29274175  0.31211146  1.0
  H  H20  1  0.36130064  0.84705543  0.74964465  1.0
  H  H21  1  0.86130468  0.15294560  0.25035590  1.0
  H  H22  1  0.53871249  0.10699467  0.36278605  1.0
  H  H23  1  0.03871130  0.89300541  0.63721392  1.0
  H  H24  1  0.53416516  0.93936857  0.33567610  1.0
  H  H25  1  0.03417215  0.06062704  0.66432784  1.0
  H  H26  1  0.58287376  0.91423442  0.56891594  1.0
  H  H27  1  0.08287861  0.08575667  0.43108356  1.0
  C  C28  1  0.62898879  0.39028099  0.01660463  1.0
  C  C29  1  0.12899331  0.60971904  0.98339560  1.0
  C  C30  1  0.64163747  0.75152161  0.08393302  1.0
  C  C31  1  0.14163804  0.24847618  0.91606795  1.0
  C  C32  1  0.52769842  0.82222318  0.11882593  1.0
  C  C33  1  0.02769655  0.17777355  0.88117593  1.0
  C  C34  1  0.64837305  0.55929589  0.98255267  1.0
  C  C35  1  0.14837416  0.44070412  0.01744675  1.0
  C  C36  1  0.69246741  0.98978198  0.02332090  1.0
  C  C37  1  0.19247023  0.01021466  0.97667972  1.0
  C  C38  1  0.55396579  0.70383133  0.77596940  1.0
  C  C39  1  0.05396991  0.29617210  0.22403040  1.0
  C  C40  1  0.65327571  0.58991411  0.10406186  1.0
  C  C41  1  0.15327412  0.41008255  0.89593864  1.0
  C  C42  1  0.42170985  0.78816769  0.69972918  1.0
  C  C43  1  0.92171416  0.21183665  0.30026876  1.0
  C  C44  1  0.38479432  0.93897324  0.47908335  1.0
  C  C45  1  0.88480059  0.06103338  0.52091806  1.0
  C  C46  1  0.46426114  0.02090062  0.35560257  1.0
  C  C47  1  0.96426443  0.97909924  0.64439863  1.0
  N  N48  1  0.74587118  0.85985776  0.02264917  1.0
  N  N49  1  0.24587192  0.14013997  0.97735125  1.0
  N  N50  1  0.53381928  0.64628133  0.89930910  1.0
  N  N51  1  0.03382179  0.35371986  0.10068878  1.0
  N  N52  1  0.56050348  0.97289702  0.08012043  1.0
  N  N53  1  0.06050274  0.02710081  0.91988031  1.0
  N  N54  1  0.35757041  0.08661363  0.25444568  1.0
  N  N55  1  0.85756967  0.91338963  0.74555157  1.0
  N  N56  1  0.47275619  0.88821009  0.57898614  1.0
  N  N57  1  0.97276317  0.11179200  0.42101266  1.0
  O  O58  1  0.49428837  0.34766747  0.01477693  1.0
  O  O59  1  0.99428957  0.65233348  0.98522228  1.0
  O  O60  1  0.73937826  0.30597052  0.04714925  1.0
  O  O61  1  0.23937831  0.69402833  0.95285079  1.0
  O  O62  1  0.67200491  0.69381490  0.72328158  1.0
  O  O63  1  0.17200486  0.30618734  0.27671806  1.0
  O  O64  1  0.24842074  0.91702644  0.48251148  1.0
  O  O65  1  0.74843586  0.08298586  0.51749119  1.0
