# generated using pymatgen
data_Zn4H12C24S4N4O13
_symmetry_space_group_name_H-M   'P 1'
_cell_length_a   19.68399871
_cell_length_b   19.68625142
_cell_length_c   33.40163405
_cell_angle_alpha   79.05641889
_cell_angle_beta   79.05769320
_cell_angle_gamma   63.84046170
_symmetry_Int_Tables_number   1
_chemical_formula_structural   Zn4H12C24S4N4O13
_chemical_formula_sum   'Zn16 H48 C96 S16 N16 O52'
_cell_volume   11323.21302173
_cell_formula_units_Z   4
loop_
 _symmetry_equiv_pos_site_id
 _symmetry_equiv_pos_as_xyz
  1  'x, y, z'
loop_
 _atom_site_type_symbol
 _atom_site_label
 _atom_site_symmetry_multiplicity
 _atom_site_fract_x
 _atom_site_fract_y
 _atom_site_fract_z
 _atom_site_occupancy
  Zn  Zn0  1  0.59975663  0.94519798  0.52193498  1.0
  Zn  Zn1  1  0.51652141  0.01487841  0.43960872  1.0
  Zn  Zn2  1  0.43993685  0.94136000  0.51715229  1.0
  Zn  Zn3  1  0.44504818  0.09812985  0.52061613  1.0
  Zn  Zn4  1  0.65040827  0.30479428  0.72788719  1.0
  Zn  Zn5  1  0.80984807  0.31211669  0.73392639  1.0
  Zn  Zn6  1  0.73328040  0.23240224  0.80921749  1.0
  Zn  Zn7  1  0.80582268  0.15290800  0.72851192  1.0
  Zn  Zn8  1  0.23449945  0.73320272  0.31067419  1.0
  Zn  Zn9  1  0.30350303  0.65104987  0.22774349  1.0
  Zn  Zn10  1  0.15205713  0.80614427  0.22842191  1.0
  Zn  Zn11  1  0.31012136  0.80816639  0.23249774  1.0
  Zn  Zn12  1  0.93940964  0.43933325  0.01593481  1.0
  Zn  Zn13  1  0.94528454  0.59889405  0.02237787  1.0
  Zn  Zn14  1  0.09778599  0.44427722  0.02132040  1.0
  Zn  Zn15  1  0.01729550  0.51724402  0.94029052  1.0
  H  H16  1  0.55046541  0.24846163  0.65228078  1.0
  H  H17  1  0.69683355  0.99859380  0.60052818  1.0
  H  H18  1  0.29712255  0.80211840  0.39854911  1.0
  H  H19  1  0.44844475  0.95222230  0.35077580  1.0
  H  H20  1  0.75938072  0.53667849  0.65852185  1.0
  H  H21  1  0.29882974  0.51966657  0.39814798  1.0
  H  H22  1  0.02086737  0.79551223  0.39822851  1.0
  H  H23  1  0.03013723  0.05237962  0.65301214  1.0
  H  H24  1  0.85360812  0.34912022  0.95044417  1.0
  H  H25  1  0.90110798  0.39635877  0.79958780  1.0
  H  H26  1  0.22978983  0.45312438  0.85198325  1.0
  H  H27  1  0.85644089  0.83733756  0.95935482  1.0
  H  H28  1  0.00086006  0.69967654  0.09782798  1.0
  H  H29  1  0.25014207  0.55241828  0.15018445  1.0
  H  H30  1  0.71996438  0.69806606  0.09803956  1.0
  H  H31  1  0.98947245  0.21393253  0.09192665  1.0
  H  H32  1  0.46163417  0.20887118  0.57997966  1.0
  H  H33  1  0.45854461  0.27612915  0.60789614  1.0
  H  H34  1  0.79365822  0.04611262  0.66488781  1.0
  H  H35  1  0.80100693  0.98314828  0.63265249  1.0
  H  H36  1  0.35746474  0.85448191  0.47925377  1.0
  H  H37  1  0.31516593  0.80086353  0.46713989  1.0
  H  H38  1  0.39910132  0.88887579  0.27041267  1.0
  H  H39  1  0.45197334  0.93118513  0.28251917  1.0
  H  H40  1  0.76847153  0.27273487  0.89424479  1.0
  H  H41  1  0.77489065  0.29065150  0.94210900  1.0
  H  H42  1  0.97584230  0.48341931  0.85540521  1.0
  H  H43  1  0.95930897  0.47494273  0.80768649  1.0
  H  H44  1  0.04168810  0.79077259  0.16880455  1.0
  H  H45  1  0.97411937  0.79410495  0.14059634  1.0
  H  H46  1  0.20482214  0.45703626  0.08373174  1.0
  H  H47  1  0.26746913  0.44924594  0.11643719  1.0
  H  H48  1  0.44188757  0.68894007  0.60526486  1.0
  H  H49  1  0.44676095  0.76869863  0.57408501  1.0
  H  H50  1  0.47770149  0.23152976  0.31459201  1.0
  H  H51  1  0.48234489  0.16315947  0.35699050  1.0
  H  H52  1  0.73280619  0.95448694  0.31424662  1.0
  H  H53  1  0.66463414  0.97884356  0.35692847  1.0
  H  H54  1  0.19735852  0.25739499  0.61416906  1.0
  H  H55  1  0.27532139  0.20457899  0.58108070  1.0
  H  H56  1  0.51768847  0.27177470  0.93498889  1.0
  H  H57  1  0.58637171  0.26507308  0.89260914  1.0
  H  H58  1  0.91468539  0.85554657  0.77305665  1.0
  H  H59  1  0.88344256  0.95376937  0.76039662  1.0
  H  H60  1  0.56300943  0.48330021  0.14514247  1.0
  H  H61  1  0.47633777  0.54370712  0.16987885  1.0
  H  H62  1  0.29815746  0.07336286  0.15580211  1.0
  H  H63  1  0.30143558  0.98446858  0.17787939  1.0
  C  C64  1  0.68432519  0.94064461  0.43739279  1.0
  C  C65  1  0.42911775  0.92986427  0.43088034  1.0
  C  C66  1  0.56094966  0.81497625  0.56064333  1.0
  C  C67  1  0.31497365  0.06330208  0.56142614  1.0
  C  C68  1  0.56734972  0.07129813  0.56988318  1.0
  C  C69  1  0.43760048  0.18331877  0.43704296  1.0
  C  C70  1  0.68771909  0.43482789  0.68878993  1.0
  C  C71  1  0.81953969  0.31791514  0.82066429  1.0
  C  C72  1  0.56595907  0.31150662  0.81231699  1.0
  C  C73  1  0.81290207  0.06434041  0.81076387  1.0
  C  C74  1  0.68224253  0.17792974  0.68067425  1.0
  C  C75  1  0.93441892  0.18990913  0.68884496  1.0
  C  C76  1  0.31307798  0.56554958  0.31125979  1.0
  C  C77  1  0.17778298  0.68212924  0.18045003  1.0
  C  C78  1  0.06657498  0.81039125  0.31142584  1.0
  C  C79  1  0.19032739  0.93453928  0.18792598  1.0
  C  C80  1  0.32019223  0.82072516  0.31851352  1.0
  C  C81  1  0.43417239  0.68649132  0.18762180  1.0
  C  C82  1  0.81642397  0.56072055  0.06171640  1.0
  C  C83  1  0.07178432  0.56849959  0.06903359  1.0
  C  C84  1  0.06076237  0.31617723  0.06179084  1.0
  C  C85  1  0.18441415  0.43750513  0.93867953  1.0
  C  C86  1  0.93183151  0.43090395  0.92932324  1.0
  C  C87  1  0.93783210  0.68430521  0.93878956  1.0
  C  C88  1  0.59355365  0.10007846  0.59918721  1.0
  C  C89  1  0.65423407  0.14740250  0.65317936  1.0
  C  C90  1  0.54950120  0.17247584  0.61399176  1.0
  C  C91  1  0.69762390  0.07439150  0.63901088  1.0
  C  C92  1  0.58216162  0.19349123  0.64053708  1.0
  C  C93  1  0.66524545  0.05365184  0.61218414  1.0
  C  C94  1  0.39852019  0.90231857  0.40323516  1.0
  C  C95  1  0.34772653  0.85143408  0.34613758  1.0
  C  C96  1  0.35392791  0.85975950  0.41804047  1.0
  C  C97  1  0.39067521  0.89561067  0.33132461  1.0
  C  C98  1  0.33064859  0.83526941  0.38849385  1.0
  C  C99  1  0.41507537  0.91890577  0.36082873  1.0
  C  C100  1  0.54436387  0.69632752  0.59769637  1.0
  C  C101  1  0.70242653  0.55407872  0.65066373  1.0
  C  C102  1  0.58595191  0.74086533  0.58472130  1.0
  C  C103  1  0.66227655  0.50959454  0.66362265  1.0
  C  C104  1  0.65991184  0.62212694  0.62673341  1.0
  C  C105  1  0.58794763  0.62813765  0.62190226  1.0
  C  C106  1  0.42350858  0.27191133  0.36961970  1.0
  C  C107  1  0.32786843  0.47484686  0.37821208  1.0
  C  C108  1  0.41249145  0.25708368  0.41264669  1.0
  C  C109  1  0.33824935  0.49032889  0.33589834  1.0
  C  C110  1  0.35905260  0.39554994  0.39071757  1.0
  C  C111  1  0.39250122  0.35205862  0.35756212  1.0
  C  C112  1  0.77325721  0.92681694  0.37000782  1.0
  C  C113  1  0.97597723  0.82525927  0.37837418  1.0
  C  C114  1  0.75831279  0.91647134  0.41305424  1.0
  C  C115  1  0.99140264  0.83543612  0.33605779  1.0
  C  C116  1  0.89673590  0.85817667  0.39098202  1.0
  C  C117  1  0.85329365  0.89288683  0.35786920  1.0
  C  C118  1  0.19953546  0.15841744  0.60147543  1.0
  C  C119  1  0.05058069  0.09675534  0.64797670  1.0
  C  C120  1  0.24102347  0.08819301  0.58555966  1.0
  C  C121  1  0.00918826  0.16560962  0.66379816  1.0
  C  C122  1  0.12003055  0.09352542  0.62541226  1.0
  C  C123  1  0.13004360  0.16030088  0.62442502  1.0
  C  C124  1  0.84867852  0.34419468  0.84968693  1.0
  C  C125  1  0.90553921  0.40183169  0.90033849  1.0
  C  C126  1  0.83468200  0.32879968  0.89330371  1.0
  C  C127  1  0.92100551  0.41578508  0.85671956  1.0
  C  C128  1  0.86356658  0.35910113  0.91707905  1.0
  C  C129  1  0.89107990  0.38646515  0.83295279  1.0
  C  C130  1  0.47776508  0.32632423  0.87993160  1.0
  C  C131  1  0.27478005  0.42373421  0.87179138  1.0
  C  C132  1  0.49230728  0.33752893  0.83685574  1.0
  C  C133  1  0.25957225  0.41268426  0.91410346  1.0
  C  C134  1  0.35398978  0.39224975  0.85912153  1.0
  C  C135  1  0.39767441  0.35805482  0.89217363  1.0
  C  C136  1  0.87770717  0.91892623  0.82136638  1.0
  C  C137  1  0.87357443  0.82999677  0.92697649  1.0
  C  C138  1  0.83793141  0.99092399  0.83548168  1.0
  C  C139  1  0.91286525  0.75884388  0.91352372  1.0
  C  C140  1  0.86021123  0.88853528  0.89364742  1.0
  C  C141  1  0.88986373  0.86067203  0.85535401  1.0
  C  C142  1  0.14891037  0.65594867  0.15129987  1.0
  C  C143  1  0.10193660  0.59597297  0.09691330  1.0
  C  C144  1  0.07671408  0.70051978  0.13627430  1.0
  C  C145  1  0.17493202  0.55222267  0.11113422  1.0
  C  C146  1  0.05573323  0.66790704  0.10967587  1.0
  C  C147  1  0.19525767  0.58418088  0.13835561  1.0
  C  C148  1  0.54935482  0.59247807  0.14681921  1.0
  C  C149  1  0.69968726  0.65361377  0.10266882  1.0
  C  C150  1  0.50762923  0.66240923  0.16297816  1.0
  C  C151  1  0.74143897  0.58501464  0.08663190  1.0
  C  C152  1  0.62996805  0.65661557  0.12479797  1.0
  C  C153  1  0.61983069  0.59013539  0.12502828  1.0
  C  C154  1  0.20690710  0.05285279  0.15038147  1.0
  C  C155  1  0.04650454  0.19662104  0.09964745  1.0
  C  C156  1  0.16582586  0.00780844  0.16310084  1.0
  C  C157  1  0.08620377  0.24151861  0.08688360  1.0
  C  C158  1  0.08982398  0.12811022  0.12296386  1.0
  C  C159  1  0.16201340  0.12208887  0.12737313  1.0
  S  S160  1  0.67606952  0.69954677  0.60159352  1.0
  S  S161  1  0.57273595  0.55002314  0.64671089  1.0
  S  S162  1  0.36477935  0.33930524  0.43737751  1.0
  S  S163  1  0.38556160  0.40877751  0.31104105  1.0
  S  S164  1  0.84051725  0.86682759  0.43772346  1.0
  S  S165  1  0.90988952  0.88531622  0.31128477  1.0
  S  S166  1  0.19539970  0.02686938  0.59825252  1.0
  S  S167  1  0.05407876  0.22697988  0.65120976  1.0
  S  S168  1  0.40987031  0.38642173  0.81235357  1.0
  S  S169  1  0.34129562  0.36437993  0.93878542  1.0
  S  S170  1  0.81687162  0.98672115  0.88893847  1.0
  S  S171  1  0.93423220  0.76255729  0.86037302  1.0
  S  S172  1  0.55351765  0.72350628  0.15127484  1.0
  S  S173  1  0.69612463  0.52396834  0.09811684  1.0
  S  S174  1  0.07521077  0.04922617  0.14683188  1.0
  S  S175  1  0.17649293  0.20073181  0.10289297  1.0
  N  N176  1  0.47687637  0.22055441  0.60438044  1.0
  N  N177  1  0.76756939  0.02357996  0.65130778  1.0
  N  N178  1  0.33172951  0.84398118  0.45904322  1.0
  N  N179  1  0.40665869  0.91778449  0.29010629  1.0
  N  N180  1  0.79686119  0.28457283  0.91238357  1.0
  N  N181  1  0.96494809  0.45387240  0.83755250  1.0
  N  N182  1  0.02920319  0.77305971  0.14566402  1.0
  N  N183  1  0.22584810  0.48278089  0.09853225  1.0
  N  N184  1  0.47393507  0.71438302  0.58752095  1.0
  N  N185  1  0.45648887  0.21760228  0.34338809  1.0
  N  N186  1  0.71926260  0.96595846  0.34374740  1.0
  N  N187  1  0.22118962  0.21685896  0.59486819  1.0
  N  N188  1  0.53213974  0.29236879  0.90613118  1.0
  N  N189  1  0.90305015  0.90677088  0.78132497  1.0
  N  N190  1  0.52482319  0.53661782  0.15039202  1.0
  N  N191  1  0.27957982  0.03229694  0.15777358  1.0
  O  O192  1  0.50112581  0.99967475  0.49954248  1.0
  O  O193  1  0.68298069  0.92512206  0.47648587  1.0
  O  O194  1  0.47035582  0.96553901  0.41441518  1.0
  O  O195  1  0.49344536  0.84320759  0.54932880  1.0
  O  O196  1  0.62524626  0.97589875  0.41759585  1.0
  O  O197  1  0.60702208  0.84713949  0.55247423  1.0
  O  O198  1  0.41268680  0.91611469  0.46988143  1.0
  O  O199  1  0.34417888  0.99591444  0.55067094  1.0
  O  O200  1  0.50208263  0.11474053  0.55717873  1.0
  O  O201  1  0.34629735  0.11072769  0.55257842  1.0
  O  O202  1  0.61099508  0.00545137  0.55879216  1.0
  O  O203  1  0.47280670  0.12390625  0.41759156  1.0
  O  O204  1  0.42320665  0.18263673  0.47618585  1.0
  O  O205  1  0.74984099  0.25146845  0.74937526  1.0
  O  O206  1  0.64078355  0.40381441  0.69700683  1.0
  O  O207  1  0.83430394  0.33602274  0.78218810  1.0
  O  O208  1  0.62520525  0.27500307  0.83187499  1.0
  O  O209  1  0.75423867  0.40780174  0.69999330  1.0
  O  O210  1  0.56704016  0.32615903  0.77316661  1.0
  O  O211  1  0.78079495  0.27865910  0.83582924  1.0
  O  O212  1  0.77502327  0.12352671  0.82968238  1.0
  O  O213  1  0.74909062  0.13608478  0.69183715  1.0
  O  O214  1  0.83037436  0.06487760  0.77139021  1.0
  O  O215  1  0.63879086  0.24399224  0.69156496  1.0
  O  O216  1  0.90672743  0.25612093  0.70062854  1.0
  O  O217  1  0.90397022  0.14261729  0.69649686  1.0
  O  O218  1  0.25001928  0.74870033  0.25038433  1.0
  O  O219  1  0.27686545  0.62356359  0.33088764  1.0
  O  O220  1  0.24271516  0.63723374  0.19251554  1.0
  O  O221  1  0.06635451  0.82686157  0.27245360  1.0
  O  O222  1  0.32978790  0.56561894  0.27227827  1.0
  O  O223  1  0.12480056  0.77501509  0.33095543  1.0
  O  O224  1  0.13580568  0.74848432  0.19206163  1.0
  O  O225  1  0.14315709  0.90356127  0.19706666  1.0
  O  O226  1  0.33633429  0.83483759  0.27951604  1.0
  O  O227  1  0.25784318  0.90576859  0.19920822  1.0
  O  O228  1  0.28230803  0.78170856  0.33502651  1.0
  O  O229  1  0.40195069  0.63984432  0.19543525  1.0
  O  O230  1  0.40655944  0.75248027  0.19997559  1.0
  O  O231  1  0.99906532  0.50038429  0.00022465  1.0
  O  O232  1  0.84433709  0.49394643  0.05056604  1.0
  O  O233  1  0.00534570  0.61173799  0.05845411  1.0
  O  O234  1  0.10739136  0.34757048  0.05444677  1.0
  O  O235  1  0.84654990  0.60822678  0.05351345  1.0
  O  O236  1  0.99519644  0.34277147  0.04954772  1.0
  O  O237  1  0.11423427  0.50239903  0.05715921  1.0
  O  O238  1  0.18401460  0.41850020  0.97756236  1.0
  O  O239  1  0.97026759  0.47045866  0.91405520  1.0
  O  O240  1  0.12636425  0.47584421  0.91922613  1.0
  O  O241  1  0.91479214  0.41525837  0.96784670  1.0
  O  O242  1  0.92158378  0.68430105  0.97766726  1.0
  O  O243  1  0.97404907  0.62598484  0.91918922  1.0
