# generated using pymatgen
data_Zn4H11C40Br7N8O21
_symmetry_space_group_name_H-M   'P 1'
_cell_length_a   15.12266888
_cell_length_b   19.10138136
_cell_length_c   19.26759902
_cell_angle_alpha   84.93760576
_cell_angle_beta   83.25307799
_cell_angle_gamma   83.95262648
_symmetry_Int_Tables_number   1
_chemical_formula_structural   Zn4H11C40Br7N8O21
_chemical_formula_sum   'Zn4 H11 C40 Br7 N8 O21'
_cell_volume   5480.16926952
_cell_formula_units_Z   1
loop_
 _symmetry_equiv_pos_site_id
 _symmetry_equiv_pos_as_xyz
  1  'x, y, z'
loop_
 _atom_site_type_symbol
 _atom_site_label
 _atom_site_symmetry_multiplicity
 _atom_site_fract_x
 _atom_site_fract_y
 _atom_site_fract_z
 _atom_site_occupancy
  Zn  Zn0  1  0.42263719  0.44314421  0.56732131  1.0
  Zn  Zn1  1  0.42211536  0.56348955  0.44053111  1.0
  Zn  Zn2  1  0.58074189  0.44137465  0.43835125  1.0
  Zn  Zn3  1  0.56676098  0.55284177  0.55560412  1.0
  H  H4  1  0.83973687  0.52045017  0.58381812  1.0
  H  H5  1  0.85268707  0.46504180  0.37120867  1.0
  H  H6  1  0.97874006  0.52970993  0.63639328  1.0
  H  H7  1  0.14477963  0.52494692  0.62581003  1.0
  H  H8  1  0.15880425  0.49394910  0.40606967  1.0
  H  H9  1  0.59009938  0.41374571  0.22399016  1.0
  H  H10  1  0.59115047  0.22495020  0.41462166  1.0
  H  H11  1  0.45758720  0.62466511  0.22262350  1.0
  H  H12  1  0.45404784  0.22367074  0.62357273  1.0
  H  H13  1  0.47911236  0.60117196  0.76853155  1.0
  H  H14  1  0.47539718  0.76624077  0.60222135  1.0
  C  C15  1  0.51483068  0.51277748  0.31006192  1.0
  C  C16  1  0.51329980  0.31172419  0.51195787  1.0
  C  C17  1  0.48812935  0.49261390  0.69126839  1.0
  C  C18  1  0.48402433  0.68752044  0.49451174  1.0
  C  C19  1  0.73803727  0.49255113  0.48624866  1.0
  C  C20  1  0.25981429  0.50766675  0.50894978  1.0
  C  C21  1  0.83713506  0.49356873  0.47861866  1.0
  C  C22  1  0.16042615  0.50979337  0.51461492  1.0
  C  C23  1  0.01837904  0.52072647  0.58637119  1.0
  C  C24  1  0.11001240  0.51880450  0.58061968  1.0
  C  C25  1  0.11880211  0.50054224  0.45627896  1.0
  C  C26  1  0.02526664  0.49726173  0.46191020  1.0
  C  C27  1  0.97340353  0.50949935  0.52813277  1.0
  C  C28  1  0.87943931  0.50921880  0.53443545  1.0
  C  C29  1  0.88735399  0.47838705  0.41392790  1.0
  C  C30  1  0.97844107  0.48158889  0.40590675  1.0
  C  C31  1  0.48579161  0.48771289  0.76971882  1.0
  C  C32  1  0.48191951  0.76665860  0.48964257  1.0
  C  C33  1  0.48014495  0.55155417  0.80100981  1.0
  C  C34  1  0.47718733  0.79849927  0.55267829  1.0
  C  C35  1  0.47368192  0.55250155  0.87320721  1.0
  C  C36  1  0.47265871  0.87128466  0.55286397  1.0
  C  C37  1  0.47742924  0.48936588  0.91677211  1.0
  C  C38  1  0.47777256  0.91467524  0.48977679  1.0
  C  C39  1  0.48092745  0.42507736  0.88553677  1.0
  C  C40  1  0.48090394  0.88252831  0.42631250  1.0
  C  C41  1  0.48564637  0.42381568  0.81219380  1.0
  C  C42  1  0.48316455  0.80870831  0.42600041  1.0
  C  C43  1  0.56339955  0.46317526  0.12261166  1.0
  C  C44  1  0.56303892  0.12273918  0.46393781  1.0
  C  C45  1  0.56168867  0.46069695  0.19516601  1.0
  C  C46  1  0.56166498  0.19590971  0.46127011  1.0
  C  C47  1  0.52711511  0.52372391  0.08451139  1.0
  C  C48  1  0.52607745  0.08425032  0.52435551  1.0
  C  C49  1  0.52170676  0.51786620  0.23185323  1.0
  C  C50  1  0.52034573  0.23287231  0.51766853  1.0
  C  C51  1  0.48803998  0.57932143  0.19507745  1.0
  C  C52  1  0.48561602  0.19585080  0.57884216  1.0
  C  C53  1  0.49429657  0.58254292  0.12245086  1.0
  C  C54  1  0.49247880  0.12261370  0.58258775  1.0
  Br  Br55  1  0.49732618  0.33601266  0.77248279  1.0
  Br  Br56  1  0.49382164  0.76637737  0.34015805  1.0
  Br  Br57  1  0.04219347  0.46333111  0.31705215  1.0
  Br  Br58  1  0.62041192  0.38412248  0.07663622  1.0
  Br  Br59  1  0.62104851  0.07695678  0.38528727  1.0
  Br  Br60  1  0.48179697  0.34073471  0.94434463  1.0
  Br  Br61  1  0.48509235  0.94028788  0.34172360  1.0
  N  N62  1  0.47662323  0.48667914  0.99053892  1.0
  N  N63  1  0.47860518  0.98885598  0.48616345  1.0
  N  N64  1  0.52735376  0.52730993  0.01047763  1.0
  N  N65  1  0.52558345  0.00968145  0.52869788  1.0
  N  N66  1  0.45136647  0.62227798  0.90183022  1.0
  N  N67  1  0.45088973  0.90033418  0.62213048  1.0
  N  N68  1  0.46709416  0.65191751  0.08625760  1.0
  N  N69  1  0.46499242  0.08645728  0.65191366  1.0
  O  O70  1  0.49841255  0.50072580  0.50042015  1.0
  O  O71  1  0.46768198  0.56284611  0.34069304  1.0
  O  O72  1  0.45494988  0.34238729  0.55544346  1.0
  O  O73  1  0.43946127  0.45371328  0.66554534  1.0
  O  O74  1  0.42583792  0.66135223  0.46494089  1.0
  O  O75  1  0.56549817  0.34103831  0.46383293  1.0
  O  O76  1  0.55592676  0.45858458  0.33968991  1.0
  O  O77  1  0.54324678  0.65491700  0.53043577  1.0
  O  O78  1  0.53728315  0.53756299  0.65804460  1.0
  O  O79  1  0.70482663  0.46195633  0.44027371  1.0
  O  O80  1  0.29976768  0.53533622  0.45263686  1.0
  O  O81  1  0.29679088  0.47767890  0.56163269  1.0
  O  O82  1  0.69437202  0.52253352  0.53820684  1.0
  O  O83  1  0.38924246  0.62646886  0.94973782  1.0
  O  O84  1  0.49216832  0.67139316  0.87279654  1.0
  O  O85  1  0.38829636  0.94756697  0.62723528  1.0
  O  O86  1  0.49241452  0.87185590  0.67015340  1.0
  O  O87  1  0.40137283  0.68720364  0.11420827  1.0
  O  O88  1  0.51520173  0.67059682  0.03292501  1.0
  O  O89  1  0.39872843  0.11411019  0.68689985  1.0
  O  O90  1  0.51339821  0.03375406  0.67088718  1.0
