# generated using pymatgen
data_Zn4H20C42N4O17
_symmetry_space_group_name_H-M   'P 1'
_cell_length_a   18.34718890
_cell_length_b   18.35227933
_cell_length_c   21.59672385
_cell_angle_alpha   115.13850776
_cell_angle_beta   115.12861477
_cell_angle_gamma   89.98863914
_symmetry_Int_Tables_number   1
_chemical_formula_structural   Zn4H20C42N4O17
_chemical_formula_sum   'Zn8 H40 C84 N8 O34'
_cell_volume   5814.24348270
_cell_formula_units_Z   2
loop_
 _symmetry_equiv_pos_site_id
 _symmetry_equiv_pos_as_xyz
  1  'x, y, z'
loop_
 _atom_site_type_symbol
 _atom_site_label
 _atom_site_symmetry_multiplicity
 _atom_site_fract_x
 _atom_site_fract_y
 _atom_site_fract_z
 _atom_site_occupancy
  Zn  Zn0  1  0.78256063  0.37016394  0.56533933  1.0
  Zn  Zn1  1  0.21743230  0.62983391  0.43465221  1.0
  Zn  Zn2  1  0.37027844  0.78287876  0.56544893  1.0
  Zn  Zn3  1  0.62971554  0.21711291  0.43453196  1.0
  Zn  Zn4  1  0.78274318  0.19523058  0.56550333  1.0
  Zn  Zn5  1  0.21725907  0.80477405  0.43449401  1.0
  Zn  Zn6  1  0.19509380  0.78256997  0.56534586  1.0
  Zn  Zn7  1  0.80490114  0.21740690  0.43464068  1.0
  H  H8  1  0.95006720  0.55379144  0.59840065  1.0
  H  H9  1  0.94047525  0.03919884  0.59101438  1.0
  H  H10  1  0.44843823  0.05967540  0.40914172  1.0
  H  H11  1  0.55156042  0.94029098  0.59082988  1.0
  H  H12  1  0.34942235  0.44846520  0.40933434  1.0
  H  H13  1  0.65057207  0.55153944  0.59065602  1.0
  H  H14  1  0.96094815  0.34954057  0.40899150  1.0
  H  H15  1  0.03904370  0.65045234  0.59099972  1.0
  H  H16  1  0.04992496  0.44619469  0.40158685  1.0
  H  H17  1  0.55432865  0.64831299  0.59830667  1.0
  H  H18  1  0.44566878  0.35169166  0.40168756  1.0
  H  H19  1  0.64831544  0.04419515  0.59841975  1.0
  H  H20  1  0.35169009  0.95576691  0.40155509  1.0
  H  H21  1  0.04441454  0.95008186  0.59842020  1.0
  H  H22  1  0.95557433  0.04989749  0.40159376  1.0
  H  H23  1  0.05951899  0.96078853  0.40900163  1.0
  H  H24  1  0.91658554  0.54242518  0.20178509  1.0
  H  H25  1  0.01164812  0.60319370  0.28838106  1.0
  H  H26  1  0.96753422  0.50389018  0.26933105  1.0
  H  H27  1  0.98833866  0.39682268  0.71165569  1.0
  H  H28  1  0.08340538  0.45759366  0.79823460  1.0
  H  H29  1  0.03244844  0.49611570  0.73067403  1.0
  H  H30  1  0.54187567  0.28530058  0.20204743  1.0
  H  H31  1  0.60279467  0.27669678  0.28854378  1.0
  H  H32  1  0.50329994  0.30128903  0.26949141  1.0
  H  H33  1  0.39722702  0.72329492  0.71150777  1.0
  H  H34  1  0.45815640  0.71476022  0.79804113  1.0
  H  H35  1  0.49673663  0.69871008  0.73058716  1.0
  H  H36  1  0.28572752  0.65866742  0.20186724  1.0
  H  H37  1  0.27717220  0.68447780  0.28844683  1.0
  H  H38  1  0.30222819  0.76473562  0.26940007  1.0
  H  H39  1  0.72285479  0.31552436  0.71153910  1.0
  H  H40  1  0.71421051  0.34129710  0.79806840  1.0
  H  H41  1  0.69777696  0.23523568  0.73054462  1.0
  H  H42  1  0.66010342  0.91685502  0.20165774  1.0
  H  H43  1  0.68563346  0.01175893  0.28831859  1.0
  H  H44  1  0.76610646  0.96807774  0.26926288  1.0
  H  H45  1  0.31434658  0.98816118  0.71163053  1.0
  H  H46  1  0.33984695  0.08312182  0.79823679  1.0
  H  H47  1  0.23385672  0.03184235  0.73065330  1.0
  C  C48  1  0.04124936  0.53047398  0.16484913  1.0
  C  C49  1  0.95872380  0.46955164  0.83516382  1.0
  C  C50  1  0.40544399  0.00023645  0.91709277  1.0
  C  C51  1  0.99946947  0.48844045  0.08284238  1.0
  C  C52  1  0.00049790  0.51159443  0.91717043  1.0
  C  C53  1  0.48844582  0.08331547  0.08287015  1.0
  C  C54  1  0.51157958  0.91671507  0.91712498  1.0
  C  C55  1  0.08363863  0.59406761  0.08288861  1.0
  C  C56  1  0.91632835  0.40597097  0.91712447  1.0
  C  C57  1  0.59460570  0.99981692  0.08290130  1.0
  C  C58  1  0.53057650  0.12363646  0.16488144  1.0
  C  C59  1  0.04926729  0.55378647  0.49579803  1.0
  C  C60  1  0.95073231  0.44620335  0.50419718  1.0
  C  C61  1  0.55358083  0.44633559  0.49563777  1.0
  C  C62  1  0.44642136  0.55367151  0.50434609  1.0
  C  C63  1  0.44640314  0.94206286  0.49568199  1.0
  C  C64  1  0.55359962  0.05793314  0.50431381  1.0
  C  C65  1  0.94200648  0.04927501  0.49576130  1.0
  C  C66  1  0.46942941  0.87638483  0.83511351  1.0
  C  C67  1  0.05796905  0.95069570  0.50424010  1.0
  C  C68  1  0.02074415  0.52060833  0.04138117  1.0
  C  C69  1  0.12397054  0.63382077  0.16488173  1.0
  C  C70  1  0.97922267  0.47944321  0.95863931  1.0
  C  C71  1  0.52073925  0.02076936  0.04137728  1.0
  C  C72  1  0.47930147  0.97928154  0.95862146  1.0
  C  C73  1  0.16853562  0.69715653  0.07790046  1.0
  C  C74  1  0.83143221  0.30287773  0.92210072  1.0
  C  C75  1  0.69816206  0.91051101  0.07785740  1.0
  C  C76  1  0.87599937  0.36621473  0.83512805  1.0
  C  C77  1  0.30193347  0.08959479  0.92214202  1.0
  C  C78  1  0.90938882  0.38047147  0.07774851  1.0
  C  C79  1  0.09057499  0.61956094  0.92225935  1.0
  C  C80  1  0.37988501  0.16766662  0.07777248  1.0
  C  C81  1  0.62017536  0.83240525  0.92223490  1.0
  C  C82  1  0.63451163  0.04160842  0.16492609  1.0
  C  C83  1  0.97677821  0.54024544  0.24311757  1.0
  C  C84  1  0.02321472  0.45977155  0.75690727  1.0
  C  C85  1  0.53981306  0.26618129  0.24326043  1.0
  C  C86  1  0.46021312  0.73383632  0.75679885  1.0
  C  C87  1  0.26682561  0.70215197  0.24317605  1.0
  C  C88  1  0.73316641  0.29783354  0.75679404  1.0
  C  C89  1  0.70342465  0.97711378  0.24306896  1.0
  C  C90  1  0.36551143  0.95841967  0.83506963  1.0
  C  C91  1  0.29655054  0.02283902  0.75686844  1.0
  C  C92  1  0.10294446  0.60250068  0.20558081  1.0
  C  C93  1  0.89702415  0.39752618  0.79442215  1.0
  C  C94  1  0.60290893  0.10301522  0.20563044  1.0
  C  C95  1  0.39709803  0.89699990  0.79436174  1.0
  C  C96  1  0.10483298  0.62549182  0.04048103  1.0
  C  C97  1  0.89514066  0.37453873  0.95952553  1.0
  C  C98  1  0.62608257  0.93634399  0.04042361  1.0
  C  C99  1  0.37397024  0.06372357  0.95956837  1.0
  C  C100  1  0.93566340  0.41479213  0.04036288  1.0
  C  C101  1  0.06430983  0.58523657  0.95964935  1.0
  C  C102  1  0.41445006  0.10425273  0.04040777  1.0
  C  C103  1  0.58558044  0.89578459  0.95958146  1.0
  C  C104  1  0.64631888  0.14651648  0.29267888  1.0
  C  C105  1  0.35367176  0.85347643  0.70731098  1.0
  C  C106  1  0.14644606  0.64609569  0.29262389  1.0
  C  C107  1  0.85353302  0.35392129  0.70737511  1.0
  C  C108  1  0.61110313  0.38897997  0.49247024  1.0
  C  C109  1  0.38890517  0.61103577  0.50753145  1.0
  C  C110  1  0.38915308  0.88136291  0.49257756  1.0
  C  C111  1  0.61086328  0.11861827  0.50741873  1.0
  C  C112  1  0.88128071  0.10343294  0.49268869  1.0
  C  C113  1  0.11871876  0.89655630  0.50734887  1.0
  C  C114  1  0.10340765  0.61143864  0.49272105  1.0
  C  C115  1  0.89659124  0.38856168  0.50728788  1.0
  C  C116  1  0.97236355  0.53093261  0.55567428  1.0
  C  C117  1  0.02762942  0.46905723  0.44431485  1.0
  C  C118  1  0.53123023  0.58332248  0.55560949  1.0
  C  C119  1  0.46876914  0.41668277  0.44437269  1.0
  C  C120  1  0.58331718  0.02451318  0.55568488  1.0
  C  C121  1  0.41668168  0.97547603  0.44430985  1.0
  C  C122  1  0.02463585  0.97235886  0.55568298  1.0
  C  C123  1  0.97534108  0.02760999  0.44431779  1.0
  C  C124  1  0.03310478  0.97849491  0.44855393  1.0
  C  C125  1  0.96687798  0.02147580  0.55145378  1.0
  C  C126  1  0.47013980  0.03319004  0.44862047  1.0
  C  C127  1  0.52986144  0.96679362  0.55136571  1.0
  C  C128  1  0.41541181  0.47019681  0.44873399  1.0
  C  C129  1  0.58458851  0.52981276  0.55124731  1.0
  C  C130  1  0.97857027  0.41546152  0.44852453  1.0
  C  C131  1  0.02141830  0.58453016  0.55146691  1.0
  N  N132  1  0.22026304  0.75331938  0.10141879  1.0
  N  N133  1  0.77970613  0.24671550  0.89858958  1.0
  N  N134  1  0.75480165  0.88287209  0.10152187  1.0
  N  N135  1  0.24531019  0.11725592  0.89847987  1.0
  N  N136  1  0.88123116  0.34791644  0.10137556  1.0
  N  N137  1  0.11870972  0.65214312  0.89863429  1.0
  N  N138  1  0.34682970  0.21903424  0.10118138  1.0
  N  N139  1  0.65324383  0.78105366  0.89881615  1.0
  O  O140  1  0.74995895  0.24994866  0.49999118  1.0
  O  O141  1  0.39702210  0.85409230  0.67454830  1.0
  O  O142  1  0.14609186  0.72223633  0.32540728  1.0
  O  O143  1  0.85389251  0.27778558  0.67459680  1.0
  O  O144  1  0.72241260  0.17996495  0.32562358  1.0
  O  O145  1  0.27758494  0.82001007  0.67437250  1.0
  O  O146  1  0.17964785  0.60281539  0.32552138  1.0
  O  O147  1  0.82032472  0.39719664  0.67446978  1.0
  O  O148  1  0.60295477  0.14590370  0.32542937  1.0
  O  O149  1  0.25003847  0.75005042  0.50000057  1.0
  O  O150  1  0.57921477  0.31271058  0.44350060  1.0
  O  O151  1  0.42079893  0.68729961  0.55651492  1.0
  O  O152  1  0.31289752  0.86409462  0.44346966  1.0
  O  O153  1  0.68712155  0.13585509  0.55651116  1.0
  O  O154  1  0.86402618  0.13059212  0.44357876  1.0
  O  O155  1  0.13595440  0.86938785  0.55644493  1.0
  O  O156  1  0.13086172  0.57959424  0.44382717  1.0
  O  O157  1  0.86914832  0.42041843  0.55619256  1.0
  O  O158  1  0.42104435  0.85180996  0.53951883  1.0
  O  O159  1  0.57898449  0.14818419  0.46048942  1.0
  O  O160  1  0.68761943  0.42080744  0.53927451  1.0
  O  O161  1  0.31239177  0.57921323  0.46072583  1.0
  O  O162  1  0.11822539  0.68792513  0.53949215  1.0
  O  O163  1  0.88176254  0.31207457  0.46052001  1.0
  O  O164  1  0.85178383  0.11855441  0.53969160  1.0
  O  O165  1  0.14825720  0.88146504  0.46037231  1.0
  O  O166  1  0.02183911  0.49752150  0.20308333  1.0
  O  O167  1  0.97814997  0.50250536  0.79693812  1.0
  O  O168  1  0.49737497  0.18100358  0.20307298  1.0
  O  O169  1  0.50262710  0.81900846  0.79692976  1.0
  O  O170  1  0.18174615  0.70488282  0.20312160  1.0
  O  O171  1  0.81824220  0.29514342  0.79690029  1.0
  O  O172  1  0.70587667  0.02242675  0.20316135  1.0
  O  O173  1  0.29413466  0.97759456  0.79684066  1.0
