# generated using pymatgen
data_CuH7C13O5
_symmetry_space_group_name_H-M   'P 1'
_cell_length_a   18.80907300
_cell_length_b   18.80906096
_cell_length_c   21.19728287
_cell_angle_alpha   90.03943847
_cell_angle_beta   116.29726582
_cell_angle_gamma   119.99682080
_symmetry_Int_Tables_number   1
_chemical_formula_structural   CuH7C13O5
_chemical_formula_sum   'Cu6 H42 C78 O30'
_cell_volume   5579.06151405
_cell_formula_units_Z   6
loop_
 _symmetry_equiv_pos_site_id
 _symmetry_equiv_pos_as_xyz
  1  'x, y, z'
loop_
 _atom_site_type_symbol
 _atom_site_label
 _atom_site_symmetry_multiplicity
 _atom_site_fract_x
 _atom_site_fract_y
 _atom_site_fract_z
 _atom_site_occupancy
  Cu  Cu0  1  0.44040559  0.93621141  0.94452389  1.0
  Cu  Cu1  1  0.44037555  0.50413542  0.94451155  1.0
  Cu  Cu2  1  0.00831154  0.50412088  0.94452252  1.0
  Cu  Cu3  1  0.55960634  0.06379001  0.05547090  1.0
  Cu  Cu4  1  0.99168031  0.49586645  0.05546761  1.0
  Cu  Cu5  1  0.55962470  0.49586405  0.05548655  1.0
  H  H6  1  0.73917308  0.98463841  0.19485465  1.0
  H  H7  1  0.94833897  0.08887560  0.43229682  1.0
  H  H8  1  0.29855751  0.86954362  0.80921346  1.0
  H  H9  1  0.44007378  0.45579515  0.19508933  1.0
  H  H10  1  0.57218975  0.48351111  0.43180192  1.0
  H  H11  1  0.38050319  0.51064823  0.80925752  1.0
  H  H12  1  0.21027350  0.75492670  0.19484903  1.0
  H  H13  1  0.34307775  0.85965351  0.43199089  1.0
  H  H14  1  0.93957022  0.42868801  0.80931951  1.0
  H  H15  1  0.56006140  0.01540912  0.80513573  1.0
  H  H16  1  0.42763903  0.91108073  0.56798235  1.0
  H  H17  1  0.61936450  0.13024289  0.19067596  1.0
  H  H18  1  0.78979664  0.54432603  0.80515564  1.0
  H  H19  1  0.65658393  0.51605902  0.56771859  1.0
  H  H20  1  0.06033356  0.48934480  0.19078440  1.0
  H  H21  1  0.26068744  0.24497031  0.80492239  1.0
  H  H22  1  0.05171614  0.14040083  0.56821218  1.0
  H  H23  1  0.70139618  0.57124094  0.19074103  1.0
  H  H24  1  0.26083435  0.01535969  0.80516053  1.0
  H  H25  1  0.05166199  0.91113021  0.56771677  1.0
  H  H26  1  0.70144022  0.13044879  0.19078712  1.0
  H  H27  1  0.55994477  0.54423251  0.80491767  1.0
  H  H28  1  0.42780163  0.51649604  0.56820166  1.0
  H  H29  1  0.61950003  0.48934419  0.19074023  1.0
  H  H30  1  0.78971512  0.24506775  0.80512993  1.0
  H  H31  1  0.65689997  0.14033642  0.56799310  1.0
  H  H32  1  0.06043044  0.57131020  0.19067592  1.0
  H  H33  1  0.43992799  0.98457502  0.19485078  1.0
  H  H34  1  0.57234976  0.08891819  0.43200103  1.0
  H  H35  1  0.38063142  0.86974889  0.80932069  1.0
  H  H36  1  0.21021738  0.45568429  0.19485387  1.0
  H  H37  1  0.34341310  0.48395261  0.43228657  1.0
  H  H38  1  0.93966962  0.51065533  0.80920986  1.0
  H  H39  1  0.73929074  0.75501367  0.19509498  1.0
  H  H40  1  0.94828819  0.85961075  0.43180143  1.0
  H  H41  1  0.29860748  0.42875276  0.80925727  1.0
  H  H42  1  0.53108926  0.76542078  0.00370429  1.0
  H  H43  1  0.23828314  0.47261760  0.00370166  1.0
  H  H44  1  0.23783919  0.76561752  0.00345660  1.0
  H  H45  1  0.76215632  0.23437372  0.99652272  1.0
  H  H46  1  0.76171122  0.52738252  0.99629685  1.0
  H  H47  1  0.46891997  0.23458701  0.99629964  1.0
  C  C48  1  0.58696581  0.92672464  0.05858730  1.0
  C  C49  1  0.63226831  0.88049853  0.09526317  1.0
  C  C50  1  0.71016753  0.91970117  0.16710390  1.0
  C  C51  1  0.97122771  0.05022915  0.46223129  1.0
  C  C52  1  0.39839456  0.47160497  0.05867292  1.0
  C  C53  1  0.34347004  0.46301385  0.09532861  1.0
  C  C54  1  0.37638095  0.45698550  0.16719018  1.0
  C  C55  1  0.54081114  0.49071922  0.46191896  1.0
  C  C56  1  0.13167597  0.66037219  0.05850223  1.0
  C  C57  1  0.21450397  0.75196662  0.09511445  1.0
  C  C58  1  0.24732901  0.79080685  0.16701690  1.0
  C  C59  1  0.41178725  0.92111014  0.46203610  1.0
  C  C60  1  0.60187302  0.07317260  0.94149073  1.0
  C  C61  1  0.65683665  0.11937867  0.90486076  1.0
  C  C62  1  0.62378217  0.08030231  0.83297113  1.0
  C  C63  1  0.45905741  0.94974632  0.53794408  1.0
  C  C64  1  0.86813228  0.52836784  0.94142711  1.0
  C  C65  1  0.78523697  0.53700566  0.90474149  1.0
  C  C66  1  0.75260861  0.54307488  0.83290716  1.0
  C  C67  1  0.58799645  0.50900892  0.53778221  1.0
  C  C68  1  0.41293424  0.33971950  0.94133836  1.0
  C  C69  1  0.36768229  0.24814350  0.90467427  1.0
  C  C70  1  0.28978341  0.20918148  0.83282735  1.0
  C  C71  1  0.02879717  0.07890303  0.53808992  1.0
  C  C72  1  0.41306253  0.07329268  0.94143147  1.0
  C  C73  1  0.36774106  0.11950474  0.90474552  1.0
  C  C74  1  0.28983840  0.08029757  0.83291192  1.0
  C  C75  1  0.02877701  0.94978306  0.53778483  1.0
  C  C76  1  0.60161630  0.52840600  0.94133440  1.0
  C  C77  1  0.65652866  0.53699205  0.90466852  1.0
  C  C78  1  0.62363787  0.54303956  0.83282277  1.0
  C  C79  1  0.45918399  0.50929562  0.53808489  1.0
  C  C80  1  0.86831626  0.33962028  0.94148637  1.0
  C  C81  1  0.78548291  0.24802977  0.90486147  1.0
  C  C82  1  0.75266840  0.20919011  0.83297281  1.0
  C  C83  1  0.58819492  0.07888046  0.53794380  1.0
  C  C84  1  0.39813637  0.92682817  0.05850532  1.0
  C  C85  1  0.34315382  0.88061322  0.09511685  1.0
  C  C86  1  0.37621322  0.91968630  0.16701908  1.0
  C  C87  1  0.54093021  0.05024939  0.46203874  1.0
  C  C88  1  0.13186109  0.47162258  0.05858524  1.0
  C  C89  1  0.21476933  0.46299893  0.09526071  1.0
  C  C90  1  0.24739968  0.45693481  0.16710103  1.0
  C  C91  1  0.41199513  0.49099950  0.46222287  1.0
  C  C92  1  0.58707099  0.66028117  0.05867605  1.0
  C  C93  1  0.63231585  0.75186363  0.09533188  1.0
  C  C94  1  0.71020589  0.79081081  0.16719443  1.0
  C  C95  1  0.97120212  0.92110599  0.46192377  1.0
  C  C96  1  0.59301032  0.79650351  0.05912537  1.0
  C  C97  1  0.74939077  0.87491146  0.20435526  1.0
  C  C98  1  0.82235013  0.91144712  0.27938562  1.0
  C  C99  1  0.87943452  0.93991545  0.34543483  1.0
  C  C100  1  0.94102261  0.97062638  0.42250080  1.0
  C  C101  1  0.26262637  0.46611839  0.05912374  1.0
  C  C102  1  0.32944011  0.45496272  0.20435210  1.0
  C  C103  1  0.36793785  0.45703400  0.27938359  1.0
  C  C104  1  0.40551539  0.46599709  0.34543064  1.0
  C  C105  1  0.45186820  0.48147691  0.42249539  1.0
  C  C106  1  0.26227658  0.79663060  0.05890496  1.0
  C  C107  1  0.32936175  0.87488784  0.20424828  1.0
  C  C108  1  0.36798858  0.91134868  0.27933673  1.0
  C  C109  1  0.40553414  0.93987213  0.34540125  1.0
  C  C110  1  0.45185376  0.97063550  0.42249154  1.0
  C  C111  1  0.73772893  0.20335994  0.94108454  1.0
  C  C112  1  0.67063872  0.12510909  0.79574566  1.0
  C  C113  1  0.63199778  0.08864505  0.72065502  1.0
  C  C114  1  0.59446061  0.06011071  0.65458869  1.0
  C  C115  1  0.54812744  0.02935699  0.57749496  1.0
  C  C116  1  0.73737618  0.53388233  0.94088150  1.0
  C  C117  1  0.67057851  0.54505916  0.79565652  1.0
  C  C118  1  0.63207780  0.54298788  0.72062385  1.0
  C  C119  1  0.59448891  0.53402030  0.65457665  1.0
  C  C120  1  0.54812431  0.51853280  0.57750836  1.0
  C  C121  1  0.40700504  0.20350745  0.94088524  1.0
  C  C122  1  0.25059956  0.12507638  0.79565975  1.0
  C  C123  1  0.17763846  0.08854266  0.72062635  1.0
  C  C124  1  0.12056228  0.06008009  0.65458021  1.0
  C  C125  1  0.05898015  0.02938136  0.57751209  1.0
  O  O126  1  0.62297666  0.00173635  0.09556299  1.0
  O  O127  1  0.51437892  0.88683861  0.99377750  1.0
  O  O128  1  0.47436257  0.47263708  0.09568684  1.0
  O  O129  1  0.36631453  0.47925468  0.99382395  1.0
  O  O130  1  0.09372426  0.62140350  0.09551484  1.0
  O  O131  1  0.10671242  0.62755750  0.99368387  1.0
  O  O132  1  0.52587939  0.99818957  0.90446729  1.0
  O  O133  1  0.63386987  0.11301147  0.00629602  1.0
  O  O134  1  0.90617238  0.52740391  0.90443846  1.0
  O  O135  1  0.89305454  0.52059065  0.00622036  1.0
  O  O136  1  0.37694602  0.37867425  0.90431600  1.0
  O  O137  1  0.48542462  0.37249093  0.00617823  1.0
  O  O138  1  0.37703841  0.99826501  0.90444144  1.0
  O  O139  1  0.48563968  0.11316725  0.00622522  1.0
  O  O140  1  0.52563859  0.52737201  0.90431391  1.0
  O  O141  1  0.63368504  0.52075185  0.00617381  1.0
  O  O142  1  0.90627326  0.37858712  0.90445961  1.0
  O  O143  1  0.89328150  0.37242414  0.00629093  1.0
  O  O144  1  0.47411867  0.00179267  0.09551613  1.0
  O  O145  1  0.36613199  0.88697397  0.99368702  1.0
  O  O146  1  0.09382744  0.47259107  0.09556088  1.0
  O  O147  1  0.10694000  0.47940307  0.99377538  1.0
  O  O148  1  0.62305250  0.62132457  0.09568594  1.0
  O  O149  1  0.51457208  0.62750915  0.99382734  1.0
  O  O150  1  0.33479742  0.84346630  0.82581562  1.0
  O  O151  1  0.33468590  0.49108286  0.82577221  1.0
  O  O152  1  0.98234954  0.49101838  0.82581464  1.0
  O  O153  1  0.66520445  0.15652931  0.17418670  1.0
  O  O154  1  0.01765258  0.50898045  0.17418259  1.0
  O  O155  1  0.66531373  0.50890894  0.17422280  1.0
