# generated using pymatgen
data_Hf3H23(C3O)16
_symmetry_space_group_name_H-M   'P 1'
_cell_length_a   17.95619935
_cell_length_b   22.51382543
_cell_length_c   22.62904045
_cell_angle_alpha   65.14733029
_cell_angle_beta   89.26858110
_cell_angle_gamma   88.63169218
_symmetry_Int_Tables_number   1
_chemical_formula_structural   Hf3H23(C3O)16
_chemical_formula_sum   'Hf6 H46 C96 O32'
_cell_volume   8298.48361388
_cell_formula_units_Z   2
loop_
 _symmetry_equiv_pos_site_id
 _symmetry_equiv_pos_as_xyz
  1  'x, y, z'
loop_
 _atom_site_type_symbol
 _atom_site_label
 _atom_site_symmetry_multiplicity
 _atom_site_fract_x
 _atom_site_fract_y
 _atom_site_fract_z
 _atom_site_occupancy
  Hf  Hf0  1  0.21197544  0.97176199  0.03929950  1.0
  Hf  Hf1  1  0.94609854  0.94668718  0.03081919  1.0
  Hf  Hf2  1  0.08581371  0.85824422  0.13638846  1.0
  Hf  Hf3  1  0.07319390  0.06112396  0.93394301  1.0
  Hf  Hf4  1  0.10344264  0.89516543  0.96414618  1.0
  Hf  Hf5  1  0.05459737  0.02918967  0.09972731  1.0
  H  H6  1  0.73662329  0.01712606  0.74303217  1.0
  H  H7  1  0.60698203  0.17326588  0.59828176  1.0
  H  H8  1  0.74525413  0.21350141  0.73111552  1.0
  H  H9  1  0.45769080  0.72565838  0.97662211  1.0
  H  H10  1  0.57135589  0.73099273  0.80523282  1.0
  H  H11  1  0.45447549  0.90340668  0.79911701  1.0
  H  H12  1  0.70425287  0.19322831  0.09631519  1.0
  H  H13  1  0.57175073  0.18427621  0.26034514  1.0
  H  H14  1  0.69959430  0.01453114  0.27268911  1.0
  H  H15  1  0.62698796  0.06621237  0.48705620  1.0
  H  H16  1  0.51387276  0.84673511  0.57916479  1.0
  H  H17  1  0.41012740  0.89102768  0.31978830  1.0
  H  H18  1  0.54095566  0.74116244  0.46993477  1.0
  H  H19  1  0.41378424  0.69263230  0.33643529  1.0
  H  H20  1  0.40568341  0.25639311  0.96433322  1.0
  H  H21  1  0.55380573  0.38947000  0.82022198  1.0
  H  H22  1  0.40855296  0.26914134  0.76838355  1.0
  H  H23  1  0.72051079  0.66347058  0.29467590  1.0
  H  H24  1  0.60603895  0.52135699  0.24956570  1.0
  H  H25  1  0.71999129  0.68014375  0.09751326  1.0
  H  H26  1  0.65603876  0.40114958  0.47959712  1.0
  H  H27  1  0.50137752  0.51064520  0.59016338  1.0
  H  H28  1  0.52167167  0.50430593  0.92358100  1.0
  H  H29  1  0.62930769  0.41268396  0.14568575  1.0
  H  H30  1  0.19220954  0.99863696  0.90009037  1.0
  H  H31  1  0.99759357  0.81194596  0.07113378  1.0
  H  H32  1  0.94894876  0.08508848  0.99312882  1.0
  H  H33  1  0.17426164  0.95079317  0.17072608  1.0
  H  H34  1  0.08113808  0.78122877  0.98431897  1.0
  H  H35  1  0.00551436  0.83680581  0.23828782  1.0
  H  H36  1  0.99633951  0.98057746  0.22300633  1.0
  H  H37  1  0.09920212  0.91884426  0.84372286  1.0
  H  H38  1  0.04248371  0.11015925  0.80499507  1.0
  H  H39  1  0.08547909  0.18829166  0.89743008  1.0
  H  H40  1  0.07216983  0.15510183  0.05965696  1.0
  H  H41  1  0.97361444  0.85127739  0.94238677  1.0
  H  H42  1  0.85191274  0.92058916  0.94324757  1.0
  H  H43  1  0.31658750  0.05076336  0.05602130  1.0
  H  H44  1  0.13308258  0.06213831  0.17928636  1.0
  H  H45  1  0.12634813  0.13117771  0.80800225  1.0
  H  H46  1  0.85770448  0.86207770  0.01327547  1.0
  H  H47  1  0.07164366  0.73074189  0.20706096  1.0
  H  H48  1  0.17024941  0.77086574  0.99694139  1.0
  H  H49  1  0.04228483  0.15329434  0.99132414  1.0
  H  H50  1  0.04676217  0.91647085  0.22069832  1.0
  H  H51  1  0.32641351  0.97995652  0.11465170  1.0
  C  C52  1  0.74645373  0.11299467  0.74272703  1.0
  C  C53  1  0.71846858  0.06827638  0.72046623  1.0
  C  C54  1  0.66840594  0.09002693  0.66799688  1.0
  C  C55  1  0.64573013  0.15632939  0.63894185  1.0
  C  C56  1  0.67252042  0.20094525  0.66178071  1.0
  C  C57  1  0.72332549  0.17913296  0.71367252  1.0
  C  C58  1  0.45120576  0.81811658  0.89145746  1.0
  C  C59  1  0.47471617  0.75257333  0.92609707  1.0
  C  C60  1  0.51817164  0.72086803  0.89531639  1.0
  C  C61  1  0.53837613  0.75547915  0.82945601  1.0
  C  C62  1  0.51611605  0.82150349  0.79463324  1.0
  C  C63  1  0.47285814  0.85272893  0.82607595  1.0
  C  C64  1  0.70722776  0.10040371  0.18122298  1.0
  C  C65  1  0.68332887  0.16568429  0.14551539  1.0
  C  C66  1  0.63430055  0.19622355  0.17376229  1.0
  C  C67  1  0.60898722  0.16062803  0.23804829  1.0
  C  C68  1  0.63188121  0.09493161  0.27382015  1.0
  C  C69  1  0.68080124  0.06496084  0.24495014  1.0
  C  C70  1  0.59295244  0.98506624  0.57486441  1.0
  C  C71  1  0.56058603  0.92181184  0.60184172  1.0
  C  C72  1  0.53906177  0.89477167  0.55916891  1.0
  C  C73  1  0.54779455  0.92792175  0.49129964  1.0
  C  C74  1  0.58021317  0.99115173  0.46440678  1.0
  C  C75  1  0.60168061  0.01821170  0.50706154  1.0
  C  C76  1  0.40667344  0.79381321  0.32223577  1.0
  C  C77  1  0.43019302  0.84049289  0.34387363  1.0
  C  C78  1  0.47829096  0.82148719  0.39757856  1.0
  C  C79  1  0.50357507  0.75594894  0.42845765  1.0
  C  C80  1  0.48124332  0.70950651  0.40630902  1.0
  C  C81  1  0.43232698  0.72852762  0.35328483  1.0
  C  C82  1  0.40130162  0.25736023  0.86825514  1.0
  C  C83  1  0.42822114  0.27730067  0.91504958  1.0
  C  C84  1  0.48293033  0.32540022  0.89772290  1.0
  C  C85  1  0.51139453  0.35223872  0.83377534  1.0
  C  C86  1  0.48527112  0.33190732  0.78714498  1.0
  C  C87  1  0.42978734  0.28454184  0.80447067  1.0
  C  C88  1  0.72503712  0.67816097  0.19393854  1.0
  C  C89  1  0.70307562  0.64533863  0.25947706  1.0
  C  C90  1  0.65996285  0.58887982  0.27976081  1.0
  C  C91  1  0.63900745  0.56535475  0.23404788  1.0
  C  C92  1  0.66010839  0.59807611  0.16822288  1.0
  C  C93  1  0.70286935  0.65482906  0.14821899  1.0
  C  C94  1  0.60256190  0.38994746  0.56933080  1.0
  C  C95  1  0.55823396  0.42133397  0.60104108  1.0
  C  C96  1  0.53560295  0.48677697  0.56606286  1.0
  C  C97  1  0.55487072  0.52186011  0.50047855  1.0
  C  C98  1  0.59909387  0.49046415  0.46859201  1.0
  C  C99  1  0.62192611  0.42507846  0.50370786  1.0
  C  C100  1  0.56560435  0.52760333  0.99915702  1.0
  C  C101  1  0.59628605  0.50090654  0.06327338  1.0
  C  C102  1  0.60528377  0.43264527  0.09706360  1.0
  C  C103  1  0.58554588  0.38942155  0.07002499  1.0
  C  C104  1  0.55455706  0.41618038  0.00608203  1.0
  C  C105  1  0.54575170  0.48440136  0.97218503  1.0
  C  C106  1  0.28933956  0.89166176  0.97007366  1.0
  C  C107  1  0.24542130  0.11565655  0.92281742  1.0
  C  C108  1  0.25848897  0.84708266  0.17316145  1.0
  C  C109  1  0.86395628  0.83174838  0.15177480  1.0
  C  C110  1  0.87549562  0.02532408  0.10948038  1.0
  C  C111  1  0.89987553  0.05552135  0.88836019  1.0
  C  C112  1  0.77103754  0.73349148  0.17594355  1.0
  C  C113  1  0.81194955  0.77940946  0.16481294  1.0
  C  C114  1  0.63857131  0.57065024  0.12504770  1.0
  C  C115  1  0.61798971  0.54086413  0.09410469  1.0
  C  C116  1  0.62003100  0.52499463  0.40266058  1.0
  C  C117  1  0.63852519  0.55496834  0.34591372  1.0
  C  C118  1  0.34517938  0.20973993  0.88507662  1.0
  C  C119  1  0.29741535  0.16848177  0.89914910  1.0
  C  C120  1  0.50855451  0.35003583  0.94197010  1.0
  C  C121  1  0.53161856  0.37687958  0.97486485  1.0
  C  C122  1  0.51305172  0.36077262  0.72250516  1.0
  C  C123  1  0.53561698  0.38742232  0.66666667  1.0
  C  C124  1  0.31167553  0.82357988  0.22566270  1.0
  C  C125  1  0.35608356  0.81129542  0.26969759  1.0
  C  C126  1  0.52988756  0.58741548  0.46653591  1.0
  C  C127  1  0.50721100  0.64376819  0.43824187  1.0
  C  C128  1  0.52407813  0.89698791  0.45204126  1.0
  C  C129  1  0.50149861  0.86544640  0.42355921  1.0
  C  C130  1  0.81082445  0.04814027  0.13317586  1.0
  C  C131  1  0.76118059  0.07146960  0.15447400  1.0
  C  C132  1  0.59325278  0.02631050  0.39666586  1.0
  C  C133  1  0.60883851  0.05895034  0.33952452  1.0
  C  C134  1  0.59848004  0.32114385  0.10563923  1.0
  C  C135  1  0.61325111  0.26317340  0.13771091  1.0
  C  C136  1  0.35479989  0.86947796  0.94653535  1.0
  C  C137  1  0.40174238  0.84736002  0.92149911  1.0
  C  C138  1  0.55296522  0.59580354  0.96332199  1.0
  C  C139  1  0.53869079  0.65378133  0.93086792  1.0
  C  C140  1  0.53489617  0.85634566  0.72766299  1.0
  C  C141  1  0.54839771  0.88716511  0.66976925  1.0
  C  C142  1  0.79924272  0.09216416  0.79387480  1.0
  C  C143  1  0.84553828  0.07584889  0.83694746  1.0
  C  C144  1  0.64145161  0.04759627  0.64169627  1.0
  C  C145  1  0.61740004  0.01598944  0.61386722  1.0
  C  C146  1  0.64878011  0.26749131  0.63136551  1.0
  C  C147  1  0.62695964  0.32414724  0.60329354  1.0
  O  O148  1  0.29103693  0.01599052  0.09201949  1.0
  O  O149  1  0.29721349  0.93431632  0.99323988  1.0
  O  O150  1  0.27955397  0.89596292  0.12177380  1.0
  O  O151  1  0.18249514  0.12386256  0.89502230  1.0
  O  O152  1  0.19547552  0.82017811  0.18266321  1.0
  O  O153  1  0.26832647  0.06445571  0.97146579  1.0
  O  O154  1  0.22889853  0.86707684  0.96403866  1.0
  O  O155  1  0.14929951  0.89618005  0.05175222  1.0
  O  O156  1  0.16518795  0.99261911  0.93975848  1.0
  O  O157  1  0.14871570  0.95240076  0.13250710  1.0
  O  O158  1  0.12474400  0.03811879  0.02089291  1.0
  O  O159  1  0.04744556  0.15682272  0.92053367  1.0
  O  O160  1  0.12348588  0.78152080  0.01294258  1.0
  O  O161  1  0.02787683  0.96820780  0.96073837  1.0
  O  O162  1  0.01629435  0.85622881  0.05565559  1.0
  O  O163  1  0.01459455  0.94044457  0.10145542  1.0
  O  O164  1  0.98549284  0.04940440  0.00619999  1.0
  O  O165  1  0.05663784  0.76564983  0.16590740  1.0
  O  O166  1  0.89712656  0.83746324  0.19662578  1.0
  O  O167  1  0.87174163  0.86911794  0.08919689  1.0
  O  O168  1  0.11843446  0.08064911  0.13394260  1.0
  O  O169  1  0.86531849  0.99363264  0.07525925  1.0
  O  O170  1  0.05505307  0.85581314  0.22773636  1.0
  O  O171  1  0.04405567  0.97087938  0.20786288  1.0
  O  O172  1  0.03367202  0.13869401  0.04041519  1.0
  O  O173  1  0.93793658  0.04078930  0.12506018  1.0
  O  O174  1  0.88599040  0.88727656  0.97292743  1.0
  O  O175  1  0.09192868  0.09485509  0.82382370  1.0
  O  O176  1  0.87876036  0.01268730  0.94384973  1.0
  O  O177  1  0.96344484  0.08168488  0.87429234  1.0
  O  O178  1  0.13012716  0.93447021  0.86890326  1.0
  O  O179  1  0.02638974  0.84572772  0.93523974  1.0
