# generated using pymatgen
data_Zn2H32C45N2(Cl3O4)2
_symmetry_space_group_name_H-M   'P 1'
_cell_length_a   12.43745226
_cell_length_b   12.63476580
_cell_length_c   22.46738722
_cell_angle_alpha   89.90480356
_cell_angle_beta   89.83361791
_cell_angle_gamma   89.32999288
_symmetry_Int_Tables_number   1
_chemical_formula_structural   Zn2H32C45N2(Cl3O4)2
_chemical_formula_sum   'Zn4 H64 C90 N4 Cl12 O16'
_cell_volume   3530.36080022
_cell_formula_units_Z   2
loop_
 _symmetry_equiv_pos_site_id
 _symmetry_equiv_pos_as_xyz
  1  'x, y, z'
loop_
 _atom_site_type_symbol
 _atom_site_label
 _atom_site_symmetry_multiplicity
 _atom_site_fract_x
 _atom_site_fract_y
 _atom_site_fract_z
 _atom_site_occupancy
  Zn  Zn0  1  0.61843869  0.50072821  0.49752476  1.0
  Zn  Zn1  1  0.38645036  0.50171875  0.49997551  1.0
  Zn  Zn2  1  0.00645470  0.89044339  0.00089200  1.0
  Zn  Zn3  1  0.99772257  0.12026142  0.00012260  1.0
  H  H4  1  0.64434771  0.17260339  0.74606619  1.0
  H  H5  1  0.34805827  0.84695594  0.73652717  1.0
  H  H6  1  0.30939200  0.12908661  0.74899795  1.0
  H  H7  1  0.69547182  0.88091790  0.75147623  1.0
  H  H8  1  0.37570883  0.04669810  0.65081208  1.0
  H  H9  1  0.64304253  0.95151420  0.65762529  1.0
  H  H10  1  0.47099339  0.86981341  0.83576617  1.0
  H  H11  1  0.52261483  0.13181385  0.83965515  1.0
  H  H12  1  0.64445250  0.83323617  0.25373859  1.0
  H  H13  1  0.36952656  0.18442417  0.24772770  1.0
  H  H14  1  0.30484203  0.89407828  0.25054674  1.0
  H  H15  1  0.69807609  0.11717009  0.25247450  1.0
  H  H16  1  0.36743163  0.96109026  0.34414670  1.0
  H  H17  1  0.62379678  0.03917208  0.34927984  1.0
  H  H18  1  0.48247386  0.12967055  0.15525429  1.0
  H  H19  1  0.52773506  0.87777720  0.15709225  1.0
  H  H20  1  0.32456111  0.60546197  0.66643337  1.0
  H  H21  1  0.25445669  0.70138307  0.62486061  1.0
  H  H22  1  0.25649252  0.71054424  0.70418967  1.0
  H  H23  1  0.69810987  0.88854719  0.56754316  1.0
  H  H24  1  0.63255751  0.78553299  0.52789407  1.0
  H  H25  1  0.72547972  0.75346562  0.58402709  1.0
  H  H26  1  0.86094828  0.80494076  0.85267871  1.0
  H  H27  1  0.94435683  0.90976950  0.83188192  1.0
  H  H28  1  0.87132706  0.84055046  0.77628328  1.0
  H  H29  1  0.58008275  0.20803960  0.92389334  1.0
  H  H30  1  0.72054885  0.23557030  0.92193184  1.0
  H  H31  1  0.67196773  0.13735457  0.97026864  1.0
  H  H32  1  0.72488383  0.32453218  0.72000299  1.0
  H  H33  1  0.66133773  0.41696991  0.67092525  1.0
  H  H34  1  0.75194128  0.32235725  0.64202345  1.0
  H  H35  1  0.33374451  0.10438841  0.55779707  1.0
  H  H36  1  0.40684414  0.20368534  0.51928803  1.0
  H  H37  1  0.30150128  0.24089302  0.56719017  1.0
  H  H38  1  0.13953513  0.20463102  0.84902223  1.0
  H  H39  1  0.05560116  0.10165600  0.82635122  1.0
  H  H40  1  0.13217915  0.17166855  0.77219193  1.0
  H  H41  1  0.40763611  0.78995651  0.91730963  1.0
  H  H42  1  0.26635278  0.76700599  0.91415902  1.0
  H  H43  1  0.31660437  0.86051099  0.96445129  1.0
  H  H44  1  0.29914150  0.34595201  0.27107146  1.0
  H  H45  1  0.35904202  0.42941425  0.32537816  1.0
  H  H46  1  0.25988550  0.33908279  0.34732620  1.0
  H  H47  1  0.66896162  0.09804266  0.44126078  1.0
  H  H48  1  0.58797235  0.19204284  0.48019481  1.0
  H  H49  1  0.69558359  0.23613432  0.43643859  1.0
  H  H50  1  0.87460181  0.18890736  0.15528535  1.0
  H  H51  1  0.95322718  0.07987760  0.17764730  1.0
  H  H52  1  0.87703729  0.15161525  0.23169569  1.0
  H  H53  1  0.72581066  0.76372209  0.08118962  1.0
  H  H54  1  0.69559953  0.86578623  0.03028609  1.0
  H  H55  1  0.58965201  0.80568848  0.07135996  1.0
  H  H56  1  0.65565170  0.58683644  0.32369527  1.0
  H  H57  1  0.74192992  0.67565575  0.35926663  1.0
  H  H58  1  0.72570714  0.68224720  0.28041982  1.0
  H  H59  1  0.31443731  0.89712207  0.43452716  1.0
  H  H60  1  0.38419721  0.79373207  0.47297597  1.0
  H  H61  1  0.28500396  0.76195027  0.42075671  1.0
  H  H62  1  0.13151212  0.82306075  0.15254121  1.0
  H  H63  1  0.05358298  0.93350817  0.17331819  1.0
  H  H64  1  0.12662381  0.86195205  0.22859305  1.0
  H  H65  1  0.28820395  0.24376247  0.07580026  1.0
  H  H66  1  0.32100709  0.13998404  0.02654672  1.0
  H  H67  1  0.42475133  0.20116823  0.06831062  1.0
  C  C68  1  0.52149817  0.65006439  0.41959869  1.0
  C  C69  1  0.47193961  0.35277080  0.42177486  1.0
  C  C70  1  0.53468057  0.35151843  0.57537620  1.0
  C  C71  1  0.48185990  0.65233229  0.57654187  1.0
  C  C72  1  0.14798766  0.03903770  0.07992962  1.0
  C  C73  1  0.14374431  0.98034010  0.91628194  1.0
  C  C74  1  0.85175869  0.02855242  0.92072394  1.0
  C  C75  1  0.86337681  0.97115991  0.08401219  1.0
  C  C76  1  0.14124318  0.49680899  0.46912692  1.0
  C  C77  1  0.15691835  0.45871874  0.56959079  1.0
  C  C78  1  0.04573593  0.46205724  0.57819069  1.0
  C  C79  1  0.97860041  0.47828197  0.52764553  1.0
  C  C80  1  0.86426805  0.49456142  0.52818458  1.0
  C  C81  1  0.85019016  0.45428667  0.42808949  1.0
  C  C82  1  0.96119594  0.45963324  0.41941169  1.0
  C  C83  1  0.02766229  0.47829024  0.46979063  1.0
  C  C84  1  0.50163400  0.00355371  0.74698060  1.0
  C  C85  1  0.40173002  0.00114632  0.78771248  1.0
  C  C86  1  0.59819852  0.00558110  0.78996345  1.0
  C  C87  1  0.49942297  0.90690464  0.70494785  1.0
  C  C88  1  0.50662330  0.10066144  0.70520965  1.0
  C  C89  1  0.58682697  0.17651172  0.70969501  1.0
  C  C90  1  0.41283039  0.83774784  0.70422169  1.0
  C  C91  1  0.31270755  0.06863737  0.78371200  1.0
  C  C92  1  0.68887620  0.94010948  0.78659782  1.0
  C  C93  1  0.59872638  0.25730726  0.66755719  1.0
  C  C94  1  0.40343233  0.75731303  0.66190465  1.0
  C  C95  1  0.22649960  0.06196956  0.82423183  1.0
  C  C96  1  0.77286510  0.94693821  0.82819364  1.0
  C  C97  1  0.52661576  0.26284789  0.61937870  1.0
  C  C98  1  0.48605785  0.74316259  0.61933595  1.0
  C  C99  1  0.22979540  0.98406816  0.86936808  1.0
  C  C100  1  0.76580237  0.02299940  0.87401396  1.0
  C  C101  1  0.44434194  0.18689906  0.61365215  1.0
  C  C102  1  0.57389734  0.81380249  0.61823696  1.0
  C  C103  1  0.31802808  0.91246317  0.87272667  1.0
  C  C104  1  0.67500905  0.09124393  0.87762283  1.0
  C  C105  1  0.43622147  0.10762584  0.65676112  1.0
  C  C106  1  0.57807996  0.89438569  0.66070885  1.0
  C  C107  1  0.40191518  0.92347390  0.83224851  1.0
  C  C108  1  0.59337383  0.08033176  0.83594595  1.0
  C  C109  1  0.50200229  0.00454029  0.25046267  1.0
  C  C110  1  0.40457600  0.01056284  0.20821188  1.0
  C  C111  1  0.60168536  0.99911460  0.20962638  1.0
  C  C112  1  0.49914308  0.10179237  0.29215920  1.0
  C  C113  1  0.50289026  0.90656554  0.29187508  1.0
  C  C114  1  0.58365547  0.82923359  0.28854948  1.0
  C  C115  1  0.42405981  0.18386146  0.28551825  1.0
  C  C116  1  0.31177771  0.95087176  0.21418508  1.0
  C  C117  1  0.69347789  0.05997275  0.21627886  1.0
  C  C118  1  0.59237664  0.74681839  0.32995944  1.0
  C  C119  1  0.41316510  0.26530885  0.32730673  1.0
  C  C120  1  0.22632831  0.96033027  0.17366084  1.0
  C  C121  1  0.78081676  0.05081754  0.17667169  1.0
  C  C122  1  0.51570950  0.74001918  0.37604653  1.0
  C  C123  1  0.48089751  0.26494858  0.37734411  1.0
  C  C124  1  0.23437572  0.03330385  0.12628295  1.0
  C  C125  1  0.77569519  0.97672683  0.12982162  1.0
  C  C126  1  0.43245564  0.81711544  0.38050874  1.0
  C  C127  1  0.55928210  0.18385330  0.38483030  1.0
  C  C128  1  0.32700054  0.09612067  0.11998130  1.0
  C  C129  1  0.68419656  0.91251387  0.12309037  1.0
  C  C130  1  0.42844702  0.89904769  0.33861048  1.0
  C  C131  1  0.56657234  0.10402815  0.34203164  1.0
  C  C132  1  0.41006891  0.08268509  0.16082895  1.0
  C  C133  1  0.59921287  0.92589688  0.16288137  1.0
  C  C134  1  0.05698878  0.36677007  0.99848781  1.0
  C  C135  1  0.87772482  0.35408798  0.02481035  1.0
  C  C136  1  0.86075759  0.46314503  0.01963755  1.0
  C  C137  1  0.95148961  0.52820492  0.00865668  1.0
  C  C138  1  0.95057907  0.64091411  0.00011296  1.0
  C  C139  1  0.12994249  0.65287842  0.02529339  1.0
  C  C140  1  0.14710033  0.54404908  0.01876039  1.0
  C  C141  1  0.05621462  0.47921429  0.00798216  1.0
  C  C142  1  0.30440322  0.69010464  0.66466404  1.0
  C  C143  1  0.66156857  0.81012691  0.57172068  1.0
  C  C144  1  0.86751008  0.87209808  0.82175279  1.0
  C  C145  1  0.66094763  0.17253954  0.92593376  1.0
  C  C146  1  0.68890423  0.33449417  0.67575667  1.0
  C  C147  1  0.36801100  0.18378594  0.56166149  1.0
  C  C148  1  0.13343720  0.13863678  0.81743169  1.0
  C  C149  1  0.32784703  0.82783277  0.91960231  1.0
  C  C150  1  0.32850094  0.34959867  0.31704162  1.0
  C  C151  1  0.63162118  0.17705222  0.43846272  1.0
  C  C152  1  0.87651300  0.12109774  0.18596546  1.0
  C  C153  1  0.67308704  0.83281407  0.07378680  1.0
  C  C154  1  0.68383841  0.66878607  0.32277678  1.0
  C  C155  1  0.35015411  0.81763795  0.42993445  1.0
  C  C156  1  0.12937023  0.89149279  0.18264903  1.0
  C  C157  1  0.34112774  0.17433157  0.06996970  1.0
  N  N158  1  0.20255320  0.48433724  0.51666261  1.0
  N  N159  1  0.80349074  0.48048965  0.48074765  1.0
  N  N160  1  0.97220338  0.30751353  0.00891416  1.0
  N  N161  1  0.03534713  0.69988975  0.01043413  1.0
  Cl  Cl162  1  0.76874546  0.41670146  0.37161959  1.0
  Cl  Cl163  1  0.01272939  0.43175615  0.35054938  1.0
  Cl  Cl164  1  0.20201821  0.55008700  0.40825423  1.0
  Cl  Cl165  1  0.23968217  0.42484348  0.62666233  1.0
  Cl  Cl166  1  0.99552703  0.43481980  0.64734163  1.0
  Cl  Cl167  1  0.80116223  0.54679346  0.58887037  1.0
  Cl  Cl168  1  0.22877963  0.73178835  0.05147373  1.0
  Cl  Cl169  1  0.27286414  0.49283103  0.03116919  1.0
  Cl  Cl170  1  0.16458838  0.30425881  0.96648848  1.0
  Cl  Cl171  1  0.77885509  0.27431292  0.05048587  1.0
  Cl  Cl172  1  0.73545026  0.51423890  0.03383803  1.0
  Cl  Cl173  1  0.84259810  0.70436499  0.96927970  1.0
  O  O174  1  0.61365524  0.62562971  0.44158230  1.0
  O  O175  1  0.43405346  0.60333969  0.43133228  1.0
  O  O176  1  0.37883597  0.37867286  0.44179569  1.0
  O  O177  1  0.55929906  0.39679716  0.43611762  1.0
  O  O178  1  0.44673390  0.39704660  0.56134023  1.0
  O  O179  1  0.62732421  0.37703429  0.55536316  1.0
  O  O180  1  0.56995427  0.60409335  0.56549131  1.0
  O  O181  1  0.39029768  0.62793181  0.55455687  1.0
  O  O182  1  0.11989522  0.95127054  0.05767774  1.0
  O  O183  1  0.10976852  0.12984712  0.06501468  1.0
  O  O184  1  0.11410952  0.06814085  0.93888208  1.0
  O  O185  1  0.10762476  0.88936139  0.93148204  1.0
  O  O186  1  0.88764605  0.12002999  0.93474832  1.0
  O  O187  1  0.88218595  0.94148660  0.94391141  1.0
  O  O188  1  0.90121257  0.88021517  0.06891927  1.0
  O  O189  1  0.89264225  0.05893288  0.06206177  1.0
