# generated using pymatgen
data_Zn6H60C58(N4O11)3
_symmetry_space_group_name_H-M   'P 1'
_cell_length_a   18.51993150
_cell_length_b   18.55361753
_cell_length_c   18.68404161
_cell_angle_alpha   109.33060177
_cell_angle_beta   109.78240466
_cell_angle_gamma   108.65284742
_symmetry_Int_Tables_number   1
_chemical_formula_structural   Zn6H60C58(N4O11)3
_chemical_formula_sum   'Zn6 H60 C58 N12 O33'
_cell_volume   4980.91262924
_cell_formula_units_Z   1
loop_
 _symmetry_equiv_pos_site_id
 _symmetry_equiv_pos_as_xyz
  1  'x, y, z'
loop_
 _atom_site_type_symbol
 _atom_site_label
 _atom_site_symmetry_multiplicity
 _atom_site_fract_x
 _atom_site_fract_y
 _atom_site_fract_z
 _atom_site_occupancy
  Zn  Zn0  1  0.98964732  0.56643479  0.04878804  1.0
  Zn  Zn1  1  0.99665177  0.44636972  0.92843408  1.0
  Zn  Zn2  1  0.54487786  0.55501879  0.50045913  1.0
  Zn  Zn3  1  0.41795866  0.42864059  0.49442788  1.0
  Zn  Zn4  1  0.57328667  0.01649511  0.06877497  1.0
  Zn  Zn5  1  0.44268609  0.00470602  0.93716257  1.0
  H  H6  1  0.35086552  0.46612540  0.24303168  1.0
  H  H7  1  0.05115968  0.59930105  0.87870678  1.0
  H  H8  1  0.12513025  0.55454758  0.79769741  1.0
  H  H9  1  0.11167086  0.62841806  0.75939844  1.0
  H  H10  1  0.01766500  0.53777086  0.73573885  1.0
  H  H11  1  0.24336421  0.82724055  0.86692154  1.0
  H  H12  1  0.45329968  0.91978817  0.13717800  1.0
  H  H13  1  0.36884795  0.82731748  0.21918177  1.0
  H  H14  1  0.26509659  0.64658486  0.13929774  1.0
  H  H15  1  0.22104320  0.69299085  0.20136912  1.0
  H  H16  1  0.33359866  0.72132409  0.25318734  1.0
  H  H17  1  0.67194351  0.28958270  0.28361762  1.0
  H  H18  1  0.36380556  0.29400258  0.28811942  1.0
  H  H19  1  0.28853002  0.11657249  0.20263136  1.0
  H  H20  1  0.24794335  0.13843936  0.11595663  1.0
  H  H21  1  0.23160395  0.17803477  0.20676094  1.0
  H  H22  1  0.39078723  0.10382437  0.06971318  1.0
  H  H23  1  0.55178857  0.34259922  0.65176172  1.0
  H  H24  1  0.60352919  0.33859512  0.77991360  1.0
  H  H25  1  0.66874618  0.45496963  0.83762371  1.0
  H  H26  1  0.71062886  0.38911388  0.79328501  1.0
  H  H27  1  0.66098506  0.46878086  0.41656036  1.0
  H  H28  1  0.58093478  0.26694116  0.95320019  1.0
  H  H29  1  0.46619799  0.55556163  0.69012414  1.0
  H  H30  1  0.52171300  0.52008262  0.79027711  1.0
  H  H31  1  0.50165418  0.58884302  0.86505821  1.0
  H  H32  1  0.59942756  0.63339814  0.86077436  1.0
  H  H33  1  0.53187143  0.78512799  0.95595341  1.0
  H  H34  1  0.40483652  0.66515450  0.92255035  1.0
  H  H35  1  0.38066648  0.61306643  0.81199767  1.0
  H  H36  1  0.36818076  0.70721784  0.85233213  1.0
  H  H37  1  0.52628740  0.94612660  0.75732687  1.0
  H  H38  1  0.67210302  0.96187018  0.75336844  1.0
  H  H39  1  0.73757253  0.64819416  0.73144012  1.0
  H  H40  1  0.71280288  0.00276818  0.86761203  1.0
  H  H41  1  0.66884671  0.05592712  0.81717152  1.0
  H  H42  1  0.54110868  0.86706466  0.65408849  1.0
  H  H43  1  0.41817296  0.68640383  0.53024538  1.0
  H  H44  1  0.50829307  0.72060773  0.51250823  1.0
  H  H45  1  0.44577902  0.77667398  0.51141377  1.0
  H  H46  1  0.81856710  0.67885157  0.88086783  1.0
  H  H47  1  0.98349822  0.69927584  0.97098777  1.0
  H  H48  1  0.96013959  0.76196270  0.92079039  1.0
  H  H49  1  0.96466348  0.66677323  0.86313547  1.0
  H  H50  1  0.12764046  0.49598718  0.36226427  1.0
  H  H51  1  0.80574694  0.39142562  0.70357373  1.0
  H  H52  1  0.91803786  0.31158427  0.99623976  1.0
  H  H53  1  0.85135435  0.13762678  0.92638413  1.0
  H  H54  1  0.89849675  0.17141774  0.03978948  1.0
  H  H55  1  0.96474156  0.21611491  0.99918810  1.0
  H  H56  1  0.70736270  0.11041847  0.02081706  1.0
  H  H57  1  0.76137258  0.45865378  0.00669775  1.0
  H  H58  1  0.19490857  0.43670535  0.03902507  1.0
  H  H59  1  0.31991557  0.44476979  0.03319811  1.0
  H  H60  1  0.32296102  0.39021650  0.09617195  1.0
  H  H61  1  0.30525092  0.57219355  0.48934648  1.0
  H  H62  1  0.38418721  0.50636400  0.14899035  1.0
  H  H63  1  0.24928627  0.46905135  0.47921439  1.0
  H  H64  1  0.21245470  0.54697113  0.50467625  1.0
  H  H65  1  0.05405014  0.50651664  0.19661367  1.0
  C  C66  1  0.86015397  0.40885599  0.99452840  1.0
  C  C67  1  0.20251870  0.47887620  0.30996333  1.0
  C  C68  1  0.14615345  0.48122397  0.23777056  1.0
  C  C69  1  0.89109935  0.49575994  0.84894173  1.0
  C  C70  1  0.15734804  0.46996952  0.16430226  1.0
  C  C71  1  0.16806117  0.70553251  0.93876592  1.0
  C  C72  1  0.22512285  0.77218538  0.93344098  1.0
  C  C73  1  0.31071309  0.83466220  0.00624841  1.0
  C  C74  1  0.33534088  0.83340495  0.08616026  1.0
  C  C75  1  0.27504242  0.77413930  0.09654901  1.0
  C  C76  1  0.19221088  0.71040114  0.02203080  1.0
  C  C77  1  0.73880183  0.20285810  0.99648250  1.0
  C  C78  1  0.51453244  0.40446187  0.38243973  1.0
  C  C79  1  0.56485666  0.46115725  0.61544655  1.0
  C  C80  1  0.50999435  0.63441779  0.62053841  1.0
  C  C81  1  0.12590099  0.64326435  0.02646924  1.0
  C  C82  1  0.34380814  0.47339488  0.37970526  1.0
  C  C83  1  0.53526485  0.13753920  0.14007991  1.0
  C  C84  1  0.58677666  0.12749485  0.96796840  1.0
  C  C85  1  0.53586018  0.89720299  0.91254635  1.0
  C  C86  1  0.37427200  0.89766867  0.99824276  1.0
  C  C87  1  0.43909860  0.26070540  0.24544753  1.0
  C  C88  1  0.65665768  0.20010617  0.97472272  1.0
  C  C89  1  0.44685565  0.19937298  0.18300789  1.0
  C  C90  1  0.53046108  0.20788371  0.20087128  1.0
  C  C91  1  0.60803188  0.28281061  0.27280345  1.0
  C  C92  1  0.60199031  0.35052916  0.32625343  1.0
  C  C93  1  0.09446445  0.47110265  0.09229578  1.0
  C  C94  1  0.51827201  0.33822716  0.31636867  1.0
  C  C95  1  0.50421115  0.68198640  0.75954484  1.0
  C  C96  1  0.51740987  0.74903018  0.83540761  1.0
  C  C97  1  0.54059414  0.83235561  0.84366273  1.0
  C  C98  1  0.55127805  0.85298870  0.78092246  1.0
  C  C99  1  0.64325028  0.26810506  0.96594915  1.0
  C  C100  1  0.53195124  0.78526658  0.70196204  1.0
  C  C101  1  0.51256483  0.70082304  0.69300570  1.0
  C  C102  1  0.71070850  0.54577571  0.74791615  1.0
  C  C103  1  0.63234451  0.46763877  0.69258355  1.0
  C  C104  1  0.79585385  0.56063416  0.80439418  1.0
  C  C105  1  0.82248818  0.49687833  0.78517136  1.0
  C  C106  1  0.80539104  0.26781635  0.99656404  1.0
  C  C107  1  0.23964464  0.51964458  0.46585863  1.0
  C  C108  1  0.08597800  0.58773835  0.78526627  1.0
  C  C109  1  0.27916137  0.70669133  0.19324678  1.0
  C  C110  1  0.71300712  0.33974771  0.98110650  1.0
  C  C111  1  0.27771815  0.16573148  0.18686585  1.0
  C  C112  1  0.65046461  0.39418662  0.78184507  1.0
  C  C113  1  0.52885848  0.58552716  0.82092855  1.0
  C  C114  1  0.40887432  0.67659928  0.86964864  1.0
  C  C115  1  0.66103718  0.99169675  0.80787044  1.0
  C  C116  1  0.47336022  0.74419425  0.54324899  1.0
  C  C117  1  0.94439704  0.69539229  0.90921563  1.0
  C  C118  1  0.89919688  0.19376140  0.99259993  1.0
  C  C119  1  0.32196018  0.44864787  0.09374386  1.0
  C  C120  1  0.79195665  0.33794519  0.99145102  1.0
  C  C121  1  0.23228690  0.46267030  0.16425518  1.0
  C  C122  1  0.29167144  0.46840375  0.23866775  1.0
  C  C123  1  0.27650490  0.47390952  0.30889948  1.0
  N  N124  1  0.18022488  0.48604080  0.37456788  1.0
  N  N125  1  0.85067901  0.64414550  0.87343870  1.0
  N  N126  1  0.88297511  0.26799792  0.00901121  1.0
  N  N127  1  0.24755197  0.45637160  0.09591396  1.0
  N  N128  1  0.08648233  0.64060319  0.86402767  1.0
  N  N129  1  0.30475648  0.78095957  0.17862494  1.0
  N  N130  1  0.35830617  0.24934251  0.23429344  1.0
  N  N131  1  0.60990925  0.39529220  0.70150900  1.0
  N  N132  1  0.48345481  0.60006010  0.75070390  1.0
  N  N133  1  0.50130721  0.72972491  0.89754636  1.0
  N  N134  1  0.57535441  0.94015988  0.79633219  1.0
  N  N135  1  0.52950399  0.80486920  0.63638231  1.0
  O  O136  1  0.87819554  0.48915046  0.03893107  1.0
  O  O137  1  0.47259843  0.09315280  0.05975991  1.0
  O  O138  1  0.61178284  0.09029305  0.01132444  1.0
  O  O139  1  0.89935141  0.38825627  0.95341871  1.0
  O  O140  1  0.50487405  0.10172248  0.92100018  1.0
  O  O141  1  0.58935852  0.92776712  0.99426753  1.0
  O  O142  1  0.47448027  0.91454509  0.88502465  1.0
  O  O143  1  0.45650263  0.93464173  0.05451095  1.0
  O  O144  1  0.34672726  0.91468281  0.93504349  1.0
  O  O145  1  0.92855056  0.55172103  0.93051089  1.0
  O  O146  1  0.91222488  0.43435575  0.82150465  1.0
  O  O147  1  0.45342283  0.38103238  0.40061144  1.0
  O  O148  1  0.09637688  0.66770036  0.07802340  1.0
  O  O149  1  0.09963228  0.56370630  0.97453316  1.0
  O  O150  1  0.05496922  0.51479141  0.11104981  1.0
  O  O151  1  0.07911947  0.42887771  0.01350835  1.0
  O  O152  1  0.57447603  0.48627632  0.42143396  1.0
  O  O153  1  0.70436538  0.62089600  0.75476505  1.0
  O  O154  1  0.07971257  0.49385284  0.24411797  1.0
  O  O155  1  0.19658919  0.77390977  0.85682130  1.0
  O  O156  1  0.41721324  0.88903910  0.15756750  1.0
  O  O157  1  0.37131206  0.13361234  0.10801450  1.0
  O  O158  1  0.59079856  0.50735815  0.58341540  1.0
  O  O159  1  0.67766819  0.42579455  0.38991244  1.0
  O  O160  1  0.77731642  0.42760810  0.70069771  1.0
  O  O161  1  0.75816982  0.14513914  0.01696722  1.0
  O  O162  1  0.70253152  0.40955295  0.98137525  1.0
  O  O163  1  0.48299114  0.40544865  0.58277886  1.0
  O  O164  1  0.56535000  0.65864683  0.59445293  1.0
  O  O165  1  0.45440386  0.55356384  0.58713026  1.0
  O  O166  1  0.42409633  0.52548685  0.40882393  1.0
  O  O167  1  0.31727233  0.41763634  0.40459540  1.0
  O  O168  1  0.59824606  0.12053693  0.16716207  1.0
