# generated using pymatgen
data_InCuH16C24(NO2)4
_symmetry_space_group_name_H-M   'P 1'
_cell_length_a   12.23404964
_cell_length_b   12.85633861
_cell_length_c   13.90258188
_cell_angle_alpha   77.91504299
_cell_angle_beta   63.89495498
_cell_angle_gamma   61.58828225
_symmetry_Int_Tables_number   1
_chemical_formula_structural   InCuH16C24(NO2)4
_chemical_formula_sum   'In2 Cu2 H32 C48 N8 O16'
_cell_volume   1727.09054059
_cell_formula_units_Z   2
loop_
 _symmetry_equiv_pos_site_id
 _symmetry_equiv_pos_as_xyz
  1  'x, y, z'
loop_
 _atom_site_type_symbol
 _atom_site_label
 _atom_site_symmetry_multiplicity
 _atom_site_fract_x
 _atom_site_fract_y
 _atom_site_fract_z
 _atom_site_occupancy
  In  In0  1  0.87504127  0.24991521  0.24999935  1.0
  In  In1  1  0.12495851  0.75008327  0.75000029  1.0
  Cu  Cu2  1  0.62503291  0.74993816  0.74999996  1.0
  Cu  Cu3  1  0.37497058  0.25006032  0.25000180  1.0
  H  H4  1  0.56750820  0.08428384  0.48790530  1.0
  H  H5  1  0.94456672  0.41545580  0.48792990  1.0
  H  H6  1  0.34819927  0.08428435  0.01209693  1.0
  H  H7  1  0.63998013  0.41545483  0.01206948  1.0
  H  H8  1  0.43248663  0.91571729  0.51209650  1.0
  H  H9  1  0.05543767  0.58454268  0.51207151  1.0
  H  H10  1  0.65179876  0.91571590  0.98790521  1.0
  H  H11  1  0.36002148  0.58454188  0.98793122  1.0
  H  H12  1  0.95758818  0.92767080  0.50697382  1.0
  H  H13  1  0.53540574  0.57236174  0.50699622  1.0
  H  H14  1  0.11474246  0.92766607  0.99302047  1.0
  H  H15  1  0.89223131  0.57236179  0.99300901  1.0
  H  H16  1  0.04240980  0.07233122  0.49302295  1.0
  H  H17  1  0.46459957  0.42763851  0.49300303  1.0
  H  H18  1  0.88525727  0.07233418  0.00697380  1.0
  H  H19  1  0.10776541  0.42763934  0.00699635  1.0
  H  H20  1  0.50319796  0.94889820  0.63775388  1.0
  H  H21  1  0.85924479  0.55096825  0.63765056  1.0
  H  H22  1  0.54789993  0.94889870  0.86225008  1.0
  H  H23  1  0.58979186  0.55096715  0.86234821  1.0
  H  H24  1  0.49680008  0.05110205  0.36224897  1.0
  H  H25  1  0.14075643  0.44903112  0.36235121  1.0
  H  H26  1  0.45209763  0.05110066  0.13775242  1.0
  H  H27  1  0.41021162  0.44903133  0.13765284  1.0
  H  H28  1  0.88198110  0.79516359  0.64976500  1.0
  H  H29  1  0.46840666  0.70487002  0.64972098  1.0
  H  H30  1  0.32286303  0.79515908  0.85023064  1.0
  H  H31  1  0.82672379  0.70487037  0.85028108  1.0
  H  H32  1  0.11801960  0.20483666  0.35023176  1.0
  H  H33  1  0.53159634  0.29512758  0.35027971  1.0
  H  H34  1  0.67714083  0.20484029  0.14976432  1.0
  H  H35  1  0.17327563  0.29513077  0.14972177  1.0
  C  C36  1  0.63911771  0.02090534  0.52225605  1.0
  C  C37  1  0.83864640  0.47891127  0.52230325  1.0
  C  C38  1  0.33997121  0.02090500  0.97774299  1.0
  C  C39  1  0.68244716  0.47891310  0.97769656  1.0
  C  C40  1  0.36087802  0.97909756  0.47774216  1.0
  C  C41  1  0.16135888  0.52108721  0.47769637  1.0
  C  C42  1  0.66002861  0.97909525  0.02225628  1.0
  C  C43  1  0.31755681  0.52108627  0.02230555  1.0
  C  C44  1  0.85704938  0.93382261  0.53150862  1.0
  C  C45  1  0.61146072  0.56615160  0.53149441  1.0
  C  C46  1  0.20912883  0.93381726  0.96848747  1.0
  C  C47  1  0.82238895  0.56615220  0.96850831  1.0
  C  C48  1  0.14294728  0.06618207  0.46848815  1.0
  C  C49  1  0.38854365  0.43384689  0.46850485  1.0
  C  C50  1  0.79087000  0.06618299  0.03150788  1.0
  C  C51  1  0.17761096  0.43384805  0.03149668  1.0
  C  C52  1  0.60366572  0.94622541  0.60470371  1.0
  C  C53  1  0.79178919  0.55366310  0.60464221  1.0
  C  C54  1  0.45010692  0.94622563  0.89529882  1.0
  C  C55  1  0.65455012  0.55366149  0.89535908  1.0
  C  C56  1  0.39633140  0.05377484  0.39529951  1.0
  C  C57  1  0.20821520  0.44633538  0.39535920  1.0
  C  C58  1  0.54989064  0.05377374  0.10470368  1.0
  C  C59  1  0.34545240  0.44633522  0.10464198  1.0
  C  C60  1  0.81453339  0.86034260  0.61258979  1.0
  C  C61  1  0.57302617  0.63962817  0.61252957  1.0
  C  C62  1  0.32512965  0.86033954  0.88740625  1.0
  C  C63  1  0.78734631  0.63962716  0.88747211  1.0
  C  C64  1  0.18546734  0.13965765  0.38740984  1.0
  C  C65  1  0.42697686  0.36037119  0.38747076  1.0
  C  C66  1  0.67487060  0.13966336  0.11258873  1.0
  C  C67  1  0.21265264  0.36037309  0.11253038  1.0
  C  C68  1  0.80806311  0.09642250  0.39719682  1.0
  C  C69  1  0.79485140  0.40340634  0.39722718  1.0
  C  C70  1  0.09549955  0.09641476  0.10279722  1.0
  C  C71  1  0.80174424  0.40340324  0.10277435  1.0
  C  C72  1  0.19192621  0.90358217  0.60279926  1.0
  C  C73  1  0.20514708  0.59659480  0.60277389  1.0
  C  C74  1  0.90449376  0.90358195  0.89720030  1.0
  C  C75  1  0.19826058  0.59659435  0.89722634  1.0
  C  C76  1  0.76859104  0.01511250  0.48434865  1.0
  C  C77  1  0.74706482  0.48474387  0.48440164  1.0
  C  C78  1  0.21629262  0.01511324  0.01564960  1.0
  C  C79  1  0.76819229  0.48474356  0.01559956  1.0
  C  C80  1  0.23140741  0.98488687  0.51565278  1.0
  C  C81  1  0.25294138  0.51525461  0.51559761  1.0
  C  C82  1  0.78370537  0.98488700  0.98434968  1.0
  C  C83  1  0.23180797  0.51525404  0.98440222  1.0
  N  N84  1  0.68978554  0.86567734  0.64914939  1.0
  N  N85  1  0.66123639  0.63429967  0.64903963  1.0
  N  N86  1  0.44453953  0.86567530  0.85084987  1.0
  N  N87  1  0.70446750  0.63430020  0.85096061  1.0
  N  N88  1  0.31021248  0.13432468  0.35084952  1.0
  N  N89  1  0.33876618  0.36569881  0.35096178  1.0
  N  N90  1  0.55546073  0.13432406  0.14914940  1.0
  N  N91  1  0.29553510  0.36570005  0.14904116  1.0
  O  O92  1  0.91275020  0.10917881  0.37968257  1.0
  O  O93  1  0.70771273  0.39061640  0.37967120  1.0
  O  O94  1  0.97806082  0.10917444  0.12031324  1.0
  O  O95  1  0.90167671  0.39062043  0.12032822  1.0
  O  O96  1  0.08723775  0.89082497  0.62031423  1.0
  O  O97  1  0.29229391  0.60938120  0.62032877  1.0
  O  O98  1  0.02193760  0.89082492  0.87968532  1.0
  O  O99  1  0.09832730  0.60938247  0.87967246  1.0
  O  O100  1  0.73585175  0.15294559  0.34279538  1.0
  O  O101  1  0.92146351  0.34695039  0.34282768  1.0
  O  O102  1  0.11118830  0.15294363  0.15720368  1.0
  O  O103  1  0.73159734  0.34695138  0.15717021  1.0
  O  O104  1  0.26413302  0.84705731  0.65720502  1.0
  O  O105  1  0.07854631  0.65304809  0.65716942  1.0
  O  O106  1  0.88880970  0.84705662  0.84279631  1.0
  O  O107  1  0.26840844  0.65304798  0.84283119  1.0
