# generated using pymatgen
data_Al2H17C34O10F
_symmetry_space_group_name_H-M   'P 1'
_cell_length_a   6.65719381
_cell_length_b   17.15074021
_cell_length_c   19.34005254
_cell_angle_alpha   71.00290916
_cell_angle_beta   89.81436149
_cell_angle_gamma   89.50402110
_symmetry_Int_Tables_number   1
_chemical_formula_structural   Al2H17C34O10F
_chemical_formula_sum   'Al4 H34 C68 O20 F2'
_cell_volume   2087.82003611
_cell_formula_units_Z   2
loop_
 _symmetry_equiv_pos_site_id
 _symmetry_equiv_pos_as_xyz
  1  'x, y, z'
loop_
 _atom_site_type_symbol
 _atom_site_label
 _atom_site_symmetry_multiplicity
 _atom_site_fract_x
 _atom_site_fract_y
 _atom_site_fract_z
 _atom_site_occupancy
  Al  Al0  1  0.09894093  0.49742650  0.50119202  1.0
  Al  Al1  1  0.59865489  0.50141763  0.49878440  1.0
  Al  Al2  1  0.63525126  0.00178497  0.99840026  1.0
  Al  Al3  1  0.13556367  0.99813525  0.00116299  1.0
  H  H4  1  0.95139418  0.53705727  0.29931324  1.0
  H  H5  1  0.03092054  0.51504005  0.18254295  1.0
  H  H6  1  0.03540909  0.63400049  0.06585322  1.0
  H  H7  1  0.96743055  0.77469094  0.06648549  1.0
  H  H8  1  0.72092879  0.98784809  0.32458405  1.0
  H  H9  1  0.74764901  0.72604047  0.43657396  1.0
  H  H10  1  0.13800971  0.57969113  0.67891438  1.0
  H  H11  1  0.56285785  0.68621459  0.59762188  1.0
  H  H12  1  0.41733404  0.79852286  0.63856451  1.0
  H  H13  1  0.43125496  0.88466726  0.71915833  1.0
  H  H14  1  0.59736991  0.91961396  0.82089372  1.0
  H  H15  1  0.17340455  0.81379608  0.90165284  1.0
  H  H16  1  0.32023792  0.70218793  0.85991808  1.0
  H  H17  1  0.30583370  0.61576658  0.77959009  1.0
  H  H18  1  0.66858044  0.18446927  0.09630241  1.0
  H  H19  1  0.09164042  0.08401467  0.17751025  1.0
  H  H20  1  0.92854880  0.12009245  0.27969633  1.0
  H  H21  1  0.91922453  0.20484112  0.36162010  1.0
  H  H22  1  0.06777901  0.31564128  0.40272717  1.0
  H  H23  1  0.64291327  0.41738877  0.32048679  1.0
  H  H24  1  0.80719273  0.38080728  0.21866851  1.0
  H  H25  1  0.81738328  0.29529062  0.13744918  1.0
  H  H26  1  0.16051648  0.13011643  0.56991112  1.0
  H  H27  1  0.47093714  0.46254102  0.69713942  1.0
  H  H28  1  0.56781393  0.48583670  0.81147540  1.0
  H  H29  1  0.57425574  0.36871646  0.92958766  1.0
  H  H30  1  0.48869546  0.22854795  0.93256783  1.0
  H  H31  1  0.26278412  0.03644481  0.80240450  1.0
  H  H32  1  0.16642359  0.01307760  0.68802412  1.0
  H  H33  1  0.24569926  0.27031578  0.56694703  1.0
  H  H34  1  0.34029733  0.60694123  0.46111684  1.0
  H  H35  1  0.84377687  0.39394104  0.54399158  1.0
  H  H36  1  0.39387291  0.89331936  0.04214154  1.0
  H  H37  1  0.88972137  0.10695694  0.96036191  1.0
  C  C38  1  0.35291336  0.41897734  0.41749430  1.0
  C  C39  1  0.35321836  0.38519359  0.61324684  1.0
  C  C40  1  0.84795718  0.58072466  0.58206487  1.0
  C  C41  1  0.85069443  0.61353646  0.38651382  1.0
  C  C42  1  0.95270657  0.58921345  0.24867294  1.0
  C  C43  1  0.99721826  0.57704348  0.18355316  1.0
  C  C44  1  0.00107595  0.64468922  0.11726271  1.0
  C  C45  1  0.96243093  0.72332640  0.11759843  1.0
  C  C46  1  0.91695611  0.73892652  0.18419605  1.0
  C  C47  1  0.90973514  0.67002373  0.25118721  1.0
  C  C48  1  0.87788578  0.81914681  0.18617294  1.0
  C  C49  1  0.82994385  0.83304242  0.25207415  1.0
  C  C50  1  0.81473046  0.76383965  0.31901501  1.0
  C  C51  1  0.85722541  0.68432360  0.31653423  1.0
  C  C52  1  0.79668510  0.91286730  0.25842985  1.0
  C  C53  1  0.74623903  0.92592274  0.32243767  1.0
  C  C54  1  0.72877197  0.85604638  0.38578205  1.0
  C  C55  1  0.76217712  0.77735395  0.38589785  1.0
  C  C56  1  0.01522137  0.62171394  0.68028856  1.0
  C  C57  1  0.85005911  0.62878200  0.63392366  1.0
  C  C58  1  0.69051927  0.68249858  0.63383237  1.0
  C  C59  1  0.69684271  0.73285325  0.67823678  1.0
  C  C60  1  0.86373618  0.72506312  0.72663284  1.0
  C  C61  1  0.02280001  0.66766393  0.72833950  1.0
  C  C62  1  0.54257600  0.79245770  0.67627166  1.0
  C  C63  1  0.55036885  0.84000988  0.72068229  1.0
  C  C64  1  0.71292601  0.83199336  0.77113684  1.0
  C  C65  1  0.87193405  0.77456728  0.77287072  1.0
  C  C66  1  0.03892986  0.76687436  0.82119076  1.0
  C  C67  1  0.19391403  0.70768379  0.82275553  1.0
  C  C68  1  0.18612719  0.66006560  0.77840321  1.0
  C  C69  1  0.72019158  0.87763865  0.81945407  1.0
  C  C70  1  0.88517899  0.87050976  0.86593686  1.0
  C  C71  1  0.04518446  0.81709146  0.86574303  1.0
  C  C72  1  0.54081215  0.18248919  0.13232058  1.0
  C  C73  1  0.37992261  0.13054277  0.13234241  1.0
  C  C74  1  0.21557568  0.12461694  0.17906845  1.0
  C  C75  1  0.21085547  0.16988573  0.22778800  1.0
  C  C76  1  0.37102041  0.22572054  0.22604939  1.0
  C  C77  1  0.53659122  0.23248213  0.17705791  1.0
  C  C78  1  0.04945564  0.16299247  0.27870509  1.0
  C  C79  1  0.04410205  0.20987460  0.32375056  1.0
  C  C80  1  0.19967536  0.26789672  0.32179570  1.0
  C  C81  1  0.36532363  0.27469038  0.27279070  1.0
  C  C82  1  0.52520730  0.33074231  0.27086898  1.0
  C  C83  1  0.68668318  0.33759794  0.22000087  1.0
  C  C84  1  0.69227436  0.29043516  0.17518328  1.0
  C  C85  1  0.19508750  0.31804203  0.36640598  1.0
  C  C86  1  0.35528237  0.37049671  0.36599733  1.0
  C  C87  1  0.51960052  0.37635286  0.31927437  1.0
  C  C88  1  0.47280625  0.41115216  0.74833511  1.0
  C  C89  1  0.52710193  0.42409002  0.81215352  1.0
  C  C90  1  0.53192666  0.35748917  0.87920043  1.0
  C  C91  1  0.48379637  0.27921014  0.88091386  1.0
  C  C92  1  0.42736802  0.26287054  0.81573486  1.0
  C  C93  1  0.42080517  0.33064149  0.74781117  1.0
  C  C94  1  0.37359320  0.18361694  0.81577708  1.0
  C  C95  1  0.31316590  0.16831473  0.75172016  1.0
  C  C96  1  0.30683659  0.23604376  0.68378902  1.0
  C  C97  1  0.36032254  0.31532573  0.68375567  1.0
  C  C98  1  0.26119354  0.08778743  0.75117615  1.0
  C  C99  1  0.20726072  0.07480269  0.68735924  1.0
  C  C100  1  0.20265533  0.14139429  0.62028565  1.0
  C  C101  1  0.25061749  0.21967702  0.61860507  1.0
  C  C102  1  0.38077207  0.11356106  0.88615128  1.0
  C  C103  1  0.38178370  0.08225647  0.08062225  1.0
  C  C104  1  0.88357569  0.88835613  0.11467727  1.0
  C  C105  1  0.88648959  0.91836787  0.91802514  1.0
  O  O106  1  0.52062972  0.41350721  0.58443949  1.0
  O  O107  1  0.18186315  0.43273382  0.44133735  1.0
  O  O108  1  0.01893900  0.58461457  0.41448956  1.0
  O  O109  1  0.18083803  0.41050571  0.58702862  1.0
  O  O110  1  0.01811041  0.55947102  0.56351817  1.0
  O  O111  1  0.52221316  0.44105569  0.43486594  1.0
  O  O112  1  0.34616151  0.54951707  0.49146274  1.0
  O  O113  1  0.67723187  0.56656216  0.55893049  1.0
  O  O114  1  0.67890483  0.58903945  0.41302971  1.0
  O  O115  1  0.84802298  0.44928085  0.50899464  1.0
  O  O116  1  0.21202419  0.06060237  0.06324697  1.0
  O  O117  1  0.55325683  0.08821575  0.91213172  1.0
  O  O118  1  0.71598065  0.94001804  0.93584878  1.0
  O  O119  1  0.55236631  0.06825648  0.05673133  1.0
  O  O120  1  0.71537098  0.91380775  0.08477286  1.0
  O  O121  1  0.21334159  0.08518091  0.91481652  1.0
  O  O122  1  0.38781430  0.94959902  0.00908882  1.0
  O  O123  1  0.05565408  0.91243844  0.08837331  1.0
  O  O124  1  0.05665036  0.93188484  0.94196589  1.0
  O  O125  1  0.88594929  0.04958668  0.99089238  1.0
  F  F126  1  0.67746772  0.86985868  0.44915689  1.0
  F  F127  1  0.81918499  0.98007190  0.19773589  1.0
