# generated using pymatgen
data_ZnH17C22NO6
_symmetry_space_group_name_H-M   'P 1'
_cell_length_a   11.03850759
_cell_length_b   16.33385581
_cell_length_c   17.85109930
_cell_angle_alpha   95.95993533
_cell_angle_beta   90.10802154
_cell_angle_gamma   91.94572835
_symmetry_Int_Tables_number   1
_chemical_formula_structural   ZnH17C22NO6
_chemical_formula_sum   'Zn2 H34 C44 N2 O12'
_cell_volume   3199.28772215
_cell_formula_units_Z   2
loop_
 _symmetry_equiv_pos_site_id
 _symmetry_equiv_pos_as_xyz
  1  'x, y, z'
loop_
 _atom_site_type_symbol
 _atom_site_label
 _atom_site_symmetry_multiplicity
 _atom_site_fract_x
 _atom_site_fract_y
 _atom_site_fract_z
 _atom_site_occupancy
  Zn  Zn0  1  0.49617275  0.41485363  0.49439164  1.0
  Zn  Zn1  1  0.50396347  0.58428503  0.50531763  1.0
  H  H2  1  0.37520133  0.71056854  0.42862181  1.0
  H  H3  1  0.37894811  0.86198137  0.42904943  1.0
  H  H4  1  0.66802973  0.86918591  0.59670914  1.0
  H  H5  1  0.64999583  0.71988086  0.58704437  1.0
  H  H6  1  0.33343875  0.12996929  0.40183426  1.0
  H  H7  1  0.61861169  0.13710228  0.57195728  1.0
  H  H8  1  0.62243577  0.28877461  0.57254153  1.0
  H  H9  1  0.35116047  0.27933554  0.41192031  1.0
  H  H10  1  0.50625550  0.61944800  0.26319870  1.0
  H  H11  1  0.50660098  0.61201921  0.12493546  1.0
  H  H12  1  0.49133918  0.34497366  0.11632296  1.0
  H  H13  1  0.49100370  0.35614989  0.25202210  1.0
  H  H14  1  0.50879930  0.65580929  0.88376071  1.0
  H  H15  1  0.49317085  0.38869504  0.87446933  1.0
  H  H16  1  0.49392380  0.38176693  0.73614719  1.0
  H  H17  1  0.50961941  0.64507043  0.74812484  1.0
  H  H18  1  0.78064601  0.59840639  0.40217636  1.0
  H  H19  1  0.22937683  0.59456790  0.40013803  1.0
  H  H20  1  0.65638387  0.96870585  0.59512625  1.0
  H  H21  1  0.34292639  0.03045539  0.40473238  1.0
  H  H22  1  0.49047872  0.35230118  0.02784378  1.0
  H  H23  1  0.50962218  0.64816720  0.97186832  1.0
  H  H24  1  0.09263787  0.41680488  0.66101243  1.0
  H  H25  1  0.22282395  0.40841757  0.60250307  1.0
  H  H26  1  0.10155869  0.33464292  0.58922966  1.0
  H  H27  1  0.87865712  0.33540234  0.58845007  1.0
  H  H28  1  0.76879458  0.41192451  0.60466934  1.0
  H  H29  1  0.90225478  0.41609701  0.66106303  1.0
  H  H30  1  0.90145377  0.76451758  0.31947246  1.0
  H  H31  1  0.77815310  0.69087123  0.31248930  1.0
  H  H32  1  0.89838076  0.68316148  0.24621232  1.0
  H  H33  1  0.11833498  0.68347844  0.24584386  1.0
  H  H34  1  0.24180700  0.68764922  0.31018386  1.0
  H  H35  1  0.12881427  0.76347082  0.32017410  1.0
  C  C36  1  0.49744782  0.49205781  0.35111323  1.0
  C  C37  1  0.26309247  0.49719842  0.50006524  1.0
  C  C38  1  0.50309601  0.50965598  0.64871134  1.0
  C  C39  1  0.73691866  0.49896992  0.50077105  1.0
  C  C40  1  0.43833576  0.74941811  0.46481948  1.0
  C  C41  1  0.44088606  0.83442251  0.46545233  1.0
  C  C42  1  0.52299435  0.88349723  0.51335251  1.0
  C  C43  1  0.59936110  0.83973772  0.55769232  1.0
  C  C44  1  0.59137406  0.75451084  0.55354783  1.0
  C  C45  1  0.53283972  0.97374858  0.51974008  1.0
  C  C46  1  0.46670804  0.02538050  0.47996922  1.0
  C  C47  1  0.40109335  0.15941823  0.44155115  1.0
  C  C48  1  0.47652837  0.11563863  0.48644251  1.0
  C  C49  1  0.55762495  0.16474062  0.53504962  1.0
  C  C50  1  0.56028028  0.24976127  0.53574345  1.0
  C  C51  1  0.40908175  0.24465451  0.44581077  1.0
  C  C52  1  0.49781950  0.48833552  0.26704791  1.0
  C  C53  1  0.50251845  0.55964363  0.22970201  1.0
  C  C54  1  0.50282433  0.55539236  0.15157282  1.0
  C  C55  1  0.49843781  0.47870156  0.10626228  1.0
  C  C56  1  0.49427066  0.40742713  0.14542079  1.0
  C  C57  1  0.49394544  0.41195786  0.22345280  1.0
  C  C58  1  0.49801768  0.46931891  0.02354371  1.0
  C  C59  1  0.50196345  0.53117995  0.97618832  1.0
  C  C60  1  0.50595089  0.59341709  0.85454858  1.0
  C  C61  1  0.50158738  0.52197649  0.89348694  1.0
  C  C62  1  0.49714809  0.44541424  0.84796878  1.0
  C  C63  1  0.49768008  0.44144216  0.76984692  1.0
  C  C64  1  0.50268827  0.51292687  0.73274187  1.0
  C  C65  1  0.50652751  0.58916442  0.77654568  1.0
  C  C66  1  0.87275599  0.49918466  0.50140144  1.0
  C  C67  1  0.93771079  0.54850637  0.45210643  1.0
  C  C68  1  0.93284524  0.45184137  0.54929862  1.0
  C  C69  1  0.87931152  0.59771095  0.40256002  1.0
  C  C70  1  0.94298723  0.64598103  0.35593781  1.0
  C  C71  1  0.12724945  0.49783165  0.50065847  1.0
  C  C72  1  0.06245603  0.45121383  0.54903126  1.0
  C  C73  1  0.06730286  0.54763007  0.45164427  1.0
  C  C74  1  0.13077639  0.59586566  0.40153146  1.0
  C  C75  1  0.07241581  0.64509689  0.35546297  1.0
  C  C76  1  0.12417356  0.40076870  0.60309852  1.0
  C  C77  1  0.86611126  0.40177506  0.60358106  1.0
  C  C78  1  0.87662330  0.69863734  0.30609762  1.0
  C  C79  1  0.14425069  0.69736725  0.30552649  1.0
  N  N80  1  0.51168109  0.70973458  0.50797897  1.0
  N  N81  1  0.48794714  0.28942737  0.49196418  1.0
  O  O82  1  0.49407802  0.42359765  0.37928279  1.0
  O  O83  1  0.50070792  0.56338382  0.38837839  1.0
  O  O84  1  0.32018667  0.56658538  0.51006594  1.0
  O  O85  1  0.31194208  0.42739695  0.48965176  1.0
  O  O86  1  0.50675408  0.57832525  0.62094123  1.0
  O  O87  1  0.49949306  0.43848790  0.61114835  1.0
  O  O88  1  0.68085202  0.42923199  0.49053085  1.0
  O  O89  1  0.68705953  0.56850371  0.51015929  1.0
  O  O90  1  0.61646420  0.01094972  0.57052962  1.0
  O  O91  1  0.38340096  0.98818365  0.42897433  1.0
  O  O92  1  0.49314800  0.38969837  0.98887737  1.0
  O  O93  1  0.50688730  0.61081402  0.01086434  1.0
