# generated using pymatgen
data_AlH36C39N7O6
_symmetry_space_group_name_H-M   'P 1'
_cell_length_a   3.99439330
_cell_length_b   18.03362986
_cell_length_c   18.05651438
_cell_angle_alpha   60.23394325
_cell_angle_beta   84.21806600
_cell_angle_gamma   86.36091364
_symmetry_Int_Tables_number   1
_chemical_formula_structural   AlH36C39N7O6
_chemical_formula_sum   'Al1 H36 C39 N7 O6'
_cell_volume   1123.18080031
_cell_formula_units_Z   1
loop_
 _symmetry_equiv_pos_site_id
 _symmetry_equiv_pos_as_xyz
  1  'x, y, z'
loop_
 _atom_site_type_symbol
 _atom_site_label
 _atom_site_symmetry_multiplicity
 _atom_site_fract_x
 _atom_site_fract_y
 _atom_site_fract_z
 _atom_site_occupancy
  Al  Al0  1  0.99582989  0.00001404  0.50062548  1.0
  H  H1  1  0.26323978  0.94450085  0.79928540  1.0
  H  H2  1  0.21303219  0.95799002  0.69684053  1.0
  H  H3  1  0.87866321  0.98439863  0.75144726  1.0
  H  H4  1  0.88418257  0.03286727  0.83715521  1.0
  H  H5  1  0.95485091  0.11958205  0.85257204  1.0
  H  H6  1  0.25828590  0.03652083  0.88062865  1.0
  H  H7  1  0.58493813  0.30639089  0.44219315  1.0
  H  H8  1  0.66380339  0.20447123  0.45096711  1.0
  H  H9  1  0.96785091  0.25083184  0.47898754  1.0
  H  H10  1  0.89672166  0.33459195  0.53163868  1.0
  H  H11  1  0.79190566  0.34440566  0.62363429  1.0
  H  H12  1  0.50862288  0.38318895  0.54293807  1.0
  H  H13  1  0.53412301  0.57227789  0.54513662  1.0
  H  H14  1  0.86642527  0.53202362  0.61354405  1.0
  H  H15  1  0.91272981  0.63042013  0.51739132  1.0
  H  H16  1  0.90522672  0.78787561  0.45291664  1.0
  H  H17  1  0.50103330  0.83535880  0.44575131  1.0
  H  H18  1  0.55210137  0.73568073  0.44851999  1.0
  H  H19  1  0.44713071  0.57589372  0.88685614  1.0
  H  H20  1  0.11093620  0.53976496  0.85691862  1.0
  H  H21  1  0.07628914  0.63984913  0.85305415  1.0
  H  H22  1  0.11083847  0.79561682  0.76155148  1.0
  H  H23  1  0.51746973  0.83778239  0.72126645  1.0
  H  H24  1  0.46436902  0.73960728  0.81826559  1.0
  H  H25  1  0.09104689  0.02944785  0.13089425  1.0
  H  H26  1  0.01180137  0.11693596  0.03001600  1.0
  H  H27  1  0.71605769  0.03429519  0.08341393  1.0
  H  H28  1  0.72705536  0.94141725  0.25640370  1.0
  H  H29  1  0.77590802  0.95463678  0.34567770  1.0
  H  H30  1  0.10678570  0.98133319  0.26477644  1.0
  H  H31  1  0.05752933  0.33366863  0.13925204  1.0
  H  H32  1  0.14531459  0.34054170  0.03841428  1.0
  H  H33  1  0.43687626  0.38051380  0.07666946  1.0
  H  H34  1  0.36734604  0.30377497  0.25597880  1.0
  H  H35  1  0.30355921  0.20196161  0.34826738  1.0
  H  H36  1  0.99088876  0.24796875  0.27518437  1.0
  C  C37  1  0.44976409  0.06906644  0.56475031  1.0
  C  C38  1  0.53247249  0.06625835  0.36823717  1.0
  C  C39  1  0.50301684  0.86815986  0.56782476  1.0
  C  C40  1  0.52561837  0.24499519  0.61932224  1.0
  C  C41  1  0.37492820  0.20449214  0.70467513  1.0
  C  C42  1  0.71800557  0.11715077  0.13816587  1.0
  C  C43  1  0.58375383  0.20155897  0.09452314  1.0
  C  C44  1  0.49118603  0.59507914  0.70530473  1.0
  C  C45  1  0.39668234  0.64055459  0.74955907  1.0
  C  C46  1  0.43049035  0.24212307  0.13993439  1.0
  C  C47  1  0.42089446  0.19833400  0.22993285  1.0
  C  C48  1  0.55151673  0.11457113  0.27225333  1.0
  C  C49  1  0.69609304  0.07308820  0.22819057  1.0
  C  C50  1  0.42342529  0.72999534  0.70520819  1.0
  C  C51  1  0.50325272  0.77273013  0.61595266  1.0
  C  C52  1  0.57959510  0.72777250  0.57090359  1.0
  C  C53  1  0.59297146  0.63796667  0.61667062  1.0
  C  C54  1  0.24929919  0.12022697  0.74408739  1.0
  C  C55  1  0.27786569  0.07624648  0.69757267  1.0
  C  C56  1  0.42007504  0.11762861  0.61275169  1.0
  C  C57  1  0.54159960  0.20122824  0.57254530  1.0
  C  C58  1  0.36954301  0.37736460  0.75318087  1.0
  C  C59  1  0.47765821  0.24288553  0.88006258  1.0
  C  C60  1  0.36695917  0.24938938  0.75464230  1.0
  C  C61  1  0.48448108  0.50063678  0.75266778  1.0
  C  C62  1  0.58903964  0.37581516  0.87521972  1.0
  C  C63  1  0.58867399  0.24711647  0.00008651  1.0
  C  C64  1  0.15343873  0.98620101  0.73807281  1.0
  C  C65  1  0.07771692  0.07546327  0.83311604  1.0
  C  C66  1  0.69580882  0.24266142  0.48152244  1.0
  C  C67  1  0.68857997  0.33114321  0.57763309  1.0
  C  C68  1  0.73234883  0.59057108  0.57079520  1.0
  C  C69  1  0.63755628  0.77405905  0.47461890  1.0
  C  C70  1  0.25139441  0.59660277  0.84148040  1.0
  C  C71  1  0.37617419  0.77823819  0.75399031  1.0
  C  C72  1  0.89315567  0.07261334  0.09293006  1.0
  C  C73  1  0.83176030  0.98301763  0.27650536  1.0
  C  C74  1  0.25932048  0.32859388  0.09608172  1.0
  C  C75  1  0.26435522  0.23995970  0.28008434  1.0
  N  N76  1  0.47869990  0.33227595  0.83603338  1.0
  N  N77  1  0.44091543  0.20228668  0.83680455  1.0
  N  N78  1  0.29414721  0.33415722  0.71474511  1.0
  N  N79  1  0.35119813  0.46242773  0.71461441  1.0
  N  N80  1  0.61353072  0.46066664  0.82969201  1.0
  N  N81  1  0.51412321  0.20122960  0.96375624  1.0
  N  N82  1  0.66123063  0.33129886  0.95697874  1.0
  O  O83  1  0.75329334  0.90564398  0.51427042  1.0
  O  O84  1  0.69245519  0.01517595  0.58058910  1.0
  O  O85  1  0.75129880  0.08150632  0.40538672  1.0
  O  O86  1  0.25064017  0.90765681  0.58242231  1.0
  O  O87  1  0.29841757  0.01189985  0.40695169  1.0
  O  O88  1  0.23155062  0.08356278  0.51211421  1.0
