# generated using pymatgen
data_ZnH10C10NO5F2
_symmetry_space_group_name_H-M   'P 1'
_cell_length_a   9.92604078
_cell_length_b   11.39377019
_cell_length_c   11.39398912
_cell_angle_alpha   94.86090271
_cell_angle_beta   90.84173091
_cell_angle_gamma   90.81992422
_symmetry_Int_Tables_number   1
_chemical_formula_structural   ZnH10C10NO5F2
_chemical_formula_sum   'Zn2 H20 C20 N2 O10 F4'
_cell_volume   1283.67382745
_cell_formula_units_Z   2
loop_
 _symmetry_equiv_pos_site_id
 _symmetry_equiv_pos_as_xyz
  1  'x, y, z'
loop_
 _atom_site_type_symbol
 _atom_site_label
 _atom_site_symmetry_multiplicity
 _atom_site_fract_x
 _atom_site_fract_y
 _atom_site_fract_z
 _atom_site_occupancy
  Zn  Zn0  1  0.63873305  0.52404093  0.52331454  1.0
  Zn  Zn1  1  0.36133658  0.47671594  0.47590960  1.0
  H  H2  1  0.67520255  0.11926218  0.46939407  1.0
  H  H3  1  0.11788733  0.57496990  0.56497808  1.0
  H  H4  1  0.88220583  0.43498840  0.42508174  1.0
  H  H5  1  0.84476728  0.70869628  0.80829073  1.0
  H  H6  1  0.71053139  0.67572662  0.70452849  1.0
  H  H7  1  0.95273331  0.84064001  0.67005574  1.0
  H  H8  1  0.81958265  0.80741344  0.56605405  1.0
  H  H9  1  0.65254980  0.89946746  0.70734960  1.0
  H  H10  1  0.78298631  0.00217889  0.68231239  1.0
  H  H11  1  0.78220392  0.93129962  0.81514335  1.0
  H  H12  1  0.30935255  0.87792762  0.50724795  1.0
  H  H13  1  0.15521329  0.19170999  0.29128353  1.0
  H  H14  1  0.28951479  0.29537491  0.32432208  1.0
  H  H15  1  0.04731599  0.33009019  0.15942596  1.0
  H  H16  1  0.18052258  0.43399835  0.19270232  1.0
  H  H17  1  0.34746635  0.29262007  0.10059609  1.0
  H  H18  1  0.21702435  0.31780059  0.99790530  1.0
  H  H19  1  0.21772520  0.18493326  0.06870835  1.0
  H  H20  1  0.32485175  0.53063432  0.88065651  1.0
  H  H21  1  0.69066874  0.49268437  0.12214268  1.0
  C  C22  1  0.45248978  0.51119214  0.72450849  1.0
  C  C23  1  0.92813903  0.49129155  0.49720621  1.0
  C  C24  1  0.07194665  0.50282270  0.50870525  1.0
  C  C25  1  0.41330353  0.85064837  0.49588167  1.0
  C  C26  1  0.57118928  0.14702365  0.47863186  1.0
  C  C27  1  0.58671879  0.50410323  0.14937329  1.0
  C  C28  1  0.42886576  0.52136371  0.85294048  1.0
  C  C29  1  0.56029948  0.50260944  0.27696549  1.0
  C  C30  1  0.50489920  0.93554970  0.47883061  1.0
  C  C31  1  0.47696637  0.06109177  0.48282589  1.0
  C  C32  1  0.49514296  0.52118571  0.06443152  1.0
  C  C33  1  0.52308367  0.51716948  0.93890802  1.0
  C  C34  1  0.81659920  0.70385121  0.71435560  1.0
  C  C35  1  0.54759963  0.27546861  0.48880886  1.0
  C  C36  1  0.84438130  0.81906585  0.66075618  1.0
  C  C37  1  0.76093181  0.91851555  0.71984506  1.0
  C  C38  1  0.18343967  0.28562764  0.29618452  1.0
  C  C39  1  0.15567262  0.33931298  0.18100534  1.0
  C  C40  1  0.23907299  0.28020977  0.08154525  1.0
  C  C41  1  0.43968656  0.72303599  0.49738132  1.0
  N  N42  1  0.15645237  0.43596542  0.44944082  1.0
  N  N43  1  0.84361755  0.55055041  0.56405706  1.0
  O  O44  1  0.57401524  0.50816994  0.68951847  1.0
  O  O45  1  0.66161114  0.52949357  0.34469707  1.0
  O  O46  1  0.65295298  0.34114667  0.49371361  1.0
  O  O47  1  0.33838322  0.65533583  0.47047277  1.0
  O  O48  1  0.34713167  0.50631475  0.65878658  1.0
  O  O49  1  0.90117224  0.61023909  0.66247046  1.0
  O  O50  1  0.09891288  0.33752109  0.38980874  1.0
  O  O51  1  0.44285124  0.47339883  0.30848110  1.0
  O  O52  1  0.42606474  0.31049742  0.49181119  1.0
  O  O53  1  0.55714079  0.69147452  0.52662509  1.0
  F  F54  1  0.34427181  0.08389961  0.49607450  1.0
  F  F55  1  0.63586345  0.91111791  0.45681241  1.0
  F  F56  1  0.65577845  0.50389082  0.91613938  1.0
  F  F57  1  0.36418196  0.54325378  0.08881359  1.0
