# generated using pymatgen
data_Zn4H12C26S4O13
_symmetry_space_group_name_H-M   'P 1'
_cell_length_a   19.64523186
_cell_length_b   19.65685229
_cell_length_c   33.34738234
_cell_angle_alpha   79.28206489
_cell_angle_beta   79.31645771
_cell_angle_gamma   63.99577607
_symmetry_Int_Tables_number   1
_chemical_formula_structural   Zn4H12C26S4O13
_chemical_formula_sum   'Zn16 H48 C104 S16 O52'
_cell_volume   11293.02656449
_cell_formula_units_Z   4
loop_
 _symmetry_equiv_pos_site_id
 _symmetry_equiv_pos_as_xyz
  1  'x, y, z'
loop_
 _atom_site_type_symbol
 _atom_site_label
 _atom_site_symmetry_multiplicity
 _atom_site_fract_x
 _atom_site_fract_y
 _atom_site_fract_z
 _atom_site_occupancy
  Zn  Zn0  1  0.60009082  0.94338070  0.52188271  1.0
  Zn  Zn1  1  0.51652110  0.01615687  0.44051057  1.0
  Zn  Zn2  1  0.43890787  0.94064310  0.51709346  1.0
  Zn  Zn3  1  0.44529397  0.09913223  0.52133706  1.0
  Zn  Zn4  1  0.65012372  0.30622066  0.72846569  1.0
  Zn  Zn5  1  0.81050650  0.31044924  0.73303392  1.0
  Zn  Zn6  1  0.73403220  0.23236528  0.81008970  1.0
  Zn  Zn7  1  0.80495417  0.15220820  0.72809488  1.0
  Zn  Zn8  1  0.23292652  0.73327415  0.31035296  1.0
  Zn  Zn9  1  0.30450340  0.65137882  0.22868682  1.0
  Zn  Zn10  1  0.15040152  0.80647775  0.22812403  1.0
  Zn  Zn11  1  0.31093005  0.80924143  0.23312665  1.0
  Zn  Zn12  1  0.93948169  0.43988365  0.01688590  1.0
  Zn  Zn13  1  0.94472760  0.59873534  0.02164243  1.0
  Zn  Zn14  1  0.09930459  0.44418783  0.02161679  1.0
  Zn  Zn15  1  0.01671636  0.51711710  0.93968078  1.0
  H  H16  1  0.49772726  0.20411574  0.60085862  1.0
  H  H17  1  0.75237751  0.04593127  0.64913309  1.0
  H  H18  1  0.54607071  0.25221915  0.64916359  1.0
  H  H19  1  0.70394917  0.99779093  0.60088999  1.0
  H  H20  1  0.34754449  0.84769524  0.45063207  1.0
  H  H21  1  0.40248709  0.90231127  0.29932043  1.0
  H  H22  1  0.29929255  0.79937443  0.40239408  1.0
  H  H23  1  0.45076445  0.95065312  0.34755192  1.0
  H  H24  1  0.76093551  0.53648520  0.65921207  1.0
  H  H25  1  0.29710675  0.52124882  0.39866860  1.0
  H  H26  1  0.02139175  0.79700896  0.39871474  1.0
  H  H27  1  0.02937505  0.05056083  0.65211119  1.0
  H  H28  1  0.79937755  0.29922559  0.90239832  1.0
  H  H29  1  0.95070528  0.45072134  0.84760255  1.0
  H  H30  1  0.84758829  0.34756807  0.95064921  1.0
  H  H31  1  0.90243926  0.40242564  0.79935647  1.0
  H  H32  1  0.22851513  0.45300533  0.85133035  1.0
  H  H33  1  0.85844121  0.83730895  0.95997450  1.0
  H  H34  1  0.04604375  0.75217507  0.14910103  1.0
  H  H35  1  0.20397840  0.49773839  0.10088091  1.0
  H  H36  1  0.99769534  0.70401343  0.10084737  1.0
  H  H37  1  0.25230439  0.54585268  0.14917968  1.0
  H  H38  1  0.72061671  0.69945178  0.09786216  1.0
  H  H39  1  0.98906338  0.21362529  0.09078455  1.0
  H  H40  1  0.42456220  0.76884793  0.60086697  1.0
  H  H41  1  0.44863995  0.66949068  0.60299621  1.0
  H  H42  1  0.46416968  0.72400275  0.55587758  1.0
  H  H43  1  0.52299226  0.17884348  0.34676881  1.0
  H  H44  1  0.46330311  0.24261029  0.30911296  1.0
  H  H45  1  0.43570277  0.17597747  0.34413500  1.0
  H  H46  1  0.67604414  0.93562368  0.34397894  1.0
  H  H47  1  0.74258995  0.96357908  0.30907548  1.0
  H  H48  1  0.67862915  0.02292658  0.34676668  1.0
  H  H49  1  0.27816888  0.20170242  0.61021549  1.0
  H  H50  1  0.18017281  0.26807247  0.61365117  1.0
  H  H51  1  0.23332122  0.24115174  0.56516271  1.0
  H  H52  1  0.57127558  0.22699767  0.90326609  1.0
  H  H53  1  0.50744465  0.28659022  0.94088498  1.0
  H  H54  1  0.57410946  0.31421945  0.90589353  1.0
  H  H55  1  0.85153119  0.92801730  0.76011881  1.0
  H  H56  1  0.93027858  0.84238805  0.77590796  1.0
  H  H57  1  0.93876146  0.93094749  0.76282315  1.0
  H  H58  1  0.51690833  0.50871503  0.18484786  1.0
  H  H59  1  0.56971502  0.48204597  0.13625208  1.0
  H  H60  1  0.47169389  0.54838667  0.13992034  1.0
  H  H61  1  0.28575972  0.02623298  0.19415159  1.0
  H  H62  1  0.30146556  0.08040631  0.14692670  1.0
  H  H63  1  0.32532524  0.98105795  0.14926065  1.0
  C  C64  1  0.68439281  0.93850026  0.43856099  1.0
  C  C65  1  0.43062841  0.93068287  0.43053274  1.0
  C  C66  1  0.56169542  0.81558939  0.56146051  1.0
  C  C67  1  0.31559448  0.06129339  0.56143672  1.0
  C  C68  1  0.56933661  0.06956989  0.56943615  1.0
  C  C69  1  0.43837239  0.18436153  0.43860933  1.0
  C  C70  1  0.68904768  0.43451240  0.68850203  1.0
  C  C71  1  0.81944148  0.31937067  0.81944960  1.0
  C  C72  1  0.56553088  0.31151964  0.81136634  1.0
  C  C73  1  0.81131262  0.06575399  0.81154882  1.0
  C  C74  1  0.68072761  0.18047703  0.68059892  1.0
  C  C75  1  0.93447358  0.18797881  0.68853095  1.0
  C  C76  1  0.31127131  0.56579823  0.31176197  1.0
  C  C77  1  0.18065659  0.68043843  0.18061189  1.0
  C  C78  1  0.06580089  0.81113807  0.31181561  1.0
  C  C79  1  0.18830990  0.93446080  0.18854739  1.0
  C  C80  1  0.31938253  0.81936395  0.31946023  1.0
  C  C81  1  0.43434442  0.68872149  0.18856667  1.0
  C  C82  1  0.81562357  0.56200050  0.06146835  1.0
  C  C83  1  0.06938292  0.56941451  0.06940050  1.0
  C  C84  1  0.06095501  0.31568243  0.06146219  1.0
  C  C85  1  0.18414561  0.43876393  0.93823492  1.0
  C  C86  1  0.93052667  0.43063099  0.93059190  1.0
  C  C87  1  0.93821021  0.68467625  0.93876578  1.0
  C  C88  1  0.59805788  0.09817034  0.59822496  1.0
  C  C89  1  0.65186799  0.15172656  0.65194493  1.0
  C  C90  1  0.55327805  0.16997407  0.61170970  1.0
  C  C91  1  0.69668127  0.07995592  0.63842663  1.0
  C  C92  1  0.58004643  0.19660240  0.63843457  1.0
  C  C93  1  0.66990699  0.05332300  0.61171279  1.0
  C  C94  1  0.40192439  0.90187648  0.40182935  1.0
  C  C95  1  0.34813979  0.84817941  0.34814611  1.0
  C  C96  1  0.35924636  0.85925178  0.41746376  1.0
  C  C97  1  0.39081554  0.89078996  0.33249068  1.0
  C  C98  1  0.33250065  0.83253161  0.39077064  1.0
  C  C99  1  0.41755839  0.91749591  0.35918354  1.0
  C  C100  1  0.54459081  0.69633615  0.59871953  1.0
  C  C101  1  0.70400095  0.55393552  0.65115190  1.0
  C  C102  1  0.58549279  0.74101117  0.58627913  1.0
  C  C103  1  0.66373427  0.50932762  0.66357215  1.0
  C  C104  1  0.66125450  0.62214727  0.62751235  1.0
  C  C105  1  0.58892295  0.62842023  0.62233010  1.0
  C  C106  1  0.42454086  0.27282826  0.37044536  1.0
  C  C107  1  0.32619283  0.47607259  0.37893200  1.0
  C  C108  1  0.41403370  0.25839144  0.41320521  1.0
  C  C109  1  0.33640576  0.49079841  0.33652831  1.0
  C  C110  1  0.35805811  0.39694296  0.39164579  1.0
  C  C111  1  0.39209035  0.35253967  0.35863475  1.0
  C  C112  1  0.77282571  0.92457886  0.37043059  1.0
  C  C113  1  0.97616444  0.82609771  0.37896482  1.0
  C  C114  1  0.75844715  0.91410282  0.41319769  1.0
  C  C115  1  0.99079945  0.83630531  0.33655292  1.0
  C  C116  1  0.89701776  0.85801489  0.39166902  1.0
  C  C117  1  0.85255896  0.89206632  0.35864028  1.0
  C  C118  1  0.20013844  0.15653622  0.60253234  1.0
  C  C119  1  0.05020747  0.09468039  0.64746579  1.0
  C  C120  1  0.24114984  0.08713214  0.58640590  1.0
  C  C121  1  0.00924650  0.16342968  0.66355696  1.0
  C  C122  1  0.11980870  0.09146593  0.62520887  1.0
  C  C123  1  0.13075838  0.15799451  0.62469636  1.0
  C  C124  1  0.84812463  0.34819474  0.84815633  1.0
  C  C125  1  0.90185739  0.40186452  0.90185708  1.0
  C  C126  1  0.83247829  0.33249229  0.89078093  1.0
  C  C127  1  0.91752279  0.41753508  0.85922247  1.0
  C  C128  1  0.85920167  0.35920507  0.91748384  1.0
  C  C129  1  0.89079072  0.39082573  0.83252282  1.0
  C  C130  1  0.47715564  0.32545389  0.87952753  1.0
  C  C131  1  0.27374848  0.42389214  0.87107637  1.0
  C  C132  1  0.49147611  0.33601945  0.83676093  1.0
  C  C133  1  0.25913798  0.41366795  0.91349372  1.0
  C  C134  1  0.35287328  0.39201047  0.85833201  1.0
  C  C135  1  0.39740058  0.35793798  0.89132446  1.0
  C  C136  1  0.87568805  0.91925063  0.82168516  1.0
  C  C137  1  0.87475028  0.83028383  0.92752084  1.0
  C  C138  1  0.83657374  0.99061812  0.83585786  1.0
  C  C139  1  0.91348272  0.75931164  0.91365488  1.0
  C  C140  1  0.86066597  0.88894761  0.89433962  1.0
  C  C141  1  0.88897873  0.86166560  0.85562594  1.0
  C  C142  1  0.15186745  0.65171824  0.15189667  1.0
  C  C143  1  0.09809405  0.59810279  0.09816144  1.0
  C  C144  1  0.08005398  0.69656624  0.13836775  1.0
  C  C145  1  0.16993862  0.55328840  0.11167079  1.0
  C  C146  1  0.05329688  0.66990712  0.11164768  1.0
  C  C147  1  0.19668990  0.57993783  0.13839643  1.0
  C  C148  1  0.54986947  0.59347449  0.14747997  1.0
  C  C149  1  0.69979862  0.65532763  0.10250862  1.0
  C  C150  1  0.50882372  0.66289518  0.16359961  1.0
  C  C151  1  0.74078569  0.58658287  0.08641055  1.0
  C  C152  1  0.63025467  0.65846891  0.12481074  1.0
  C  C153  1  0.61928182  0.59196596  0.12533168  1.0
  C  C154  1  0.20536757  0.05379306  0.15130242  1.0
  C  C155  1  0.04597430  0.19624897  0.09885088  1.0
  C  C156  1  0.16448062  0.00909588  0.16372530  1.0
  C  C157  1  0.08624518  0.24086323  0.08640430  1.0
  C  C158  1  0.08875192  0.12802465  0.12248302  1.0
  C  C159  1  0.16108622  0.12172887  0.12767524  1.0
  C  C160  1  0.46626598  0.71536761  0.58921088  1.0
  C  C161  1  0.46368302  0.21468115  0.34084953  1.0
  C  C162  1  0.71463872  0.96371979  0.34079660  1.0
  C  C163  1  0.22393347  0.22052598  0.59774091  1.0
  C  C164  1  0.53537435  0.28625941  0.90915069  1.0
  C  C165  1  0.90055663  0.90395603  0.77780673  1.0
  C  C166  1  0.52605793  0.52950072  0.15226965  1.0
  C  C167  1  0.28370455  0.03466416  0.16082237  1.0
  S  S168  1  0.67553124  0.70076855  0.60305463  1.0
  S  S169  1  0.57399488  0.54987178  0.64670854  1.0
  S  S170  1  0.36582512  0.34023723  0.43807835  1.0
  S  S171  1  0.38458668  0.40887071  0.31193027  1.0
  S  S172  1  0.84034703  0.86578955  0.43809057  1.0
  S  S173  1  0.90882031  0.88457093  0.31193970  1.0
  S  S174  1  0.19582420  0.02568543  0.59810622  1.0
  S  S175  1  0.05486386  0.22436484  0.65175986  1.0
  S  S176  1  0.40951521  0.38429629  0.81189475  1.0
  S  S177  1  0.34120559  0.36537334  0.93805286  1.0
  S  S178  1  0.81688088  0.98696766  0.88922159  1.0
  S  S179  1  0.93301183  0.76343859  0.86040013  1.0
  S  S180  1  0.55423523  0.72428247  0.15190726  1.0
  S  S181  1  0.69519695  0.52560478  0.09824758  1.0
  S  S182  1  0.07447991  0.04936025  0.14690231  1.0
  S  S183  1  0.17602335  0.20025244  0.10325023  1.0
  O  O184  1  0.50052148  0.99955602  0.50053020  1.0
  O  O185  1  0.68540560  0.92186238  0.47754490  1.0
  O  O186  1  0.46883627  0.96934598  0.41422044  1.0
  O  O187  1  0.49534324  0.84415907  0.54961785  1.0
  O  O188  1  0.62511681  0.97432542  0.41964048  1.0
  O  O189  1  0.60956614  0.84576779  0.55375972  1.0
  O  O190  1  0.41465063  0.91439280  0.46894598  1.0
  O  O191  1  0.34221220  0.99439737  0.55027005  1.0
  O  O192  1  0.50343840  0.11323509  0.55845077  1.0
  O  O193  1  0.34760751  0.10736431  0.55285296  1.0
  O  O194  1  0.61296573  0.00398714  0.55820966  1.0
  O  O195  1  0.47431959  0.12505958  0.41980788  1.0
  O  O196  1  0.42151141  0.18544625  0.47759686  1.0
  O  O197  1  0.74963285  0.25074975  0.74983987  1.0
  O  O198  1  0.64183876  0.40368058  0.69650673  1.0
  O  O199  1  0.83592234  0.33539210  0.78103396  1.0
  O  O200  1  0.62487306  0.27576649  0.83018829  1.0
  O  O201  1  0.75558593  0.40714400  0.69987843  1.0
  O  O202  1  0.56437228  0.32812891  0.77234994  1.0
  O  O203  1  0.78088760  0.28106847  0.83567955  1.0
  O  O204  1  0.77554453  0.12376146  0.83157474  1.0
  O  O205  1  0.74651753  0.13666914  0.69171989  1.0
  O  O206  1  0.82707940  0.06722956  0.77250790  1.0
  O  O207  1  0.63739894  0.24627125  0.69162001  1.0
  O  O208  1  0.90699577  0.25461339  0.69990733  1.0
  O  O209  1  0.90375248  0.14083040  0.69663873  1.0
  O  O210  1  0.24929433  0.75030563  0.25015297  1.0
  O  O211  1  0.27559236  0.62412033  0.33124327  1.0
  O  O212  1  0.24658077  0.63681755  0.19160617  1.0
  O  O213  1  0.06566219  0.82736540  0.27281247  1.0
  O  O214  1  0.32766462  0.56559944  0.27274992  1.0
  O  O215  1  0.12409977  0.77552513  0.33141367  1.0
  O  O216  1  0.13711078  0.74607125  0.19180631  1.0
  O  O217  1  0.14039291  0.90430856  0.19627853  1.0
  O  O218  1  0.33539289  0.83572119  0.28103563  1.0
  O  O219  1  0.25468490  0.90572889  0.20036461  1.0
  O  O220  1  0.28120531  0.78073038  0.33577323  1.0
  O  O221  1  0.40235732  0.64258212  0.19716432  1.0
  O  O222  1  0.40757041  0.75562083  0.19973168  1.0
  O  O223  1  0.00011412  0.49990689  0.99998346  1.0
  O  O224  1  0.84306772  0.49532714  0.05012286  1.0
  O  O225  1  0.00357496  0.61309530  0.05831797  1.0
  O  O226  1  0.10824656  0.34643863  0.05338988  1.0
  O  O227  1  0.84637981  0.60908551  0.05338941  1.0
  O  O228  1  0.99438954  0.34316009  0.05013013  1.0
  O  O229  1  0.11292806  0.50370679  0.05828290  1.0
  O  O230  1  0.18438753  0.42241449  0.97724911  1.0
  O  O231  1  0.96891893  0.46908841  0.91436081  1.0
  O  O232  1  0.12575410  0.47445125  0.91874048  1.0
  O  O233  1  0.91423578  0.41441501  0.96900568  1.0
  O  O234  1  0.92196876  0.68479770  0.97767566  1.0
  O  O235  1  0.97390934  0.62624118  0.91919014  1.0
