# generated using pymatgen
data_Zn2B2H48C55N6(O2F)4
_symmetry_space_group_name_H-M   'P 1'
_cell_length_a   14.92112337
_cell_length_b   14.92112480
_cell_length_c   15.93815030
_cell_angle_alpha   83.06702103
_cell_angle_beta   83.06705970
_cell_angle_gamma   86.93527247
_symmetry_Int_Tables_number   1
_chemical_formula_structural   Zn2B2H48C55N6(O2F)4
_chemical_formula_sum   'Zn4 B4 H96 C110 N12 O16 F8'
_cell_volume   3494.04161993
_cell_formula_units_Z   2
loop_
 _symmetry_equiv_pos_site_id
 _symmetry_equiv_pos_as_xyz
  1  'x, y, z'
loop_
 _atom_site_type_symbol
 _atom_site_label
 _atom_site_symmetry_multiplicity
 _atom_site_fract_x
 _atom_site_fract_y
 _atom_site_fract_z
 _atom_site_occupancy
  Zn  Zn0  1  0.89515393  0.12251334  0.15775859  1.0
  Zn  Zn1  1  0.87748712  0.10484658  0.34224210  1.0
  Zn  Zn2  1  0.10484673  0.87748695  0.84224172  1.0
  Zn  Zn3  1  0.12251353  0.89515370  0.65775821  1.0
  B  B4  1  0.92006699  0.59477035  0.35894808  1.0
  B  B5  1  0.40522960  0.07993200  0.14105207  1.0
  B  B6  1  0.07993234  0.40522925  0.64105246  1.0
  B  B7  1  0.59477038  0.92006829  0.85894832  1.0
  H  H8  1  0.74020115  0.29272464  0.69561011  1.0
  H  H9  1  0.70727588  0.25979920  0.80438896  1.0
  H  H10  1  0.25979948  0.70727632  0.30438951  1.0
  H  H11  1  0.29272542  0.74020176  0.19560995  1.0
  H  H12  1  0.86565711  0.33055675  0.76001871  1.0
  H  H13  1  0.66944324  0.13434262  0.73998114  1.0
  H  H14  1  0.13434354  0.66944354  0.23998160  1.0
  H  H15  1  0.33055672  0.86565834  0.26001917  1.0
  H  H16  1  0.90229418  0.22619957  0.72428640  1.0
  H  H17  1  0.77380059  0.09770649  0.77571337  1.0
  H  H18  1  0.09770715  0.77380071  0.27571384  1.0
  H  H19  1  0.22619937  0.90229447  0.22428631  1.0
  H  H20  1  0.76837072  0.31613263  0.91616402  1.0
  H  H21  1  0.68386782  0.23162928  0.58383510  1.0
  H  H22  1  0.23162993  0.68386765  0.08383567  1.0
  H  H23  1  0.31613284  0.76837101  0.41616396  1.0
  H  H24  1  0.78705490  0.25051401  0.06473427  1.0
  H  H25  1  0.74948646  0.21294343  0.43526533  1.0
  H  H26  1  0.21294373  0.74948627  0.93526564  1.0
  H  H27  1  0.25051360  0.78705482  0.56473464  1.0
  H  H28  1  0.98243992  0.06382411  0.98136284  1.0
  H  H29  1  0.93617649  0.01755913  0.51863777  1.0
  H  H30  1  0.01755871  0.93617617  0.01863770  1.0
  H  H31  1  0.06382351  0.98244048  0.48136269  1.0
  H  H32  1  0.96690813  0.11506851  0.83019080  1.0
  H  H33  1  0.88493199  0.03309176  0.66980971  1.0
  H  H34  1  0.03309252  0.88493177  0.16981014  1.0
  H  H35  1  0.11506869  0.96690785  0.33019130  1.0
  H  H36  1  0.90406900  0.73172627  0.47004903  1.0
  H  H37  1  0.26827381  0.09593023  0.02995165  1.0
  H  H38  1  0.09593031  0.26827401  0.52995143  1.0
  H  H39  1  0.73172690  0.90406870  0.97004817  1.0
  H  H40  1  0.93165524  0.84687000  0.43442765  1.0
  H  H41  1  0.15313041  0.06834414  0.06557295  1.0
  H  H42  1  0.06834474  0.15313028  0.56557273  1.0
  H  H43  1  0.84687027  0.93165547  0.93442743  1.0
  H  H44  1  0.01310116  0.75589993  0.41935110  1.0
  H  H45  1  0.24410022  0.98689869  0.08064921  1.0
  H  H46  1  0.98689882  0.24410035  0.58064866  1.0
  H  H47  1  0.75589978  0.01310091  0.91935187  1.0
  H  H48  1  0.79123648  0.91055890  0.14157508  1.0
  H  H49  1  0.08944100  0.20876401  0.35842476  1.0
  H  H50  1  0.20876285  0.08944070  0.85842545  1.0
  H  H51  1  0.91055898  0.79123627  0.64157499  1.0
  H  H52  1  0.76925936  0.80432058  0.10782334  1.0
  H  H53  1  0.19567855  0.23074104  0.39217788  1.0
  H  H54  1  0.23073997  0.19567902  0.89217719  1.0
  H  H55  1  0.80432073  0.76925992  0.60782251  1.0
  H  H56  1  0.87322977  0.85546128  0.07450243  1.0
  H  H57  1  0.14453762  0.12677089  0.42549755  1.0
  H  H58  1  0.12676956  0.14453832  0.92549810  1.0
  H  H59  1  0.85546166  0.87323007  0.57450221  1.0
  H  H60  1  0.97231417  0.68019103  0.03876266  1.0
  H  H61  1  0.31980952  0.02768551  0.46123671  1.0
  H  H62  1  0.02768646  0.31980994  0.96123632  1.0
  H  H63  1  0.68019048  0.97231410  0.53876375  1.0
  H  H64  1  0.93056676  0.71460075  0.89216606  1.0
  H  H65  1  0.28539966  0.06943286  0.60783302  1.0
  H  H66  1  0.06943252  0.28540021  0.10783307  1.0
  H  H67  1  0.71459962  0.93056810  0.39216674  1.0
  H  H68  1  0.77001030  0.70413574  0.86502217  1.0
  H  H69  1  0.29586366  0.22998906  0.63497638  1.0
  H  H70  1  0.22998836  0.29586387  0.13497718  1.0
  H  H71  1  0.70413495  0.77001190  0.36502282  1.0
  H  H72  1  0.65322277  0.65758748  0.98511805  1.0
  H  H73  1  0.34241216  0.34677609  0.51488114  1.0
  H  H74  1  0.34677659  0.34241145  0.01488193  1.0
  H  H75  1  0.65758715  0.65322419  0.48511807  1.0
  H  H76  1  0.69680392  0.61929208  0.13173496  1.0
  H  H77  1  0.38070864  0.30319525  0.36826437  1.0
  H  H78  1  0.30319676  0.38070753  0.86826542  1.0
  H  H79  1  0.61929140  0.69680368  0.63173553  1.0
  H  H80  1  0.88168114  0.37238229  0.08473193  1.0
  H  H81  1  0.62761806  0.11831887  0.41526875  1.0
  H  H82  1  0.11831884  0.62761800  0.91526846  1.0
  H  H83  1  0.37238192  0.88168142  0.58473164  1.0
  H  H84  1  0.89844020  0.48898701  0.04774156  1.0
  H  H85  1  0.51101266  0.10155936  0.45225858  1.0
  H  H86  1  0.10155913  0.51101259  0.95225835  1.0
  H  H87  1  0.48898732  0.89844092  0.54774118  1.0
  H  H88  1  0.78914953  0.45311846  0.08607467  1.0
  H  H89  1  0.54688085  0.21084964  0.41392491  1.0
  H  H90  1  0.21084980  0.54688115  0.91392587  1.0
  H  H91  1  0.45311849  0.78914997  0.58607437  1.0
  H  H92  1  0.96925283  0.43427491  0.43715310  1.0
  H  H93  1  0.56572655  0.03074802  0.06284674  1.0
  H  H94  1  0.03074848  0.56572605  0.56284643  1.0
  H  H95  1  0.43427413  0.96925159  0.93715365  1.0
  H  H96  1  0.96637733  0.32476935  0.40136888  1.0
  H  H97  1  0.67523255  0.03362392  0.09863027  1.0
  H  H98  1  0.03362397  0.67523161  0.59863129  1.0
  H  H99  1  0.32476881  0.96637569  0.90136878  1.0
  H  H100  1  0.86732769  0.37575069  0.44962880  1.0
  H  H101  1  0.62424954  0.13267370  0.05037110  1.0
  H  H102  1  0.13267364  0.62424960  0.55037144  1.0
  H  H103  1  0.37575047  0.86732591  0.94962873  1.0
  C  C104  1  0.75582756  0.24417325  0.74999982  1.0
  C  C105  1  0.24417374  0.75582771  0.24999972  1.0
  C  C106  1  0.85257068  0.25793568  0.76941208  1.0
  C  C107  1  0.74206447  0.14742946  0.73058772  1.0
  C  C108  1  0.14743065  0.74206461  0.23058752  1.0
  C  C109  1  0.25793551  0.85257082  0.26941266  1.0
  C  C110  1  0.86602418  0.22115246  0.85923235  1.0
  C  C111  1  0.77884863  0.13397549  0.64076742  1.0
  C  C112  1  0.13397645  0.77884850  0.14076789  1.0
  C  C113  1  0.22115202  0.86602480  0.35923289  1.0
  C  C114  1  0.81594017  0.25906106  0.92751554  1.0
  C  C115  1  0.74093935  0.18405927  0.57248368  1.0
  C  C116  1  0.18405978  0.74093990  0.07248415  1.0
  C  C117  1  0.25906133  0.81594034  0.42751545  1.0
  C  C118  1  0.82632232  0.22400250  0.01043237  1.0
  C  C119  1  0.77599841  0.17367566  0.48956724  1.0
  C  C120  1  0.17367561  0.77599846  0.98956691  1.0
  C  C121  1  0.22400233  0.82632260  0.51043203  1.0
  C  C122  1  0.93436707  0.11854444  0.96430117  1.0
  C  C123  1  0.88145654  0.06563204  0.53569935  1.0
  C  C124  1  0.06563221  0.88145652  0.03569984  1.0
  C  C125  1  0.11854417  0.93436689  0.46430110  1.0
  C  C126  1  0.92578643  0.14841587  0.87938055  1.0
  C  C127  1  0.85158435  0.07421315  0.62061999  1.0
  C  C128  1  0.07421352  0.85158509  0.12061976  1.0
  C  C129  1  0.14841498  0.92578646  0.37938054  1.0
  C  C130  1  0.88867709  0.93736152  0.27496535  1.0
  C  C131  1  0.06263773  0.11132162  0.22503604  1.0
  C  C132  1  0.11132292  0.06263808  0.72503448  1.0
  C  C133  1  0.93736163  0.88867731  0.77496457  1.0
  C  C134  1  0.88467792  0.83893501  0.27300132  1.0
  C  C135  1  0.16106466  0.11532168  0.22699807  1.0
  C  C136  1  0.11532139  0.16106527  0.72699851  1.0
  C  C137  1  0.83893600  0.88467861  0.77300161  1.0
  C  C138  1  0.90948023  0.76940329  0.33645531  1.0
  C  C139  1  0.23059730  0.09051808  0.16354478  1.0
  C  C140  1  0.09051911  0.23059631  0.66354522  1.0
  C  C141  1  0.76940273  0.90948086  0.83645512  1.0
  C  C142  1  0.94125147  0.77706598  0.42002999  1.0
  C  C143  1  0.22293390  0.05874804  0.07997069  1.0
  C  C144  1  0.05874851  0.22293431  0.57996914  1.0
  C  C145  1  0.77706678  0.94125156  0.92003032  1.0
  C  C146  1  0.85836793  0.79728932  0.20530753  1.0
  C  C147  1  0.20271016  0.14163253  0.29469180  1.0
  C  C148  1  0.14163208  0.20271029  0.79469230  1.0
  C  C149  1  0.79728985  0.85836708  0.70530866  1.0
  C  C150  1  0.82029392  0.84406823  0.12857403  1.0
  C  C151  1  0.15593071  0.17970694  0.37142591  1.0
  C  C152  1  0.17970542  0.15593138  0.87142650  1.0
  C  C153  1  0.84406859  0.82029334  0.62857393  1.0
  C  C154  1  0.87135005  0.70245634  0.22790133  1.0
  C  C155  1  0.29754267  0.12864976  0.27209878  1.0
  C  C156  1  0.12864858  0.29754394  0.77209921  1.0
  C  C157  1  0.70245731  0.87135053  0.72790097  1.0
  C  C158  1  0.86291524  0.62909726  0.18206331  1.0
  C  C159  1  0.37090343  0.13708353  0.31793612  1.0
  C  C160  1  0.13708407  0.37090303  0.81793652  1.0
  C  C161  1  0.62909728  0.86291541  0.68206370  1.0
  C  C162  1  0.87989031  0.54032250  0.21766617  1.0
  C  C163  1  0.45967806  0.12010892  0.28233451  1.0
  C  C164  1  0.12010970  0.45967711  0.78233491  1.0
  C  C165  1  0.54032262  0.87989069  0.71766587  1.0
  C  C166  1  0.83727446  0.64710887  0.09420654  1.0
  C  C167  1  0.35289225  0.16272450  0.40579281  1.0
  C  C168  1  0.16272552  0.35289141  0.90579321  1.0
  C  C169  1  0.64710846  0.83727444  0.59420702  1.0
  C  C170  1  0.90267447  0.67403640  0.02644153  1.0
  C  C171  1  0.32596412  0.09732418  0.47355856  1.0
  C  C172  1  0.09732480  0.32596456  0.97355886  1.0
  C  C173  1  0.67403524  0.90267475  0.52644204  1.0
  C  C174  1  0.87886814  0.69326945  0.94395485  1.0
  C  C175  1  0.30673113  0.12113072  0.55604492  1.0
  C  C176  1  0.12113117  0.30673083  0.05604498  1.0
  C  C177  1  0.69326817  0.87886956  0.44395554  1.0
  C  C178  1  0.78912195  0.68712863  0.92909792  1.0
  C  C179  1  0.31287187  0.21087802  0.57090109  1.0
  C  C180  1  0.21087803  0.31287166  0.07090184  1.0
  C  C181  1  0.68712744  0.78912226  0.42909875  1.0
  C  C182  1  0.72353973  0.66062275  0.99648379  1.0
  C  C183  1  0.33937726  0.27645952  0.50351659  1.0
  C  C184  1  0.27646025  0.33937754  0.00351660  1.0
  C  C185  1  0.66062139  0.72354008  0.49648402  1.0
  C  C186  1  0.74765375  0.63973012  0.07872498  1.0
  C  C187  1  0.36027097  0.25234608  0.42127362  1.0
  C  C188  1  0.25234691  0.36027016  0.92127470  1.0
  C  C189  1  0.63972972  0.74765353  0.57872550  1.0
  C  C190  1  0.87689383  0.45615029  0.18364716  1.0
  C  C191  1  0.54385069  0.12310422  0.31635363  1.0
  C  C192  1  0.12310615  0.54384999  0.81635322  1.0
  C  C193  1  0.45615007  0.87689336  0.68364697  1.0
  C  C194  1  0.86086879  0.44175604  0.09568174  1.0
  C  C195  1  0.55824356  0.13913011  0.40431849  1.0
  C  C196  1  0.13913122  0.55824356  0.90431809  1.0
  C  C197  1  0.44175647  0.86086882  0.59568142  1.0
  C  C198  1  0.89241608  0.38849316  0.25019238  1.0
  C  C199  1  0.61150746  0.10758355  0.24980767  1.0
  C  C200  1  0.10758460  0.61150644  0.74980800  1.0
  C  C201  1  0.38849328  0.89241470  0.75019222  1.0
  C  C202  1  0.88884574  0.28957447  0.24989116  1.0
  C  C203  1  0.71042717  0.11115432  0.25010940  1.0
  C  C204  1  0.11115557  0.71042649  0.75010838  1.0
  C  C205  1  0.28957356  0.88884393  0.74989113  1.0
  C  C206  1  0.90792933  0.43175406  0.32223959  1.0
  C  C207  1  0.56824698  0.09206996  0.17776045  1.0
  C  C208  1  0.09207065  0.56824622  0.67776017  1.0
  C  C209  1  0.43175306  0.90792897  0.82224008  1.0
  C  C210  1  0.92999006  0.38986020  0.40704638  1.0
  C  C211  1  0.61014063  0.07000994  0.09295300  1.0
  C  C212  1  0.07000992  0.61014009  0.59295338  1.0
  C  C213  1  0.38985798  0.92999102  0.90704621  1.0
  N  N214  1  0.88537286  0.15483984  0.02905939  1.0
  N  N215  1  0.84516125  0.11462608  0.47094076  1.0
  N  N216  1  0.11462574  0.84516112  0.97094107  1.0
  N  N217  1  0.15483946  0.88537286  0.52905906  1.0
  N  N218  1  0.90135985  0.68854227  0.30860401  1.0
  N  N219  1  0.31145705  0.09863987  0.19139672  1.0
  N  N220  1  0.09863948  0.31145734  0.69139652  1.0
  N  N221  1  0.68854222  0.90136109  0.80860367  1.0
  N  N222  1  0.90142858  0.52200402  0.30151097  1.0
  N  N223  1  0.47799687  0.09857073  0.19848842  1.0
  N  N224  1  0.09857073  0.47799627  0.69848886  1.0
  N  N225  1  0.52200381  0.90142888  0.80151133  1.0
  O  O226  1  0.88998818  0.98641720  0.20325656  1.0
  O  O227  1  0.01358357  0.11001146  0.29674392  1.0
  O  O228  1  0.11001180  0.01358308  0.79674320  1.0
  O  O229  1  0.98641711  0.88998815  0.70325646  1.0
  O  O230  1  0.89137512  0.96725978  0.34649185  1.0
  O  O231  1  0.03274110  0.10862455  0.15350925  1.0
  O  O232  1  0.10862553  0.03274051  0.65350846  1.0
  O  O233  1  0.96726025  0.89137506  0.84649106  1.0
  O  O234  1  0.90548955  0.25646150  0.17922167  1.0
  O  O235  1  0.74353912  0.09451142  0.32077828  1.0
  O  O236  1  0.09451110  0.74353878  0.82077801  1.0
  O  O237  1  0.25646153  0.90548886  0.67922203  1.0
  O  O238  1  0.86811016  0.24358682  0.32186949  1.0
  O  O239  1  0.75641314  0.13189174  0.17813105  1.0
  O  O240  1  0.13189187  0.75641279  0.67813074  1.0
  O  O241  1  0.24358619  0.86810787  0.82186948  1.0
  F  F242  1  0.01119020  0.58712494  0.37566682  1.0
  F  F243  1  0.41287586  0.98880908  0.12433354  1.0
  F  F244  1  0.98880978  0.41287534  0.62433356  1.0
  F  F245  1  0.58712413  0.01119120  0.87566622  1.0
  F  F246  1  0.86184686  0.58457236  0.43562667  1.0
  F  F247  1  0.41542677  0.13815296  0.06437346  1.0
  F  F248  1  0.13815387  0.41542590  0.56437448  1.0
  F  F249  1  0.58457253  0.86184732  0.93562700  1.0
