# generated using pymatgen
data_ZnH21C20NO4
_symmetry_space_group_name_H-M   'P 1'
_cell_length_a   9.72489868
_cell_length_b   10.96405783
_cell_length_c   17.44159123
_cell_angle_alpha   93.49544240
_cell_angle_beta   92.81073135
_cell_angle_gamma   90.66122770
_symmetry_Int_Tables_number   1
_chemical_formula_structural   ZnH21C20NO4
_chemical_formula_sum   'Zn2 H42 C40 N2 O8'
_cell_volume   1853.80863103
_cell_formula_units_Z   2
loop_
 _symmetry_equiv_pos_site_id
 _symmetry_equiv_pos_as_xyz
  1  'x, y, z'
loop_
 _atom_site_type_symbol
 _atom_site_label
 _atom_site_symmetry_multiplicity
 _atom_site_fract_x
 _atom_site_fract_y
 _atom_site_fract_z
 _atom_site_occupancy
  Zn  Zn0  1  0.35845389  0.50225298  0.50884927  1.0
  Zn  Zn1  1  0.64591815  0.49902815  0.49715049  1.0
  H  H2  1  0.67037948  0.59735300  0.27153925  1.0
  H  H3  1  0.37110853  0.40856290  0.75314059  1.0
  H  H4  1  0.72163487  0.64673741  0.74243735  1.0
  H  H5  1  0.23742509  0.51341204  0.25601165  1.0
  H  H6  1  0.64871591  0.63411199  0.00923536  1.0
  H  H7  1  0.34519962  0.54961817  0.00065735  1.0
  H  H8  1  0.23260500  0.53654752  0.11448761  1.0
  H  H9  1  0.72378756  0.69028652  0.88433424  1.0
  H  H10  1  0.37438702  0.44683517  0.89452496  1.0
  H  H11  1  0.66635507  0.62793979  0.13184935  1.0
  H  H12  1  0.70717875  0.13702655  0.52938112  1.0
  H  H13  1  0.29732555  0.86981179  0.51644257  1.0
  H  H14  1  0.82152417  0.03961810  0.69578322  1.0
  H  H15  1  0.64862886  0.98535712  0.68880548  1.0
  H  H16  1  0.76995719  0.92048554  0.75328087  1.0
  H  H17  1  0.72759639  0.77961592  0.63576195  1.0
  H  H18  1  0.89986497  0.83284642  0.64391929  1.0
  H  H19  1  0.80734961  0.83243279  0.50987121  1.0
  H  H20  1  0.85246822  0.98310644  0.54653200  1.0
  H  H21  1  0.98252346  0.13579680  0.60625925  1.0
  H  H22  1  0.04909791  0.25189771  0.67370818  1.0
  H  H23  1  0.03211765  0.27948138  0.57454193  1.0
  H  H24  1  0.23108834  0.09623957  0.64699879  1.0
  H  H25  1  0.27987500  0.23967805  0.61535251  1.0
  H  H26  1  0.20202653  0.17215107  0.48080871  1.0
  H  H27  1  0.15046554  0.02779883  0.51196909  1.0
  H  H28  1  0.85936520  0.62168948  0.58569473  1.0
  H  H29  1  0.14499597  0.38253045  0.41516773  1.0
  H  H30  1  0.96426383  0.65702751  0.75035106  1.0
  H  H31  1  0.93951769  0.51147193  0.70110140  1.0
  H  H32  1  0.03064593  0.52466078  0.79159010  1.0
  H  H33  1  0.20022000  0.49931801  0.68743056  1.0
  H  H34  1  0.22146850  0.64161224  0.73816617  1.0
  H  H35  1  0.23979988  0.67935721  0.60623672  1.0
  H  H36  1  0.07710190  0.73600849  0.63171913  1.0
  H  H37  1  0.68855104  0.13856713  0.34962898  1.0
  H  H38  1  0.82609242  0.12809043  0.28607318  1.0
  H  H39  1  0.81393664  0.02373028  0.35963824  1.0
  H  H40  1  0.99476195  0.18199582  0.39997336  1.0
  H  H41  1  0.85525357  0.19476397  0.46059506  1.0
  H  H42  1  0.75720018  0.36216850  0.37748563  1.0
  H  H43  1  0.91148742  0.35604488  0.32791984  1.0
  C  C44  1  0.48872600  0.26467192  0.50306229  1.0
  C  C45  1  0.52090806  0.73910335  0.51754381  1.0
  C  C46  1  0.61753891  0.07616419  0.52529337  1.0
  C  C47  1  0.38740658  0.93030711  0.51866421  1.0
  C  C48  1  0.63657426  0.95128960  0.53108445  1.0
  C  C49  1  0.36831034  0.05632369  0.51668248  1.0
  C  C50  1  0.51710319  0.87602463  0.52319561  1.0
  C  C51  1  0.48843917  0.13017694  0.51520404  1.0
  C  C52  1  0.92468317  0.56744206  0.54829208  1.0
  C  C53  1  0.07938736  0.43438345  0.45379265  1.0
  C  C54  1  0.06811004  0.57426433  0.55861618  1.0
  C  C55  1  0.93565649  0.42591117  0.44430843  1.0
  C  C56  1  0.46354054  0.52362849  0.35511042  1.0
  C  C57  1  0.53670111  0.50729719  0.65289443  1.0
  C  C58  1  0.45523568  0.55004674  0.27196837  1.0
  C  C59  1  0.54415969  0.52740347  0.73859441  1.0
  C  C60  1  0.57489366  0.58503402  0.23637523  1.0
  C  C61  1  0.44674266  0.47153630  0.78234940  1.0
  C  C62  1  0.57182014  0.60173501  0.15818420  1.0
  C  C63  1  0.44822388  0.49431206  0.86142606  1.0
  C  C64  1  0.44943332  0.58054060  0.11212221  1.0
  C  C65  1  0.54634921  0.57523946  0.89992600  1.0
  C  C66  1  0.32866673  0.55120902  0.14914472  1.0
  C  C67  1  0.64579531  0.62854955  0.85564744  1.0
  C  C68  1  0.33091974  0.53733613  0.22796115  1.0
  C  C69  1  0.64492858  0.60481992  0.77634081  1.0
  C  C70  1  0.44475929  0.57777768  0.02853025  1.0
  C  C71  1  0.55040033  0.59902138  0.98310152  1.0
  C  C72  1  0.77937428  0.90667848  0.55097330  1.0
  C  C73  1  0.79292196  0.86179620  0.63307253  1.0
  C  C74  1  0.75626420  0.95706501  0.69614194  1.0
  C  C75  1  0.22442353  0.10447991  0.52329452  1.0
  C  C76  1  0.20511815  0.16375144  0.60442265  1.0
  C  C77  1  0.05959046  0.21017010  0.61538377  1.0
  C  C78  1  0.13707531  0.65219194  0.62291391  1.0
  C  C79  1  0.14955313  0.58705495  0.69890620  1.0
  C  C80  1  0.01369197  0.56894976  0.73714142  1.0
  C  C81  1  0.86695396  0.34064385  0.38349376  1.0
  C  C82  1  0.88513689  0.20566295  0.40141735  1.0
  C  C83  1  0.79876949  0.11930453  0.34597245  1.0
  N  N84  1  0.14395250  0.50558488  0.50992687  1.0
  N  N85  1  0.85991743  0.49422525  0.49317906  1.0
  O  O86  1  0.37494723  0.31665352  0.48758043  1.0
  O  O87  1  0.63092301  0.68766861  0.49708877  1.0
  O  O88  1  0.60629042  0.31873528  0.50791083  1.0
  O  O89  1  0.41013066  0.68266825  0.53180539  1.0
  O  O90  1  0.35325667  0.52836002  0.39167960  1.0
  O  O91  1  0.64468479  0.52909319  0.61716972  1.0
  O  O92  1  0.58246598  0.49726826  0.38325509  1.0
  O  O93  1  0.42056008  0.47157054  0.62150413  1.0
