# generated using pymatgen
data_ZnH14C22S4N3O17
_symmetry_space_group_name_H-M   'P 1'
_cell_length_a   16.28908963
_cell_length_b   17.26395596
_cell_length_c   19.23821281
_cell_angle_alpha   86.17377815
_cell_angle_beta   83.20725021
_cell_angle_gamma   86.49916454
_symmetry_Int_Tables_number   1
_chemical_formula_structural   ZnH14C22S4N3O17
_chemical_formula_sum   'Zn2 H28 C44 S8 N6 O34'
_cell_volume   5352.38285170
_cell_formula_units_Z   2
loop_
 _symmetry_equiv_pos_site_id
 _symmetry_equiv_pos_as_xyz
  1  'x, y, z'
loop_
 _atom_site_type_symbol
 _atom_site_label
 _atom_site_symmetry_multiplicity
 _atom_site_fract_x
 _atom_site_fract_y
 _atom_site_fract_z
 _atom_site_occupancy
  Zn  Zn0  1  0.58250304  0.49215859  0.49864699  1.0
  Zn  Zn1  1  0.40606978  0.48693375  0.51194302  1.0
  H  H2  1  0.60103304  0.44022839  0.71830274  1.0
  H  H3  1  0.61998713  0.47131789  0.13274975  1.0
  H  H4  1  0.39464211  0.24225429  0.56076926  1.0
  H  H5  1  0.60428435  0.72082877  0.43551617  1.0
  H  H6  1  0.34506780  0.74164151  0.50723151  1.0
  H  H7  1  0.64300590  0.25168400  0.45946085  1.0
  H  H8  1  0.41786033  0.00147842  0.44852030  1.0
  H  H9  1  0.59137867  0.97943043  0.49828004  1.0
  H  H10  1  0.65030325  0.10762616  0.45083550  1.0
  H  H11  1  0.34852586  0.88625494  0.49125740  1.0
  H  H12  1  0.66397106  0.56359651  0.38641241  1.0
  H  H13  1  0.38511794  0.56461423  0.29845559  1.0
  H  H14  1  0.31996834  0.45003710  0.63335179  1.0
  H  H15  1  0.76758073  0.39378530  0.70657600  1.0
  H  H16  1  0.22331436  0.56922985  0.28960063  1.0
  H  H17  1  0.68092556  0.52166075  0.91222281  1.0
  H  H18  1  0.39820665  0.66659955  0.08038340  1.0
  H  H19  1  0.26756863  0.66126771  0.80545546  1.0
  H  H20  1  0.73776801  0.37462849  0.18878705  1.0
  H  H21  1  0.72895377  0.78137735  0.37441856  1.0
  H  H22  1  0.27016524  0.15720106  0.60591536  1.0
  H  H23  1  0.28874041  0.52924659  0.41491110  1.0
  H  H24  1  0.70483490  0.41957075  0.57717489  1.0
  H  H25  1  0.98832621  0.57135575  0.47333493  1.0
  H  H26  1  0.00227424  0.40199785  0.53456427  1.0
  H  H27  1  0.11197758  0.41540411  0.61501599  1.0
  H  H28  1  0.87235958  0.58897831  0.41005447  1.0
  H  H29  1  0.40876419  0.61828765  0.85723000  1.0
  C  C30  1  0.50985588  0.34178699  0.51043095  1.0
  C  C31  1  0.47865966  0.88651565  0.45566494  1.0
  C  C32  1  0.59407905  0.13742023  0.47477959  1.0
  C  C33  1  0.40446481  0.84957471  0.47829269  1.0
  C  C34  1  0.59027258  0.21753377  0.47933295  1.0
  C  C35  1  0.40245204  0.76924836  0.48800627  1.0
  C  C36  1  0.53328491  0.00954517  0.48627404  1.0
  C  C37  1  0.47564775  0.97078954  0.46025584  1.0
  C  C38  1  0.24655290  0.50628444  0.45839785  1.0
  C  C39  1  0.74478482  0.45576808  0.54099924  1.0
  C  C40  1  0.16348411  0.50015134  0.45183113  1.0
  C  C41  1  0.47891444  0.63765406  0.49122487  1.0
  C  C42  1  0.82806026  0.45841823  0.54826180  1.0
  C  C43  1  0.11194593  0.46722747  0.50966182  1.0
  C  C44  1  0.87776774  0.50736356  0.49967760  1.0
  C  C45  1  0.48615255  0.49701753  0.64360570  1.0
  C  C46  1  0.50335916  0.49450747  0.36646385  1.0
  C  C47  1  0.14888698  0.44089064  0.56923781  1.0
  C  C48  1  0.83740271  0.55128580  0.44891106  1.0
  C  C49  1  0.23301672  0.45092894  0.57258857  1.0
  C  C50  1  0.75310189  0.54409376  0.44418968  1.0
  C  C51  1  0.02265794  0.45860458  0.51306346  1.0
  C  C52  1  0.51700475  0.25554194  0.50833038  1.0
  C  C53  1  0.96706905  0.51531081  0.49602618  1.0
  C  C54  1  0.55812272  0.47818542  0.74985481  1.0
  C  C55  1  0.43716087  0.54533088  0.26173171  1.0
  C  C56  1  0.57249988  0.49061287  0.81777895  1.0
  C  C57  1  0.43543377  0.56246718  0.19030462  1.0
  C  C58  1  0.51727170  0.54132974  0.85837339  1.0
  C  C59  1  0.50435503  0.53910016  0.14251638  1.0
  C  C60  1  0.44968013  0.57747202  0.82717564  1.0
  C  C61  1  0.56894581  0.49261677  0.16941654  1.0
  C  C62  1  0.43564428  0.56415160  0.75910851  1.0
  C  C63  1  0.47590732  0.72326912  0.47588232  1.0
  C  C64  1  0.56847780  0.47369283  0.24063477  1.0
  C  C65  1  0.49052445  0.51368292  0.71915625  1.0
  C  C66  1  0.50387735  0.50311638  0.28817890  1.0
  C  C67  1  0.51541024  0.55839779  0.06699100  1.0
  C  C68  1  0.52397277  0.55904724  0.93073592  1.0
  C  C69  1  0.44951465  0.21213597  0.53540939  1.0
  C  C70  1  0.54899748  0.75804803  0.44832026  1.0
  C  C71  1  0.45399233  0.13173524  0.53142880  1.0
  C  C72  1  0.55000675  0.83833824  0.43615011  1.0
  C  C73  1  0.52561278  0.09269931  0.49818107  1.0
  S  S74  1  0.86653861  0.40166655  0.61997935  1.0
  S  S75  1  0.12566481  0.53050736  0.37030252  1.0
  S  S76  1  0.66033574  0.43523255  0.84760160  1.0
  S  S77  1  0.33859787  0.60566263  0.16604230  1.0
  S  S78  1  0.35032678  0.61665760  0.72196857  1.0
  S  S79  1  0.64848320  0.40905733  0.27232180  1.0
  S  S80  1  0.64271501  0.87826331  0.39310762  1.0
  S  S81  1  0.36991616  0.07752124  0.57386693  1.0
  N  N82  1  0.46271764  0.60247839  0.96546577  1.0
  N  N83  1  0.58830922  0.53710828  0.03034208  1.0
  N  N84  1  0.46064987  0.60552111  0.03332650  1.0
  N  N85  1  0.59386119  0.54087176  0.96204392  1.0
  N  N86  1  0.28094177  0.48259146  0.51713271  1.0
  N  N87  1  0.70761720  0.49734724  0.49050037  1.0
  O  O88  1  0.57595715  0.37807058  0.49415243  1.0
  O  O89  1  0.26525225  0.42813096  0.63152258  1.0
  O  O90  1  0.91313733  0.33460002  0.59264512  1.0
  O  O91  1  0.90291934  0.45223218  0.66302978  1.0
  O  O92  1  0.78377948  0.36977352  0.66100809  1.0
  O  O93  1  0.07061763  0.47401658  0.35449246  1.0
  O  O94  1  0.09875078  0.61179201  0.37081597  1.0
  O  O95  1  0.20925576  0.52087968  0.31871015  1.0
  O  O96  1  0.62960879  0.38649174  0.90738588  1.0
  O  O97  1  0.70627714  0.40083130  0.78773211  1.0
  O  O98  1  0.71580318  0.49873308  0.86952267  1.0
  O  O99  1  0.41243543  0.60217487  0.49153075  1.0
  O  O100  1  0.30919662  0.55326662  0.12060608  1.0
  O  O101  1  0.28807118  0.62732047  0.22932341  1.0
  O  O102  1  0.36265798  0.68418172  0.12494701  1.0
  O  O103  1  0.38412035  0.66188626  0.66150943  1.0
  O  O104  1  0.28324751  0.56626884  0.72130945  1.0
  O  O105  1  0.32104002  0.67738685  0.78194654  1.0
  O  O106  1  0.71659777  0.45199160  0.28757010  1.0
  O  O107  1  0.60822735  0.35431152  0.32211922  1.0
  O  O108  1  0.67946651  0.36384163  0.20212973  1.0
  O  O109  1  0.62132533  0.93741889  0.34154606  1.0
  O  O110  1  0.43810371  0.37341360  0.52774020  1.0
  O  O111  1  0.69794126  0.89233255  0.44394574  1.0
  O  O112  1  0.68415642  0.80567120  0.34944126  1.0
  O  O113  1  0.31338271  0.06223753  0.52438907  1.0
  O  O114  1  0.40240868  0.01623708  0.61845992  1.0
  O  O115  1  0.32159490  0.14031671  0.62546715  1.0
  O  O116  1  0.54917224  0.60581446  0.50265239  1.0
  O  O117  1  0.55566782  0.48382150  0.60869052  1.0
  O  O118  1  0.43670945  0.47554715  0.40166368  1.0
  O  O119  1  0.41540238  0.49769929  0.62176828  1.0
  O  O120  1  0.57002246  0.51078289  0.38953982  1.0
  O  O121  1  0.71778326  0.58464094  0.39291643  1.0
