# generated using pymatgen
data_Zn4H42C64N4O19
_symmetry_space_group_name_H-M   'P 1'
_cell_length_a   11.14229476
_cell_length_b   13.99476272
_cell_length_c   26.54058410
_cell_angle_alpha   90.09054209
_cell_angle_beta   89.78684879
_cell_angle_gamma   89.94044042
_symmetry_Int_Tables_number   1
_chemical_formula_structural   Zn4H42C64N4O19
_chemical_formula_sum   'Zn4 H42 C64 N4 O19'
_cell_volume   4138.53730447
_cell_formula_units_Z   1
loop_
 _symmetry_equiv_pos_site_id
 _symmetry_equiv_pos_as_xyz
  1  'x, y, z'
loop_
 _atom_site_type_symbol
 _atom_site_label
 _atom_site_symmetry_multiplicity
 _atom_site_fract_x
 _atom_site_fract_y
 _atom_site_fract_z
 _atom_site_occupancy
  Zn  Zn0  1  0.50339034  0.40007231  0.49943670  1.0
  Zn  Zn1  1  0.50200702  0.59874170  0.50069408  1.0
  Zn  Zn2  1  0.50388720  0.60123403  0.07984463  1.0
  Zn  Zn3  1  0.50291917  0.40273381  0.08054962  1.0
  H  H4  1  0.63175480  0.24701443  0.44451949  1.0
  H  H5  1  0.63813833  0.07005580  0.44196565  1.0
  H  H6  1  0.36850660  0.75150707  0.55451233  1.0
  H  H7  1  0.36118595  0.92855185  0.55718942  1.0
  H  H8  1  0.63427709  0.75189109  0.44541806  1.0
  H  H9  1  0.63876076  0.92849331  0.44215866  1.0
  H  H10  1  0.36920970  0.24776048  0.55500415  1.0
  H  H11  1  0.36174549  0.07107277  0.55751281  1.0
  H  H12  1  0.50148850  0.65649073  0.24302270  1.0
  H  H13  1  0.42140121  0.27888661  0.24205219  1.0
  H  H14  1  0.58155000  0.27790319  0.24199913  1.0
  H  H15  1  0.58137923  0.27925578  0.33679996  1.0
  H  H16  1  0.42126417  0.28000722  0.33714634  1.0
  H  H17  1  0.49856838  0.34698143  0.66072332  1.0
  H  H18  1  0.49915527  0.34533871  0.75343109  1.0
  H  H19  1  0.50036334  0.65233079  0.91913787  1.0
  H  H20  1  0.50050349  0.65393524  0.82642476  1.0
  H  H21  1  0.49939809  0.34639789  0.91876496  1.0
  H  H22  1  0.49931066  0.34511612  0.82600561  1.0
  H  H23  1  0.49959266  0.65303671  0.66130457  1.0
  H  H24  1  0.50015172  0.65408783  0.75398616  1.0
  H  H25  1  0.89046470  0.34336527  0.50001961  1.0
  H  H26  1  0.88778378  0.72147093  0.46617658  1.0
  H  H27  1  0.88589903  0.72167339  0.53341864  1.0
  H  H28  1  0.11206508  0.72092746  0.53395244  1.0
  H  H29  1  0.11380917  0.72060491  0.46673164  1.0
  H  H30  1  0.63223930  0.75328424  0.13389132  1.0
  H  H31  1  0.63948773  0.93026041  0.13663890  1.0
  H  H32  1  0.37043624  0.25043312  0.02558438  1.0
  H  H33  1  0.36324628  0.07334441  0.02235662  1.0
  H  H34  1  0.63420045  0.24877591  0.13455849  1.0
  H  H35  1  0.64025936  0.07171007  0.13667532  1.0
  H  H36  1  0.36975189  0.75414263  0.02427188  1.0
  H  H37  1  0.36294767  0.93093863  0.02200613  1.0
  H  H38  1  0.89076854  0.65760465  0.07980465  1.0
  H  H39  1  0.88851465  0.27978466  0.11437690  1.0
  H  H40  1  0.88747997  0.27908719  0.04715918  1.0
  H  H41  1  0.11370955  0.28009946  0.04636015  1.0
  H  H42  1  0.11474723  0.28019168  0.11355300  1.0
  H  H43  1  0.49885411  0.65956979  0.37632881  1.0
  H  H44  1  0.20790948  0.34122721  0.49876280  1.0
  H  H45  1  0.20845365  0.65943031  0.08123935  1.0
  C  C46  1  0.49777336  0.50076412  0.59869476  1.0
  C  C47  1  0.26326720  0.49899937  0.49982380  1.0
  C  C48  1  0.50166905  0.50152869  0.39974122  1.0
  C  C49  1  0.73727777  0.49548702  0.49902763  1.0
  C  C50  1  0.49876518  0.49925387  0.98130971  1.0
  C  C51  1  0.26380910  0.50166997  0.08014236  1.0
  C  C52  1  0.50248425  0.50334642  0.17891090  1.0
  C  C53  1  0.73821932  0.50529258  0.08020296  1.0
  C  C54  1  0.57365668  0.20424789  0.46874006  1.0
  C  C55  1  0.57613172  0.10507166  0.46781586  1.0
  C  C56  1  0.42672003  0.79453033  0.53047221  1.0
  C  C57  1  0.42372616  0.89375498  0.53147262  1.0
  C  C58  1  0.57514908  0.79460887  0.46933851  1.0
  C  C59  1  0.57686932  0.89379663  0.46807294  1.0
  C  C60  1  0.42669401  0.20474000  0.53052058  1.0
  C  C61  1  0.42389045  0.10555878  0.53161193  1.0
  C  C62  1  0.49990563  0.05257177  0.49971300  1.0
  C  C63  1  0.50007645  0.94654017  0.49974539  1.0
  C  C64  1  0.50254141  0.50299803  0.23523755  1.0
  C  C65  1  0.50202720  0.50251380  0.34415505  1.0
  C  C66  1  0.50242763  0.41823453  0.26304235  1.0
  C  C67  1  0.50191126  0.58945981  0.31591037  1.0
  C  C68  1  0.50218962  0.41877536  0.31542322  1.0
  C  C69  1  0.50226494  0.58846051  0.26291186  1.0
  C  C70  1  0.50158413  0.31008145  0.25955772  1.0
  C  C71  1  0.50142283  0.31070808  0.31918177  1.0
  C  C72  1  0.49817763  0.50007143  0.65498560  1.0
  C  C73  1  0.49900469  0.49934082  0.92492290  1.0
  C  C74  1  0.49838953  0.41390815  0.68174421  1.0
  C  C75  1  0.49889126  0.41389337  0.73410321  1.0
  C  C76  1  0.49962671  0.58542653  0.89810602  1.0
  C  C77  1  0.49986015  0.58537590  0.84575259  1.0
  C  C78  1  0.49908129  0.41336713  0.89788573  1.0
  C  C79  1  0.49921815  0.41359228  0.84552885  1.0
  C  C80  1  0.49893405  0.58598195  0.68210429  1.0
  C  C81  1  0.49942383  0.58565559  0.73443638  1.0
  C  C82  1  0.49924247  0.49965930  0.76203405  1.0
  C  C83  1  0.49943911  0.49953068  0.81789528  1.0
  C  C84  1  0.87127821  0.49684007  0.49969411  1.0
  C  C85  1  0.13075434  0.49797432  0.50016341  1.0
  C  C86  1  0.93721196  0.58179885  0.49996977  1.0
  C  C87  1  0.06376141  0.41086011  0.50005013  1.0
  C  C88  1  0.06201031  0.58149725  0.50025928  1.0
  C  C89  1  0.93754521  0.41154211  0.49996093  1.0
  C  C90  1  0.92864639  0.68994076  0.49994653  1.0
  C  C91  1  0.07068110  0.68958664  0.50021675  1.0
  C  C92  1  0.57453821  0.79649916  0.10985832  1.0
  C  C93  1  0.57737899  0.89568496  0.11090629  1.0
  C  C94  1  0.42834405  0.20705595  0.04945154  1.0
  C  C95  1  0.42546109  0.10783703  0.04810144  1.0
  C  C96  1  0.57591258  0.20616182  0.11045875  1.0
  C  C97  1  0.57815562  0.10693107  0.11119348  1.0
  C  C98  1  0.42750467  0.79687239  0.04855906  1.0
  C  C99  1  0.42506601  0.89606502  0.04761739  1.0
  C  C100  1  0.50136885  0.94858883  0.07930165  1.0
  C  C101  1  0.50164237  0.05460008  0.07949875  1.0
  C  C102  1  0.87216267  0.50416416  0.08022108  1.0
  C  C103  1  0.13136608  0.50293408  0.08009668  1.0
  C  C104  1  0.93817143  0.41917751  0.08033289  1.0
  C  C105  1  0.06431995  0.59011335  0.08012464  1.0
  C  C106  1  0.06290934  0.41943429  0.08014621  1.0
  C  C107  1  0.93813780  0.58947272  0.08002403  1.0
  C  C108  1  0.92980678  0.31105764  0.08051282  1.0
  C  C109  1  0.07185442  0.31135185  0.08016663  1.0
  N  N110  1  0.50007040  0.25337793  0.49954159  1.0
  N  N111  1  0.50130121  0.74563677  0.49996953  1.0
  N  N112  1  0.50081165  0.74787231  0.07919191  1.0
  N  N113  1  0.50224947  0.25555641  0.08012813  1.0
  O  O114  1  0.49680449  0.42013915  0.57619372  1.0
  O  O115  1  0.49858959  0.58227955  0.57719530  1.0
  O  O116  1  0.31716697  0.57882903  0.50034613  1.0
  O  O117  1  0.31713861  0.41690550  0.49883359  1.0
  O  O118  1  0.50029186  0.58354480  0.42251551  1.0
  O  O119  1  0.50248152  0.42159111  0.42229667  1.0
  O  O120  1  0.68557253  0.41426166  0.49887320  1.0
  O  O121  1  0.68436050  0.57648843  0.49871160  1.0
  O  O122  1  0.49763062  0.58042858  0.00323880  1.0
  O  O123  1  0.49984772  0.41823637  0.00318329  1.0
  O  O124  1  0.31752287  0.42172158  0.07972944  1.0
  O  O125  1  0.31754646  0.58372969  0.08067235  1.0
  O  O126  1  0.50181555  0.42171697  0.15738274  1.0
  O  O127  1  0.50284608  0.58402722  0.15672742  1.0
  O  O128  1  0.68622160  0.58647581  0.07977857  1.0
  O  O129  1  0.68594320  0.42415736  0.08049786  1.0
  O  O130  1  0.50118288  0.67562261  0.33937757  1.0
  O  O131  1  0.11984950  0.32486638  0.49986935  1.0
  O  O132  1  0.12036954  0.67602023  0.08027877  1.0
