# generated using pymatgen
data_Zn4C24Br12O13
_symmetry_space_group_name_H-M   'P 1'
_cell_length_a   18.68652177
_cell_length_b   18.68669327
_cell_length_c   18.68660742
_cell_angle_alpha   119.99990655
_cell_angle_beta   119.99988570
_cell_angle_gamma   59.99990879
_symmetry_Int_Tables_number   1
_chemical_formula_structural   Zn4C24Br12O13
_chemical_formula_sum   'Zn8 C48 Br24 O26'
_cell_volume   4613.99133528
_cell_formula_units_Z   2
loop_
 _symmetry_equiv_pos_site_id
 _symmetry_equiv_pos_as_xyz
  1  'x, y, z'
loop_
 _atom_site_type_symbol
 _atom_site_label
 _atom_site_symmetry_multiplicity
 _atom_site_fract_x
 _atom_site_fract_y
 _atom_site_fract_z
 _atom_site_occupancy
  Zn  Zn0  1  0.95713815  0.45714487  0.04285785  1.0
  Zn  Zn1  1  0.12857413  0.45714577  0.04286062  1.0
  Zn  Zn2  1  0.95714282  0.62856817  0.04285423  1.0
  Zn  Zn3  1  0.95713958  0.45714838  0.87143210  1.0
  Zn  Zn4  1  0.54286033  0.04285942  0.45714431  1.0
  Zn  Zn5  1  0.54285695  0.87143189  0.45714579  1.0
  Zn  Zn6  1  0.37142472  0.04285638  0.45714025  1.0
  Zn  Zn7  1  0.54285921  0.04285390  0.62856793  1.0
  C  C8  1  0.13717993  0.36282037  0.13717859  1.0
  C  C9  1  0.13716831  0.63718579  0.13717609  1.0
  C  C10  1  0.86281652  0.63718352  0.13718512  1.0
  C  C11  1  0.86282288  0.63718593  0.86283144  1.0
  C  C12  1  0.86281995  0.36282094  0.86282017  1.0
  C  C13  1  0.13718595  0.36281496  0.86281638  1.0
  C  C14  1  0.63718015  0.86282112  0.36282226  1.0
  C  C15  1  0.36281389  0.86281577  0.36281560  1.0
  C  C16  1  0.36282507  0.13717955  0.36282309  1.0
  C  C17  1  0.36281310  0.13718419  0.63718121  1.0
  C  C18  1  0.63717890  0.13718050  0.63718197  1.0
  C  C19  1  0.63718402  0.86282018  0.63719021  1.0
  C  C20  1  0.80492306  0.30492376  0.80492575  1.0
  C  C21  1  0.69507512  0.19507810  0.69507509  1.0
  C  C22  1  0.77681471  0.27681643  0.71185397  1.0
  C  C23  1  0.72318400  0.22318595  0.78814753  1.0
  C  C24  1  0.72318507  0.22318937  0.65822380  1.0
  C  C25  1  0.77681204  0.27681356  0.84177704  1.0
  C  C26  1  0.19507443  0.69507934  0.19507706  1.0
  C  C27  1  0.30492519  0.80492142  0.30492380  1.0
  C  C28  1  0.15822171  0.78815264  0.22318687  1.0
  C  C29  1  0.34177599  0.71184942  0.27681399  1.0
  C  C30  1  0.21185207  0.84177828  0.27681507  1.0
  C  C31  1  0.28814625  0.65822334  0.22318514  1.0
  C  C32  1  0.80492538  0.69507744  0.19507629  1.0
  C  C33  1  0.69507573  0.80492519  0.30492454  1.0
  C  C34  1  0.77681367  0.78814956  0.22318676  1.0
  C  C35  1  0.72318534  0.71185420  0.27681539  1.0
  C  C36  1  0.72318627  0.84177809  0.27681448  1.0
  C  C37  1  0.77681483  0.65822456  0.22318636  1.0
  C  C38  1  0.19507661  0.30492268  0.80492324  1.0
  C  C39  1  0.30492439  0.19507626  0.69507696  1.0
  C  C40  1  0.15822238  0.27681486  0.71185211  1.0
  C  C41  1  0.34177840  0.22318492  0.78814809  1.0
  C  C42  1  0.21185143  0.22318479  0.65822177  1.0
  C  C43  1  0.28814881  0.27681448  0.84177778  1.0
  C  C44  1  0.19507347  0.30492425  0.19507652  1.0
  C  C45  1  0.30492455  0.19507832  0.30492516  1.0
  C  C46  1  0.28814656  0.27681689  0.22318654  1.0
  C  C47  1  0.21185252  0.22318567  0.27681579  1.0
  C  C48  1  0.34177692  0.22318882  0.27681511  1.0
  C  C49  1  0.15822291  0.27681343  0.22318788  1.0
  C  C50  1  0.80492197  0.69508108  0.80492564  1.0
  C  C51  1  0.69507555  0.80492421  0.69507700  1.0
  C  C52  1  0.77681451  0.65822513  0.71185518  1.0
  C  C53  1  0.72318314  0.84178029  0.78814878  1.0
  C  C54  1  0.72318593  0.71185178  0.65822530  1.0
  C  C55  1  0.77681309  0.78815394  0.84177931  1.0
  Br  Br56  1  0.80855580  0.30855542  0.65211305  1.0
  Br  Br57  1  0.69144229  0.19144634  0.84788844  1.0
  Br  Br58  1  0.69144529  0.19144835  0.53500174  1.0
  Br  Br59  1  0.80855312  0.30855266  0.96499910  1.0
  Br  Br60  1  0.03500018  0.84789384  0.19144909  1.0
  Br  Br61  1  0.46500021  0.65210877  0.30855570  1.0
  Br  Br62  1  0.15211009  0.96500031  0.30855581  1.0
  Br  Br63  1  0.34788792  0.53500206  0.19144505  1.0
  Br  Br64  1  0.80855344  0.84789011  0.19144566  1.0
  Br  Br65  1  0.69144261  0.65211282  0.30855452  1.0
  Br  Br66  1  0.69144678  0.96499828  0.30855390  1.0
  Br  Br67  1  0.80855486  0.53500277  0.19144628  1.0
  Br  Br68  1  0.03499774  0.30855649  0.65210992  1.0
  Br  Br69  1  0.46500218  0.19144459  0.84789094  1.0
  Br  Br70  1  0.15210810  0.19144560  0.53500037  1.0
  Br  Br71  1  0.34789143  0.30855402  0.96500050  1.0
  Br  Br72  1  0.34788831  0.30855882  0.19144747  1.0
  Br  Br73  1  0.15211062  0.19144575  0.30855487  1.0
  Br  Br74  1  0.46499963  0.19144830  0.30855546  1.0
  Br  Br75  1  0.03499901  0.30855383  0.19144556  1.0
  Br  Br76  1  0.80855484  0.53500345  0.65211326  1.0
  Br  Br77  1  0.69143983  0.96500327  0.84789004  1.0
  Br  Br78  1  0.69144572  0.65211082  0.53500198  1.0
  Br  Br79  1  0.80855535  0.84789481  0.96500000  1.0
  O  O80  1  0.99999905  0.50000143  0.00000492  1.0
  O  O81  1  0.05471957  0.38531599  0.11468285  1.0
  O  O82  1  0.17463553  0.55473409  0.11468838  1.0
  O  O83  1  0.88532119  0.67464576  0.11468474  1.0
  O  O84  1  0.17463597  0.38531306  0.11467955  1.0
  O  O85  1  0.88531443  0.55472957  0.11468301  1.0
  O  O86  1  0.05472934  0.67464491  0.11467965  1.0
  O  O87  1  0.88531041  0.67464671  0.94527044  1.0
  O  O88  1  0.88531482  0.38531832  0.82536461  1.0
  O  O89  1  0.88531703  0.55473561  0.82536625  1.0
  O  O90  1  0.88531452  0.38531562  0.94527823  1.0
  O  O91  1  0.17464376  0.38531973  0.94527574  1.0
  O  O92  1  0.05472281  0.38531411  0.82535887  1.0
  O  O93  1  0.49999920  0.00000265  0.49999658  1.0
  O  O94  1  0.61468550  0.94527726  0.38531586  1.0
  O  O95  1  0.44528321  0.82535168  0.38531860  1.0
  O  O96  1  0.32536133  0.11468558  0.38531886  1.0
  O  O97  1  0.61468531  0.82536548  0.38532134  1.0
  O  O98  1  0.44527399  0.11468533  0.38531490  1.0
  O  O99  1  0.32536173  0.94526645  0.38531510  1.0
  O  O100  1  0.32535729  0.11468462  0.55472709  1.0
  O  O101  1  0.61469018  0.11467857  0.67463623  1.0
  O  O102  1  0.44527709  0.11468267  0.67464199  1.0
  O  O103  1  0.61467884  0.11469212  0.55472327  1.0
  O  O104  1  0.61467729  0.82535304  0.55471843  1.0
  O  O105  1  0.61468887  0.94526737  0.67463901  1.0
