# generated using pymatgen
data_Zn4H30C48O13
_symmetry_space_group_name_H-M   'P 1'
_cell_length_a   27.32179045
_cell_length_b   27.71939846
_cell_length_c   27.71950421
_cell_angle_alpha   90.31129095
_cell_angle_beta   119.51588914
_cell_angle_gamma   119.30517702
_symmetry_Int_Tables_number   1
_chemical_formula_structural   Zn4H30C48O13
_chemical_formula_sum   'Zn8 H60 C96 O26'
_cell_volume   15066.31340674
_cell_formula_units_Z   2
loop_
 _symmetry_equiv_pos_site_id
 _symmetry_equiv_pos_as_xyz
  1  'x, y, z'
loop_
 _atom_site_type_symbol
 _atom_site_label
 _atom_site_symmetry_multiplicity
 _atom_site_fract_x
 _atom_site_fract_y
 _atom_site_fract_z
 _atom_site_occupancy
  Zn  Zn0  1  0.06127484  0.09378267  0.03194469  1.0
  Zn  Zn1  1  0.06042157  0.97595555  0.03433488  1.0
  Zn  Zn2  1  0.94456068  0.97846124  0.92076816  1.0
  Zn  Zn3  1  0.94596513  0.98025101  0.03473918  1.0
  Zn  Zn4  1  0.94558795  0.41991887  0.47673651  1.0
  Zn  Zn5  1  0.94897358  0.53954745  0.47641501  1.0
  Zn  Zn6  1  0.06137184  0.53411375  0.47535354  1.0
  Zn  Zn7  1  0.06486151  0.53585876  0.58920429  1.0
  H  H8  1  0.27421486  0.20841213  0.11324461  1.0
  H  H9  1  0.40036745  0.26899785  0.17861672  1.0
  H  H10  1  0.49966943  0.21224918  0.28402126  1.0
  H  H11  1  0.50840012  0.31076147  0.23044660  1.0
  H  H12  1  0.61619732  0.39773139  0.27449499  1.0
  H  H13  1  0.74305238  0.45587302  0.34137567  1.0
  H  H14  1  0.73122939  0.30613014  0.39120219  1.0
  H  H15  1  0.60506176  0.24844782  0.32727754  1.0
  H  H16  1  0.39365927  0.12726997  0.24571505  1.0
  H  H17  1  0.26682050  0.06586036  0.17711676  1.0
  H  H18  1  0.06327933  0.21379213  0.93758458  1.0
  H  H19  1  0.05879010  0.27173334  0.86969707  1.0
  H  H20  1  0.96480000  0.20085676  0.70459698  1.0
  H  H21  1  0.04438043  0.31313914  0.80492293  1.0
  H  H22  1  0.07425407  0.40006657  0.78452426  1.0
  H  H23  1  0.06948601  0.45742129  0.71533976  1.0
  H  H24  1  0.93942111  0.29913321  0.57100243  1.0
  H  H25  1  0.94440469  0.24134785  0.63908339  1.0
  H  H26  1  0.93888410  0.11449682  0.72547270  1.0
  H  H27  1  0.94300851  0.05693012  0.79447439  1.0
  H  H28  1  0.08553617  0.21633071  0.14763538  1.0
  H  H29  1  0.08130824  0.27701221  0.20965237  1.0
  H  H30  1  0.93008708  0.21497499  0.22285141  1.0
  H  H31  1  0.08103707  0.31304970  0.27902824  1.0
  H  H32  1  0.12597635  0.39876718  0.34742643  1.0
  H  H33  1  0.11978587  0.45325222  0.41377210  1.0
  H  H34  1  0.92454559  0.30095865  0.35790993  1.0
  H  H35  1  0.92919834  0.24617147  0.29114654  1.0
  H  H36  1  0.88465474  0.12814990  0.15838144  1.0
  H  H37  1  0.89075903  0.06754692  0.09743273  1.0
  H  H38  1  0.07394405  0.86435644  0.94161372  1.0
  H  H39  1  0.06879264  0.80174488  0.87266174  1.0
  H  H40  1  0.94009503  0.74928853  0.70622094  1.0
  H  H41  1  0.07372910  0.76761529  0.80625622  1.0
  H  H42  1  0.11505663  0.72149296  0.78383932  1.0
  H  H43  1  0.10909518  0.65906389  0.71330346  1.0
  H  H44  1  0.93118257  0.64386590  0.57136020  1.0
  H  H45  1  0.93574002  0.70536180  0.64060614  1.0
  H  H46  1  0.90571903  0.80346755  0.72713057  1.0
  H  H47  1  0.91118382  0.86575748  0.79734589  1.0
  H  H48  1  0.06617888  0.86167199  0.13245703  1.0
  H  H49  1  0.06101898  0.79725113  0.19402870  1.0
  H  H50  1  0.96056329  0.76899015  0.26229460  1.0
  H  H51  1  0.04626360  0.73990445  0.24324232  1.0
  H  H52  1  0.07407547  0.67958674  0.29062663  1.0
  H  H53  1  0.06710068  0.61538499  0.35302675  1.0
  H  H54  1  0.93748190  0.64746441  0.37114396  1.0
  H  H55  1  0.94275559  0.71068215  0.30851217  1.0
  H  H56  1  0.93396996  0.83029601  0.21738871  1.0
  H  H57  1  0.93998322  0.89504072  0.15534764  1.0
  H  H58  1  0.73320613  0.89728885  0.80390931  1.0
  H  H59  1  0.60697444  0.83178516  0.74253914  1.0
  H  H60  1  0.50726610  0.73096981  0.80052439  1.0
  H  H61  1  0.50010717  0.78172027  0.70051012  1.0
  H  H62  1  0.39222662  0.73875744  0.61324716  1.0
  H  H63  1  0.26514470  0.67263750  0.55491391  1.0
  H  H64  1  0.27718064  0.62204116  0.70441133  1.0
  H  H65  1  0.40332846  0.68672278  0.76292341  1.0
  H  H66  1  0.61298413  0.77037710  0.88687887  1.0
  H  H67  1  0.74007412  0.83812239  0.94852116  1.0
  C  C68  1  0.18698634  0.09632652  0.09926049  1.0
  C  C69  1  0.26280180  0.13316485  0.14056851  1.0
  C  C70  1  0.30112464  0.19093852  0.14208973  1.0
  C  C71  1  0.37181385  0.22463269  0.17896620  1.0
  C  C72  1  0.40682652  0.20226530  0.21670473  1.0
  C  C73  1  0.48085516  0.23468458  0.25537212  1.0
  C  C74  1  0.52684482  0.28778152  0.25846739  1.0
  C  C75  1  0.60085089  0.31914109  0.29662615  1.0
  C  C76  1  0.64137104  0.37773478  0.30066089  1.0
  C  C77  1  0.71212455  0.41033405  0.33768919  1.0
  C  C78  1  0.74494204  0.38475864  0.37079549  1.0
  C  C79  1  0.70535598  0.32592495  0.36595209  1.0
  C  C80  1  0.63467274  0.29392079  0.33002376  1.0
  C  C81  1  0.82091386  0.41991934  0.41089311  1.0
  C  C82  1  0.36749241  0.14489942  0.21607535  1.0
  C  C83  1  0.29677020  0.11050748  0.17812621  1.0
  C  C84  1  0.00450622  0.09665541  0.91066197  1.0
  C  C85  1  0.00316423  0.13178190  0.87011864  1.0
  C  C86  1  0.03602268  0.19257202  0.89093178  1.0
  C  C87  1  0.03322634  0.22468034  0.85258023  1.0
  C  C88  1  0.99788072  0.19726415  0.79205392  1.0
  C  C89  1  0.99213497  0.22820347  0.74940742  1.0
  C  C90  1  0.01654447  0.28569531  0.76001921  1.0
  C  C91  1  0.01048396  0.31657494  0.71731364  1.0
  C  C92  1  0.04480594  0.37783441  0.73762733  1.0
  C  C93  1  0.04233385  0.41007214  0.69934968  1.0
  C  C94  1  0.00452592  0.38189014  0.63904117  1.0
  C  C95  1  0.96908045  0.32074835  0.61797039  1.0
  C  C96  1  0.97219693  0.28871146  0.65641237  1.0
  C  C97  1  0.00302170  0.41702297  0.59841971  1.0
  C  C98  1  0.96605544  0.13637184  0.77204598  1.0
  C  C99  1  0.96822303  0.10402848  0.81021991  1.0
  C  C100  1  0.99409037  0.10069756  0.08592993  1.0
  C  C101  1  0.98908732  0.13796496  0.11976194  1.0
  C  C102  1  0.04208380  0.19745965  0.15083209  1.0
  C  C103  1  0.03944730  0.23104554  0.18560341  1.0
  C  C104  1  0.98342715  0.20639235  0.19018494  1.0
  C  C105  1  0.97976679  0.23776957  0.22918313  1.0
  C  C106  1  0.03126630  0.28977188  0.27255886  1.0
  C  C107  1  0.02717616  0.31903244  0.31286143  1.0
  C  C108  1  0.08146421  0.37728794  0.34936394  1.0
  C  C109  1  0.07844824  0.40788161  0.38651507  1.0
  C  C110  1  0.02130381  0.38074758  0.38908618  1.0
  C  C111  1  0.96813590  0.32199200  0.35481773  1.0
  C  C112  1  0.97098228  0.29175996  0.31731041  1.0
  C  C113  1  0.01627537  0.41508005  0.42582758  1.0
  C  C114  1  0.92904199  0.14745382  0.15635123  1.0
  C  C115  1  0.93201917  0.11348866  0.12223137  1.0
  C  C116  1  0.99726314  0.90860988  0.91442503  1.0
  C  C117  1  0.99351278  0.86959427  0.87361247  1.0
  C  C118  1  0.03759156  0.85101452  0.89446474  1.0
  C  C119  1  0.03465276  0.81621983  0.85554894  1.0
  C  C120  1  0.98786357  0.79908076  0.79438967  1.0
  C  C121  1  0.98405808  0.76466640  0.75122631  1.0
  C  C122  1  0.02929144  0.75161539  0.76138738  1.0
  C  C123  1  0.02520171  0.71724506  0.71796091  1.0
  C  C124  1  0.07444160  0.70429976  0.73718614  1.0
  C  C125  1  0.07149548  0.66960026  0.69814760  1.0
  C  C126  1  0.01929502  0.64700102  0.63816793  1.0
  C  C127  1  0.97107066  0.66095174  0.61809573  1.0
  C  C128  1  0.97394030  0.69536817  0.65726114  1.0
  C  C129  1  0.01467559  0.60749015  0.59708588  1.0
  C  C130  1  0.94277092  0.81685563  0.77423983  1.0
  C  C131  1  0.94555562  0.85160087  0.81303260  1.0
  C  C132  1  0.00532050  0.91982738  0.10202860  1.0
  C  C133  1  0.00322269  0.88212006  0.14004453  1.0
  C  C134  1  0.03738298  0.85437882  0.15139001  1.0
  C  C135  1  0.03412939  0.81831078  0.18579644  1.0
  C  C136  1  0.99650746  0.80860758  0.21007306  1.0
  C  C137  1  0.99015189  0.77064684  0.24571126  1.0
  C  C138  1  0.01640179  0.73823650  0.25949916  1.0
  C  C139  1  0.00956254  0.70039263  0.29521198  1.0
  C  C140  1  0.04381942  0.67240263  0.30810793  1.0
  C  C141  1  0.04024631  0.63663975  0.34286827  1.0
  C  C142  1  0.00216427  0.62776857  0.36604074  1.0
  C  C143  1  0.96712354  0.65483948  0.35307252  1.0
  C  C144  1  0.97056003  0.69032289  0.31815188  1.0
  C  C145  1  0.00041857  0.59117036  0.40505165  1.0
  C  C146  1  0.96306336  0.83719932  0.19874450  1.0
  C  C147  1  0.96618529  0.87330558  0.16428647  1.0
  C  C148  1  0.81975605  0.91297058  0.91688064  1.0
  C  C149  1  0.74411727  0.87210919  0.88003534  1.0
  C  C150  1  0.70607529  0.86952419  0.82160864  1.0
  C  C151  1  0.63549270  0.83274860  0.78760838  1.0
  C  C152  1  0.60046594  0.79669673  0.81062695  1.0
  C  C153  1  0.52655208  0.75846267  0.77774245  1.0
  C  C154  1  0.48120402  0.75467645  0.72371928  1.0
  C  C155  1  0.40735305  0.71689218  0.69197953  1.0
  C  C156  1  0.36699013  0.71286085  0.63321256  1.0
  C  C157  1  0.29626405  0.67623504  0.60050345  1.0
  C  C158  1  0.26368199  0.64303861  0.62603436  1.0
  C  C159  1  0.30317435  0.64759730  0.68493158  1.0
  C  C160  1  0.37371892  0.68374373  0.71726186  1.0
  C  C161  1  0.18811105  0.60295109  0.59096578  1.0
  C  C162  1  0.63943785  0.79861920  0.86882783  1.0
  C  C163  1  0.71012166  0.83609833  0.90331557  1.0
  O  O164  1  0.00501853  0.00804848  0.00643707  1.0
  O  O165  1  0.15701384  0.04108858  0.08918834  1.0
  O  O166  1  0.15833588  0.12303289  0.07715275  1.0
  O  O167  1  0.85192988  0.47544281  0.42335599  1.0
  O  O168  1  0.84853517  0.39185282  0.42956779  1.0
  O  O169  1  0.96851567  0.04115082  0.88703815  1.0
  O  O170  1  0.04100827  0.12434995  0.96542901  1.0
  O  O171  1  0.04175200  0.47262913  0.62240875  1.0
  O  O172  1  0.96381378  0.38926061  0.54342198  1.0
  O  O173  1  0.94794004  0.04570021  0.06515258  1.0
  O  O174  1  0.04420798  0.12624293  0.08093287  1.0
  O  O175  1  0.06399770  0.46969548  0.45071760  1.0
  O  O176  1  0.96482421  0.38814024  0.42902139  1.0
  O  O177  1  0.95230925  0.92013926  0.89093175  1.0
  O  O178  1  0.04479170  0.92772223  0.96903687  1.0
  O  O179  1  0.05888164  0.59510643  0.62015812  1.0
  O  O180  1  0.96701271  0.58875659  0.54258208  1.0
  O  O181  1  0.97378785  0.94420672  0.09462090  1.0
  O  O182  1  0.03803537  0.92464487  0.07961658  1.0
  O  O183  1  0.03016266  0.56518373  0.41175956  1.0
  O  O184  1  0.97006499  0.58889194  0.42916923  1.0
  O  O185  1  0.85075023  0.91866130  0.97147519  1.0
  O  O186  1  0.84806428  0.93952529  0.89119490  1.0
  O  O187  1  0.15552884  0.59841956  0.53675651  1.0
  O  O188  1  0.16120881  0.57569646  0.61734275  1.0
  O  O189  1  0.00243152  0.50574756  0.50366470  1.0
