# generated using pymatgen
data_Zn4H18C36O13
_symmetry_space_group_name_H-M   'P 1'
_cell_length_a   15.11314122
_cell_length_b   20.14422661
_cell_length_c   22.51591151
_cell_angle_alpha   90.56947795
_cell_angle_beta   90.43608232
_cell_angle_gamma   90.52682525
_symmetry_Int_Tables_number   1
_chemical_formula_structural   Zn4H18C36O13
_chemical_formula_sum   'Zn8 H36 C72 O26'
_cell_volume   6853.96962676
_cell_formula_units_Z   2
loop_
 _symmetry_equiv_pos_site_id
 _symmetry_equiv_pos_as_xyz
  1  'x, y, z'
loop_
 _atom_site_type_symbol
 _atom_site_label
 _atom_site_symmetry_multiplicity
 _atom_site_fract_x
 _atom_site_fract_y
 _atom_site_fract_z
 _atom_site_occupancy
  Zn  Zn0  1  0.43443310  0.58368158  0.00270176  1.0
  Zn  Zn1  1  0.43503174  0.08116679  0.49382821  1.0
  Zn  Zn2  1  0.41630201  0.42437805  0.00033555  1.0
  Zn  Zn3  1  0.41964114  0.92193554  0.49993432  1.0
  Zn  Zn4  1  0.57838218  0.49269977  0.06790715  1.0
  Zn  Zn5  1  0.57141125  0.50017575  0.92750865  1.0
  Zn  Zn6  1  0.56795710  0.99331257  0.57479625  1.0
  Zn  Zn7  1  0.58330691  0.99690683  0.43289662  1.0
  H  H8  1  0.60489885  0.34201619  0.19215035  1.0
  H  H9  1  0.55118839  0.34943072  0.66969755  1.0
  H  H10  1  0.54228208  0.85027714  0.83105680  1.0
  H  H11  1  0.68545199  0.76643595  0.23363583  1.0
  H  H12  1  0.44687837  0.64777573  0.67170085  1.0
  H  H13  1  0.32124804  0.73539674  0.26265674  1.0
  H  H14  1  0.31451576  0.23319651  0.23444619  1.0
  H  H15  1  0.44994098  0.15070004  0.82651079  1.0
  H  H16  1  0.53814055  0.76309298  0.90893648  1.0
  H  H17  1  0.67116589  0.67832537  0.15532145  1.0
  H  H18  1  0.66666667  0.18163818  0.34341559  1.0
  H  H19  1  0.53773583  0.38273887  0.77642396  1.0
  H  H20  1  0.54312117  0.26154154  0.59105527  1.0
  H  H21  1  0.47783160  0.61390120  0.77632106  1.0
  H  H22  1  0.38925875  0.67126136  0.17954095  1.0
  H  H23  1  0.38465730  0.17005305  0.31725512  1.0
  H  H24  1  0.48162996  0.11479722  0.72241980  1.0
  H  H25  1  0.14472223  0.42971559  0.02801582  1.0
  H  H26  1  0.14679103  0.92323167  0.54919719  1.0
  H  H27  1  0.16807852  0.61561833  0.93718152  1.0
  H  H28  1  0.16837344  0.10566599  0.45279118  1.0
  H  H29  1  0.00410217  0.62092809  0.92597914  1.0
  H  H30  1  0.52457798  0.88212236  0.72501727  1.0
  H  H31  1  0.00401994  0.11027850  0.44221882  1.0
  H  H32  1  0.32837829  0.31437827  0.15214409  1.0
  H  H33  1  0.44628411  0.24046814  0.90357735  1.0
  H  H34  1  0.44185094  0.73625933  0.59508394  1.0
  H  H35  1  0.33764256  0.81675616  0.34634616  1.0
  H  H36  1  0.99640390  0.38585376  0.05442575  1.0
  H  H37  1  0.99733575  0.88022735  0.57766932  1.0
  H  H38  1  0.61528755  0.83820217  0.31052387  1.0
  H  H39  1  0.83203494  0.39522627  0.05021786  1.0
  H  H40  1  0.83317572  0.89053316  0.57474973  1.0
  H  H41  1  0.85417522  0.56995086  0.94275522  1.0
  H  H42  1  0.85573183  0.06056323  0.46143701  1.0
  H  H43  1  0.67752697  0.27078175  0.26766782  1.0
  C  C44  1  0.49464022  0.36991369  0.89061558  1.0
  C  C45  1  0.51539589  0.28312311  0.74104803  1.0
  C  C46  1  0.50715468  0.78242279  0.75910076  1.0
  C  C47  1  0.54546233  0.76663407  0.25405480  1.0
  C  C48  1  0.54206190  0.31738360  0.20149940  1.0
  C  C49  1  0.51759586  0.33200373  0.78655931  1.0
  C  C50  1  0.50697199  0.83082202  0.71416186  1.0
  C  C51  1  0.55159750  0.81501978  0.29986272  1.0
  C  C52  1  0.38537273  0.30165771  0.17951246  1.0
  C  C53  1  0.46656974  0.25092706  0.85826578  1.0
  C  C54  1  0.46069203  0.74777942  0.64085361  1.0
  C  C55  1  0.47646163  0.38180053  0.11892929  1.0
  C  C56  1  0.39417710  0.80267002  0.31942404  1.0
  C  C57  1  0.37812434  0.25660092  0.22479510  1.0
  C  C58  1  0.46824109  0.20164162  0.81551098  1.0
  C  C59  1  0.46326527  0.69916442  0.68335893  1.0
  C  C60  1  0.38558984  0.75760009  0.27342033  1.0
  C  C61  1  0.16540456  0.52122855  0.98244572  1.0
  C  C62  1  0.16628621  0.01335702  0.50120831  1.0
  C  C63  1  0.83435075  0.48295248  0.99529630  1.0
  C  C64  1  0.83559414  0.97631405  0.51724092  1.0
  C  C65  1  0.96506684  0.42646876  0.03071401  1.0
  C  C66  1  0.48642405  0.88133317  0.38233757  1.0
  C  C67  1  0.96616380  0.92038232  0.55327422  1.0
  C  C68  1  0.87447323  0.43116569  0.02808505  1.0
  C  C69  1  0.87541412  0.92563483  0.55137264  1.0
  C  C70  1  0.88599414  0.53037132  0.96756440  1.0
  C  C71  1  0.88741792  0.02210929  0.48765767  1.0
  C  C72  1  0.52028453  0.61996074  0.11450186  1.0
  C  C73  1  0.50904424  0.63084162  0.89244919  1.0
  C  C74  1  0.51265072  0.12941416  0.60649980  1.0
  C  C75  1  0.51789513  0.12072133  0.38239936  1.0
  C  C76  1  0.97950352  0.52895989  0.97258877  1.0
  C  C77  1  0.48442738  0.86734917  0.61038159  1.0
  C  C78  1  0.98070222  0.02052475  0.49219543  1.0
  C  C79  1  0.01988346  0.47491079  0.00350038  1.0
  C  C80  1  0.02122332  0.96748010  0.52438508  1.0
  C  C81  1  0.11312563  0.47155233  0.00629384  1.0
  C  C82  1  0.11466242  0.96428549  0.52665061  1.0
  C  C83  1  0.12556573  0.57641521  0.95441832  1.0
  C  C84  1  0.12600011  0.06731045  0.47155858  1.0
  C  C85  1  0.03488132  0.57932798  0.94865515  1.0
  C  C86  1  0.03541399  0.06986083  0.46615510  1.0
  C  C87  1  0.26368620  0.51619437  0.98729863  1.0
  C  C88  1  0.48657654  0.71476045  0.74322382  1.0
  C  C89  1  0.26472951  0.00972813  0.50445628  1.0
  C  C90  1  0.73584219  0.48691605  0.99381025  1.0
  C  C91  1  0.73730396  0.98157281  0.51290780  1.0
  C  C92  1  0.46795237  0.33313196  0.16816572  1.0
  C  C93  1  0.49325785  0.31661381  0.84402995  1.0
  C  C94  1  0.48395914  0.81429028  0.65615405  1.0
  C  C95  1  0.47782704  0.83245094  0.33237570  1.0
  C  C96  1  0.50837302  0.68341607  0.84632754  1.0
  C  C97  1  0.52867457  0.67070021  0.16289783  1.0
  C  C98  1  0.52420260  0.17162336  0.33490239  1.0
  C  C99  1  0.46030574  0.73826174  0.23962380  1.0
  C  C100  1  0.51303289  0.18284910  0.65297507  1.0
  C  C101  1  0.52665326  0.79872820  0.81940728  1.0
  C  C102  1  0.62097337  0.74476205  0.22238084  1.0
  C  C103  1  0.61381503  0.24787202  0.27796446  1.0
  C  C104  1  0.53445979  0.29827503  0.68091950  1.0
  C  C105  1  0.52515494  0.75071244  0.86243764  1.0
  C  C106  1  0.61335759  0.69659992  0.17882943  1.0
  C  C107  1  0.60797384  0.19911575  0.32018053  1.0
  C  C108  1  0.53085401  0.24976787  0.63744497  1.0
  C  C109  1  0.49034457  0.66591265  0.78781568  1.0
  C  C110  1  0.45339037  0.23860389  0.25910544  1.0
  C  C111  1  0.45374229  0.69173347  0.19234870  1.0
  C  C112  1  0.44851801  0.19164750  0.30534006  1.0
  C  C113  1  0.49521319  0.16643481  0.71124636  1.0
  C  C114  1  0.49266478  0.21599962  0.75613126  1.0
  C  C115  1  0.53753085  0.26868704  0.24617289  1.0
  O  O116  1  0.49892203  0.49969388  0.99924411  1.0
  O  O117  1  0.44935082  0.12218706  0.41516150  1.0
  O  O118  1  0.29476804  0.45813502  0.99477214  1.0
  O  O119  1  0.29839487  0.95289746  0.51433262  1.0
  O  O120  1  0.69633868  0.46638437  0.04024597  1.0
  O  O121  1  0.69868183  0.51014892  0.94732148  1.0
  O  O122  1  0.69315952  0.97167284  0.56029913  1.0
  O  O123  1  0.70616416  0.99628608  0.46198311  1.0
  O  O124  1  0.41908510  0.37781585  0.07706590  1.0
  O  O125  1  0.44486062  0.36155678  0.93570490  1.0
  O  O126  1  0.44789772  0.85441058  0.56001975  1.0
  O  O127  1  0.50147578  0.99832923  0.50001988  1.0
  O  O128  1  0.42375367  0.88162014  0.42010599  1.0
  O  O129  1  0.53439825  0.57332503  0.87585202  1.0
  O  O130  1  0.58526873  0.58038793  0.10770104  1.0
  O  O131  1  0.58170068  0.07981452  0.38656041  1.0
  O  O132  1  0.54622931  0.07413149  0.62167313  1.0
  O  O133  1  0.30827645  0.57030891  0.98377614  1.0
  O  O134  1  0.30714431  0.06412766  0.49681922  1.0
  O  O135  1  0.54568088  0.41947915  0.88109873  1.0
  O  O136  1  0.54118984  0.42298925  0.12257914  1.0
  O  O137  1  0.55562035  0.91843847  0.38340413  1.0
  O  O138  1  0.52150672  0.92232126  0.62523863  1.0
  O  O139  1  0.44873982  0.61995297  0.08382329  1.0
  O  O140  1  0.48379481  0.64714236  0.94466753  1.0
  O  O141  1  0.47874330  0.14345416  0.55601117  1.0
