# generated using pymatgen
data_Zn4H30C33O13
_symmetry_space_group_name_H-M   'P 1'
_cell_length_a   16.10865769
_cell_length_b   16.24468272
_cell_length_c   16.29428321
_cell_angle_alpha   118.33155559
_cell_angle_beta   118.57712046
_cell_angle_gamma   90.65485808
_symmetry_Int_Tables_number   1
_chemical_formula_structural   Zn4H30C33O13
_chemical_formula_sum   'Zn8 H60 C66 O26'
_cell_volume   3135.19187397
_cell_formula_units_Z   2
loop_
 _symmetry_equiv_pos_site_id
 _symmetry_equiv_pos_as_xyz
  1  'x, y, z'
loop_
 _atom_site_type_symbol
 _atom_site_label
 _atom_site_symmetry_multiplicity
 _atom_site_fract_x
 _atom_site_fract_y
 _atom_site_fract_z
 _atom_site_occupancy
  Zn  Zn0  1  0.06241954  0.01035070  0.11760873  1.0
  Zn  Zn1  1  0.00631246  0.18294509  0.08764995  1.0
  Zn  Zn2  1  0.85389647  0.96989527  0.90334377  1.0
  Zn  Zn3  1  0.06180227  0.02352823  0.92687528  1.0
  Zn  Zn4  1  0.47075768  0.61256363  0.92003340  1.0
  Zn  Zn5  1  0.42378396  0.40655827  0.89627222  1.0
  Zn  Zn6  1  0.45591366  0.61052026  0.10917083  1.0
  Zn  Zn7  1  0.63506197  0.56150467  0.08198630  1.0
  H  H8  1  0.04343432  0.23323506  0.40467833  1.0
  H  H9  1  0.08437722  0.33400207  0.40127404  1.0
  H  H10  1  0.25869363  0.31450469  0.48617151  1.0
  H  H11  1  0.20111030  0.44516741  0.58344339  1.0
  H  H12  1  0.16074315  0.37252413  0.61850657  1.0
  H  H13  1  0.13161021  0.22213585  0.58496015  1.0
  H  H14  1  0.14966579  0.07574597  0.59447117  1.0
  H  H15  1  0.24487824  0.97538931  0.52602552  1.0
  H  H16  1  0.32237281  0.02429768  0.44876204  1.0
  H  H17  1  0.30652423  0.17285058  0.44207603  1.0
  H  H18  1  0.91870359  0.68794142  0.94158215  1.0
  H  H19  1  0.80578888  0.68316816  0.83362951  1.0
  H  H20  1  0.76018409  0.76464378  0.97970499  1.0
  H  H21  1  0.67817128  0.59638260  0.81522619  1.0
  H  H22  1  0.76348675  0.55149803  0.89082803  1.0
  H  H23  1  0.88991590  0.59410695  0.05107163  1.0
  H  H24  1  0.01088157  0.64362824  0.24408281  1.0
  H  H25  1  0.07018480  0.81847541  0.40166214  1.0
  H  H26  1  0.00490626  0.94233463  0.36205741  1.0
  H  H27  1  0.87928048  0.89162570  0.16818108  1.0
  H  H28  1  0.38113571  0.04155143  0.22747611  1.0
  H  H29  1  0.36840829  0.01875278  0.10223950  1.0
  H  H30  1  0.28004714  0.84042932  0.00682610  1.0
  H  H31  1  0.45677984  0.91129543  0.08474044  1.0
  H  H32  1  0.49232881  0.92689921  0.21415500  1.0
  H  H33  1  0.44045122  0.90654290  0.30388062  1.0
  H  H34  1  0.37591747  0.86016592  0.39034180  1.0
  H  H35  1  0.19358960  0.78367869  0.29119635  1.0
  H  H36  1  0.07905852  0.74695454  0.10070042  1.0
  H  H37  1  0.14412845  0.78935395  0.01054193  1.0
  H  H38  1  0.74349036  0.18281881  0.12636640  1.0
  H  H39  1  0.64864456  0.10646660  0.98055665  1.0
  H  H40  1  0.69069216  0.23868629  0.95628304  1.0
  H  H41  1  0.55858767  0.21467966  0.99154698  1.0
  H  H42  1  0.64244633  0.30994858  0.13480954  1.0
  H  H43  1  0.80075127  0.37755816  0.26838934  1.0
  H  H44  1  0.96674141  0.50159818  0.40816871  1.0
  H  H45  1  0.07208305  0.53547126  0.34788484  1.0
  H  H46  1  0.00717587  0.44635668  0.14577274  1.0
  H  H47  1  0.83925746  0.32405416  0.00517662  1.0
  H  H48  1  0.00871355  0.32578617  0.91573426  1.0
  H  H49  1  0.03411297  0.23094903  0.82303289  1.0
  H  H50  1  0.21326217  0.29831036  0.97547187  1.0
  H  H51  1  0.13345204  0.33903097  0.82929694  1.0
  H  H52  1  0.13503807  0.45313364  0.92963160  1.0
  H  H53  1  0.12646664  0.52237920  0.07102639  1.0
  H  H54  1  0.17722824  0.63301798  0.26547088  1.0
  H  H55  1  0.28175124  0.59616382  0.40851354  1.0
  H  H56  1  0.33538303  0.44591327  0.35285161  1.0
  H  H57  1  0.28484529  0.33436755  0.15641685  1.0
  H  H58  1  0.81347095  0.71353838  0.61037774  1.0
  H  H59  1  0.89887779  0.75864283  0.59024112  1.0
  H  H60  1  0.77671970  0.82617581  0.49620864  1.0
  H  H61  1  0.79505805  0.65923103  0.40335187  1.0
  H  H62  1  0.69606568  0.60844295  0.40267245  1.0
  H  H63  1  0.61374072  0.64121350  0.48030371  1.0
  H  H64  1  0.47723622  0.67318097  0.50789179  1.0
  H  H65  1  0.44725567  0.83562494  0.55961920  1.0
  H  H66  1  0.55422322  0.96462023  0.57918776  1.0
  H  H67  1  0.69059125  0.93164662  0.54932079  1.0
  C  C68  1  0.08778299  0.19764718  0.29039088  1.0
  C  C69  1  0.09865767  0.26752402  0.39978348  1.0
  C  C70  1  0.20400246  0.29527290  0.50154612  1.0
  C  C71  1  0.21641058  0.38880920  0.60280129  1.0
  C  C72  1  0.31620800  0.43453799  0.71249604  1.0
  C  C73  1  0.21833668  0.20841735  0.51324046  1.0
  C  C74  1  0.17384260  0.17923677  0.55496477  1.0
  C  C75  1  0.18390732  0.09656409  0.56048945  1.0
  C  C76  1  0.23782311  0.04067467  0.52283614  1.0
  C  C77  1  0.28184754  0.06846967  0.48035503  1.0
  C  C78  1  0.27236193  0.15200593  0.47619247  1.0
  C  C79  1  0.89927594  0.82814754  0.96916573  1.0
  C  C80  1  0.85859684  0.72120100  0.92435309  1.0
  C  C81  1  0.80284771  0.71195912  0.97665025  1.0
  C  C82  1  0.72641905  0.60850538  0.89802525  1.0
  C  C83  1  0.66265186  0.60133138  0.94004096  1.0
  C  C84  1  0.87584624  0.73950848  0.09512382  1.0
  C  C85  1  0.91498087  0.67096208  0.11836769  1.0
  C  C86  1  0.98384665  0.69890736  0.22789483  1.0
  C  C87  1  0.01628748  0.79650068  0.31602981  1.0
  C  C88  1  0.97891438  0.86573447  0.29401223  1.0
  C  C89  1  0.90867647  0.83705390  0.18451742  1.0
  C  C90  1  0.23272492  0.00675989  0.09458498  1.0
  C  C91  1  0.33538933  0.99503181  0.13585717  1.0
  C  C92  1  0.33299169  0.88667749  0.09811713  1.0
  C  C93  1  0.43762279  0.88146100  0.12350680  1.0
  C  C94  1  0.44565991  0.77824852  0.07990614  1.0
  C  C95  1  0.29680123  0.85252958  0.15082949  1.0
  C  C96  1  0.36078569  0.87211386  0.25827869  1.0
  C  C97  1  0.32439634  0.84599380  0.30773135  1.0
  C  C98  1  0.22289519  0.80121007  0.25143904  1.0
  C  C99  1  0.15850795  0.78027422  0.14415458  1.0
  C  C100  1  0.19551932  0.80500670  0.09413567  1.0
  C  C101  1  0.79738479  0.12670050  0.02027078  1.0
  C  C102  1  0.72054178  0.16449437  0.04279395  1.0
  C  C103  1  0.71047297  0.25805649  0.03941339  1.0
  C  C104  1  0.62198077  0.28198553  0.04940796  1.0
  C  C105  1  0.58992747  0.35793679  0.02278215  1.0
  C  C106  1  0.80772129  0.34159965  0.12615511  1.0
  C  C107  1  0.84501297  0.39277723  0.24034518  1.0
  C  C108  1  0.93894970  0.46271770  0.31963823  1.0
  C  C109  1  0.99779660  0.48236811  0.28608527  1.0
  C  C110  1  0.96114321  0.43281466  0.17264747  1.0
  C  C111  1  0.86655998  0.36377252  0.09368596  1.0
  C  C112  1  0.05210683  0.21768794  0.95395225  1.0
  C  C113  1  0.05820523  0.28038659  0.91063800  1.0
  C  C114  1  0.16618367  0.34693361  0.97815125  1.0
  C  C115  1  0.17157123  0.39569584  0.91871377  1.0
  C  C116  1  0.27800374  0.43938815  0.96100711  1.0
  C  C117  1  0.20154220  0.41953024  0.09917257  1.0
  C  C118  1  0.17182396  0.50416870  0.13173585  1.0
  C  C119  1  0.20060775  0.56727465  0.24215911  1.0
  C  C120  1  0.25938667  0.54668930  0.32220519  1.0
  C  C121  1  0.28966823  0.46281615  0.29106735  1.0
  C  C122  1  0.26109299  0.40002623  0.18045497  1.0
  C  C123  1  0.88275471  0.86725360  0.71739289  1.0
  C  C124  1  0.83910564  0.77260389  0.60455784  1.0
  C  C125  1  0.75054249  0.76801714  0.50289626  1.0
  C  C126  1  0.72617947  0.66750671  0.39994076  1.0
  C  C127  1  0.65287049  0.65280807  0.28840311  1.0
  C  C128  1  0.66285964  0.78458367  0.51373761  1.0
  C  C129  1  0.60170022  0.71272226  0.50243492  1.0
  C  C130  1  0.52452631  0.73062903  0.51835081  1.0
  C  C131  1  0.50728422  0.82139275  0.54651287  1.0
  C  C132  1  0.56707508  0.89343981  0.55716068  1.0
  C  C133  1  0.64370298  0.87465435  0.54010115  1.0
  O  O134  1  0.99524736  0.04348387  0.00455310  1.0
  O  O135  1  0.10674171  0.23626321  0.24608779  1.0
  O  O136  1  0.06229803  0.10566178  0.25028519  1.0
  O  O137  1  0.35367515  0.37839074  0.74417912  1.0
  O  O138  1  0.35336373  0.52755135  0.76604362  1.0
  O  O139  1  0.83514559  0.86758999  0.93219470  1.0
  O  O140  1  0.99235085  0.87061667  0.04130692  1.0
  O  O141  1  0.69084053  0.56663822  0.00150540  1.0
  O  O142  1  0.58852698  0.63360716  0.91383055  1.0
  O  O143  1  0.18622633  0.99545756  0.99868645  1.0
  O  O144  1  0.20058919  0.02482162  0.15719018  1.0
  O  O145  1  0.45246696  0.74165822  0.13586322  1.0
  O  O146  1  0.44454488  0.73685357  0.99007497  1.0
  O  O147  1  0.76582675  0.04755625  0.92571408  1.0
  O  O148  1  0.88775154  0.17781463  0.09664035  1.0
  O  O149  1  0.64717542  0.44613218  0.09461889  1.0
  O  O150  1  0.50839384  0.32684640  0.92948670  1.0
  O  O151  1  0.08707670  0.14590811  0.93032131  1.0
  O  O152  1  0.01459532  0.24373768  0.01276202  1.0
  O  O153  1  0.32134935  0.52984493  0.03994739  1.0
  O  O154  1  0.31513901  0.37992033  0.91394700  1.0
  O  O155  1  0.97428201  0.91374690  0.76923640  1.0
  O  O156  1  0.82537565  0.89125839  0.75186314  1.0
  O  O157  1  0.56061069  0.62767145  0.25086782  1.0
  O  O158  1  0.68912551  0.66545191  0.23886182  1.0
  O  O159  1  0.49314204  0.54750447  0.99994390  1.0
