# generated using pymatgen
data_AlH6C13Cl2O5
_symmetry_space_group_name_H-M   'P 1'
_cell_length_a   6.56599334
_cell_length_b   11.02119450
_cell_length_c   15.18231153
_cell_angle_alpha   91.41669959
_cell_angle_beta   101.10203067
_cell_angle_gamma   105.61607483
_symmetry_Int_Tables_number   1
_chemical_formula_structural   AlH6C13Cl2O5
_chemical_formula_sum   'Al2 H12 C26 Cl4 O10'
_cell_volume   1034.90004230
_cell_formula_units_Z   2
loop_
 _symmetry_equiv_pos_site_id
 _symmetry_equiv_pos_as_xyz
  1  'x, y, z'
loop_
 _atom_site_type_symbol
 _atom_site_label
 _atom_site_symmetry_multiplicity
 _atom_site_fract_x
 _atom_site_fract_y
 _atom_site_fract_z
 _atom_site_occupancy
  Al  Al0  1  0.99987966  0.50428099  0.50044213  1.0
  Al  Al1  1  0.50145946  0.50768905  0.50132334  1.0
  H  H2  1  0.34206887  0.65744116  0.56026846  1.0
  H  H3  1  0.64653361  0.35242637  0.44690484  1.0
  H  H4  1  0.54345367  0.40168866  0.77028589  1.0
  H  H5  1  0.63541342  0.38537749  0.93393360  1.0
  H  H6  1  0.46400852  0.55284245  0.22596471  1.0
  H  H7  1  0.37689197  0.54750975  0.06059851  1.0
  H  H8  1  0.78754348  0.42708207  0.23050572  1.0
  H  H9  1  0.69576476  0.42217961  0.06532560  1.0
  H  H10  1  0.20820845  0.58977212  0.77104588  1.0
  H  H11  1  0.30041307  0.58680916  0.93578498  1.0
  H  H12  1  0.54013842  0.77031618  0.38191287  1.0
  H  H13  1  0.81059564  0.23732398  0.37924079  1.0
  C  C14  1  0.86221997  0.73058232  0.49308752  1.0
  C  C15  1  0.81494771  0.50709237  0.66174928  1.0
  C  C16  1  0.14297550  0.28027516  0.50581096  1.0
  C  C17  1  0.18538555  0.49663465  0.33871802  1.0
  C  C18  1  0.86966708  0.49788688  0.76053330  1.0
  C  C19  1  0.13157984  0.49128584  0.23888946  1.0
  C  C20  1  0.70932785  0.44086527  0.80744255  1.0
  C  C21  1  0.76245371  0.43359066  0.89992374  1.0
  C  C22  1  0.29601481  0.52426818  0.18980509  1.0
  C  C23  1  0.24498531  0.52126556  0.09651678  1.0
  C  C24  1  0.91543510  0.45361478  0.19240038  1.0
  C  C25  1  0.86553186  0.45083577  0.09905935  1.0
  C  C26  1  0.08352263  0.54707102  0.80799345  1.0
  C  C27  1  0.13415651  0.54328859  0.90082550  1.0
  C  C28  1  0.97508464  0.48671742  0.94934178  1.0
  C  C29  1  0.02863874  0.48549187  0.04855119  1.0
  C  C30  1  0.93360385  0.87208472  0.49503506  1.0
  C  C31  1  0.80248674  0.93721333  0.43994784  1.0
  C  C32  1  0.12786536  0.93912790  0.55033222  1.0
  C  C33  1  0.60128930  0.87262928  0.38347845  1.0
  C  C34  1  0.47668456  0.93777970  0.33131260  1.0
  C  C35  1  0.07521558  0.13860147  0.50000727  1.0
  C  C36  1  0.19907520  0.07343378  0.55330732  1.0
  C  C37  1  0.87683991  0.07203748  0.44126650  1.0
  C  C38  1  0.75118248  0.13585715  0.38338259  1.0
  C  C39  1  0.55393367  0.07143248  0.33061265  1.0
  Cl  Cl40  1  0.43403183  0.15338426  0.62667485  1.0
  Cl  Cl41  1  0.28159120  0.86339678  0.62208061  1.0
  Cl  Cl42  1  0.22882790  0.85619811  0.26723300  1.0
  Cl  Cl43  1  0.40313259  0.15460677  0.26484208  1.0
  O  O44  1  0.98980337  0.67213438  0.47187873  1.0
  O  O45  1  0.61593604  0.48577335  0.62443304  1.0
  O  O46  1  0.32383806  0.33450272  0.48694443  1.0
  O  O47  1  0.02751435  0.46708363  0.37935832  1.0
  O  O48  1  0.00965355  0.33506111  0.52670400  1.0
  O  O49  1  0.38493020  0.52871189  0.37735495  1.0
  O  O50  1  0.68034068  0.68023277  0.51304939  1.0
  O  O51  1  0.97248654  0.53785195  0.62119271  1.0
  O  O52  1  0.29512199  0.56831415  0.53962447  1.0
  O  O53  1  0.70358620  0.44299398  0.46135958  1.0
