# generated using pymatgen
data_Nd2Cu3H24(C4O5)6
_symmetry_space_group_name_H-M   'P 1'
_cell_length_a   14.52664659
_cell_length_b   15.03480763
_cell_length_c   15.03473965
_cell_angle_alpha   60.00016958
_cell_angle_beta   89.99995025
_cell_angle_gamma   89.99986812
_symmetry_Int_Tables_number   1
_chemical_formula_structural   Nd2Cu3H24(C4O5)6
_chemical_formula_sum   'Nd4 Cu6 H48 C48 O60'
_cell_volume   2843.74422881
_cell_formula_units_Z   2
loop_
 _symmetry_equiv_pos_site_id
 _symmetry_equiv_pos_as_xyz
  1  'x, y, z'
loop_
 _atom_site_type_symbol
 _atom_site_label
 _atom_site_symmetry_multiplicity
 _atom_site_fract_x
 _atom_site_fract_y
 _atom_site_fract_z
 _atom_site_occupancy
  Nd  Nd0  1  0.24999979  0.33333333  0.33333333  1.0
  Nd  Nd1  1  0.25000112  0.66666667  0.66666667  1.0
  Nd  Nd2  1  0.75000089  0.66666667  0.66666667  1.0
  Nd  Nd3  1  0.74999887  0.33333333  0.33333333  1.0
  Cu  Cu4  1  0.99999963  0.50000043  0.49999886  1.0
  Cu  Cu5  1  0.00000054  0.49999956  0.00000061  1.0
  Cu  Cu6  1  0.00000022  0.00000066  0.49999966  1.0
  Cu  Cu7  1  0.49999968  0.50000040  0.99999984  1.0
  Cu  Cu8  1  0.50000059  0.50000030  0.49999988  1.0
  Cu  Cu9  1  0.50000000  0.00000083  0.49999936  1.0
  H  H10  1  0.84595807  0.84753990  0.79547988  1.0
  H  H11  1  0.75344390  0.92054768  0.71113750  1.0
  H  H12  1  0.84595833  0.79547979  0.35697977  1.0
  H  H13  1  0.75344361  0.71113781  0.36831221  1.0
  H  H14  1  0.84595795  0.35697908  0.84754171  1.0
  H  H15  1  0.75344377  0.36831360  0.92055028  1.0
  H  H16  1  0.84595866  0.15246016  0.20452002  1.0
  H  H17  1  0.75344390  0.07945184  0.28886208  1.0
  H  H18  1  0.84595909  0.20452105  0.64301974  1.0
  H  H19  1  0.75344419  0.28886324  0.63168661  1.0
  H  H20  1  0.84595810  0.64301868  0.15246001  1.0
  H  H21  1  0.75344334  0.63168592  0.07945064  1.0
  H  H22  1  0.65404150  0.15246048  0.64301972  1.0
  H  H23  1  0.74655640  0.07945191  0.63168608  1.0
  H  H24  1  0.65404166  0.20452041  0.15245960  1.0
  H  H25  1  0.74655571  0.28886237  0.07945068  1.0
  H  H26  1  0.65404180  0.64301969  0.20452101  1.0
  H  H27  1  0.74655659  0.63168673  0.28886324  1.0
  H  H28  1  0.65404199  0.84754004  0.35698011  1.0
  H  H29  1  0.74655602  0.92054762  0.36831550  1.0
  H  H30  1  0.65404114  0.79547935  0.84753928  1.0
  H  H31  1  0.74655533  0.71113716  0.92054890  1.0
  H  H32  1  0.65404238  0.35698007  0.79547920  1.0
  H  H33  1  0.74655652  0.36831356  0.71113663  1.0
  H  H34  1  0.15404192  0.15245946  0.20452066  1.0
  H  H35  1  0.24655678  0.07945168  0.28886238  1.0
  H  H36  1  0.15404166  0.20452035  0.64301972  1.0
  H  H37  1  0.24655638  0.28886308  0.63168757  1.0
  H  H38  1  0.15404205  0.64302028  0.15245950  1.0
  H  H39  1  0.24655622  0.63168653  0.07945055  1.0
  H  H40  1  0.15404202  0.84753996  0.79548014  1.0
  H  H41  1  0.24655541  0.92054830  0.71113674  1.0
  H  H42  1  0.15404159  0.79547908  0.35698042  1.0
  H  H43  1  0.24655512  0.71113689  0.36831288  1.0
  H  H44  1  0.15404189  0.35698145  0.84754015  1.0
  H  H45  1  0.24655666  0.36831421  0.92054952  1.0
  H  H46  1  0.34595850  0.84753965  0.35698044  1.0
  H  H47  1  0.25344359  0.92054822  0.36831408  1.0
  H  H48  1  0.34595834  0.79547972  0.84753989  1.0
  H  H49  1  0.25344428  0.71113776  0.92054881  1.0
  H  H50  1  0.34595820  0.35697967  0.79547886  1.0
  H  H51  1  0.25344341  0.36831339  0.71113692  1.0
  H  H52  1  0.34595869  0.15246009  0.64302004  1.0
  H  H53  1  0.25344397  0.07945251  0.63168532  1.0
  H  H54  1  0.34595816  0.20452002  0.15245993  1.0
  H  H55  1  0.25344397  0.28886219  0.07944965  1.0
  H  H56  1  0.34595831  0.64301852  0.20452239  1.0
  H  H57  1  0.25344347  0.63168503  0.28886430  1.0
  C  C58  1  0.36018358  0.35883917  0.12379472  1.0
  C  C59  1  0.69915624  0.73282370  0.85553711  1.0
  C  C60  1  0.36018161  0.12380149  0.51736021  1.0
  C  C61  1  0.69915560  0.85553659  0.41163931  1.0
  C  C62  1  0.36018259  0.51736329  0.35884076  1.0
  C  C63  1  0.69915667  0.41163823  0.73282392  1.0
  C  C64  1  0.36018271  0.64116052  0.87620178  1.0
  C  C65  1  0.69915592  0.26717671  0.14446141  1.0
  C  C66  1  0.36018261  0.87620051  0.48263846  1.0
  C  C67  1  0.69915587  0.14446306  0.58836159  1.0
  C  C68  1  0.36018370  0.48263334  0.64116060  1.0
  C  C69  1  0.69915617  0.58836218  0.26717659  1.0
  C  C70  1  0.13981682  0.64116071  0.48263593  1.0
  C  C71  1  0.80084402  0.26717591  0.58836237  1.0
  C  C72  1  0.13981578  0.87620388  0.64116107  1.0
  C  C73  1  0.80084362  0.14446287  0.26717550  1.0
  C  C74  1  0.13981890  0.48263826  0.87620121  1.0
  C  C75  1  0.80084315  0.58836127  0.14446254  1.0
  C  C76  1  0.13981595  0.35883951  0.51736581  1.0
  C  C77  1  0.80084336  0.73282426  0.41163751  1.0
  C  C78  1  0.13981768  0.12379712  0.35883896  1.0
  C  C79  1  0.80084376  0.85553653  0.73282410  1.0
  C  C80  1  0.13981732  0.51736197  0.12379853  1.0
  C  C81  1  0.80084423  0.41163737  0.85553944  1.0
  C  C82  1  0.63981711  0.64116096  0.87620144  1.0
  C  C83  1  0.30084376  0.26717643  0.14446172  1.0
  C  C84  1  0.63981769  0.87619941  0.48263956  1.0
  C  C85  1  0.30084371  0.14446277  0.58836124  1.0
  C  C86  1  0.63981740  0.48263607  0.64116045  1.0
  C  C87  1  0.30084401  0.58836036  0.26717767  1.0
  C  C88  1  0.63981659  0.35883883  0.12379544  1.0
  C  C89  1  0.30084408  0.73282418  0.85553770  1.0
  C  C90  1  0.63981807  0.12380116  0.51736026  1.0
  C  C91  1  0.30084413  0.85553630  0.41163895  1.0
  C  C92  1  0.63981699  0.51736525  0.35883966  1.0
  C  C93  1  0.30084382  0.41163794  0.73282291  1.0
  C  C94  1  0.86018317  0.35883942  0.51736289  1.0
  C  C95  1  0.19915597  0.73282345  0.41163817  1.0
  C  C96  1  0.86018352  0.12379625  0.35883909  1.0
  C  C97  1  0.19915568  0.85553726  0.73282399  1.0
  C  C98  1  0.86018178  0.51736187  0.12379894  1.0
  C  C99  1  0.19915685  0.41163962  0.85553724  1.0
  C  C100  1  0.86018335  0.64116061  0.48263435  1.0
  C  C101  1  0.19915595  0.26717664  0.58836226  1.0
  C  C102  1  0.86018369  0.87620532  0.64116071  1.0
  C  C103  1  0.19915624  0.14446283  0.26717577  1.0
  C  C104  1  0.86018199  0.48263893  0.87620124  1.0
  C  C105  1  0.19915645  0.58836277  0.14446204  1.0
  O  O106  1  0.35903114  0.39154979  0.18629213  1.0
  O  O107  1  0.40705399  0.39290526  0.04147952  1.0
  O  O108  1  0.35903059  0.18629117  0.42215950  1.0
  O  O109  1  0.40705555  0.04147925  0.56561487  1.0
  O  O110  1  0.35903033  0.42215762  0.39155007  1.0
  O  O111  1  0.40705432  0.56561313  0.39290639  1.0
  O  O112  1  0.35903179  0.60845221  0.81370787  1.0
  O  O113  1  0.40705451  0.60709356  0.95852137  1.0
  O  O114  1  0.35903166  0.81370852  0.57784033  1.0
  O  O115  1  0.40705502  0.95852033  0.43438564  1.0
  O  O116  1  0.35903192  0.57784055  0.60845052  1.0
  O  O117  1  0.40705419  0.43438414  0.60709461  1.0
  O  O118  1  0.14096850  0.60845166  0.57784117  1.0
  O  O119  1  0.09294578  0.60709383  0.43438525  1.0
  O  O120  1  0.14096893  0.81370573  0.60845026  1.0
  O  O121  1  0.09294528  0.95851844  0.60709473  1.0
  O  O122  1  0.14096980  0.57784163  0.81370803  1.0
  O  O123  1  0.09294575  0.43438613  0.95852118  1.0
  O  O124  1  0.14096832  0.39154934  0.42215952  1.0
  O  O125  1  0.09294547  0.39290574  0.56561553  1.0
  O  O126  1  0.14096927  0.18629297  0.39154958  1.0
  O  O127  1  0.09294666  0.04148112  0.39290539  1.0
  O  O128  1  0.14096839  0.42216244  0.18629046  1.0
  O  O129  1  0.09294550  0.56561575  0.04147844  1.0
  O  O130  1  0.64096885  0.60845188  0.81370659  1.0
  O  O131  1  0.59294532  0.60709410  0.95851969  1.0
  O  O132  1  0.64096802  0.81370819  0.57784104  1.0
  O  O133  1  0.59294376  0.95852088  0.43438529  1.0
  O  O134  1  0.64096898  0.57784022  0.60845123  1.0
  O  O135  1  0.59294568  0.43438546  0.60709387  1.0
  O  O136  1  0.64096820  0.39155022  0.18629180  1.0
  O  O137  1  0.59294548  0.39290581  0.04147917  1.0
  O  O138  1  0.64096903  0.18629160  0.42215983  1.0
  O  O139  1  0.59294429  0.04147903  0.56561490  1.0
  O  O140  1  0.64096876  0.42216035  0.39154925  1.0
  O  O141  1  0.59294650  0.56561598  0.39290755  1.0
  O  O142  1  0.85903081  0.39154847  0.42215965  1.0
  O  O143  1  0.90705422  0.39290630  0.56561424  1.0
  O  O144  1  0.85903107  0.18629287  0.39154933  1.0
  O  O145  1  0.90705402  0.04148168  0.39290410  1.0
  O  O146  1  0.85903019  0.42215927  0.18629174  1.0
  O  O147  1  0.90705493  0.56561476  0.04147926  1.0
  O  O148  1  0.85903098  0.60845079  0.57784064  1.0
  O  O149  1  0.90705452  0.60709516  0.43438358  1.0
  O  O150  1  0.85903141  0.81370563  0.60845001  1.0
  O  O151  1  0.90705334  0.95851823  0.60709449  1.0
  O  O152  1  0.85903229  0.57783769  0.81371103  1.0
  O  O153  1  0.90705518  0.43438285  0.95852514  1.0
  O  O154  1  0.75000005  0.76413798  0.76413870  1.0
  O  O155  1  0.74999949  0.76413791  0.47172263  1.0
  O  O156  1  0.75000039  0.47172168  0.76413942  1.0
  O  O157  1  0.74999972  0.23586155  0.23586088  1.0
  O  O158  1  0.74999959  0.23586161  0.52827762  1.0
  O  O159  1  0.75000006  0.52827708  0.23586188  1.0
  O  O160  1  0.24999995  0.23586138  0.23586051  1.0
  O  O161  1  0.25000051  0.23586221  0.52827753  1.0
  O  O162  1  0.25000029  0.52827769  0.23586112  1.0
  O  O163  1  0.25000027  0.76413858  0.76413861  1.0
  O  O164  1  0.25000040  0.76413776  0.47172225  1.0
  O  O165  1  0.24999993  0.47172228  0.76413866  1.0
