# generated using pymatgen
data_CuP2H27C35BrN
_symmetry_space_group_name_H-M   'P 1'
_cell_length_a   18.49429674
_cell_length_b   18.50278506
_cell_length_c   21.15497415
_cell_angle_alpha   89.98973026
_cell_angle_beta   90.00008586
_cell_angle_gamma   60.01515648
_symmetry_Int_Tables_number   1
_chemical_formula_structural   CuP2H27C35BrN
_chemical_formula_sum   'Cu6 P12 H162 C210 Br6 N6'
_cell_volume   6270.24275157
_cell_formula_units_Z   6
loop_
 _symmetry_equiv_pos_site_id
 _symmetry_equiv_pos_as_xyz
  1  'x, y, z'
loop_
 _atom_site_type_symbol
 _atom_site_label
 _atom_site_symmetry_multiplicity
 _atom_site_fract_x
 _atom_site_fract_y
 _atom_site_fract_z
 _atom_site_occupancy
  Cu  Cu0  1  0.33374536  0.50860020  0.98944351  1.0
  Cu  Cu1  1  0.50844927  0.15785032  0.32295551  1.0
  Cu  Cu2  1  0.15776669  0.33367426  0.65632126  1.0
  Cu  Cu3  1  0.84234590  0.49139746  0.01055796  1.0
  Cu  Cu4  1  0.66629151  0.84214832  0.67704879  1.0
  Cu  Cu5  1  0.49144013  0.66633096  0.34367797  1.0
  P  P6  1  0.34817834  0.38786934  0.02615706  1.0
  P  P7  1  0.52443324  0.14458657  0.21754069  1.0
  P  P8  1  0.38774780  0.26412649  0.35966046  1.0
  P  P9  1  0.14440736  0.33106144  0.55095333  1.0
  P  P10  1  0.26402954  0.34825271  0.69293332  1.0
  P  P11  1  0.33116123  0.52463485  0.88405758  1.0
  P  P12  1  0.73605031  0.61213142  0.97384198  1.0
  P  P13  1  0.66901883  0.85541336  0.78246079  1.0
  P  P14  1  0.65187880  0.73586897  0.64033572  1.0
  P  P15  1  0.47546851  0.66893987  0.44904683  1.0
  P  P16  1  0.61228015  0.65174686  0.30706794  1.0
  P  P17  1  0.85579880  0.47536469  0.11594390  1.0
  H  H18  1  0.42883731  0.22596715  0.09765653  1.0
  H  H19  1  0.52269787  0.28864500  0.26242050  1.0
  H  H20  1  0.37707974  0.47794222  0.12386889  1.0
  H  H21  1  0.58377301  0.36878392  0.27080519  1.0
  H  H22  1  0.59272507  0.48017621  0.33001451  1.0
  H  H23  1  0.35772981  0.66126559  0.27143617  1.0
  H  H24  1  0.33654249  0.55695133  0.21112111  1.0
  H  H25  1  0.31751556  0.31236284  0.91401656  1.0
  H  H26  1  0.41280913  0.20311155  0.83970933  1.0
  H  H27  1  0.56614149  0.12798438  0.85782973  1.0
  H  H28  1  0.62407680  0.16217352  0.95225737  1.0
  H  H29  1  0.52907895  0.27119407  0.02726630  1.0
  H  H30  1  0.18593898  0.51187239  0.06312200  1.0
  H  H31  1  0.05706625  0.51021356  0.09401832  1.0
  H  H32  1  0.05143071  0.37912894  0.08512430  1.0
  H  H33  1  0.17633225  0.24830620  0.04902586  1.0
  H  H34  1  0.30658323  0.24821661  0.02118286  1.0
  H  H35  1  0.60328882  0.14852290  0.09493333  1.0
  H  H36  1  0.74875684  0.06614555  0.05573445  1.0
  H  H37  1  0.86016964  0.96038706  0.12539114  1.0
  H  H38  1  0.82565441  0.94058617  0.23565279  1.0
  H  H39  1  0.68061415  0.02641036  0.27580822  1.0
  H  H40  1  0.35823092  0.16918821  0.22230113  1.0
  H  H41  1  0.28439986  0.10933648  0.16462477  1.0
  H  H42  1  0.35911761  0.99989709  0.08218984  1.0
  H  H43  1  0.50825928  0.95270368  0.05794118  1.0
  H  H44  1  0.58114143  0.01463732  0.11406792  1.0
  H  H45  1  0.22584986  0.34528828  0.43114356  1.0
  H  H46  1  0.28848684  0.18876124  0.59590199  1.0
  H  H47  1  0.47790940  0.14514314  0.45739957  1.0
  H  H48  1  0.36856834  0.04757269  0.60411874  1.0
  H  H49  1  0.47998028  0.92712062  0.66325849  1.0
  H  H50  1  0.66124733  0.98100315  0.60494422  1.0
  H  H51  1  0.55692519  0.10663506  0.54475089  1.0
  H  H52  1  0.31229348  0.37005057  0.24740333  1.0
  H  H53  1  0.20301233  0.38394092  0.17309671  1.0
  H  H54  1  0.12775621  0.30589268  0.19129708  1.0
  H  H55  1  0.16175394  0.21407939  0.28588962  1.0
  H  H56  1  0.27081909  0.20011694  0.36090907  1.0
  H  H57  1  0.51190256  0.30242248  0.39644936  1.0
  H  H58  1  0.51013463  0.43303039  0.42720541  1.0
  H  H59  1  0.37896631  0.56959743  0.41812064  1.0
  H  H60  1  0.24812824  0.57537967  0.38212762  1.0
  H  H61  1  0.24805655  0.44517522  0.35461758  1.0
  H  H62  1  0.14827517  0.24845314  0.42832812  1.0
  H  H63  1  0.06590758  0.18529344  0.38914270  1.0
  H  H64  1  0.96028913  0.17944014  0.45884963  1.0
  H  H65  1  0.94058121  0.23353648  0.56913812  1.0
  H  H66  1  0.02638726  0.29281688  0.60928248  1.0
  H  H67  1  0.16882021  0.47274344  0.55580635  1.0
  H  H68  1  0.10916118  0.60622259  0.49789788  1.0
  H  H69  1  0.99991260  0.64071928  0.41526253  1.0
  H  H70  1  0.95270661  0.53881174  0.39107145  1.0
  H  H71  1  0.01460224  0.40413931  0.44732224  1.0
  H  H72  1  0.34525157  0.42902447  0.76422706  1.0
  H  H73  1  0.18874660  0.52297425  0.92901063  1.0
  H  H74  1  0.14514359  0.37700519  0.79072974  1.0
  H  H75  1  0.04741248  0.58393222  0.93735321  1.0
  H  H76  1  0.92712794  0.59274910  0.99666662  1.0
  H  H77  1  0.98110305  0.35772202  0.93827611  1.0
  H  H78  1  0.10659900  0.33663517  0.87794736  1.0
  H  H79  1  0.37013091  0.31773824  0.58076169  1.0
  H  H80  1  0.38395501  0.41305728  0.50637787  1.0
  H  H81  1  0.30578330  0.56630131  0.52444241  1.0
  H  H82  1  0.21376890  0.62416189  0.61893285  1.0
  H  H83  1  0.19976513  0.52916012  0.69398978  1.0
  H  H84  1  0.30206758  0.18615204  0.72998651  1.0
  H  H85  1  0.43253362  0.05727265  0.76079890  1.0
  H  H86  1  0.56935612  0.05150481  0.75168102  1.0
  H  H87  1  0.57544864  0.17632117  0.71552561  1.0
  H  H88  1  0.44533352  0.30661165  0.68785232  1.0
  H  H89  1  0.24870507  0.60327962  0.76138517  1.0
  H  H90  1  0.18523057  0.74874057  0.72221084  1.0
  H  H91  1  0.17907214  0.86029603  0.79190892  1.0
  H  H92  1  0.23330577  0.82593657  0.90220770  1.0
  H  H93  1  0.29293946  0.68086820  0.94234129  1.0
  H  H94  1  0.47266331  0.35857657  0.88902790  1.0
  H  H95  1  0.60621739  0.28450853  0.83119775  1.0
  H  H96  1  0.64097790  0.35896441  0.74850170  1.0
  H  H97  1  0.53927062  0.50805600  0.72418815  1.0
  H  H98  1  0.40453363  0.58111613  0.78040571  1.0
  H  H99  1  0.65480819  0.77402888  0.90234534  1.0
  H  H100  1  0.81134208  0.71135993  0.73758060  1.0
  H  H101  1  0.85502677  0.52205644  0.87612741  1.0
  H  H102  1  0.95255296  0.63122646  0.72919225  1.0
  H  H103  1  0.07290042  0.51983734  0.66997952  1.0
  H  H104  1  0.01900474  0.33873975  0.72855910  1.0
  H  H105  1  0.89349802  0.44305082  0.78887425  1.0
  H  H106  1  0.62987883  0.68764155  0.08598191  1.0
  H  H107  1  0.61591936  0.79689399  0.16028778  1.0
  H  H108  1  0.69412718  0.87201916  0.14217037  1.0
  H  H109  1  0.78625246  0.83782878  0.04774236  1.0
  H  H110  1  0.80027522  0.72880817  0.97273337  1.0
  H  H111  1  0.69781491  0.48812839  0.93688117  1.0
  H  H112  1  0.56728186  0.48978854  0.90598420  1.0
  H  H113  1  0.43056072  0.62087336  0.91487813  1.0
  H  H114  1  0.42463940  0.75169674  0.95097380  1.0
  H  H115  1  0.55480065  0.75178843  0.97881603  1.0
  H  H116  1  0.75180563  0.85148235  0.90506778  1.0
  H  H117  1  0.81489715  0.93385800  0.94426727  1.0
  H  H118  1  0.82055466  0.03961558  0.87461066  1.0
  H  H119  1  0.76623916  0.05941653  0.76434800  1.0
  H  H120  1  0.70702232  0.97359322  0.72419291  1.0
  H  H121  1  0.52741913  0.83081181  0.77769778  1.0
  H  H122  1  0.39373707  0.89066003  0.83537542  1.0
  H  H123  1  0.35901674  0.00009768  0.91781180  1.0
  H  H124  1  0.46096505  0.04729180  0.94206157  1.0
  H  H125  1  0.59577959  0.98536018  0.88593402  1.0
  H  H126  1  0.57114115  0.65470977  0.56885340  1.0
  H  H127  1  0.47725084  0.81123650  0.40409495  1.0
  H  H128  1  0.62305945  0.85485226  0.54259664  1.0
  H  H129  1  0.41615036  0.95242125  0.39587632  1.0
  H  H130  1  0.40710954  0.07287433  0.33673806  1.0
  H  H131  1  0.64225604  0.01899510  0.39505827  1.0
  H  H132  1  0.66356956  0.89335958  0.45524824  1.0
  H  H133  1  0.68235583  0.62994931  0.75259234  1.0
  H  H134  1  0.58696780  0.61605770  0.82690355  1.0
  H  H135  1  0.43366442  0.69410239  0.80870398  1.0
  H  H136  1  0.37584193  0.78591466  0.71411237  1.0
  H  H137  1  0.47094336  0.79987716  0.63908974  1.0
  H  H138  1  0.81432733  0.69757331  0.60354559  1.0
  H  H139  1  0.94316711  0.56696472  0.57278915  1.0
  H  H140  1  0.94856661  0.43039786  0.58187951  1.0
  H  H141  1  0.82351216  0.42461598  0.61787236  1.0
  H  H142  1  0.69323289  0.55482070  0.64538043  1.0
  H  H143  1  0.39672680  0.75154927  0.57167246  1.0
  H  H144  1  0.25119920  0.81470741  0.61085631  1.0
  H  H145  1  0.13972884  0.82056191  0.54114800  1.0
  H  H146  1  0.17411908  0.76646721  0.43085952  1.0
  H  H147  1  0.31920571  0.70718743  0.39071608  1.0
  H  H148  1  0.64156197  0.52725784  0.44419488  1.0
  H  H149  1  0.71538075  0.39377884  0.50210288  1.0
  H  H150  1  0.64063133  0.35928303  0.58473971  1.0
  H  H151  1  0.49151763  0.46119207  0.60893161  1.0
  H  H152  1  0.41873946  0.59586360  0.55268016  1.0
  H  H153  1  0.77427686  0.57097508  0.23577531  1.0
  H  H154  1  0.71172314  0.47702631  0.07099065  1.0
  H  H155  1  0.52215016  0.62299611  0.20927044  1.0
  H  H156  1  0.63134632  0.41607021  0.06264887  1.0
  H  H157  1  0.51988218  0.40724977  0.00333502  1.0
  H  H158  1  0.33882460  0.64227689  0.06172214  1.0
  H  H159  1  0.44323235  0.66336789  0.12204897  1.0
  H  H160  1  0.68786921  0.68225977  0.41923970  1.0
  H  H161  1  0.79701433  0.58694101  0.49362218  1.0
  H  H162  1  0.87208674  0.43369750  0.47555716  1.0
  H  H163  1  0.83792961  0.37583785  0.38106664  1.0
  H  H164  1  0.72892046  0.47084065  0.30601152  1.0
  H  H165  1  0.48821974  0.81384655  0.27001423  1.0
  H  H166  1  0.48980415  0.94272538  0.23920145  1.0
  H  H167  1  0.62085866  0.94849434  0.24831998  1.0
  H  H168  1  0.75176835  0.82367744  0.28447548  1.0
  H  H169  1  0.75194397  0.69338697  0.31215010  1.0
  H  H170  1  0.85198719  0.39671944  0.23861672  1.0
  H  H171  1  0.93397007  0.25125796  0.27779059  1.0
  H  H172  1  0.03936657  0.13970204  0.20809286  1.0
  H  H173  1  0.05924014  0.17406094  0.09779366  1.0
  H  H174  1  0.97380687  0.31912886  0.05766023  1.0
  H  H175  1  0.83124089  0.64142187  0.11097364  1.0
  H  H176  1  0.89072739  0.71548962  0.16880392  1.0
  H  H177  1  0.99994502  0.64103441  0.25149960  1.0
  H  H178  1  0.04732963  0.49194178  0.27581293  1.0
  H  H179  1  0.98565206  0.41888296  0.21959448  1.0
  C  C180  1  0.40002002  0.35467679  0.10354244  1.0
  C  C181  1  0.43537535  0.27207693  0.12535468  1.0
  C  C182  1  0.47933362  0.24869412  0.18244099  1.0
  C  C183  1  0.48839233  0.30784499  0.21775761  1.0
  C  C184  1  0.45102432  0.39084416  0.19765179  1.0
  C  C185  1  0.40587215  0.41379406  0.14065296  1.0
  C  C186  1  0.45927694  0.45353777  0.23480363  1.0
  C  C187  1  0.53169755  0.43271602  0.26963825  1.0
  C  C188  1  0.53716060  0.49460566  0.30259285  1.0
  C  C189  1  0.40546895  0.59522208  0.27024307  1.0
  C  C190  1  0.39500277  0.53711007  0.23620853  1.0
  C  C191  1  0.41630243  0.29869052  0.97668334  1.0
  C  C192  1  0.38453426  0.27905600  0.92312582  1.0
  C  C193  1  0.43829265  0.21772998  0.88097367  1.0
  C  C194  1  0.52446824  0.17537754  0.89123752  1.0
  C  C195  1  0.55681069  0.19475377  0.94406332  1.0
  C  C196  1  0.50320093  0.25610872  0.98636436  1.0
  C  C197  1  0.18390940  0.45385910  0.06065147  1.0
  C  C198  1  0.11130532  0.45307432  0.07727831  1.0
  C  C199  1  0.10836735  0.37940415  0.07255800  1.0
  C  C200  1  0.17855847  0.30602983  0.05216576  1.0
  C  C201  1  0.25183228  0.30599719  0.03634211  1.0
  C  C202  1  0.25453875  0.38037117  0.04009048  1.0
  C  C203  1  0.63175939  0.09070149  0.18744237  1.0
  C  C204  1  0.65188865  0.10284931  0.12584362  1.0
  C  C205  1  0.73368207  0.05616099  0.10364783  1.0
  C  C206  1  0.79621620  0.99681694  0.14271986  1.0
  C  C207  1  0.77687698  0.98540383  0.20440742  1.0
  C  C208  1  0.69522130  0.03261420  0.22687126  1.0
  C  C209  1  0.47489969  0.09663760  0.17204873  1.0
  C  C210  1  0.39116059  0.12210628  0.18602023  1.0
  C  C211  1  0.34955405  0.08819808  0.15341634  1.0
  C  C212  1  0.39135024  0.02720791  0.10713416  1.0
  C  C213  1  0.47477127  0.00080967  0.09346196  1.0
  C  C214  1  0.51622068  0.03554608  0.12551083  1.0
  C  C215  1  0.35462919  0.24548854  0.43705599  1.0
  C  C216  1  0.27201862  0.29268690  0.45885609  1.0
  C  C217  1  0.24859236  0.27208935  0.51590243  1.0
  C  C218  1  0.30771350  0.20391371  0.55126545  1.0
  C  C219  1  0.39073987  0.15830818  0.53115986  1.0
  C  C220  1  0.41373770  0.18052449  0.47417626  1.0
  C  C221  1  0.45342035  0.08733690  0.56828581  1.0
  C  C222  1  0.43254602  0.03568966  0.60299988  1.0
  C  C223  1  0.49444166  0.96828336  0.63592222  1.0
  C  C224  1  0.59516424  0.99933405  0.60372837  1.0
  C  C225  1  0.53704252  0.06800145  0.56976552  1.0
  C  C226  1  0.29847552  0.28516538  0.31020749  1.0
  C  C227  1  0.27889459  0.33644520  0.25659716  1.0
  C  C228  1  0.21756855  0.34395062  0.21442347  1.0
  C  C229  1  0.17512911  0.30023095  0.22473508  1.0
  C  C230  1  0.19438962  0.24869032  0.27764442  1.0
  C  C231  1  0.25574371  0.24101089  0.31996986  1.0
  C  C232  1  0.45384510  0.36242052  0.39394875  1.0
  C  C233  1  0.45301333  0.43581921  0.41048190  1.0
  C  C234  1  0.37929134  0.51236323  0.40566280  1.0
  C  C235  1  0.30589794  0.51548106  0.38529661  1.0
  C  C236  1  0.30586884  0.44222769  0.36967010  1.0
  C  C237  1  0.38030801  0.36522158  0.37346489  1.0
  C  C238  1  0.09053207  0.27761543  0.52086857  1.0
  C  C239  1  0.10266414  0.24541918  0.45925108  1.0
  C  C240  1  0.05598257  0.21028845  0.43707273  1.0
  C  C241  1  0.99673298  0.20693953  0.47620181  1.0
  C  C242  1  0.98535091  0.23761571  0.53789600  1.0
  C  C243  1  0.03254241  0.27210244  0.56033581  1.0
  C  C244  1  0.09649351  0.42847559  0.50539042  1.0
  C  C245  1  0.12187610  0.48678448  0.51940196  1.0
  C  C246  1  0.08806996  0.56218138  0.48667323  1.0
  C  C247  1  0.02717361  0.58126260  0.44029678  1.0
  C  C248  1  0.00076873  0.52426338  0.42665338  1.0
  C  C249  1  0.03549430  0.44815465  0.45876529  1.0
  C  C250  1  0.24540690  0.40006219  0.77029215  1.0
  C  C251  1  0.29262173  0.43552368  0.79196562  1.0
  C  C252  1  0.27203483  0.47957338  0.84898137  1.0
  C  C253  1  0.20384550  0.48861363  0.88438553  1.0
  C  C254  1  0.15824100  0.45114033  0.86439078  1.0
  C  C255  1  0.18048521  0.40587052  0.80745832  1.0
  C  C256  1  0.08727817  0.45936901  0.90153738  1.0
  C  C257  1  0.03560364  0.53181413  0.93626109  1.0
  C  C258  1  0.96828588  0.53720331  0.96928359  1.0
  C  C259  1  0.99940118  0.40548223  0.93703012  1.0
  C  C260  1  0.06798352  0.39508019  0.90300305  1.0
  C  C261  1  0.28502903  0.41644020  0.64343278  1.0
  C  C262  1  0.33642249  0.38472057  0.58988572  1.0
  C  C263  1  0.34390829  0.43851289  0.54767630  1.0
  C  C264  1  0.30010749  0.52463902  0.55790494  1.0
  C  C265  1  0.24844817  0.55692883  0.61075142  1.0
  C  C266  1  0.24072144  0.50331365  0.65309034  1.0
  C  C267  1  0.36216156  0.18406407  0.72743223  1.0
  C  C268  1  0.43550785  0.11146226  0.74400617  1.0
  C  C269  1  0.51217426  0.10845046  0.73916646  1.0
  C  C270  1  0.51546215  0.17858235  0.71871803  1.0
  C  C271  1  0.44225412  0.25186405  0.70298118  1.0
  C  C272  1  0.36512741  0.25461850  0.70681689  1.0
  C  C273  1  0.27778586  0.63191585  0.85394179  1.0
  C  C274  1  0.24556786  0.65193617  0.79232302  1.0
  C  C275  1  0.21022287  0.73373642  0.77014922  1.0
  C  C276  1  0.20673395  0.79636426  0.80925881  1.0
  C  C277  1  0.23745124  0.77710043  0.87096167  1.0
  C  C278  1  0.27216199  0.69542845  0.89340129  1.0
  C  C279  1  0.42866528  0.47506834  0.83858995  1.0
  C  C280  1  0.48684741  0.39137253  0.85263154  1.0
  C  C281  1  0.56229443  0.34964162  0.81995602  1.0
  C  C282  1  0.58151034  0.39128485  0.77352492  1.0
  C  C283  1  0.52463555  0.47468666  0.75982937  1.0
  C  C284  1  0.44848479  0.51622942  0.79190362  1.0
  C  C285  1  0.75470081  0.64532225  0.89645617  1.0
  C  C286  1  0.70745464  0.72792246  0.87464534  1.0
  C  C287  1  0.72803094  0.75130576  0.81756002  1.0
  C  C288  1  0.79623929  0.69215812  0.78224298  1.0
  C  C289  1  0.84187251  0.60915735  0.80234692  1.0
  C  C290  1  0.81967052  0.58620551  0.85934570  1.0
  C  C291  1  0.91281745  0.54646743  0.76519371  1.0
  C  C292  1  0.96441372  0.56729335  0.73035775  1.0
  C  C293  1  0.03176665  0.50540590  0.69740396  1.0
  C  C294  1  0.00069583  0.40478349  0.72975410  1.0
  C  C295  1  0.93211621  0.46289645  0.76378925  1.0
  C  C296  1  0.71499509  0.70131062  0.02331668  1.0
  C  C297  1  0.66359107  0.72094708  0.07687319  1.0
  C  C298  1  0.65602309  0.78227473  0.11902490  1.0
  C  C299  1  0.69984693  0.82462586  0.10876303  1.0
  C  C300  1  0.75156578  0.80524922  0.05593682  1.0
  C  C301  1  0.75931229  0.74389289  0.01363621  1.0
  C  C302  1  0.63777049  0.54614264  0.93934929  1.0
  C  C303  1  0.56438227  0.54692703  0.92272330  1.0
  C  C304  1  0.48777366  0.62059824  0.92744355  1.0
  C  C305  1  0.48459020  0.69397256  0.94783442  1.0
  C  C306  1  0.55783065  0.69400523  0.96365770  1.0
  C  C307  1  0.63491049  0.61963146  0.95991032  1.0
  C  C308  1  0.72245659  0.90930232  0.81255779  1.0
  C  C309  1  0.75473381  0.89715447  0.87415752  1.0
  C  C310  1  0.78983588  0.94384332  0.89635434  1.0
  C  C311  1  0.79302885  0.00318637  0.85728234  1.0
  C  C312  1  0.76227733  0.01460038  0.79559475  1.0
  C  C313  1  0.72783170  0.96738981  0.77313037  1.0
  C  C314  1  0.57153613  0.90336133  0.82795265  1.0
  C  C315  1  0.51326507  0.87789423  0.81397870  1.0
  C  C316  1  0.43775197  0.91179989  0.84658393  1.0
  C  C317  1  0.41855868  0.97278831  0.89286659  1.0
  C  C318  1  0.47558006  0.99918643  0.90653936  1.0
  C  C319  1  0.55176724  0.96445147  0.87449104  1.0
  C  C320  1  0.60012072  0.75451057  0.56294061  1.0
  C  C321  1  0.56470822  0.70731152  0.54114043  1.0
  C  C322  1  0.52068104  0.72791297  0.48409593  1.0
  C  C323  1  0.51163317  0.79608347  0.44873200  1.0
  C  C324  1  0.54905486  0.84168784  0.46883720  1.0
  C  C325  1  0.59426970  0.81947083  0.52581989  1.0
  C  C326  1  0.54076944  0.91265429  0.43170845  1.0
  C  C327  1  0.46824712  0.96430169  0.39699573  1.0
  C  C328  1  0.46273137  0.03171159  0.36407532  1.0
  C  C329  1  0.59450423  0.00066250  0.39627026  1.0
  C  C330  1  0.60505259  0.93199391  0.43023262  1.0
  C  C331  1  0.58364755  0.71483110  0.68979047  1.0
  C  C332  1  0.61535220  0.66355453  0.74340270  1.0
  C  C333  1  0.56153344  0.65604540  0.78557584  1.0
  C  C334  1  0.47537386  0.69976640  0.77526698  1.0
  C  C335  1  0.44308993  0.75130376  0.72235575  1.0
  C  C336  1  0.49676264  0.75898642  0.68003085  1.0
  C  C337  1  0.81626901  0.63757425  0.60604521  1.0
  C  C338  1  0.88883730  0.56417456  0.58951589  1.0
  C  C339  1  0.89165753  0.48763104  0.59433589  1.0
  C  C340  1  0.82138185  0.48451482  0.61470293  1.0
  C  C341  1  0.74809732  0.55776776  0.63032703  1.0
  C  C342  1  0.74553327  0.63477279  0.62653277  1.0
  C  C343  1  0.36814533  0.72238894  0.47913053  1.0
  C  C344  1  0.34808208  0.75458253  0.54074849  1.0
  C  C345  1  0.26627015  0.78971374  0.56292770  1.0
  C  C346  1  0.20367191  0.79306560  0.52379636  1.0
  C  C347  1  0.22296454  0.76238995  0.46210217  1.0
  C  C348  1  0.30464363  0.72790188  0.43966322  1.0
  C  C349  1  0.52496885  0.57152407  0.49461021  1.0
  C  C350  1  0.60866107  0.51321566  0.48059969  1.0
  C  C351  1  0.65025043  0.43781970  0.51332795  1.0
  C  C352  1  0.60843601  0.41873967  0.55970480  1.0
  C  C353  1  0.52503057  0.47573957  0.57334861  1.0
  C  C354  1  0.48364813  0.55184598  0.54123717  1.0
  C  C355  1  0.64547088  0.59993774  0.22970866  1.0
  C  C356  1  0.72814748  0.56447541  0.20803479  1.0
  C  C357  1  0.75160829  0.52042812  0.15101952  1.0
  C  C358  1  0.69245979  0.51138852  0.11561480  1.0
  C  C359  1  0.60938161  0.54886280  0.13560805  1.0
  C  C360  1  0.58635696  0.59413136  0.19254288  1.0
  C  C361  1  0.54664631  0.54063502  0.09846231  1.0
  C  C362  1  0.56741901  0.46818904  0.06374094  1.0
  C  C363  1  0.50549221  0.46279678  0.03071760  1.0
  C  C364  1  0.40488433  0.59451831  0.06296771  1.0
  C  C365  1  0.46306286  0.60492273  0.09699563  1.0
  C  C366  1  0.70146434  0.58355909  0.35656951  1.0
  C  C367  1  0.72114369  0.61527813  0.41011520  1.0
  C  C368  1  0.78242123  0.56148446  0.45232560  1.0
  C  C369  1  0.82474669  0.47536010  0.44209460  1.0
  C  C370  1  0.80537377  0.44307115  0.38924949  1.0
  C  C371  1  0.74403185  0.49668677  0.34691147  1.0
  C  C372  1  0.54622375  0.81593398  0.27256906  1.0
  C  C373  1  0.54696842  0.88853686  0.25599422  1.0
  C  C374  1  0.62062234  0.89154894  0.26083403  1.0
  C  C375  1  0.69404207  0.82141668  0.28128441  1.0
  C  C376  1  0.69411754  0.74813540  0.29702120  1.0
  C  C377  1  0.61974389  0.74538239  0.29318444  1.0
  C  C378  1  0.90970298  0.36808261  0.14606015  1.0
  C  C379  1  0.89750500  0.34806182  0.20767890  1.0
  C  C380  1  0.94395914  0.26626276  0.22985317  1.0
  C  C381  1  0.00309740  0.20363617  0.19074250  1.0
  C  C382  1  0.01454967  0.22289793  0.12903967  1.0
  C  C383  1  0.96758975  0.30456985  0.10660021  1.0
  C  C384  1  0.90373448  0.52493103  0.16141162  1.0
  C  C385  1  0.87821986  0.60862623  0.14737052  1.0
  C  C386  1  0.91193819  0.65035506  0.18004470  1.0
  C  C387  1  0.97279644  0.60871357  0.22647774  1.0
  C  C388  1  0.99932320  0.52531137  0.24017185  1.0
  C  C389  1  0.96471526  0.48376982  0.20809658  1.0
  Br  Br390  1  0.20498162  0.63144983  0.02847492  1.0
  Br  Br391  1  0.63144670  0.16367810  0.36198614  1.0
  Br  Br392  1  0.16351911  0.20504562  0.69560863  1.0
  Br  Br393  1  0.83643500  0.36854441  0.97152173  1.0
  Br  Br394  1  0.79512953  0.83630430  0.63802352  1.0
  Br  Br395  1  0.36856246  0.79495932  0.30439242  1.0
  N  N396  1  0.47575680  0.57507462  0.30278787  1.0
  N  N397  1  0.57497700  0.94916716  0.63617147  1.0
  N  N398  1  0.94927548  0.47573751  0.96956492  1.0
  N  N399  1  0.05083169  0.42493601  0.69720891  1.0
  N  N400  1  0.52415001  0.05083104  0.36382900  1.0
  N  N401  1  0.42501351  0.52426100  0.03043525  1.0
