# generated using pymatgen
data_LaH14C21NO7
_symmetry_space_group_name_H-M   'P 1'
_cell_length_a   13.02836627
_cell_length_b   14.70481447
_cell_length_c   14.70481042
_cell_angle_alpha   111.67458709
_cell_angle_beta   107.17144191
_cell_angle_gamma   107.17126747
_symmetry_Int_Tables_number   1
_chemical_formula_structural   LaH14C21NO7
_chemical_formula_sum   'La3 H42 C63 N3 O21'
_cell_volume   2226.94562396
_cell_formula_units_Z   3
loop_
 _symmetry_equiv_pos_site_id
 _symmetry_equiv_pos_as_xyz
  1  'x, y, z'
loop_
 _atom_site_type_symbol
 _atom_site_label
 _atom_site_symmetry_multiplicity
 _atom_site_fract_x
 _atom_site_fract_y
 _atom_site_fract_z
 _atom_site_occupancy
  La  La0  1  0.99999972  0.31812040  0.68187838  1.0
  La  La1  1  0.31806282  0.31802620  0.63621699  1.0
  La  La2  1  0.68193547  0.36378225  0.68197270  1.0
  H  H3  1  0.06563676  0.19263433  0.82539440  1.0
  H  H4  1  0.67518020  0.82470983  0.51616935  1.0
  H  H5  1  0.76162922  0.02785371  0.61834263  1.0
  H  H6  1  0.51385041  0.01797476  0.34344411  1.0
  H  H7  1  0.43013584  0.81576315  0.23723311  1.0
  H  H8  1  0.42100513  0.71065071  0.46101248  1.0
  H  H9  1  0.41645422  0.60507473  0.56045237  1.0
  H  H10  1  0.24040030  0.17483505  0.36715339  1.0
  H  H11  1  0.15895428  0.48373585  0.30852262  1.0
  H  H12  1  0.14318646  0.38162064  0.40953774  1.0
  H  H13  1  0.17044821  0.65669128  0.67461015  1.0
  H  H14  1  0.19295772  0.76281321  0.57854245  1.0
  H  H15  1  0.96012933  0.53898492  0.24966894  1.0
  H  H16  1  0.85608740  0.43955458  0.04461313  1.0
  H  H17  1  0.87281389  0.63276184  0.80709497  1.0
  H  H18  1  0.85050910  0.69147570  0.17534405  1.0
  H  H19  1  0.73381767  0.59055896  0.97216736  1.0
  H  H20  1  0.49596533  0.32548947  0.98207660  1.0
  H  H21  1  0.61439784  0.42150392  0.18424260  1.0
  H  H22  1  0.71030497  0.75029108  0.28932069  1.0
  H  H23  1  0.81133567  0.95537376  0.39486708  1.0
  H  H24  1  0.75960404  0.63284769  0.82517253  1.0
  H  H25  1  0.84104508  0.69147727  0.51626386  1.0
  H  H26  1  0.85681291  0.59046293  0.61837986  1.0
  H  H27  1  0.82954991  0.32538945  0.34330851  1.0
  H  H28  1  0.80704281  0.42145767  0.23718627  1.0
  H  H29  1  0.03987175  0.75033093  0.46101510  1.0
  H  H30  1  0.14391367  0.95538646  0.56044602  1.0
  H  H31  1  0.12719016  0.19291234  0.36723959  1.0
  H  H32  1  0.14948862  0.82465582  0.30852439  1.0
  H  H33  1  0.26618190  0.02783197  0.40944274  1.0
  H  H34  1  0.50403515  0.01792288  0.67451055  1.0
  H  H35  1  0.38560293  0.81575750  0.57849494  1.0
  H  H36  1  0.28969521  0.71067937  0.24970875  1.0
  H  H37  1  0.18866382  0.60513269  0.04462597  1.0
  H  H38  1  0.93436285  0.17460880  0.80736781  1.0
  H  H39  1  0.32482155  0.48383107  0.17528977  1.0
  H  H40  1  0.23837118  0.38165873  0.97214523  1.0
  H  H41  1  0.48614875  0.65655609  0.98202448  1.0
  H  H42  1  0.56986412  0.76276679  0.18423642  1.0
  H  H43  1  0.57899289  0.53898634  0.28935047  1.0
  H  H44  1  0.58354620  0.43954906  0.39492631  1.0
  C  C45  1  0.54653966  0.80517360  0.36919498  1.0
  C  C46  1  0.63942985  0.86666984  0.47795854  1.0
  C  C47  1  0.68755212  0.98031373  0.53531542  1.0
  C  C48  1  0.64358634  0.03592426  0.48720335  1.0
  C  C49  1  0.54955703  0.97463799  0.37974859  1.0
  C  C50  1  0.50207429  0.86122160  0.32106470  1.0
  C  C51  1  0.69060453  0.15679511  0.54888018  1.0
  C  C52  1  0.45560751  0.65058460  0.44640367  1.0
  C  C53  1  0.45438199  0.59249600  0.50260791  1.0
  C  C54  1  0.17732771  0.63077760  0.43596306  1.0
  C  C55  1  0.16140304  0.52198089  0.38870110  1.0
  C  C56  1  0.15217143  0.46467474  0.44502245  1.0
  C  C57  1  0.15639391  0.51285234  0.54877884  1.0
  C  C58  1  0.16985528  0.62033903  0.59495795  1.0
  C  C59  1  0.18101380  0.67895118  0.54016377  1.0
  C  C60  1  0.14177981  0.45113974  0.60791838  1.0
  C  C61  1  0.00929536  0.55360265  0.20417981  1.0
  C  C62  1  0.95183147  0.49742346  0.08988742  1.0
  C  C63  1  0.74138496  0.56405168  0.19484584  1.0
  C  C64  1  0.77277061  0.61132921  0.13335465  1.0
  C  C65  1  0.70727250  0.55507052  0.01970744  1.0
  C  C66  1  0.60776229  0.45130730  0.96410956  1.0
  C  C67  1  0.57502477  0.40511330  0.02538033  1.0
  C  C68  1  0.64088039  0.45987765  0.13879385  1.0
  C  C69  1  0.53392240  0.39212269  0.84326932  1.0
  C  C70  1  0.80496722  0.79579204  0.34937541  1.0
  C  C71  1  0.86182111  0.91009515  0.40743595  1.0
  C  C72  1  0.82267386  0.56403781  0.36922338  1.0
  C  C73  1  0.83859780  0.61129824  0.47801896  1.0
  C  C74  1  0.84782917  0.55497835  0.53532698  1.0
  C  C75  1  0.84360552  0.45122134  0.48714745  1.0
  C  C76  1  0.83014386  0.40504245  0.37966088  1.0
  C  C77  1  0.81898747  0.45983690  0.32104915  1.0
  C  C78  1  0.85821802  0.39208042  0.54885929  1.0
  C  C79  1  0.99070484  0.79582025  0.44639769  1.0
  C  C80  1  0.04816856  0.91011183  0.50257703  1.0
  C  C81  1  0.25861632  0.80515432  0.43594781  1.0
  C  C82  1  0.22722955  0.86664562  0.38867103  1.0
  C  C83  1  0.29272717  0.98029181  0.44492901  1.0
  C  C84  1  0.39224022  0.03589106  0.54869270  1.0
  C  C85  1  0.42497734  0.97461913  0.59488404  1.0
  C  C86  1  0.35912173  0.86120572  0.54012051  1.0
  C  C87  1  0.46607900  0.15673029  0.60787659  1.0
  C  C88  1  0.19503311  0.65062483  0.20420862  1.0
  C  C89  1  0.13817838  0.59256355  0.08990466  1.0
  C  C90  1  0.45346087  0.63080559  0.19482623  1.0
  C  C91  1  0.36057133  0.52204228  0.13333021  1.0
  C  C92  1  0.31244875  0.46468625  0.01968651  1.0
  C  C93  1  0.35641315  0.51279805  0.96407471  1.0
  C  C94  1  0.45044272  0.62025198  0.02536126  1.0
  C  C95  1  0.49792481  0.67893467  0.13877692  1.0
  C  C96  1  0.30939439  0.45111952  0.84320364  1.0
  C  C97  1  0.54439195  0.55359678  0.34941697  1.0
  C  C98  1  0.54561962  0.49739445  0.40750648  1.0
  C  C99  1  0.49999895  0.63112140  0.36887821  1.0
  C  C100  1  0.50000190  0.51568068  0.48432337  1.0
  C  C101  1  0.50000039  0.45407701  0.54592371  1.0
  C  C102  1  0.13119992  0.63112180  0.26224582  1.0
  C  C103  1  0.01574614  0.51575785  0.03138657  1.0
  C  C104  1  0.95413281  0.45412462  0.90819980  1.0
  C  C105  1  0.86880077  0.73775381  0.36887861  1.0
  C  C106  1  0.98425425  0.96861354  0.48424232  1.0
  C  C107  1  0.04586616  0.09179923  0.54587570  1.0
  N  N108  1  0.50000001  0.68975814  0.31024094  1.0
  N  N109  1  0.18978792  0.68973305  0.37951459  1.0
  N  N110  1  0.81021188  0.62048528  0.31026745  1.0
  O  O111  1  0.63190676  0.20048177  0.51037954  1.0
  O  O112  1  0.78655682  0.21439289  0.64238290  1.0
  O  O113  1  0.57866923  0.41896637  0.55935002  1.0
  O  O114  1  0.12159815  0.48959842  0.69013867  1.0
  O  O115  1  0.14423690  0.35763519  0.57189899  1.0
  O  O116  1  0.01939078  0.44091875  0.85961714  1.0
  O  O117  1  0.43151130  0.30995650  0.79958930  1.0
  O  O118  1  0.57226957  0.42806537  0.78569527  1.0
  O  O119  1  0.15968711  0.14033319  0.58128120  1.0
  O  O120  1  0.87840139  0.30986075  0.51040140  1.0
  O  O121  1  0.85575544  0.42809720  0.64236058  1.0
  O  O122  1  0.98060785  0.14038144  0.55907939  1.0
  O  O123  1  0.56848996  0.20041186  0.69004435  1.0
  O  O124  1  0.42773004  0.21430428  0.57193460  1.0
  O  O125  1  0.84031341  0.41872324  0.85966729  1.0
  O  O126  1  0.36809193  0.48962012  0.79951659  1.0
  O  O127  1  0.21344358  0.35761776  0.78560624  1.0
  O  O128  1  0.42132879  0.44064834  0.58103119  1.0
  O  O129  1  0.99999953  0.20697227  0.79302572  1.0
  O  O130  1  0.20669255  0.20629065  0.41388933  1.0
  O  O131  1  0.79330155  0.58611117  0.79369785  1.0
