# generated using pymatgen
data_Zn4H12C24O13
_symmetry_space_group_name_H-M   'P 1'
_cell_length_a   18.42016459
_cell_length_b   18.42017664
_cell_length_c   18.42018061
_cell_angle_alpha   60.00001456
_cell_angle_beta   59.99997720
_cell_angle_gamma   59.99999743
_symmetry_Int_Tables_number   1
_chemical_formula_structural   Zn4H12C24O13
_chemical_formula_sum   'Zn8 H24 C48 O26'
_cell_volume   4419.42886342
_cell_formula_units_Z   2
loop_
 _symmetry_equiv_pos_site_id
 _symmetry_equiv_pos_as_xyz
  1  'x, y, z'
loop_
 _atom_site_type_symbol
 _atom_site_label
 _atom_site_symmetry_multiplicity
 _atom_site_fract_x
 _atom_site_fract_y
 _atom_site_fract_z
 _atom_site_occupancy
  Zn  Zn0  1  0.29351767  0.11945056  0.29351530  1.0
  Zn  Zn1  1  0.29351737  0.29351624  0.29351599  1.0
  Zn  Zn2  1  0.29351738  0.29351620  0.11944985  1.0
  Zn  Zn3  1  0.11944890  0.29351758  0.29351565  1.0
  Zn  Zn4  1  0.70648289  0.88055052  0.70648222  1.0
  Zn  Zn5  1  0.70648215  0.70648418  0.70648293  1.0
  Zn  Zn6  1  0.88055167  0.70648350  0.70648132  1.0
  Zn  Zn7  1  0.70648318  0.70648488  0.88054659  1.0
  H  H8  1  0.45169167  0.93177178  0.45169200  1.0
  H  H9  1  0.45169175  0.16484490  0.45169161  1.0
  H  H10  1  0.16484333  0.45169319  0.93177061  1.0
  H  H11  1  0.93177039  0.45169296  0.16484356  1.0
  H  H12  1  0.93177221  0.16484487  0.45169141  1.0
  H  H13  1  0.16484447  0.93177180  0.45169191  1.0
  H  H14  1  0.45169202  0.45169250  0.93177138  1.0
  H  H15  1  0.45169265  0.45169233  0.16484436  1.0
  H  H16  1  0.16484441  0.45169175  0.45169189  1.0
  H  H17  1  0.93177145  0.45169170  0.45169210  1.0
  H  H18  1  0.45169281  0.16484368  0.93177113  1.0
  H  H19  1  0.45169252  0.93177105  0.16484351  1.0
  H  H20  1  0.54830764  0.06822930  0.54830723  1.0
  H  H21  1  0.54830694  0.83515618  0.54830793  1.0
  H  H22  1  0.06822808  0.54830878  0.83515522  1.0
  H  H23  1  0.83515534  0.54830789  0.06822786  1.0
  H  H24  1  0.54830841  0.83515541  0.06822814  1.0
  H  H25  1  0.54830848  0.06822870  0.83515500  1.0
  H  H26  1  0.06822852  0.54830739  0.54830780  1.0
  H  H27  1  0.83515618  0.54830734  0.54830770  1.0
  H  H28  1  0.54830750  0.54830809  0.83515587  1.0
  H  H29  1  0.54830815  0.54830791  0.06822830  1.0
  H  H30  1  0.06822898  0.83515622  0.54830742  1.0
  H  H31  1  0.83515672  0.06822928  0.54830693  1.0
  C  C32  1  0.38898879  0.11101109  0.38898943  1.0
  C  C33  1  0.11101185  0.38899020  0.11100848  1.0
  C  C34  1  0.11101284  0.11100978  0.38898864  1.0
  C  C35  1  0.38898887  0.38899018  0.11101048  1.0
  C  C36  1  0.11101230  0.38898893  0.38898933  1.0
  C  C37  1  0.38898964  0.11101036  0.11101001  1.0
  C  C38  1  0.61101030  0.88899066  0.61100958  1.0
  C  C39  1  0.88898723  0.61101155  0.88898945  1.0
  C  C40  1  0.61101115  0.88899005  0.88898773  1.0
  C  C41  1  0.88898809  0.61101082  0.61101003  1.0
  C  C42  1  0.61101106  0.61101090  0.88898790  1.0
  C  C43  1  0.88898835  0.88899130  0.61100965  1.0
  C  C44  1  0.44635891  0.05364014  0.44636061  1.0
  C  C45  1  0.05363859  0.44636115  0.05363995  1.0
  C  C46  1  0.05364041  0.05364083  0.44635932  1.0
  C  C47  1  0.44636024  0.44636046  0.05363967  1.0
  C  C48  1  0.05363987  0.44635925  0.44636008  1.0
  C  C49  1  0.44636040  0.05363938  0.05363934  1.0
  C  C50  1  0.55363914  0.94636095  0.55363925  1.0
  C  C51  1  0.94635924  0.55364059  0.94635915  1.0
  C  C52  1  0.55364083  0.94635970  0.94635939  1.0
  C  C53  1  0.94636009  0.55363984  0.55363982  1.0
  C  C54  1  0.55363993  0.55363995  0.94636001  1.0
  C  C55  1  0.94636141  0.94636025  0.55363920  1.0
  C  C56  1  0.47331069  0.96077375  0.47331211  1.0
  C  C57  1  0.47331089  0.09260427  0.47331129  1.0
  C  C58  1  0.09260238  0.47331286  0.96077231  1.0
  C  C59  1  0.96077359  0.47331261  0.09260155  1.0
  C  C60  1  0.96077567  0.09260291  0.47331065  1.0
  C  C61  1  0.09260382  0.96077378  0.47331124  1.0
  C  C62  1  0.47331197  0.47331217  0.96077377  1.0
  C  C63  1  0.47331260  0.47331198  0.09260237  1.0
  C  C64  1  0.09260346  0.47331142  0.47331147  1.0
  C  C65  1  0.96077425  0.47331070  0.47331125  1.0
  C  C66  1  0.47331195  0.09260305  0.96077293  1.0
  C  C67  1  0.47331217  0.96077300  0.09260266  1.0
  C  C68  1  0.52668736  0.03922733  0.52668830  1.0
  C  C69  1  0.52668757  0.90739748  0.52668804  1.0
  C  C70  1  0.03922527  0.52668980  0.90739616  1.0
  C  C71  1  0.90739607  0.52668889  0.03922539  1.0
  C  C72  1  0.52668906  0.90739670  0.03922558  1.0
  C  C73  1  0.52668884  0.03922675  0.90739584  1.0
  C  C74  1  0.03922658  0.52668772  0.52668801  1.0
  C  C75  1  0.90739715  0.52668766  0.52668811  1.0
  C  C76  1  0.52668880  0.52668844  0.90739669  1.0
  C  C77  1  0.52668859  0.52668891  0.03922592  1.0
  C  C78  1  0.03922615  0.90739817  0.52668787  1.0
  C  C79  1  0.90739800  0.03922730  0.52668728  1.0
  O  O80  1  0.24999980  0.25000031  0.24999938  1.0
  O  O81  1  0.75000138  0.75000077  0.74999729  1.0
  O  O82  1  0.36683204  0.07131564  0.36683298  1.0
  O  O83  1  0.36683231  0.19501899  0.36683292  1.0
  O  O84  1  0.19501767  0.36683329  0.07131592  1.0
  O  O85  1  0.07131407  0.36683333  0.19501942  1.0
  O  O86  1  0.07131572  0.19502034  0.36683139  1.0
  O  O87  1  0.19501925  0.07131632  0.36683216  1.0
  O  O88  1  0.36683211  0.36683328  0.07131558  1.0
  O  O89  1  0.36683210  0.36683331  0.19501903  1.0
  O  O90  1  0.19501873  0.36683203  0.36683321  1.0
  O  O91  1  0.07131554  0.36683270  0.36683111  1.0
  O  O92  1  0.36683231  0.19501893  0.07131522  1.0
  O  O93  1  0.36683289  0.07131494  0.19501917  1.0
  O  O94  1  0.63316727  0.92868544  0.63316571  1.0
  O  O95  1  0.63316723  0.80498142  0.63316599  1.0
  O  O96  1  0.92868439  0.63316842  0.80497881  1.0
  O  O97  1  0.80498017  0.63316846  0.92868263  1.0
  O  O98  1  0.63316829  0.80498016  0.92868328  1.0
  O  O99  1  0.63316812  0.92868481  0.80498042  1.0
  O  O100  1  0.92868547  0.63316705  0.63316631  1.0
  O  O101  1  0.80498187  0.63316706  0.63316637  1.0
  O  O102  1  0.63316742  0.63316711  0.80497989  1.0
  O  O103  1  0.63316846  0.63316780  0.92868302  1.0
  O  O104  1  0.92868547  0.80498074  0.63316636  1.0
  O  O105  1  0.80498194  0.92868476  0.63316613  1.0
