# generated using pymatgen
data_ZnH6C11(NO2)2
_symmetry_space_group_name_H-M   'P 1'
_cell_length_a   11.00961358
_cell_length_b   11.00961479
_cell_length_c   17.43715683
_cell_angle_alpha   71.88362818
_cell_angle_beta   71.88346774
_cell_angle_gamma   87.53408463
_symmetry_Int_Tables_number   1
_chemical_formula_structural   ZnH6C11(NO2)2
_chemical_formula_sum   'Zn4 H24 C44 N8 O16'
_cell_volume   1905.85203856
_cell_formula_units_Z   4
loop_
 _symmetry_equiv_pos_site_id
 _symmetry_equiv_pos_as_xyz
  1  'x, y, z'
loop_
 _atom_site_type_symbol
 _atom_site_label
 _atom_site_symmetry_multiplicity
 _atom_site_fract_x
 _atom_site_fract_y
 _atom_site_fract_z
 _atom_site_occupancy
  Zn  Zn0  1  0.99420816  0.09216335  0.65718741  1.0
  Zn  Zn1  1  0.90783744  0.00579223  0.84281317  1.0
  Zn  Zn2  1  0.00579229  0.90783726  0.34281336  1.0
  Zn  Zn3  1  0.09216206  0.99420839  0.15718664  1.0
  H  H4  1  0.93187860  0.29684207  0.49640096  1.0
  H  H5  1  0.70315822  0.06812082  0.00360012  1.0
  H  H6  1  0.06812084  0.70315758  0.50360019  1.0
  H  H7  1  0.29684223  0.93187979  0.99640065  1.0
  H  H8  1  0.20893586  0.02082907  0.50722534  1.0
  H  H9  1  0.97917214  0.79106489  0.99277452  1.0
  H  H10  1  0.79106460  0.97917154  0.49277485  1.0
  H  H11  1  0.02082832  0.20893573  0.00722452  1.0
  H  H12  1  0.24162584  0.15797464  0.33751073  1.0
  H  H13  1  0.84202619  0.75837388  0.16248950  1.0
  H  H14  1  0.75837461  0.84202598  0.66248946  1.0
  H  H15  1  0.15797517  0.24162579  0.83751071  1.0
  H  H16  1  0.07421999  0.50061581  0.37779762  1.0
  H  H17  1  0.49938545  0.92577815  0.12220211  1.0
  H  H18  1  0.92577861  0.49938576  0.62220218  1.0
  H  H19  1  0.50061571  0.07421769  0.87779773  1.0
  H  H20  1  0.05376554  0.62726458  0.12361904  1.0
  H  H21  1  0.37273502  0.94623378  0.37638090  1.0
  H  H22  1  0.94623492  0.37273604  0.87638058  1.0
  H  H23  1  0.62726539  0.05376589  0.62361834  1.0
  H  H24  1  0.05476443  0.39888576  0.12376722  1.0
  H  H25  1  0.60111265  0.94523483  0.37623277  1.0
  H  H26  1  0.94523603  0.60111486  0.87623240  1.0
  H  H27  1  0.39888681  0.05476483  0.62376608  1.0
  C  C28  1  0.01217220  0.24037117  0.47761148  1.0
  C  C29  1  0.75962956  0.98782766  0.02238899  1.0
  C  C30  1  0.98782820  0.75962848  0.52238948  1.0
  C  C31  1  0.24036994  0.01217295  0.97761081  1.0
  C  C32  1  0.15729205  0.09929122  0.47940818  1.0
  C  C33  1  0.90071065  0.84270798  0.02059123  1.0
  C  C34  1  0.84270655  0.90071035  0.52059219  1.0
  C  C35  1  0.09929076  0.15729264  0.97940820  1.0
  C  C36  1  0.17478264  0.16625401  0.39579894  1.0
  C  C37  1  0.83374703  0.82521747  0.10420123  1.0
  C  C38  1  0.82521782  0.83374661  0.60420125  1.0
  C  C39  1  0.16625433  0.17478219  0.89579840  1.0
  C  C40  1  0.06754874  0.35161959  0.32256808  1.0
  C  C41  1  0.64838049  0.93244990  0.17743223  1.0
  C  C42  1  0.93245076  0.64838102  0.67743230  1.0
  C  C43  1  0.35161982  0.06754785  0.82256740  1.0
  C  C44  1  0.06644444  0.47807995  0.32284720  1.0
  C  C45  1  0.52191967  0.93355381  0.17715281  1.0
  C  C46  1  0.93355506  0.52192067  0.67715261  1.0
  C  C47  1  0.47808069  0.06644490  0.82284662  1.0
  C  C48  1  0.05883052  0.57753007  0.25184639  1.0
  C  C49  1  0.42247011  0.94116704  0.24815373  1.0
  C  C50  1  0.94116803  0.42247054  0.74815360  1.0
  C  C51  1  0.57752940  0.05883358  0.75184550  1.0
  C  C52  1  0.05616672  0.54882767  0.17951225  1.0
  C  C53  1  0.45117186  0.94383179  0.32048722  1.0
  C  C54  1  0.94383374  0.45117295  0.82048680  1.0
  C  C55  1  0.54882855  0.05616787  0.67951145  1.0
  C  C56  1  0.05718976  0.42240224  0.17956902  1.0
  C  C57  1  0.57759798  0.94280829  0.32043087  1.0
  C  C58  1  0.94280980  0.57759933  0.82043059  1.0
  C  C59  1  0.42240237  0.05719042  0.67956856  1.0
  C  C60  1  0.06010048  0.32119005  0.25143072  1.0
  C  C61  1  0.67880912  0.93989849  0.24856969  1.0
  C  C62  1  0.93989902  0.67881056  0.74856966  1.0
  C  C63  1  0.32119028  0.06010021  0.75142993  1.0
  C  C64  1  0.05062730  0.18562022  0.25029937  1.0
  C  C65  1  0.81438348  0.94937768  0.24969487  1.0
  C  C66  1  0.94937316  0.81438041  0.74969967  1.0
  C  C67  1  0.18562002  0.05062585  0.75030072  1.0
  C  C68  1  0.05580352  0.71354524  0.25318922  1.0
  C  C69  1  0.28645560  0.94419662  0.24680866  1.0
  C  C70  1  0.94419604  0.28645634  0.74680981  1.0
  C  C71  1  0.71354487  0.05580401  0.75318980  1.0
  N  N72  1  0.05578639  0.14655350  0.52958323  1.0
  N  N73  1  0.85344560  0.94421337  0.97041746  1.0
  N  N74  1  0.94421401  0.85344615  0.47041715  1.0
  N  N75  1  0.14655385  0.05578629  0.02958197  1.0
  N  N76  1  0.08220318  0.25543059  0.39546020  1.0
  N  N77  1  0.74456979  0.91779543  0.10454054  1.0
  N  N78  1  0.91779632  0.74457002  0.60454018  1.0
  N  N79  1  0.25542956  0.08220231  0.89545985  1.0
  O  O80  1  0.98510235  0.10357580  0.31886790  1.0
  O  O81  1  0.89642161  0.01489583  0.18113435  1.0
  O  O82  1  0.01489799  0.89642290  0.68113326  1.0
  O  O83  1  0.10357784  0.98510382  0.81886623  1.0
  O  O84  1  0.10802919  0.16604329  0.18013873  1.0
  O  O85  1  0.83395644  0.89197009  0.31986420  1.0
  O  O86  1  0.89197025  0.83395636  0.81986242  1.0
  O  O87  1  0.16604401  0.10803052  0.68013714  1.0
  O  O88  1  0.05797499  0.79958191  0.18412995  1.0
  O  O89  1  0.20041837  0.94202502  0.31586986  1.0
  O  O90  1  0.94202451  0.20041871  0.81586985  1.0
  O  O91  1  0.79958300  0.05797465  0.68412919  1.0
  O  O92  1  0.04966536  0.73160922  0.32283223  1.0
  O  O93  1  0.26839062  0.95033454  0.17716821  1.0
  O  O94  1  0.95033319  0.26839139  0.67716776  1.0
  O  O95  1  0.73160888  0.04966608  0.82283159  1.0
