# generated using pymatgen
data_Zn4H21C36N3O16
_symmetry_space_group_name_H-M   'P 1'
_cell_length_a   21.03388982
_cell_length_b   21.24699036
_cell_length_c   21.50034292
_cell_angle_alpha   62.09165756
_cell_angle_beta   61.59422716
_cell_angle_gamma   61.35688358
_symmetry_Int_Tables_number   1
_chemical_formula_structural   Zn4H21C36N3O16
_chemical_formula_sum   'Zn8 H42 C72 N6 O32'
_cell_volume   7049.80610071
_cell_formula_units_Z   2
loop_
 _symmetry_equiv_pos_site_id
 _symmetry_equiv_pos_as_xyz
  1  'x, y, z'
loop_
 _atom_site_type_symbol
 _atom_site_label
 _atom_site_symmetry_multiplicity
 _atom_site_fract_x
 _atom_site_fract_y
 _atom_site_fract_z
 _atom_site_occupancy
  Zn  Zn0  1  0.04821270  0.02827810  0.04080260  1.0
  Zn  Zn1  1  0.89611059  0.03723599  0.04519288  1.0
  Zn  Zn2  1  0.03663506  0.88250720  0.04903791  1.0
  Zn  Zn3  1  0.04294467  0.02843087  0.89448043  1.0
  Zn  Zn4  1  0.46718142  0.45422828  0.47156576  1.0
  Zn  Zn5  1  0.61699341  0.45689712  0.47176583  1.0
  Zn  Zn6  1  0.46949164  0.45973372  0.61836419  1.0
  Zn  Zn7  1  0.46882551  0.60477838  0.46778510  1.0
  H  H8  1  0.95910091  0.20149321  0.12767598  1.0
  H  H9  1  0.89062403  0.28653222  0.20839087  1.0
  H  H10  1  0.75857060  0.14112777  0.21466687  1.0
  H  H11  1  0.66378952  0.12303602  0.33212136  1.0
  H  H12  1  0.57602982  0.19707257  0.35394198  1.0
  H  H13  1  0.62768802  0.19808412  0.25943042  1.0
  H  H14  1  0.57863711  0.27990400  0.38191519  1.0
  H  H15  1  0.11283246  0.93248716  0.22380135  1.0
  H  H16  1  0.18795856  0.86496389  0.31339775  1.0
  H  H17  1  0.20781677  0.73263412  0.16216637  1.0
  H  H18  1  0.32860941  0.64007266  0.14539846  1.0
  H  H19  1  0.35135286  0.55408728  0.21739624  1.0
  H  H20  1  0.25449523  0.60307711  0.21813766  1.0
  H  H21  1  0.37734560  0.55916968  0.29927623  1.0
  H  H22  1  0.22925613  0.09777608  0.94394117  1.0
  H  H23  1  0.31619805  0.17636815  0.87894319  1.0
  H  H24  1  0.15812834  0.19681460  0.75224523  1.0
  H  H25  1  0.13599025  0.31908570  0.66547692  1.0
  H  H26  1  0.20848698  0.34410408  0.57987615  1.0
  H  H27  1  0.21153180  0.24807660  0.62415969  1.0
  H  H28  1  0.29238587  0.36914914  0.58379989  1.0
  H  H29  1  0.72888768  0.94389649  0.12566435  1.0
  H  H30  1  0.63289696  0.87417630  0.19810087  1.0
  H  H31  1  0.89888544  0.74426878  0.20817786  1.0
  H  H32  1  0.89532666  0.64590440  0.32155088  1.0
  H  H33  1  0.88466449  0.56082284  0.33676072  1.0
  H  H34  1  0.92529846  0.61499705  0.24446300  1.0
  H  H35  1  0.77075273  0.56554378  0.36653160  1.0
  H  H36  1  0.74462362  0.21188551  0.94825279  1.0
  H  H37  1  0.64667951  0.30220975  0.88201942  1.0
  H  H38  1  0.90305154  0.15082118  0.75062301  1.0
  H  H39  1  0.89034825  0.13647106  0.65653179  1.0
  H  H40  1  0.87951735  0.21102008  0.57263954  1.0
  H  H41  1  0.92702946  0.21111265  0.62272477  1.0
  H  H42  1  0.76799985  0.29253294  0.57846394  1.0
  H  H43  1  0.12201899  0.72566966  0.94866279  1.0
  H  H44  1  0.19582088  0.63005807  0.87877982  1.0
  H  H45  1  0.20401457  0.89239275  0.75083849  1.0
  H  H46  1  0.32008346  0.88851190  0.65211563  1.0
  H  H47  1  0.33650222  0.87585325  0.56856996  1.0
  H  H48  1  0.24116154  0.91604976  0.62311374  1.0
  H  H49  1  0.36970367  0.76197382  0.57373381  1.0
  C  C50  1  0.90158400  0.11776262  0.11917746  1.0
  C  C51  1  0.86166519  0.16715878  0.16733212  1.0
  C  C52  1  0.90039932  0.20742170  0.16479883  1.0
  C  C53  1  0.86311707  0.25381893  0.20893726  1.0
  C  C54  1  0.78742508  0.26117503  0.25660478  1.0
  C  C55  1  0.74902716  0.21999395  0.25940805  1.0
  C  C56  1  0.78650695  0.17314732  0.21436976  1.0
  C  C57  1  0.63325510  0.18383507  0.31318287  1.0
  C  C58  1  0.63793164  0.27548278  0.34742658  1.0
  C  C59  1  0.67084564  0.31754383  0.34803526  1.0
  C  C60  1  0.62180171  0.36721189  0.39625562  1.0
  C  C61  1  0.75046300  0.31260988  0.30220318  1.0
  C  C62  1  0.11115260  0.87647873  0.13652380  1.0
  C  C63  1  0.15618379  0.83539622  0.18889206  1.0
  C  C64  1  0.15033181  0.87410244  0.23059726  1.0
  C  C65  1  0.19166193  0.83748855  0.27925404  1.0
  C  C66  1  0.24089954  0.76269723  0.28666532  1.0
  C  C67  1  0.24795459  0.72450676  0.24342064  1.0
  C  C68  1  0.20443999  0.76086034  0.19532385  1.0
  C  C69  1  0.30854117  0.60992404  0.20504082  1.0
  C  C70  1  0.33920821  0.61682041  0.29717581  1.0
  C  C71  1  0.33573917  0.64973281  0.34108950  1.0
  C  C72  1  0.38611454  0.60367883  0.38848705  1.0
  C  C73  1  0.28333776  0.72643272  0.34058169  1.0
  C  C74  1  0.13880569  0.09587304  0.89062597  1.0
  C  C75  1  0.18974837  0.14292336  0.85076265  1.0
  C  C76  1  0.23345894  0.13685227  0.88781255  1.0
  C  C77  1  0.28076733  0.18000744  0.85255748  1.0
  C  C78  1  0.28520856  0.23096012  0.78061894  1.0
  C  C79  1  0.24004887  0.23800550  0.74408909  1.0
  C  C80  1  0.19291267  0.19319367  0.77917671  1.0
  C  C81  1  0.19718449  0.30055111  0.63367604  1.0
  C  C82  1  0.29159429  0.33069612  0.63969190  1.0
  C  C83  1  0.33752627  0.32708028  0.67089750  1.0
  C  C84  1  0.38573026  0.37684778  0.62423024  1.0
  C  C85  1  0.33843155  0.27494678  0.74539896  1.0
  C  C86  1  0.87542356  0.88845239  0.12093012  1.0
  C  C87  1  0.81895304  0.84716823  0.16373518  1.0
  C  C88  1  0.74398380  0.88516507  0.16012235  1.0
  C  C89  1  0.69134297  0.84729303  0.19982336  1.0
  C  C90  1  0.71087852  0.77188885  0.24477184  1.0
  C  C91  1  0.78629164  0.73400185  0.24830847  1.0
  C  C92  1  0.84033187  0.77185994  0.20711071  1.0
  C  C93  1  0.88220664  0.61811996  0.29906142  1.0
  C  C94  1  0.75180924  0.62414015  0.33293042  1.0
  C  C95  1  0.67702430  0.65711833  0.33391529  1.0
  C  C96  1  0.62670399  0.60973495  0.38412770  1.0
  C  C97  1  0.65075646  0.73497091  0.28744465  1.0
  C  C98  1  0.88617680  0.12394416  0.89280907  1.0
  C  C99  1  0.82929972  0.17697663  0.85235592  1.0
  C  C100  1  0.75686932  0.21895686  0.89060513  1.0
  C  C101  1  0.70309773  0.26815100  0.85463954  1.0
  C  C102  1  0.71890045  0.27635160  0.78064497  1.0
  C  C103  1  0.79136036  0.23329366  0.74264549  1.0
  C  C104  1  0.84670064  0.18414596  0.77862718  1.0
  C  C105  1  0.88009486  0.19729277  0.62822314  1.0
  C  C106  1  0.75201846  0.28920783  0.63584649  1.0
  C  C107  1  0.68025789  0.33262694  0.66880777  1.0
  C  C108  1  0.62873850  0.38101022  0.62254997  1.0
  C  C109  1  0.65851762  0.33088679  0.74497589  1.0
  C  C110  1  0.11465441  0.87006880  0.89495582  1.0
  C  C111  1  0.15925780  0.81422268  0.85284912  1.0
  C  C112  1  0.15660848  0.74015611  0.89026409  1.0
  C  C113  1  0.19718392  0.68769094  0.85235067  1.0
  C  C114  1  0.24253322  0.70642263  0.77740517  1.0
  C  C115  1  0.24608471  0.78058000  0.74016921  1.0
  C  C116  1  0.20333646  0.83464748  0.77806131  1.0
  C  C117  1  0.29765845  0.87405841  0.62538961  1.0
  C  C118  1  0.33439232  0.74427567  0.63148151  1.0
  C  C119  1  0.33516901  0.67079967  0.66394613  1.0
  C  C120  1  0.38734247  0.61917367  0.61789286  1.0
  C  C121  1  0.28501208  0.64692971  0.74005300  1.0
  N  N122  1  0.67364521  0.22748536  0.30691694  1.0
  N  N123  1  0.29845587  0.65058283  0.24985040  1.0
  N  N124  1  0.24401904  0.28976939  0.67283794  1.0
  N  N125  1  0.80538195  0.65891115  0.29320266  1.0
  N  N126  1  0.80641751  0.24105108  0.66919334  1.0
  N  N127  1  0.29247281  0.79828030  0.66583747  1.0
  O  O128  1  0.00698846  0.99243155  0.00388532  1.0
  O  O129  1  0.86342804  0.08511170  0.11992689  1.0
  O  O130  1  0.97159567  0.11186953  0.08034452  1.0
  O  O131  1  0.65537749  0.39075638  0.41247791  1.0
  O  O132  1  0.54918411  0.38162682  0.41782900  1.0
  O  O133  1  0.78626265  0.34750292  0.29809721  1.0
  O  O134  1  0.10613694  0.83900077  0.10762166  1.0
  O  O135  1  0.08037373  0.94771167  0.12480734  1.0
  O  O136  1  0.40073795  0.63855038  0.41175748  1.0
  O  O137  1  0.41137002  0.53188473  0.40107133  1.0
  O  O138  1  0.27140559  0.76005792  0.38105095  1.0
  O  O139  1  0.10565066  0.09418908  0.85492334  1.0
  O  O140  1  0.13261568  0.06022183  0.95929279  1.0
  O  O141  1  0.41127072  0.39197982  0.65655372  1.0
  O  O142  1  0.39656459  0.40086086  0.55397070  1.0
  O  O143  1  0.37966136  0.26413756  0.77793742  1.0
  O  O144  1  0.94569310  0.85006797  0.11575634  1.0
  O  O145  1  0.84798630  0.95980637  0.09288739  1.0
  O  O146  1  0.55486955  0.64293556  0.39967072  1.0
  O  O147  1  0.66085474  0.53865988  0.40875610  1.0
  O  O148  1  0.58613038  0.76967924  0.28099524  1.0
  O  O149  1  0.95436125  0.09126286  0.85633445  1.0
  O  O150  1  0.86083423  0.11591340  0.96219303  1.0
  O  O151  1  0.55718005  0.40303613  0.65569817  1.0
  O  O152  1  0.66228912  0.39538605  0.55186560  1.0
  O  O153  1  0.59786074  0.37094677  0.77857512  1.0
  O  O154  1  0.10678677  0.93975285  0.85797465  1.0
  O  O155  1  0.08787115  0.84242453  0.96540558  1.0
  O  O156  1  0.40320739  0.54877445  0.65170689  1.0
  O  O157  1  0.41300575  0.65079860  0.54755175  1.0
  O  O158  1  0.27504346  0.58492842  0.77269225  1.0
  O  O159  1  0.50500457  0.49382100  0.50800270  1.0
