# generated using pymatgen
data_Cu4H8(C7N8)3
_symmetry_space_group_name_H-M   'P 1'
_cell_length_a   24.65962921
_cell_length_b   24.76087989
_cell_length_c   24.89012031
_cell_angle_alpha   89.89371061
_cell_angle_beta   90.02924706
_cell_angle_gamma   89.91332864
_symmetry_Int_Tables_number   1
_chemical_formula_structural   Cu4H8(C7N8)3
_chemical_formula_sum   'Cu12 H24 C63 N72'
_cell_volume   15197.71549193
_cell_formula_units_Z   3
loop_
 _symmetry_equiv_pos_site_id
 _symmetry_equiv_pos_as_xyz
  1  'x, y, z'
loop_
 _atom_site_type_symbol
 _atom_site_label
 _atom_site_symmetry_multiplicity
 _atom_site_fract_x
 _atom_site_fract_y
 _atom_site_fract_z
 _atom_site_occupancy
  Cu  Cu0  1  0.78191267  0.78327103  0.87222235  1.0
  Cu  Cu1  1  0.87362838  0.78347341  0.78275823  1.0
  Cu  Cu2  1  0.78168699  0.87433826  0.78230664  1.0
  Cu  Cu3  1  0.78413101  0.21629637  0.12653177  1.0
  Cu  Cu4  1  0.87493049  0.21679860  0.21723930  1.0
  Cu  Cu5  1  0.78373728  0.12572046  0.21700903  1.0
  Cu  Cu6  1  0.21661744  0.78293506  0.12900330  1.0
  Cu  Cu7  1  0.12476030  0.78308606  0.21874462  1.0
  Cu  Cu8  1  0.21635850  0.87381983  0.21865520  1.0
  Cu  Cu9  1  0.21603372  0.21810671  0.87222382  1.0
  Cu  Cu10  1  0.12439022  0.21866519  0.78230634  1.0
  Cu  Cu11  1  0.21596175  0.12722912  0.78287107  1.0
  H  H12  1  0.81759094  0.68117868  0.94135928  1.0
  H  H13  1  0.94415078  0.68209294  0.82031543  1.0
  H  H14  1  0.67929615  0.94404483  0.81907381  1.0
  H  H15  1  0.68018515  0.81946236  0.94189525  1.0
  H  H16  1  0.94316265  0.82004448  0.68158015  1.0
  H  H17  1  0.81811903  0.94351280  0.68088923  1.0
  H  H18  1  0.82027925  0.31790318  0.05717181  1.0
  H  H19  1  0.94437458  0.31897331  0.18080674  1.0
  H  H20  1  0.68149028  0.05625588  0.18047171  1.0
  H  H21  1  0.68210207  0.18026109  0.05708046  1.0
  H  H22  1  0.94387428  0.18070182  0.31928691  1.0
  H  H23  1  0.81970864  0.05674786  0.31888762  1.0
  H  H24  1  0.18113559  0.68093545  0.06031082  1.0
  H  H25  1  0.05453977  0.68192336  0.18131324  1.0
  H  H26  1  0.31781104  0.94419467  0.18141235  1.0
  H  H27  1  0.31861842  0.81919037  0.05946765  1.0
  H  H28  1  0.05568687  0.81934676  0.32057269  1.0
  H  H29  1  0.18079035  0.94237787  0.32052478  1.0
  H  H30  1  0.18020995  0.31953010  0.94154680  1.0
  H  H31  1  0.05499167  0.32105611  0.81902357  1.0
  H  H32  1  0.31779798  0.05677318  0.82022059  1.0
  H  H33  1  0.31839710  0.18227890  0.94164217  1.0
  H  H34  1  0.05516294  0.18208532  0.68083067  1.0
  H  H35  1  0.17983795  0.05822875  0.68174482  1.0
  C  C36  1  0.84410782  0.68920014  0.90755777  1.0
  C  C37  1  0.89133645  0.66182063  0.89144177  1.0
  C  C38  1  0.90909108  0.68973632  0.84547479  1.0
  C  C39  1  0.68740708  0.90946100  0.84464695  1.0
  C  C40  1  0.65992914  0.89217141  0.89105380  1.0
  C  C41  1  0.68785328  0.84551114  0.90767970  1.0
  C  C42  1  0.90846461  0.84584821  0.68927333  1.0
  C  C43  1  0.89111321  0.89223292  0.66147449  1.0
  C  C44  1  0.84427380  0.90918397  0.68888274  1.0
  C  C45  1  0.84628068  0.31025487  0.09149862  1.0
  C  C46  1  0.89269359  0.33833762  0.10853398  1.0
  C  C47  1  0.90992812  0.31083510  0.15498204  1.0
  C  C48  1  0.68955755  0.09067370  0.15470580  1.0
  C  C49  1  0.66189048  0.10787235  0.10831665  1.0
  C  C50  1  0.68988091  0.15427899  0.09134508  1.0
  C  C51  1  0.90944544  0.15474726  0.31127374  1.0
  C  C52  1  0.89216621  0.10833134  0.33896650  1.0
  C  C53  1  0.84572648  0.09113979  0.31107641  1.0
  C  C54  1  0.15458006  0.68900150  0.09406852  1.0
  C  C55  1  0.10742613  0.66162066  0.11027063  1.0
  C  C56  1  0.08959298  0.68952021  0.15614404  1.0
  C  C57  1  0.31016183  0.90948332  0.15603348  1.0
  C  C58  1  0.33804570  0.89219108  0.10989465  1.0
  C  C59  1  0.31058490  0.84532468  0.09345578  1.0
  C  C60  1  0.09032134  0.84508334  0.31266363  1.0
  C  C61  1  0.10792269  0.89126453  0.34041159  1.0
  C  C62  1  0.15452750  0.90821324  0.31263962  1.0
  C  C63  1  0.15393915  0.31199018  0.90744375  1.0
  C  C64  1  0.10727702  0.34011811  0.89084946  1.0
  C  C65  1  0.08967614  0.31278777  0.84455897  1.0
  C  C66  1  0.31005380  0.09157860  0.84546651  1.0
  C  C67  1  0.33793929  0.10904247  0.89154115  1.0
  C  C68  1  0.31041403  0.15601342  0.90775310  1.0
  C  C69  1  0.08973506  0.15618738  0.68887841  1.0
  C  C70  1  0.10712321  0.10966975  0.66150345  1.0
  C  C71  1  0.15371385  0.09262981  0.68938429  1.0
  C  C72  1  0.00002702  0.00033058  0.50078719  1.0
  C  C73  1  0.99992668  0.50082110  0.00074869  1.0
  C  C74  1  0.49925656  0.00043946  0.00080064  1.0
  C  C75  1  0.91708767  0.61644085  0.91751751  1.0
  C  C76  1  0.96582002  0.53947778  0.96676303  1.0
  C  C77  1  0.91800306  0.38417012  0.08295377  1.0
  C  C78  1  0.96602125  0.46190272  0.03446335  1.0
  C  C79  1  0.08198550  0.61614000  0.08434888  1.0
  C  C80  1  0.03380202  0.53920062  0.03499831  1.0
  C  C81  1  0.08215319  0.38579872  0.91681208  1.0
  C  C82  1  0.03406773  0.46266579  0.96643682  1.0
  C  C83  1  0.61442257  0.91773968  0.91712698  1.0
  C  C84  1  0.53760817  0.96635833  0.96661860  1.0
  C  C85  1  0.38341336  0.08324644  0.91760680  1.0
  C  C86  1  0.46052883  0.03447864  0.96681785  1.0
  C  C87  1  0.61605188  0.08245869  0.08274439  1.0
  C  C88  1  0.53823860  0.03426572  0.03443987  1.0
  C  C89  1  0.38355940  0.91791246  0.08400352  1.0
  C  C90  1  0.46068464  0.96652976  0.03493445  1.0
  C  C91  1  0.91686224  0.91784225  0.61606928  1.0
  C  C92  1  0.96577317  0.96642979  0.53921256  1.0
  C  C93  1  0.08276548  0.91679174  0.38615010  1.0
  C  C94  1  0.03433305  0.96592191  0.46288765  1.0
  C  C95  1  0.08186336  0.08386929  0.61600615  1.0
  C  C96  1  0.03388006  0.03464521  0.53909720  1.0
  C  C97  1  0.91760065  0.08282620  0.38468886  1.0
  C  C98  1  0.96604278  0.03425362  0.46201488  1.0
  N  N99  1  0.87486037  0.73064302  0.83507435  1.0
  N  N100  1  0.83456515  0.73033881  0.87364146  1.0
  N  N101  1  0.72888441  0.83582055  0.87361463  1.0
  N  N102  1  0.72863091  0.87551099  0.83449954  1.0
  N  N103  1  0.83454193  0.87531270  0.72991906  1.0
  N  N104  1  0.87438125  0.83598819  0.73014718  1.0
  N  N105  1  0.87617447  0.26949623  0.16479121  1.0
  N  N106  1  0.83666562  0.26916138  0.12539648  1.0
  N  N107  1  0.73110095  0.16391141  0.12522148  1.0
  N  N108  1  0.73091648  0.12442635  0.16453763  1.0
  N  N109  1  0.83615616  0.12490225  0.26988409  1.0
  N  N110  1  0.87570580  0.16439820  0.27000910  1.0
  N  N111  1  0.12369404  0.73044324  0.16639728  1.0
  N  N112  1  0.16400921  0.73012390  0.12784597  1.0
  N  N113  1  0.26945754  0.83552790  0.12739302  1.0
  N  N114  1  0.26919446  0.87534068  0.16623511  1.0
  N  N115  1  0.16390029  0.87455648  0.27145235  1.0
  N  N116  1  0.12405076  0.83535725  0.27146478  1.0
  N  N117  1  0.12345652  0.27146598  0.83446481  1.0
  N  N118  1  0.16334861  0.27100169  0.87348576  1.0
  N  N119  1  0.26920989  0.16568329  0.87380159  1.0
  N  N120  1  0.26901180  0.12572127  0.83511510  1.0
  N  N121  1  0.16327872  0.12656669  0.73027785  1.0
  N  N122  1  0.12357213  0.16602656  0.72997518  1.0
  N  N123  1  0.89311904  0.59601712  0.96225806  1.0
  N  N124  1  0.96437319  0.59806246  0.89618158  1.0
  N  N125  1  0.98930175  0.55866456  0.92187945  1.0
  N  N126  1  0.91863484  0.55659077  0.98759628  1.0
  N  N127  1  0.89511529  0.40322243  0.03698149  1.0
  N  N128  1  0.96360274  0.40447162  0.10594859  1.0
  N  N129  1  0.98820770  0.44430803  0.08063551  1.0
  N  N130  1  0.92025569  0.44299867  0.01207537  1.0
  N  N131  1  0.10590714  0.59627853  0.03935672  1.0
  N  N132  1  0.03525487  0.59694202  0.10607577  1.0
  N  N133  1  0.01057128  0.55756300  0.08029488  1.0
  N  N134  1  0.08071226  0.55687108  0.01399952  1.0
  N  N135  1  0.03649957  0.40655295  0.89414192  1.0
  N  N136  1  0.10539189  0.40439282  0.96269538  1.0
  N  N137  1  0.08018917  0.44372088  0.98822630  1.0
  N  N138  1  0.01186366  0.44594484  0.92004619  1.0
  N  N139  1  0.59560914  0.89489637  0.96315543  1.0
  N  N140  1  0.59422428  0.96352978  0.89449963  1.0
  N  N141  1  0.55485539  0.98845114  0.92034274  1.0
  N  N142  1  0.55629425  0.92036044  0.98859042  1.0
  N  N143  1  0.40360035  0.10678272  0.96261444  1.0
  N  N144  1  0.40209085  0.03639027  0.89601777  1.0
  N  N145  1  0.44158131  0.01143491  0.92170367  1.0
  N  N146  1  0.44310089  0.08125862  0.98792148  1.0
  N  N147  1  0.59585436  0.03697927  0.10585049  1.0
  N  N148  1  0.59693493  0.10508483  0.03668228  1.0
  N  N149  1  0.55708630  0.07987985  0.01190338  1.0
  N  N150  1  0.55599944  0.01225354  0.08060894  1.0
  N  N151  1  0.40286834  0.96417744  0.10616753  1.0
  N  N152  1  0.40326396  0.89474655  0.03856889  1.0
  N  N153  1  0.44278191  0.92014780  0.01339929  1.0
  N  N154  1  0.44233652  0.98912580  0.08050951  1.0
  N  N155  1  0.89360567  0.96342826  0.59609183  1.0
  N  N156  1  0.96328809  0.89520166  0.59709273  1.0
  N  N157  1  0.98835582  0.92058170  0.55772382  1.0
  N  N158  1  0.91920711  0.98839787  0.55674211  1.0
  N  N159  1  0.03679224  0.89408367  0.40599890  1.0
  N  N160  1  0.10631207  0.96223044  0.40581037  1.0
  N  N161  1  0.08094946  0.98749766  0.44508130  1.0
  N  N162  1  0.01195639  0.91975102  0.44529454  1.0
  N  N163  1  0.03588999  0.10654485  0.59593521  1.0
  N  N164  1  0.10527132  0.03802449  0.59696151  1.0
  N  N165  1  0.08016684  0.01274197  0.55758971  1.0
  N  N166  1  0.01128319  0.08081997  0.55654007  1.0
  N  N167  1  0.96364797  0.10560349  0.40425398  1.0
  N  N168  1  0.89443256  0.03712529  0.40434492  1.0
  N  N169  1  0.91977345  0.01218743  0.44393830  1.0
  N  N170  1  0.98848938  0.08022232  0.44385732  1.0
