# generated using pymatgen
data_AlH9C13SNO5
_symmetry_space_group_name_H-M   'P 1'
_cell_length_a   6.66449073
_cell_length_b   12.41172180
_cell_length_c   17.68229023
_cell_angle_alpha   98.47172785
_cell_angle_beta   99.45265533
_cell_angle_gamma   100.69585192
_symmetry_Int_Tables_number   1
_chemical_formula_structural   AlH9C13SNO5
_chemical_formula_sum   'Al2 H18 C26 S2 N2 O10'
_cell_volume   1393.65703905
_cell_formula_units_Z   2
loop_
 _symmetry_equiv_pos_site_id
 _symmetry_equiv_pos_as_xyz
  1  'x, y, z'
loop_
 _atom_site_type_symbol
 _atom_site_label
 _atom_site_symmetry_multiplicity
 _atom_site_fract_x
 _atom_site_fract_y
 _atom_site_fract_z
 _atom_site_occupancy
  Al  Al0  1  0.99802221  0.49833972  0.49951865  1.0
  Al  Al1  1  0.49800477  0.49820252  0.49976507  1.0
  H  H2  1  0.31698896  0.56315040  0.59693320  1.0
  H  H3  1  0.67828660  0.43336495  0.40241564  1.0
  H  H4  1  0.81299062  0.43985509  0.26258703  1.0
  H  H5  1  0.74601116  0.43350793  0.11874171  1.0
  H  H6  1  0.46566749  0.56561452  0.27450255  1.0
  H  H7  1  0.53547892  0.43516499  0.72727889  1.0
  H  H8  1  0.18586353  0.56119364  0.73508794  1.0
  H  H9  1  0.25876651  0.57117446  0.87928808  1.0
  H  H10  1  0.59697027  0.60899498  0.16145871  1.0
  H  H11  1  0.41686012  0.65656266  0.09493466  1.0
  H  H12  1  0.45980839  0.52093373  0.07194712  1.0
  H  H13  1  0.54909627  0.48531396  0.93029131  1.0
  H  H14  1  0.59185851  0.34940931  0.90860032  1.0
  H  H15  1  0.40927553  0.39522910  0.84194232  1.0
  H  H16  1  0.59157953  0.11829466  0.45581783  1.0
  H  H17  1  0.75399614  0.24642712  0.45861037  1.0
  H  H18  1  0.40447278  0.87840679  0.54380465  1.0
  H  H19  1  0.24166761  0.75028998  0.54077437  1.0
  C  C20  1  0.81680337  0.69766722  0.50750525  1.0
  C  C21  1  0.81480741  0.49461597  0.63735520  1.0
  C  C22  1  0.17925003  0.29909894  0.49178434  1.0
  C  C23  1  0.18208806  0.50326261  0.36208436  1.0
  C  C24  1  0.14387844  0.50255702  0.27670452  1.0
  C  C25  1  0.94001647  0.46671278  0.23325089  1.0
  C  C26  1  0.90274363  0.46404441  0.15348439  1.0
  C  C27  1  0.06666018  0.50206280  0.11603867  1.0
  C  C28  1  0.27341748  0.54061427  0.15992304  1.0
  C  C29  1  0.30834867  0.53762390  0.23952638  1.0
  C  C30  1  0.02343626  0.50255196  0.03510567  1.0
  C  C31  1  0.98541458  0.50337428  0.96517345  1.0
  C  C32  1  0.93957875  0.50255038  0.88411835  1.0
  C  C33  1  0.73172403  0.46309089  0.84135064  1.0
  C  C34  1  0.69361393  0.46397953  0.76146312  1.0
  C  C35  1  0.85594258  0.49786029  0.72301443  1.0
  C  C36  1  0.06066564  0.53504875  0.76543913  1.0
  C  C37  1  0.10122960  0.53974886  0.84540078  1.0
  C  C38  1  0.90514597  0.12222592  0.47814449  1.0
  C  C39  1  0.09091260  0.87465331  0.52137550  1.0
  C  C40  1  0.11334703  0.18311166  0.49566355  1.0
  C  C41  1  0.88265111  0.81374448  0.50373845  1.0
  C  C42  1  0.09593909  0.98754535  0.51204048  1.0
  C  C43  1  0.90020571  0.00940881  0.48765528  1.0
  C  C44  1  0.44681349  0.58408291  0.12056951  1.0
  C  C45  1  0.56051173  0.42098430  0.88211986  1.0
  S  S46  1  0.29384172  0.10377309  0.52494068  1.0
  S  S47  1  0.70224008  0.89317767  0.47462182  1.0
  N  N48  1  0.73466027  0.16211130  0.45374874  1.0
  N  N49  1  0.26124800  0.83462731  0.54574978  1.0
  O  O50  1  0.96574266  0.64649589  0.52389156  1.0
  O  O51  1  0.63842946  0.50947139  0.60546668  1.0
  O  O52  1  0.37352784  0.34432193  0.50331830  1.0
  O  O53  1  0.03441642  0.51920328  0.39705758  1.0
  O  O54  1  0.03050316  0.35027673  0.47503582  1.0
  O  O55  1  0.35722339  0.48700945  0.39407521  1.0
  O  O56  1  0.62259090  0.65234874  0.49627784  1.0
  O  O57  1  0.96158242  0.47809460  0.60205187  1.0
  O  O58  1  0.28477336  0.55047791  0.54036376  1.0
  O  O59  1  0.71115264  0.44606102  0.45897788  1.0
