# generated using pymatgen
data_ZnH2(CO)4
_symmetry_space_group_name_H-M   'P 1'
_cell_length_a   10.88473331
_cell_length_b   10.95270150
_cell_length_c   10.99217155
_cell_angle_alpha   99.84995038
_cell_angle_beta   98.40491002
_cell_angle_gamma   90.97680349
_symmetry_Int_Tables_number   1
_chemical_formula_structural   ZnH2(CO)4
_chemical_formula_sum   'Zn4 H8 C16 O16'
_cell_volume   1276.08259933
_cell_formula_units_Z   4
loop_
 _symmetry_equiv_pos_site_id
 _symmetry_equiv_pos_as_xyz
  1  'x, y, z'
loop_
 _atom_site_type_symbol
 _atom_site_label
 _atom_site_symmetry_multiplicity
 _atom_site_fract_x
 _atom_site_fract_y
 _atom_site_fract_z
 _atom_site_occupancy
  Zn  Zn0  1  0.60368648  0.39171350  0.39786673  1.0
  Zn  Zn1  1  0.37766681  0.57629372  0.39007870  1.0
  Zn  Zn2  1  0.60203833  0.62579359  0.62447940  1.0
  Zn  Zn3  1  0.41435329  0.39152538  0.58873821  1.0
  H  H4  1  0.59511846  0.98401868  0.40239086  1.0
  H  H5  1  0.39586016  0.00920577  0.57836081  1.0
  H  H6  1  0.97611042  0.73875551  0.65340167  1.0
  H  H7  1  0.92404864  0.34374536  0.31118367  1.0
  H  H8  1  0.65591793  0.71037618  0.00809048  1.0
  H  H9  1  0.36659096  0.29371010  0.03221101  1.0
  H  H10  1  0.31625255  0.37341689  0.90573460  1.0
  H  H11  1  0.44776841  0.28366186  0.90040120  1.0
  C  C12  1  0.17117373  0.46637133  0.48463599  1.0
  C  C13  1  0.52954571  0.02711875  0.46099576  1.0
  C  C14  1  0.46130460  0.96209198  0.52160605  1.0
  C  C15  1  0.97017934  0.55124236  0.54113725  1.0
  C  C16  1  0.03649932  0.66607455  0.61451785  1.0
  C  C17  1  0.97152837  0.33915782  0.40689121  1.0
  C  C18  1  0.61118111  0.64551801  0.05718218  1.0
  C  C19  1  0.39781767  0.34514769  0.96431355  1.0
  C  C20  1  0.03270368  0.45953262  0.48127866  1.0
  C  C21  1  0.53763960  0.53967564  0.97561845  1.0
  C  C22  1  0.47794449  0.45665474  0.02876306  1.0
  C  C23  1  0.83267894  0.53683672  0.53374313  1.0
  C  C24  1  0.48729719  0.47206522  0.16866337  1.0
  C  C25  1  0.53127628  0.52931989  0.83803588  1.0
  C  C26  1  0.46928193  0.82562139  0.51675692  1.0
  C  C27  1  0.51960793  0.16291755  0.47092729  1.0
  O  O28  1  0.50069071  0.49911654  0.49997088  1.0
  O  O29  1  0.39192632  0.75738038  0.43413170  1.0
  O  O30  1  0.44791026  0.21681002  0.54377418  1.0
  O  O31  1  0.55180043  0.79192768  0.59732841  1.0
  O  O32  1  0.58494635  0.21529362  0.40506611  1.0
  O  O33  1  0.15001949  0.68137048  0.63070681  1.0
  O  O34  1  0.98405506  0.24257523  0.44733594  1.0
  O  O35  1  0.62282196  0.66254753  0.17189210  1.0
  O  O36  1  0.57092335  0.41093111  0.22178430  1.0
  O  O37  1  0.46601827  0.43875556  0.76922908  1.0
  O  O38  1  0.20778985  0.51463385  0.39826045  1.0
  O  O39  1  0.77975047  0.61901438  0.60220380  1.0
  O  O40  1  0.23352187  0.41227758  0.56461529  1.0
  O  O41  1  0.78031432  0.44166122  0.45938448  1.0
  O  O42  1  0.39901743  0.52861609  0.21426316  1.0
  O  O43  1  0.59243312  0.61206529  0.79909204  1.0
