# generated using pymatgen
data_AlH16C23(ClO4)2
_symmetry_space_group_name_H-M   'P 1'
_cell_length_a   6.61442169
_cell_length_b   22.31872414
_cell_length_c   26.98791434
_cell_angle_alpha   77.72694407
_cell_angle_beta   89.99969522
_cell_angle_gamma   89.99956301
_symmetry_Int_Tables_number   1
_chemical_formula_structural   AlH16C23(ClO4)2
_chemical_formula_sum   'Al4 H64 C92 Cl8 O32'
_cell_volume   3893.04898143
_cell_formula_units_Z   4
loop_
 _symmetry_equiv_pos_site_id
 _symmetry_equiv_pos_as_xyz
  1  'x, y, z'
loop_
 _atom_site_type_symbol
 _atom_site_label
 _atom_site_symmetry_multiplicity
 _atom_site_fract_x
 _atom_site_fract_y
 _atom_site_fract_z
 _atom_site_occupancy
  Al  Al0  1  0.80103744  0.74828938  0.75090786  1.0
  Al  Al1  1  0.18595814  0.25221747  0.24920843  1.0
  Al  Al2  1  0.30103602  0.75170585  0.74909159  1.0
  Al  Al3  1  0.68597469  0.24778602  0.25079003  1.0
  H  H4  1  0.90240445  0.61871646  0.89800314  1.0
  H  H5  1  0.08398337  0.38154660  0.10129649  1.0
  H  H6  1  0.40239119  0.88128842  0.60199802  1.0
  H  H7  1  0.58399058  0.11845500  0.39870326  1.0
  H  H8  1  0.74574229  0.88314341  0.83334665  1.0
  H  H9  1  0.26027981  0.12725631  0.16128112  1.0
  H  H10  1  0.24577124  0.61684373  0.66666667  1.0
  H  H11  1  0.76026314  0.37274092  0.33871840  1.0
  H  H12  1  0.74661027  0.95124684  0.89576053  1.0
  H  H13  1  0.27584256  0.06114632  0.09831960  1.0
  H  H14  1  0.24663734  0.54874559  0.60424167  1.0
  H  H15  1  0.77583236  0.43885046  0.40167800  1.0
  H  H16  1  0.34181477  0.82093961  0.88136848  1.0
  H  H17  1  0.63390105  0.16538764  0.12428345  1.0
  H  H18  1  0.84183347  0.67905313  0.61863699  1.0
  H  H19  1  0.13388208  0.33462005  0.37571657  1.0
  H  H20  1  0.33169923  0.99477462  0.95681118  1.0
  H  H21  1  0.67730889  0.00113409  0.04582786  1.0
  H  H22  1  0.83172502  0.50522048  0.54318672  1.0
  H  H23  1  0.17731630  0.49887359  0.45417362  1.0
  H  H24  1  0.29435269  0.06085956  0.01837284  1.0
  H  H25  1  0.71355934  0.93567328  0.98387130  1.0
  H  H26  1  0.79436250  0.43913874  0.48162208  1.0
  H  H27  1  0.21357970  0.56433248  0.51613163  1.0
  H  H28  1  0.66836840  0.67468918  0.01422758  1.0
  H  H29  1  0.68734190  0.65183993  0.08247546  1.0
  H  H30  1  0.44687335  0.67277677  0.05311426  1.0
  H  H31  1  0.31446523  0.34886445  0.91935372  1.0
  H  H32  1  0.33272058  0.32756497  0.98770429  1.0
  H  H33  1  0.55553849  0.33027543  0.94923028  1.0
  H  H34  1  0.16845393  0.82530605  0.48577555  1.0
  H  H35  1  0.18743386  0.84814898  0.41752767  1.0
  H  H36  1  0.94697727  0.82720806  0.44688852  1.0
  H  H37  1  0.81439146  0.15113297  0.58065285  1.0
  H  H38  1  0.83263968  0.17243962  0.51230032  1.0
  H  H39  1  0.05546038  0.16973710  0.55077733  1.0
  H  H40  1  0.38791723  0.49353063  0.18026140  1.0
  H  H41  1  0.33100054  0.53913093  0.11834841  1.0
  H  H42  1  0.34470007  0.57419150  0.17253626  1.0
  H  H43  1  0.66066964  0.46297123  0.88240616  1.0
  H  H44  1  0.60221844  0.50793127  0.82034587  1.0
  H  H45  1  0.64910939  0.42741235  0.82847887  1.0
  H  H46  1  0.88793904  0.00647847  0.31973787  1.0
  H  H47  1  0.83101424  0.96087507  0.38165139  1.0
  H  H48  1  0.84471394  0.92581712  0.32746010  1.0
  H  H49  1  0.16063333  0.03702110  0.61758626  1.0
  H  H50  1  0.10220726  0.99205662  0.67964709  1.0
  H  H51  1  0.14911825  0.07257358  0.67151777  1.0
  H  H52  1  0.59563688  0.83373438  0.93221148  1.0
  H  H53  1  0.40849311  0.78690395  0.97062819  1.0
  H  H54  1  0.58225053  0.83208997  0.99869021  1.0
  H  H55  1  0.74883960  0.13610242  0.98167118  1.0
  H  H56  1  0.63611484  0.19423509  0.01000141  1.0
  H  H57  1  0.47876298  0.14194076  0.98522489  1.0
  H  H58  1  0.09565085  0.66626454  0.56779658  1.0
  H  H59  1  0.90850314  0.71309197  0.52937830  1.0
  H  H60  1  0.08227750  0.66791112  0.50131824  1.0
  H  H61  1  0.24886730  0.36389634  0.51832525  1.0
  H  H62  1  0.13612371  0.30576892  0.48999181  1.0
  H  H63  1  0.97878155  0.35806048  0.51478104  1.0
  H  H64  1  0.54396141  0.70625477  0.81132327  1.0
  H  H65  1  0.44300702  0.28999412  0.18704992  1.0
  H  H66  1  0.04396430  0.79374560  0.68867767  1.0
  H  H67  1  0.94300854  0.21000799  0.31294818  1.0
  C  C68  1  0.55052394  0.69026846  0.68460763  1.0
  C  C69  1  0.43718069  0.31076145  0.31460497  1.0
  C  C70  1  0.05051705  0.80972876  0.81539331  1.0
  C  C71  1  0.93719213  0.18924406  0.18539388  1.0
  C  C72  1  0.55455692  0.85062977  0.69386245  1.0
  C  C73  1  0.43205464  0.14984459  0.30678077  1.0
  C  C74  1  0.05456036  0.64936555  0.80613167  1.0
  C  C75  1  0.93204517  0.35016039  0.19321846  1.0
  C  C76  1  0.91130057  0.41103278  0.15748799  1.0
  C  C77  1  0.07512505  0.58866698  0.84211002  1.0
  C  C78  1  0.41129448  0.08897475  0.34251202  1.0
  C  C79  1  0.57510845  0.91133233  0.65789125  1.0
  C  C80  1  0.73457958  0.50839012  0.13274676  1.0
  C  C81  1  0.25572845  0.49209727  0.86777066  1.0
  C  C82  1  0.23459446  0.99161158  0.36725320  1.0
  C  C83  1  0.75570452  0.00790357  0.63222991  1.0
  C  C84  1  0.79233407  0.45810601  0.17008883  1.0
  C  C85  1  0.19576819  0.54160785  0.83001995  1.0
  C  C86  1  0.29234298  0.04189600  0.32991099  1.0
  C  C87  1  0.69575474  0.95839159  0.66998153  1.0
  C  C88  1  0.99325356  0.41871563  0.10949341  1.0
  C  C89  1  0.99378259  0.58150163  0.89014505  1.0
  C  C90  1  0.49325454  0.08128856  0.39050309  1.0
  C  C91  1  0.49378035  0.91849805  0.60985638  1.0
  C  C92  1  0.95167129  0.47088311  0.07101960  1.0
  C  C93  1  0.03701906  0.52991114  0.92910311  1.0
  C  C94  1  0.45167609  0.02912156  0.42898075  1.0
  C  C95  1  0.53699463  0.97009117  0.57090085  1.0
  C  C96  1  0.80396463  0.51344790  0.08168897  1.0
  C  C97  1  0.18646585  0.48758647  0.91877139  1.0
  C  C98  1  0.30398949  0.98655180  0.41830939  1.0
  C  C99  1  0.68645312  0.01241334  0.58122853  1.0
  C  C100  1  0.03993348  0.47969519  0.02081724  1.0
  C  C101  1  0.94919077  0.52147166  0.97935650  1.0
  C  C102  1  0.53993602  0.02030151  0.47918638  1.0
  C  C103  1  0.44917767  0.97852870  0.52064802  1.0
  C  C104  1  0.77191552  0.55368012  0.99045606  1.0
  C  C105  1  0.21866765  0.44800082  0.01001864  1.0
  C  C106  1  0.27192307  0.94631859  0.50954228  1.0
  C  C107  1  0.71866771  0.05200157  0.48998394  1.0
  C  C108  1  0.71323689  0.55460228  0.03957341  1.0
  C  C109  1  0.27886871  0.44715633  0.96101373  1.0
  C  C110  1  0.21325466  0.94539912  0.46042432  1.0
  C  C111  1  0.77885856  0.05284848  0.53898868  1.0
  C  C112  1  0.87533770  0.88455581  0.85796409  1.0
  C  C113  1  0.12718300  0.12090734  0.13917271  1.0
  C  C114  1  0.37536099  0.61543411  0.64203983  1.0
  C  C115  1  0.62716132  0.37908974  0.36082321  1.0
  C  C116  1  0.87609440  0.92170014  0.89333659  1.0
  C  C117  1  0.13481402  0.08422648  0.10361634  1.0
  C  C118  1  0.37614335  0.57828687  0.60666999  1.0
  C  C119  1  0.63481205  0.41577382  0.39637918  1.0
  C  C120  1  0.03850015  0.92232942  0.92678352  1.0
  C  C121  1  0.96549165  0.07617203  0.07400541  1.0
  C  C122  1  0.53852968  0.57767242  0.57321514  1.0
  C  C123  1  0.46549988  0.42383201  0.42599189  1.0
  C  C124  1  0.20660002  0.88391238  0.92314056  1.0
  C  C125  1  0.78570374  0.10726147  0.08195154  1.0
  C  C126  1  0.70664967  0.61607969  0.57686700  1.0
  C  C127  1  0.28570836  0.39274907  0.41804825  1.0
  C  C128  1  0.21166392  0.84915610  0.88578120  1.0
  C  C129  1  0.77501274  0.14241338  0.11874189  1.0
  C  C130  1  0.71167736  0.65083706  0.61422559  1.0
  C  C131  1  0.27498856  0.35759539  0.38125792  1.0
  C  C132  1  0.04574942  0.84893564  0.85363777  1.0
  C  C133  1  0.94574544  0.14968401  0.14746750  1.0
  C  C134  1  0.54577752  0.65105180  0.64637004  1.0
  C  C135  1  0.44572336  0.35031887  0.35253286  1.0
  C  C136  1  0.18771521  0.99593048  0.97620843  1.0
  C  C137  1  0.82020589  0.00071585  0.02594005  1.0
  C  C138  1  0.68773980  0.50406105  0.52378894  1.0
  C  C139  1  0.32021602  0.49929517  0.47405931  1.0
  C  C140  1  0.16603954  0.03345631  0.01092909  1.0
  C  C141  1  0.84141591  0.96361337  0.99088578  1.0
  C  C142  1  0.66603946  0.46654651  0.48906144  1.0
  C  C143  1  0.34143559  0.53639062  0.50911774  1.0
  C  C144  1  0.98209553  0.03697788  0.03645312  1.0
  C  C145  1  0.02478843  0.96054357  0.96508479  1.0
  C  C146  1  0.48208861  0.46302035  0.46354760  1.0
  C  C147  1  0.52482252  0.53945322  0.53491808  1.0
  C  C148  1  0.59239810  0.65076903  0.04920083  1.0
  C  C149  1  0.40788658  0.35133984  0.95259321  1.0
  C  C150  1  0.09248502  0.84922044  0.45080092  1.0
  C  C151  1  0.90782242  0.14866531  0.54741205  1.0
  C  C152  1  0.40692529  0.53851187  0.15466198  1.0
  C  C153  1  0.58493085  0.46300109  0.84615899  1.0
  C  C154  1  0.90693647  0.96149472  0.34533658  1.0
  C  C155  1  0.08491217  0.03698982  0.65383620  1.0
  C  C156  1  0.49319841  0.83034153  0.96479284  1.0
  C  C157  1  0.62147929  0.14680012  0.00465640  1.0
  C  C158  1  0.99322006  0.66965718  0.53521428  1.0
  C  C159  1  0.12149441  0.35320304  0.49534215  1.0
  Cl  Cl160  1  0.26581704  0.54473446  0.76799500  1.0
  Cl  Cl161  1  0.72213253  0.45400309  0.23221784  1.0
  Cl  Cl162  1  0.76580732  0.95526293  0.73200866  1.0
  Cl  Cl163  1  0.22216641  0.04600042  0.26778019  1.0
  Cl  Cl164  1  0.60268519  0.58854190  0.94382039  1.0
  Cl  Cl165  1  0.38752152  0.41400284  0.05696515  1.0
  Cl  Cl166  1  0.10270053  0.91146167  0.55617438  1.0
  Cl  Cl167  1  0.88753800  0.08599736  0.44303569  1.0
  O  O168  1  0.37948211  0.82859047  0.70528637  1.0
  O  O169  1  0.60762686  0.17119309  0.29503146  1.0
  O  O170  1  0.87947279  0.67140039  0.79470656  1.0
  O  O171  1  0.10761199  0.32880771  0.20495690  1.0
  O  O172  1  0.72337776  0.70443308  0.69962423  1.0
  O  O173  1  0.26336381  0.29754367  0.29949470  1.0
  O  O174  1  0.22337750  0.79557904  0.80037108  1.0
  O  O175  1  0.76337620  0.20247231  0.20050509  1.0
  O  O176  1  0.72137748  0.82465495  0.70828363  1.0
  O  O177  1  0.26561354  0.17639480  0.29290865  1.0
  O  O178  1  0.22136232  0.67535501  0.79172571  1.0
  O  O179  1  0.76561817  0.32360690  0.20710522  1.0
  O  O180  1  0.88012732  0.79259731  0.80135143  1.0
  O  O181  1  0.10620455  0.20783671  0.19903336  1.0
  O  O182  1  0.38012475  0.70738138  0.69865974  1.0
  O  O183  1  0.60618447  0.29214974  0.30096946  1.0
  O  O184  1  0.54974403  0.73847938  0.78096931  1.0
  O  O185  1  0.43712155  0.26064687  0.21911156  1.0
  O  O186  1  0.04975488  0.76152017  0.71903124  1.0
  O  O187  1  0.93712125  0.23935470  0.28088693  1.0
  O  O188  1  0.54683032  0.58841794  0.04678622  1.0
  O  O189  1  0.44786053  0.41433925  0.95400083  1.0
  O  O190  1  0.04687023  0.91157249  0.45321028  1.0
  O  O191  1  0.94783431  0.08566961  0.54600359  1.0
  O  O192  1  0.61851736  0.55347659  0.14567631  1.0
  O  O193  1  0.37398436  0.44720318  0.85522105  1.0
  O  O194  1  0.11853057  0.94652669  0.35432192  1.0
  O  O195  1  0.87396967  0.05279487  0.64478429  1.0
  O  O196  1  0.35717381  0.88140017  0.95845421  1.0
  O  O197  1  0.61358765  0.10456415  0.05285464  1.0
  O  O198  1  0.85720425  0.61859628  0.54154706  1.0
  O  O199  1  0.11358876  0.39544394  0.44714579  1.0
