# generated using pymatgen
data_Zn2H21C28N6ClO8
_symmetry_space_group_name_H-M   'P 1'
_cell_length_a   9.84760673
_cell_length_b   11.00907547
_cell_length_c   11.02189687
_cell_angle_alpha   92.19443239
_cell_angle_beta   91.57787222
_cell_angle_gamma   92.49476075
_symmetry_Int_Tables_number   1
_chemical_formula_structural   Zn2H21C28N6ClO8
_chemical_formula_sum   'Zn2 H21 C28 N6 Cl1 O8'
_cell_volume   1192.39893731
_cell_formula_units_Z   1
loop_
 _symmetry_equiv_pos_site_id
 _symmetry_equiv_pos_as_xyz
  1  'x, y, z'
loop_
 _atom_site_type_symbol
 _atom_site_label
 _atom_site_symmetry_multiplicity
 _atom_site_fract_x
 _atom_site_fract_y
 _atom_site_fract_z
 _atom_site_occupancy
  Zn  Zn0  1  0.64192289  0.51162284  0.50035839  1.0
  Zn  Zn1  1  0.35353879  0.49891432  0.49602904  1.0
  H  H2  1  0.28774929  0.87687751  0.46695813  1.0
  H  H3  1  0.74770325  0.22881440  0.56156614  1.0
  H  H4  1  0.30062928  0.42790044  0.86871615  1.0
  H  H5  1  0.28869683  0.42421753  0.09327819  1.0
  H  H6  1  0.76463006  0.67436280  0.13586482  1.0
  H  H7  1  0.74833613  0.32818414  0.35938115  1.0
  H  H8  1  0.89771937  0.27761204  0.30184678  1.0
  H  H9  1  0.86541338  0.82961382  0.73171324  1.0
  H  H10  1  0.76448026  0.76192026  0.62345837  1.0
  H  H11  1  0.11990183  0.57392663  0.82285989  1.0
  H  H12  1  0.25931988  0.63973179  0.77578490  1.0
  H  H13  1  0.82452859  0.52335916  0.13856553  1.0
  H  H14  1  0.68781720  0.72894577  0.34462548  1.0
  H  H15  1  0.85762493  0.75695632  0.34659773  1.0
  H  H16  1  0.78240613  0.67162561  0.91035220  1.0
  H  H17  1  0.83890033  0.51902659  0.91087845  1.0
  H  H18  1  0.11830049  0.36221233  0.36072721  1.0
  H  H19  1  0.89844609  0.61509398  0.75324462  1.0
  H  H20  1  0.12875500  0.75896998  0.63660740  1.0
  H  H21  1  0.97327350  0.93215103  0.42129745  1.0
  H  H22  1  0.96641904  0.13103739  0.53386849  1.0
  C  C23  1  0.51147158  0.50535322  0.73237844  1.0
  C  C24  1  0.38222357  0.45605392  0.05170555  1.0
  C  C25  1  0.49382609  0.49539563  0.12860150  1.0
  C  C26  1  0.49603723  0.74015778  0.48203272  1.0
  C  C27  1  0.61142305  0.53247319  0.07030102  1.0
  C  C28  1  0.75590852  0.58323482  0.09135721  1.0
  C  C29  1  0.76556737  0.58165182  0.94858007  1.0
  C  C30  1  0.07585210  0.57226632  0.56992240  1.0
  C  C31  1  0.06636346  0.42430387  0.42140848  1.0
  C  C32  1  0.92092719  0.42478919  0.41725163  1.0
  C  C33  1  0.93559125  0.57327222  0.56629621  1.0
  C  C34  1  0.62890967  0.94559562  0.45288113  1.0
  C  C35  1  0.92981412  0.66477906  0.67235866  1.0
  C  C36  1  0.09201892  0.67171942  0.67177546  1.0
  C  C37  1  0.48821321  0.49900595  0.26356605  1.0
  C  C38  1  0.49323723  0.26878440  0.49199645  1.0
  C  C39  1  0.75632080  0.89970668  0.41485679  1.0
  C  C40  1  0.87571850  0.96937734  0.44357283  1.0
  C  C41  1  0.87148424  0.08303764  0.50374615  1.0
  C  C42  1  0.74912581  0.13715476  0.52203794  1.0
  C  C43  1  0.62528965  0.07333610  0.48765818  1.0
  C  C44  1  0.50400879  0.87426702  0.45916154  1.0
  C  C45  1  0.38215311  0.93176409  0.46408341  1.0
  C  C46  1  0.37841984  0.05946672  0.46721235  1.0
  C  C47  1  0.49680041  0.13236331  0.48543349  1.0
  C  C48  1  0.61929295  0.53205078  0.94392973  1.0
  C  C49  1  0.50840212  0.49773006  0.86725031  1.0
  C  C50  1  0.38904302  0.45826167  0.92544079  1.0
  N  N51  1  0.14434716  0.49715826  0.49737207  1.0
  N  N52  1  0.85309159  0.50348646  0.49140049  1.0
  N  N53  1  0.84817152  0.34803284  0.33914196  1.0
  N  N54  1  0.86346580  0.77671983  0.65365803  1.0
  N  N55  1  0.15804467  0.65241169  0.78750994  1.0
  N  N56  1  0.76479479  0.79335701  0.34590565  1.0
  Cl  Cl57  1  0.21761716  0.11520396  0.44647026  1.0
  O  O58  1  0.62383430  0.48603443  0.68143459  1.0
  O  O59  1  0.40129433  0.53207162  0.67814386  1.0
  O  O60  1  0.60191724  0.69430017  0.52850939  1.0
  O  O61  1  0.38328111  0.68200541  0.45954138  1.0
  O  O62  1  0.59643078  0.54129280  0.32061986  1.0
  O  O63  1  0.37972847  0.46154302  0.31312600  1.0
  O  O64  1  0.59627000  0.32949354  0.45298151  1.0
  O  O65  1  0.38906885  0.31784165  0.53294415  1.0
