# generated using pymatgen
data_Al3H7(C16O9)2
_symmetry_space_group_name_H-M   'P 1'
_cell_length_a   12.81723109
_cell_length_b   12.83585021
_cell_length_c   26.85917891
_cell_angle_alpha   90.48277030
_cell_angle_beta   97.66990521
_cell_angle_gamma   60.68632838
_symmetry_Int_Tables_number   1
_chemical_formula_structural   Al3H7(C16O9)2
_chemical_formula_sum   'Al6 H14 C64 O36'
_cell_volume   3810.28433874
_cell_formula_units_Z   2
loop_
 _symmetry_equiv_pos_site_id
 _symmetry_equiv_pos_as_xyz
  1  'x, y, z'
loop_
 _atom_site_type_symbol
 _atom_site_label
 _atom_site_symmetry_multiplicity
 _atom_site_fract_x
 _atom_site_fract_y
 _atom_site_fract_z
 _atom_site_occupancy
  Al  Al0  1  0.81561538  0.58984282  0.48812814  1.0
  Al  Al1  1  0.07191040  0.34659546  0.50424992  1.0
  Al  Al2  1  0.07295729  0.58009428  0.50272582  1.0
  Al  Al3  1  0.84538997  0.07781679  0.02102812  1.0
  Al  Al4  1  0.58943730  0.08384003  0.00394386  1.0
  Al  Al5  1  0.58655556  0.31954659  0.00481816  1.0
  H  H6  1  0.20550599  0.26435859  0.28925040  1.0
  H  H7  1  0.20868826  0.58152379  0.84148349  1.0
  H  H8  1  0.03538898  0.68345818  0.73004314  1.0
  H  H9  1  0.94420873  0.11380453  0.70182603  1.0
  H  H10  1  0.66345525  0.48377054  0.68935634  1.0
  H  H11  1  0.23646607  0.24180775  0.19962194  1.0
  H  H12  1  0.06314758  0.90431268  0.79448117  1.0
  H  H13  1  0.63572425  0.46462039  0.77827722  1.0
  H  H14  1  0.48744651  0.37624364  0.22647083  1.0
  H  H15  1  0.58343701  0.46958598  0.33013307  1.0
  H  H16  1  0.67105551  0.97529623  0.68994975  1.0
  H  H17  1  0.49339173  0.06955963  0.82263552  1.0
  H  H18  1  0.61797576  0.67200676  0.50631666  1.0
  H  H19  1  0.04261270  0.98861713  0.00263707  1.0
  C  C20  1  0.90059488  0.37931193  0.42237565  1.0
  C  C21  1  0.80320892  0.87235025  0.18170605  1.0
  C  C22  1  0.82213593  0.84464829  0.23123932  1.0
  C  C23  1  0.21865339  0.38911302  0.44573116  1.0
  C  C24  1  0.83870317  0.82197436  0.27708261  1.0
  C  C25  1  0.85684203  0.79423640  0.32657762  1.0
  C  C26  1  0.87394039  0.76609970  0.37166278  1.0
  C  C27  1  0.77858442  0.32182744  0.13512143  1.0
  C  C28  1  0.79698826  0.32887729  0.18069973  1.0
  C  C29  1  0.81734840  0.33402614  0.23059174  1.0
  C  C30  1  0.83651330  0.33602955  0.27672517  1.0
  C  C31  1  0.42590376  0.35146611  0.24019430  1.0
  C  C32  1  0.85700780  0.34201508  0.32656049  1.0
  C  C33  1  0.87619809  0.35001843  0.37202873  1.0
  C  C34  1  0.38718749  0.30429050  0.87513002  1.0
  C  C35  1  0.89836443  0.71361860  0.42173232  1.0
  C  C36  1  0.35717139  0.32413134  0.82926193  1.0
  C  C37  1  0.32658849  0.34351196  0.77907053  1.0
  C  C38  1  0.30346956  0.35664528  0.73270946  1.0
  C  C39  1  0.27918458  0.36826527  0.68229398  1.0
  C  C40  1  0.25568394  0.37836044  0.63615600  1.0
  C  C41  1  0.88042330  0.77868298  0.60896235  1.0
  C  C42  1  0.41194585  0.36065890  0.29092197  1.0
  C  C43  1  0.74514210  0.91313859  0.71810778  1.0
  C  C44  1  0.72971826  0.92243868  0.76863864  1.0
  C  C45  1  0.93565621  0.75811114  0.79157690  1.0
  C  C46  1  0.94964537  0.74994225  0.74091284  1.0
  C  C47  1  0.89456172  0.37569167  0.56081345  1.0
  C  C48  1  0.85361762  0.82482846  0.70337952  1.0
  C  C49  1  0.82406732  0.84342101  0.80663953  1.0
  C  C50  1  0.81048525  0.85858906  0.85786621  1.0
  C  C51  1  0.86680137  0.80538745  0.65215897  1.0
  C  C52  1  0.79287184  0.88492370  0.90075284  1.0
  C  C53  1  0.33041410  0.33042072  0.30913950  1.0
  C  C54  1  0.86204158  0.33696985  0.60322853  1.0
  C  C55  1  0.87653438  0.19043603  0.71857511  1.0
  C  C56  1  0.86017725  0.17830949  0.76806062  1.0
  C  C57  1  0.70261261  0.38819011  0.76104479  1.0
  C  C58  1  0.71824749  0.39899623  0.71168085  1.0
  C  C59  1  0.20830002  0.39891209  0.58335318  1.0
  C  C60  1  0.80868149  0.30093546  0.69031713  1.0
  C  C61  1  0.77526586  0.27967372  0.79071748  1.0
  C  C62  1  0.76560032  0.27930614  0.84249128  1.0
  C  C63  1  0.83560718  0.31691678  0.64257467  1.0
  C  C64  1  0.36330338  0.30858133  0.20669687  1.0
  C  C65  1  0.75703551  0.28930771  0.88714748  1.0
  C  C66  1  0.76140369  0.95290535  0.08648094  1.0
  C  C67  1  0.44916353  0.26760844  0.06536445  1.0
  C  C68  1  0.75815025  0.29087428  0.08467376  1.0
  C  C69  1  0.76565608  0.94201087  0.94697642  1.0
  C  C70  1  0.44197308  0.27327856  0.92712887  1.0
  C  C71  1  0.90198915  0.72163992  0.56218832  1.0
  C  C72  1  0.74843138  0.27678647  0.93923650  1.0
  C  C73  1  0.27140358  0.36052795  0.40049311  1.0
  C  C74  1  0.26771210  0.28796298  0.27528113  1.0
  C  C75  1  0.38258182  0.29691067  0.15571500  1.0
  C  C76  1  0.28441154  0.27606295  0.22511515  1.0
  C  C77  1  0.93138477  0.05997234  0.79696835  1.0
  C  C78  1  0.48433991  0.39829124  0.32696013  1.0
  C  C79  1  0.61241172  0.02390827  0.77957303  1.0
  C  C80  1  0.03781521  0.67551618  0.83033825  1.0
  C  C81  1  0.30500883  0.34582222  0.35929133  1.0
  C  C82  1  0.40293962  0.28693452  0.11231351  1.0
  C  C83  1  0.78478768  0.90046408  0.13655118  1.0
  O  O84  1  0.82145260  0.68931029  0.43495621  1.0
  O  O85  1  0.47623518  0.34441789  0.05011724  1.0
  O  O86  1  0.66205761  0.36842037  0.05579106  1.0
  O  O87  1  0.82313275  0.47923154  0.43532906  1.0
  O  O88  1  0.83223177  0.18503234  0.96483086  1.0
  O  O89  1  0.84046823  0.97025201  0.96913146  1.0
  O  O90  1  0.66374683  0.96522646  0.96062753  1.0
  O  O91  1  0.47460469  0.16769538  0.94435133  1.0
  O  O92  1  0.45846664  0.35190228  0.95077007  1.0
  O  O93  1  0.65201486  0.35848076  0.95523489  1.0
  O  O94  1  0.67114390  0.16173433  0.00940885  1.0
  O  O95  1  0.18453947  0.32067350  0.56357384  1.0
  O  O96  1  0.00150698  0.30298744  0.44869566  1.0
  O  O97  1  0.19527784  0.31339047  0.46528249  1.0
  O  O98  1  0.19310744  0.49142777  0.46261887  1.0
  O  O99  1  0.99958400  0.69190431  0.44797617  1.0
  O  O100  1  0.82572842  0.69291353  0.54218436  1.0
  O  O101  1  0.82313604  0.48118457  0.54218028  1.0
  O  O102  1  0.99593091  0.30080450  0.54632344  1.0
  O  O103  1  0.91062250  0.03448704  0.83679250  1.0
  O  O104  1  0.02406056  0.97936389  0.77340044  1.0
  O  O105  1  0.49631985  0.38401045  0.37265705  1.0
  O  O106  1  0.18856577  0.49605477  0.56145176  1.0
  O  O107  1  0.53744690  0.44937457  0.30342785  1.0
  O  O108  1  0.56240956  0.12139660  0.75607695  1.0
  O  O109  1  0.56669603  0.99648197  0.81671650  1.0
  O  O110  1  0.02783153  0.64344742  0.87111146  1.0
  O  O111  1  0.14751021  0.63815424  0.81465796  1.0
  O  O112  1  0.00105621  0.69960865  0.54627959  1.0
  O  O113  1  0.98880216  0.50446305  0.49872855  1.0
  O  O114  1  0.83399355  0.18797658  0.07388251  1.0
  O  O115  1  0.83824699  0.97845236  0.07427110  1.0
  O  O116  1  0.66150638  0.97324481  0.05934339  1.0
  O  O117  1  0.46584557  0.17294470  0.04314559  1.0
  O  O118  1  0.65770840  0.66751810  0.47758308  1.0
  O  O119  1  0.00304758  0.00651482  0.03228407  1.0
