# generated using pymatgen
data_Zn4H50C72S3N20(O3F2)3
_symmetry_space_group_name_H-M   'P 1'
_cell_length_a   20.31239409
_cell_length_b   20.33335343
_cell_length_c   21.50176966
_cell_angle_alpha   108.47152603
_cell_angle_beta   107.46209844
_cell_angle_gamma   109.89106312
_symmetry_Int_Tables_number   1
_chemical_formula_structural   Zn4H50C72S3N20(O3F2)3
_chemical_formula_sum   'Zn4 H50 C72 S3 N20 O9 F6'
_cell_volume   7043.85969765
_cell_formula_units_Z   1
loop_
 _symmetry_equiv_pos_site_id
 _symmetry_equiv_pos_as_xyz
  1  'x, y, z'
loop_
 _atom_site_type_symbol
 _atom_site_label
 _atom_site_symmetry_multiplicity
 _atom_site_fract_x
 _atom_site_fract_y
 _atom_site_fract_z
 _atom_site_occupancy
  Zn  Zn0  1  0.09763259  0.10358398  0.48678905  1.0
  Zn  Zn1  1  0.89592809  0.89918154  0.50887827  1.0
  Zn  Zn2  1  0.99309357  0.90165175  0.39826928  1.0
  Zn  Zn3  1  0.00060095  0.09426305  0.61370255  1.0
  H  H4  1  0.09433312  0.12115609  0.34137849  1.0
  H  H5  1  0.74893136  0.91936733  0.42059101  1.0
  H  H6  1  0.02110431  0.43191929  0.45398183  1.0
  H  H7  1  0.04748373  0.55077026  0.44855459  1.0
  H  H8  1  0.14414794  0.59956729  0.52068918  1.0
  H  H9  1  0.10293939  0.55108234  0.68856868  1.0
  H  H10  1  0.17053764  0.55720914  0.65198839  1.0
  H  H11  1  0.09426612  0.65838772  0.67552554  1.0
  H  H12  1  0.95745304  0.48312908  0.60086600  1.0
  H  H13  1  0.95314678  0.58498880  0.57362981  1.0
  H  H14  1  0.17319614  0.67380316  0.65318592  1.0
  H  H15  1  0.00817381  0.84473189  0.59690746  1.0
  H  H16  1  0.44233413  0.10425608  0.41061997  1.0
  H  H17  1  0.86067056  0.90537408  0.27885789  1.0
  H  H18  1  0.57400633  0.13326062  0.44491330  1.0
  H  H19  1  0.56537336  0.99805663  0.52777975  1.0
  H  H20  1  0.47958877  0.08925017  0.52842903  1.0
  H  H21  1  0.44633083  0.99356460  0.52205840  1.0
  H  H22  1  0.50729456  0.89244676  0.40125991  1.0
  H  H23  1  0.36438806  0.88618506  0.31527846  1.0
  H  H24  1  0.54167198  0.06416309  0.35351687  1.0
  H  H25  1  0.40897151  0.02242030  0.32601660  1.0
  H  H26  1  0.11983064  0.08374787  0.73944004  1.0
  H  H27  1  0.92584373  0.20130739  0.57297160  1.0
  H  H28  1  0.74369236  0.79033532  0.14906311  1.0
  H  H29  1  0.62139651  0.69234724  0.03188008  1.0
  H  H30  1  0.47161490  0.50931519  0.84392145  1.0
  H  H31  1  0.60711133  0.78570090  0.26912477  1.0
  H  H32  1  0.48573244  0.68523015  0.15285126  1.0
  H  H33  1  0.24235001  0.34717206  0.86382354  1.0
  H  H34  1  0.14058305  0.09317540  0.86459270  1.0
  H  H35  1  0.71329286  0.77612876  0.35455663  1.0
  H  H36  1  0.18482751  0.08797558  0.98299319  1.0
  H  H37  1  0.92001127  0.85679359  0.66029930  1.0
  H  H38  1  0.21544490  0.13387481  0.17967966  1.0
  H  H39  1  0.17390253  0.12997290  0.27696202  1.0
  H  H40  1  0.02098059  0.83707983  0.74716117  1.0
  H  H41  1  0.08839372  0.88003578  0.05934734  1.0
  H  H42  1  0.04587998  0.87493200  0.15513250  1.0
  H  H43  1  0.84748464  0.13417003  0.62215068  1.0
  H  H44  1  0.02432683  0.87145477  0.25339584  1.0
  H  H45  1  0.27138259  0.23193821  0.64401984  1.0
  H  H46  1  0.39018975  0.87438333  0.20307497  1.0
  H  H47  1  0.43917099  0.57866773  0.04466267  1.0
  H  H48  1  0.25851586  0.12291061  0.48652018  1.0
  H  H49  1  0.10439891  0.32980924  0.44295019  1.0
  H  H50  1  0.13677141  0.25445381  0.76504185  1.0
  H  H51  1  0.93362092  0.53104347  0.48185406  1.0
  H  H52  1  0.92145346  0.42383492  0.50561656  1.0
  H  H53  1  0.12271923  0.47688961  0.51538847  1.0
  C  C54  1  0.07239910  0.05928512  0.32816698  1.0
  C  C55  1  0.22145779  0.06386178  0.47655697  1.0
  C  C56  1  0.15929475  0.23716580  0.72631298  1.0
  C  C57  1  0.78525392  0.97016923  0.47484365  1.0
  C  C58  1  0.00173848  0.76955624  0.43593019  1.0
  C  C59  1  0.23468252  0.27532117  0.73171365  1.0
  C  C60  1  0.02087837  0.76939543  0.50428800  1.0
  C  C61  1  0.22851681  0.99509581  0.44950013  1.0
  C  C62  1  0.03755309  0.96839631  0.72880563  1.0
  C  C63  1  0.96900846  0.48010976  0.55351674  1.0
  C  C64  1  0.06930575  0.48303090  0.50632474  1.0
  C  C65  1  0.76875097  0.03013762  0.50829346  1.0
  C  C66  1  0.08213598  0.56153195  0.50438832  1.0
  C  C67  1  0.04316591  0.71943136  0.52730441  1.0
  C  C68  1  0.04847212  0.47977372  0.56955625  1.0
  C  C69  1  0.83521059  0.87857986  0.30806910  1.0
  C  C70  1  0.97251538  0.55085619  0.53965187  1.0
  C  C71  1  0.05771046  0.60681280  0.55792967  1.0
  C  C72  1  0.11355409  0.62977316  0.63741139  1.0
  C  C73  1  0.11339290  0.55511109  0.64232135  1.0
  C  C74  1  0.05733540  0.67358691  0.54669339  1.0
  C  C75  1  0.04077376  0.40666961  0.57083955  1.0
  C  C76  1  0.75617789  0.82894658  0.28746168  1.0
  C  C77  1  0.02867015  0.34071075  0.56211355  1.0
  C  C78  1  0.53315639  0.07155757  0.40282440  1.0
  C  C79  1  0.55106728  0.03680790  0.50688396  1.0
  C  C80  1  0.47165572  0.02999720  0.49861553  1.0
  C  C81  1  0.96945445  0.20272998  0.55342787  1.0
  C  C82  1  0.28634094  0.98736363  0.42961327  1.0
  C  C83  1  0.55546302  0.01818155  0.43239598  1.0
  C  C84  1  0.44676485  0.05076256  0.38567222  1.0
  C  C85  1  0.41371924  0.99462036  0.41647047  1.0
  C  C86  1  0.40953920  0.91557533  0.37282138  1.0
  C  C87  1  0.02006486  0.26499465  0.54721651  1.0
  C  C88  1  0.49171484  0.93012647  0.37939285  1.0
  C  C89  1  0.33836494  0.98528993  0.41339234  1.0
  C  C90  1  0.63471749  0.02908306  0.45002265  1.0
  C  C91  1  0.69830859  0.03271587  0.47851792  1.0
  C  C92  1  0.29796577  0.35052617  0.79235875  1.0
  C  C93  1  0.76049527  0.81348247  0.34761389  1.0
  C  C94  1  0.29195732  0.38224542  0.85790173  1.0
  C  C95  1  0.34483984  0.45677527  0.91635018  1.0
  C  C96  1  0.41271915  0.50492488  0.91254096  1.0
  C  C97  1  0.42054142  0.47345959  0.84763712  1.0
  C  C98  1  0.22739613  0.22550437  0.66372420  1.0
  C  C99  1  0.36525546  0.39914759  0.79054185  1.0
  C  C100  1  0.61921399  0.71346848  0.08413887  1.0
  C  C101  1  0.68702055  0.76816700  0.14975023  1.0
  C  C102  1  0.54752100  0.67974651  0.08644074  1.0
  C  C103  1  0.68485071  0.79006317  0.21813828  1.0
  C  C104  1  0.61080407  0.76400065  0.21765080  1.0
  C  C105  1  0.06176133  0.23212727  0.51828717  1.0
  C  C106  1  0.54265590  0.70867970  0.15279554  1.0
  C  C107  1  0.10433808  0.00226399  0.22197310  1.0
  C  C108  1  0.08371114  0.93202855  0.16130780  1.0
  C  C109  1  0.00298081  0.82616578  0.54174706  1.0
  C  C110  1  0.10738974  0.93412685  0.10773265  1.0
  C  C111  1  0.15317098  0.00751534  0.11302037  1.0
  C  C112  1  0.17891794  0.07762240  0.17577057  1.0
  C  C113  1  0.15473723  0.07497838  0.22934322  1.0
  C  C114  1  0.15064964  0.03389222  0.93058655  1.0
  C  C115  1  0.12536250  0.03620376  0.86434498  1.0
  C  C116  1  0.12743139  0.96122056  0.93284857  1.0
  C  C117  1  0.83519230  0.08034373  0.57777134  1.0
  C  C118  1  0.07482505  0.96579958  0.79690294  1.0
  C  C119  1  0.05688447  0.89308306  0.79785211  1.0
  C  C120  1  0.16385906  0.93865721  0.44822588  1.0
  C  C121  1  0.08359375  0.89180399  0.86458767  1.0
  C  C122  1  0.03628946  0.93186914  0.28268329  1.0
  C  C123  1  0.07296718  0.99846548  0.27411781  1.0
  C  C124  1  0.06459172  0.02882126  0.70965405  1.0
  C  C125  1  0.96268160  0.91271263  0.66876851  1.0
  S  S126  1  0.48843412  0.88827992  0.28902988  1.0
  S  S127  1  0.31496435  0.48589180  0.98771821  1.0
  S  S128  1  0.14266655  0.27513918  0.50519670  1.0
  N  N129  1  0.03917445  0.03173347  0.36655579  1.0
  N  N130  1  0.48040977  0.61163328  0.02793562  1.0
  N  N131  1  0.16691896  0.01676426  0.05525101  1.0
  N  N132  1  0.85508785  0.98303813  0.52078835  1.0
  N  N133  1  0.13228659  0.95220379  0.99566517  1.0
  N  N134  1  0.88233272  0.89153825  0.37515419  1.0
  N  N135  1  0.98132240  0.13920650  0.53099595  1.0
  N  N136  1  0.83560480  0.85031623  0.39893304  1.0
  N  N137  1  0.03668415  0.15717722  0.50803681  1.0
  N  N138  1  0.88625779  0.05154693  0.58474056  1.0
  N  N139  1  0.01674933  0.95241299  0.33756399  1.0
  N  N140  1  0.97499333  0.85585530  0.49890300  1.0
  N  N141  1  0.15460228  0.16381105  0.62181854  1.0
  N  N142  1  0.12063292  0.96834913  0.47056762  1.0
  N  N143  1  0.01005739  0.01014247  0.64356586  1.0
  N  N144  1  0.94664830  0.93852023  0.61859643  1.0
  N  N145  1  0.15834183  0.04726944  0.48905987  1.0
  N  N146  1  0.11272281  0.17212263  0.66090260  1.0
  N  N147  1  0.97446417  0.82010143  0.43205365  1.0
  N  N148  1  0.47592125  0.57850578  0.96414461  1.0
  O  O149  1  0.56616086  0.92296784  0.29570401  1.0
  O  O150  1  0.43998803  0.80367482  0.25493433  1.0
  O  O151  1  0.43911000  0.92073801  0.24382858  1.0
  O  O152  1  0.29549079  0.54615397  0.97910016  1.0
  O  O153  1  0.25212446  0.41395920  0.97451015  1.0
  O  O154  1  0.38815874  0.52041772  0.05785825  1.0
  O  O155  1  0.19793260  0.35313432  0.56442073  1.0
  O  O156  1  0.16716833  0.21521336  0.48479569  1.0
  O  O157  1  0.10850725  0.28099586  0.43041191  1.0
  F  F158  1  0.14270488  0.86189714  0.42585807  1.0
  F  F159  1  0.00637627  0.72539120  0.37793419  1.0
  F  F160  1  0.61089506  0.11495702  0.55927117  1.0
  F  F161  1  0.38619548  0.86363168  0.40204913  1.0
  F  F162  1  0.37575843  0.37233779  0.72939531  1.0
  F  F163  1  0.06338149  0.82040918  0.86356937  1.0
