# generated using pymatgen
data_ZnH29C38N7O4
_symmetry_space_group_name_H-M   'P 1'
_cell_length_a   14.68358793
_cell_length_b   15.38238906
_cell_length_c   16.56098974
_cell_angle_alpha   90.43736817
_cell_angle_beta   97.93050756
_cell_angle_gamma   99.73371914
_symmetry_Int_Tables_number   1
_chemical_formula_structural   ZnH29C38N7O4
_chemical_formula_sum   'Zn2 H58 C76 N14 O8'
_cell_volume   3649.66270173
_cell_formula_units_Z   2
loop_
 _symmetry_equiv_pos_site_id
 _symmetry_equiv_pos_as_xyz
  1  'x, y, z'
loop_
 _atom_site_type_symbol
 _atom_site_label
 _atom_site_symmetry_multiplicity
 _atom_site_fract_x
 _atom_site_fract_y
 _atom_site_fract_z
 _atom_site_occupancy
  Zn  Zn0  1  0.59570905  0.48739027  0.52382237  1.0
  Zn  Zn1  1  0.41164607  0.53110999  0.47316470  1.0
  H  H2  1  0.41950864  0.54871486  0.22039887  1.0
  H  H3  1  0.41508089  0.56517633  0.76573886  1.0
  H  H4  1  0.64661800  0.17172876  0.51974979  1.0
  H  H5  1  0.44330066  0.86640402  0.36470204  1.0
  H  H6  1  0.99209860  0.64231255  0.31505908  1.0
  H  H7  1  0.99361791  0.31102485  0.62204235  1.0
  H  H8  1  0.76123079  0.51675107  0.45384653  1.0
  H  H9  1  0.23193127  0.46484188  0.51260675  1.0
  H  H10  1  0.15952260  0.68643403  0.31277027  1.0
  H  H11  1  0.85017096  0.32779757  0.67876058  1.0
  H  H12  1  0.39207188  0.51012463  0.90447710  1.0
  H  H13  1  0.38592281  0.48719101  0.07741649  1.0
  H  H14  1  0.53381305  0.22837871  0.50302454  1.0
  H  H15  1  0.49152732  0.79276692  0.45472374  1.0
  H  H16  1  0.70524999  0.35473958  0.72594250  1.0
  H  H17  1  0.63091528  0.41656762  0.67120615  1.0
  H  H18  1  0.32342641  0.70124036  0.29677724  1.0
  H  H19  1  0.39628192  0.63452315  0.34568870  1.0
  H  H20  1  0.83490899  0.68934885  0.39385983  1.0
  H  H21  1  0.69919810  0.71019194  0.29293420  1.0
  H  H22  1  0.63093324  0.59346873  0.18581355  1.0
  H  H23  1  0.69472946  0.45388859  0.18420498  1.0
  H  H24  1  0.82597443  0.43050063  0.28859443  1.0
  H  H25  1  0.16939385  0.35519742  0.66348369  1.0
  H  H26  1  0.27665575  0.24666784  0.66562686  1.0
  H  H27  1  0.29288040  0.16894273  0.53746101  1.0
  H  H28  1  0.20137161  0.20120077  0.40678046  1.0
  H  H29  1  0.09533237  0.31157483  0.40366725  1.0
  H  H30  1  0.49799976  0.24778931  0.70470236  1.0
  H  H31  1  0.47550288  0.31518340  0.62736671  1.0
  H  H32  1  0.57167701  0.26438227  0.29970016  1.0
  H  H33  1  0.60316014  0.36016953  0.35744787  1.0
  H  H34  1  0.23137516  0.40230891  0.87932686  1.0
  H  H35  1  0.07161703  0.37593157  0.91686480  1.0
  H  H36  1  0.03726698  0.28633598  0.03747215  1.0
  H  H37  1  0.16400548  0.22177968  0.11826877  1.0
  H  H38  1  0.32497391  0.25064476  0.08192123  1.0
  H  H39  1  0.59813625  0.50729945  0.04205585  1.0
  H  H40  1  0.75632151  0.53170702  0.00037830  1.0
  H  H41  1  0.80968294  0.41203092  0.92645440  1.0
  H  H42  1  0.70177078  0.26848280  0.89268291  1.0
  H  H43  1  0.54233487  0.24671055  0.93021419  1.0
  H  H44  1  0.55229126  0.25087108  0.08731480  1.0
  H  H45  1  0.61174254  0.25832469  0.18241761  1.0
  H  H46  1  0.38365487  0.18796504  0.77279610  1.0
  H  H47  1  0.37082275  0.20401546  0.87114397  1.0
  H  H48  1  0.78516900  0.15929072  0.58616782  1.0
  H  H49  1  0.83105514  0.06797201  0.58206916  1.0
  H  H50  1  0.35160230  0.89469076  0.24372795  1.0
  H  H51  1  0.31243700  0.99340163  0.22887544  1.0
  H  H52  1  0.31401249  0.34394727  0.33194351  1.0
  H  H53  1  0.25207511  0.26032267  0.26457320  1.0
  H  H54  1  0.73837474  0.68951758  0.60436326  1.0
  H  H55  1  0.82347579  0.77842591  0.62925350  1.0
  H  H56  1  0.80281000  0.88631598  0.69785940  1.0
  H  H57  1  0.79659432  0.99162941  0.67386114  1.0
  H  H58  1  0.22222797  0.09602699  0.25192774  1.0
  H  H59  1  0.29359469  0.16041827  0.19961243  1.0
  C  C60  1  0.57696290  0.67251733  0.52382313  1.0
  C  C61  1  0.43779080  0.34665857  0.45462588  1.0
  C  C62  1  0.61256527  0.76918264  0.53110937  1.0
  C  C63  1  0.42645086  0.25809781  0.41496891  1.0
  C  C64  1  0.71972750  0.89838645  0.59247020  1.0
  C  C65  1  0.35401486  0.14007474  0.31499324  1.0
  C  C66  1  0.69728173  0.80597083  0.58027477  1.0
  C  C67  1  0.36208506  0.22820033  0.34337473  1.0
  C  C68  1  0.55758442  0.82403083  0.48915035  1.0
  C  C69  1  0.48457639  0.20224548  0.44982489  1.0
  C  C70  1  0.58401819  0.91594423  0.49201715  1.0
  C  C71  1  0.48011387  0.11546868  0.42196823  1.0
  C  C72  1  0.66649274  0.95496169  0.54615226  1.0
  C  C73  1  0.40941944  0.08106516  0.35518776  1.0
  C  C74  1  0.52680599  0.97086872  0.44483758  1.0
  C  C75  1  0.54420785  0.06241664  0.46198766  1.0
  C  C76  1  0.62700697  0.10002014  0.51386702  1.0
  C  C77  1  0.45496751  0.93678258  0.38073212  1.0
  C  C78  1  0.68933406  0.05003841  0.55124144  1.0
  C  C79  1  0.40044675  0.98824208  0.33380900  1.0
  C  C80  1  0.17330588  0.63568487  0.35620644  1.0
  C  C81  1  0.83254004  0.37020362  0.62849874  1.0
  C  C82  1  0.52314411  0.49463847  0.34706013  1.0
  C  C83  1  0.46084683  0.47603849  0.64248484  1.0
  C  C84  1  0.26389615  0.61930538  0.37729304  1.0
  C  C85  1  0.74712349  0.40001797  0.61944846  1.0
  C  C86  1  0.21038475  0.51012572  0.46654580  1.0
  C  C87  1  0.78586106  0.47614747  0.50285644  1.0
  C  C88  1  0.11586774  0.51775397  0.44499509  1.0
  C  C89  1  0.87577016  0.45419926  0.50989854  1.0
  C  C90  1  0.09920681  0.58574496  0.38910425  1.0
  C  C91  1  0.89722491  0.39671680  0.57493967  1.0
  C  C92  1  0.03827458  0.46712980  0.47905091  1.0
  C  C93  1  0.94729536  0.48960011  0.46071007  1.0
  C  C94  1  0.93150492  0.54981287  0.39530494  1.0
  C  C95  1  0.04983786  0.39438415  0.53264937  1.0
  C  C96  1  0.00585573  0.59730784  0.36412826  1.0
  C  C97  1  0.98286692  0.36467875  0.58097386  1.0
  C  C98  1  0.50277965  0.45226402  0.26455429  1.0
  C  C99  1  0.43493322  0.43883453  0.72094971  1.0
  C  C100  1  0.44605398  0.49010600  0.20375992  1.0
  C  C101  1  0.41512230  0.49605525  0.77960651  1.0
  C  C102  1  0.42699821  0.45574693  0.12484608  1.0
  C  C103  1  0.40110536  0.46509381  0.85614817  1.0
  C  C104  1  0.46517458  0.38197172  0.10303072  1.0
  C  C105  1  0.39841944  0.37540448  0.87291062  1.0
  C  C106  1  0.51632069  0.33966867  0.16381301  1.0
  C  C107  1  0.41054121  0.31649804  0.81187652  1.0
  C  C108  1  0.53555744  0.37421948  0.24560027  1.0
  C  C109  1  0.43599519  0.34945684  0.73679407  1.0
  C  C110  1  0.46437630  0.36232185  0.01514665  1.0
  C  C111  1  0.38617884  0.35013220  0.95822563  1.0
  C  C112  1  0.83953180  0.55862604  0.34779083  1.0
  C  C113  1  0.80331311  0.63727734  0.34849551  1.0
  C  C114  1  0.72761533  0.64924441  0.29111517  1.0
  C  C115  1  0.68931864  0.58396028  0.23122996  1.0
  C  C116  1  0.72459089  0.50514412  0.23065976  1.0
  C  C117  1  0.79806516  0.49184709  0.28936323  1.0
  C  C118  1  0.12484806  0.34047579  0.53345653  1.0
  C  C119  1  0.17596636  0.32106980  0.60712430  1.0
  C  C120  1  0.23593659  0.25972250  0.60843846  1.0
  C  C121  1  0.24530088  0.21632644  0.53652764  1.0
  C  C122  1  0.19446909  0.23514365  0.46299317  1.0
  C  C123  1  0.13543438  0.29734071  0.46108293  1.0
  C  C124  1  0.29034036  0.33036329  0.97910200  1.0
  C  C125  1  0.21675068  0.36316210  0.93210583  1.0
  C  C126  1  0.12682647  0.34808479  0.95330453  1.0
  C  C127  1  0.10755287  0.29812670  0.02085702  1.0
  C  C128  1  0.17925183  0.26262170  0.06648967  1.0
  C  C129  1  0.26932236  0.27835470  0.04604870  1.0
  C  C130  1  0.55928808  0.37535572  0.98937064  1.0
  C  C131  1  0.62116701  0.45515829  0.00916997  1.0
  C  C132  1  0.71000974  0.46867710  0.98576917  1.0
  C  C133  1  0.73965690  0.40177231  0.94376048  1.0
  C  C134  1  0.67926010  0.32168040  0.92469443  1.0
  C  C135  1  0.58971292  0.30871107  0.94698923  1.0
  N  N136  1  0.28085804  0.55791137  0.43446552  1.0
  N  N137  1  0.72413918  0.45036869  0.55417590  1.0
  N  N138  1  0.68348355  0.37984761  0.67177057  1.0
  N  N139  1  0.33833254  0.66372647  0.34509887  1.0
  N  N140  1  0.45549442  0.28951300  0.68022759  1.0
  N  N141  1  0.59134562  0.33115435  0.30043593  1.0
  N  N142  1  0.55000161  0.26284134  0.14740935  1.0
  N  N143  1  0.40645043  0.22593105  0.82470300  1.0
  N  N144  1  0.77488102  0.09320181  0.59565972  1.0
  N  N145  1  0.33483638  0.94892600  0.26928102  1.0
  N  N146  1  0.31154069  0.28530251  0.30171071  1.0
  N  N147  1  0.75406777  0.75377445  0.62503044  1.0
  N  N148  1  0.79688123  0.92964131  0.65185964  1.0
  N  N149  1  0.29002981  0.11206877  0.24156573  1.0
  O  O150  1  0.63665765  0.61980759  0.52888337  1.0
  O  O151  1  0.38395117  0.40063421  0.42747224  1.0
  O  O152  1  0.48882591  0.64864190  0.51266497  1.0
  O  O153  1  0.50344126  0.36609872  0.51468884  1.0
  O  O154  1  0.58606832  0.46911648  0.39897774  1.0
  O  O155  1  0.39567441  0.49154672  0.58896199  1.0
  O  O156  1  0.47618747  0.55327641  0.36474699  1.0
  O  O157  1  0.54801917  0.48958030  0.63622868  1.0
