# generated using pymatgen
data_AlH10(C7O3)2
_symmetry_space_group_name_H-M   'P 1'
_cell_length_a   6.67312461
_cell_length_b   19.25608268
_cell_length_c   20.13880285
_cell_angle_alpha   98.72226791
_cell_angle_beta   89.99814251
_cell_angle_gamma   89.99802008
_symmetry_Int_Tables_number   1
_chemical_formula_structural   AlH10(C7O3)2
_chemical_formula_sum   'Al4 H40 C56 O24'
_cell_volume   2557.87285216
_cell_formula_units_Z   4
loop_
 _symmetry_equiv_pos_site_id
 _symmetry_equiv_pos_as_xyz
  1  'x, y, z'
loop_
 _atom_site_type_symbol
 _atom_site_label
 _atom_site_symmetry_multiplicity
 _atom_site_fract_x
 _atom_site_fract_y
 _atom_site_fract_z
 _atom_site_occupancy
  Al  Al0  1  0.20334472  0.74966914  0.75015991  1.0
  Al  Al1  1  0.78709671  0.24919903  0.24868436  1.0
  Al  Al2  1  0.70334136  0.75033705  0.74983652  1.0
  Al  Al3  1  0.28709685  0.25080291  0.25131138  1.0
  H  H4  1  0.17553803  0.89884424  0.46770813  1.0
  H  H5  1  0.71006097  0.06462278  0.49544517  1.0
  H  H6  1  0.67547788  0.60115895  0.03228942  1.0
  H  H7  1  0.21004586  0.43537474  0.00454953  1.0
  H  H8  1  0.15807587  0.81274840  0.54673147  1.0
  H  H9  1  0.72004748  0.14501710  0.40982665  1.0
  H  H10  1  0.65801546  0.68725572  0.95326152  1.0
  H  H11  1  0.22006647  0.35498313  0.09017295  1.0
  H  H12  1  0.77060172  0.95364024  0.67512439  1.0
  H  H13  1  0.33753409  0.09221407  0.37015413  1.0
  H  H14  1  0.27059855  0.54635461  0.82487116  1.0
  H  H15  1  0.83755075  0.40779514  0.12984550  1.0
  H  H16  1  0.24381918  0.93422577  0.89606848  1.0
  H  H17  1  0.75429024  0.06680074  0.10238999  1.0
  H  H18  1  0.74382148  0.56576843  0.60392741  1.0
  H  H19  1  0.25427290  0.43319130  0.39763626  1.0
  H  H20  1  0.64021078  0.86982997  0.92931176  1.0
  H  H21  1  0.35685709  0.13248421  0.06892197  1.0
  H  H22  1  0.14023159  0.63017992  0.57069352  1.0
  H  H23  1  0.85687381  0.36749442  0.43107281  1.0
  H  H24  1  0.38880877  0.03860444  0.96957631  1.0
  H  H25  1  0.61031060  0.96269982  0.02985103  1.0
  H  H26  1  0.88880883  0.46137745  0.53041931  1.0
  H  H27  1  0.11030313  0.53729619  0.47016541  1.0
  H  H28  1  0.04348830  0.11944675  0.60048017  1.0
  H  H29  1  0.98964924  0.09921605  0.68297504  1.0
  H  H30  1  0.83133541  0.15889725  0.64637846  1.0
  H  H31  1  0.55157264  0.00908309  0.37535822  1.0
  H  H32  1  0.38154518  0.93578038  0.36460551  1.0
  H  H33  1  0.59162230  0.93795471  0.42112728  1.0
  H  H34  1  0.54350380  0.38055308  0.89950735  1.0
  H  H35  1  0.48965200  0.40079073  0.81701484  1.0
  H  H36  1  0.33135402  0.34110416  0.85361141  1.0
  H  H37  1  0.05155824  0.49091448  0.12462795  1.0
  H  H38  1  0.88153707  0.56421941  0.13539945  1.0
  H  H39  1  0.09159815  0.56204754  0.07886783  1.0
  H  H40  1  0.45223562  0.83276680  0.72688239  1.0
  H  H41  1  0.53350130  0.15757920  0.23104917  1.0
  H  H42  1  0.95223826  0.66724494  0.77311892  1.0
  H  H43  1  0.03348759  0.34241925  0.26896786  1.0
  C  C44  1  0.45326394  0.65732567  0.65368084  1.0
  C  C45  1  0.54044573  0.34019354  0.34838943  1.0
  C  C46  1  0.95325695  0.84267876  0.84631692  1.0
  C  C47  1  0.04046317  0.15980303  0.15161948  1.0
  C  C48  1  0.45437820  0.67345785  0.83492860  1.0
  C  C49  1  0.53571669  0.32958090  0.16733286  1.0
  C  C50  1  0.95444896  0.82654114  0.66506762  1.0
  C  C51  1  0.03568242  0.17042373  0.33266408  1.0
  C  C52  1  0.09076674  0.91177385  0.51402024  1.0
  C  C53  1  0.84788802  0.07034275  0.46791094  1.0
  C  C54  1  0.59070700  0.58822829  0.98597813  1.0
  C  C55  1  0.34789626  0.42965341  0.03208902  1.0
  C  C56  1  0.07877716  0.86265814  0.55773508  1.0
  C  C57  1  0.85260104  0.11537838  0.42018663  1.0
  C  C58  1  0.57871530  0.63734441  0.94225842  1.0
  C  C59  1  0.35261060  0.38461592  0.07981176  1.0
  C  C60  1  0.96205398  0.87703535  0.61593792  1.0
  C  C61  1  0.02969405  0.12287288  0.38458770  1.0
  C  C62  1  0.46200892  0.62296997  0.88405621  1.0
  C  C63  1  0.52968221  0.37712576  0.11541031  1.0
  C  C64  1  0.86214337  0.94125646  0.63003187  1.0
  C  C65  1  0.19992294  0.08465244  0.39724432  1.0
  C  C66  1  0.36211807  0.55874215  0.86996151  1.0
  C  C67  1  0.69989654  0.41535589  0.10274903  1.0
  C  C68  1  0.88535989  0.99215230  0.58816891  1.0
  C  C69  1  0.19313007  0.03790712  0.44385205  1.0
  C  C70  1  0.38534157  0.50784870  0.91182821  1.0
  C  C71  1  0.69311556  0.46210799  0.05614090  1.0
  C  C72  1  0.99876466  0.97831503  0.52813821  1.0
  C  C73  1  0.01517607  0.02966896  0.48053163  1.0
  C  C74  1  0.49873460  0.52168718  0.97186550  1.0
  C  C75  1  0.51517631  0.47033724  0.01946708  1.0
  C  C76  1  0.94450421  0.89742783  0.90732376  1.0
  C  C77  1  0.05293680  0.10438886  0.09138980  1.0
  C  C78  1  0.44452113  0.60257186  0.59266958  1.0
  C  C79  1  0.55290945  0.39559180  0.40861791  1.0
  C  C80  1  0.25128377  0.04414293  0.99924346  1.0
  C  C81  1  0.74768726  0.95706743  0.00009125  1.0
  C  C82  1  0.75127379  0.45584541  0.50076297  1.0
  C  C83  1  0.24767182  0.54293432  0.49992597  1.0
  C  C84  1  0.23403861  0.09623179  0.05380869  1.0
  C  C85  1  0.76391490  0.90546159  0.94513656  1.0
  C  C86  1  0.73402027  0.40375093  0.44619621  1.0
  C  C87  1  0.26391383  0.59454792  0.55486916  1.0
  C  C88  1  0.89299315  0.05973484  0.07345516  1.0
  C  C89  1  0.10574563  0.94146928  0.92540649  1.0
  C  C90  1  0.39297527  0.44024859  0.42656328  1.0
  C  C91  1  0.60575152  0.55852773  0.57459016  1.0
  C  C92  1  0.90827477  0.00451073  0.01869501  1.0
  C  C93  1  0.09116981  0.99644017  0.98052102  1.0
  C  C94  1  0.40827452  0.49547839  0.48131772  1.0
  C  C95  1  0.59118057  0.50354778  0.51948633  1.0
  C  C96  1  0.92306894  0.11127427  0.63590630  1.0
  C  C97  1  0.47676248  0.96959955  0.40082485  1.0
  C  C98  1  0.42306680  0.38873303  0.86408844  1.0
  C  C99  1  0.97675379  0.53040115  0.09917338  1.0
  O  O100  1  0.62284329  0.69541209  0.81694808  1.0
  O  O101  1  0.36693204  0.31152547  0.18883283  1.0
  O  O102  1  0.12288670  0.80457463  0.68302723  1.0
  O  O103  1  0.86691087  0.18849017  0.31117699  1.0
  O  O104  1  0.28398568  0.67875777  0.67767661  1.0
  O  O105  1  0.70745081  0.31735988  0.32342147  1.0
  O  O106  1  0.78394420  0.82123753  0.82233283  1.0
  O  O107  1  0.20749202  0.18265151  0.17656877  1.0
  O  O108  1  0.28364582  0.68970044  0.81361605  1.0
  O  O109  1  0.70723449  0.31156069  0.18694663  1.0
  O  O110  1  0.78368464  0.81031787  0.68640098  1.0
  O  O111  1  0.20722132  0.18843585  0.31304158  1.0
  O  O112  1  0.12471619  0.82299340  0.82256090  1.0
  O  O113  1  0.86770175  0.17929990  0.17437622  1.0
  O  O114  1  0.62475718  0.67702365  0.67742250  1.0
  O  O115  1  0.36767568  0.32069298  0.32563754  1.0
  O  O116  1  0.45297522  0.79272123  0.75086634  1.0
  O  O117  1  0.53643822  0.20774231  0.24594618  1.0
  O  O118  1  0.95297172  0.70728712  0.74912992  1.0
  O  O119  1  0.03643846  0.29225992  0.25404874  1.0
  O  O120  1  0.79018480  0.05586460  0.60769758  1.0
  O  O121  1  0.36000962  0.00049925  0.45746686  1.0
  O  O122  1  0.29018188  0.44412675  0.89229781  1.0
  O  O123  1  0.85996873  0.49950985  0.04253047  1.0
