# generated using pymatgen
data_ZnH22C34N5O4
_symmetry_space_group_name_H-M   'P 1'
_cell_length_a   10.89541497
_cell_length_b   16.50878077
_cell_length_c   17.66925722
_cell_angle_alpha   90.85057804
_cell_angle_beta   90.71739721
_cell_angle_gamma   90.25344402
_symmetry_Int_Tables_number   1
_chemical_formula_structural   ZnH22C34N5O4
_chemical_formula_sum   'Zn2 H44 C68 N10 O8'
_cell_volume   3177.53653015
_cell_formula_units_Z   2
loop_
 _symmetry_equiv_pos_site_id
 _symmetry_equiv_pos_as_xyz
  1  'x, y, z'
loop_
 _atom_site_type_symbol
 _atom_site_label
 _atom_site_symmetry_multiplicity
 _atom_site_fract_x
 _atom_site_fract_y
 _atom_site_fract_z
 _atom_site_occupancy
  Zn  Zn0  1  0.49820663  0.58630019  0.49949882  1.0
  Zn  Zn1  1  0.50178270  0.41370435  0.50050412  1.0
  H  H2  1  0.74796565  0.32473571  0.80858344  1.0
  H  H3  1  0.25202645  0.67524506  0.19138533  1.0
  H  H4  1  0.44711799  0.37595187  0.87418122  1.0
  H  H5  1  0.55287129  0.62404236  0.12581823  1.0
  H  H6  1  0.67047405  0.71353881  0.45016791  1.0
  H  H7  1  0.32952991  0.28646395  0.54984422  1.0
  H  H8  1  0.31512903  0.71280286  0.53044335  1.0
  H  H9  1  0.68486949  0.28720168  0.46955856  1.0
  H  H10  1  0.88766136  0.30462505  0.58195133  1.0
  H  H11  1  0.11234198  0.69538844  0.41801845  1.0
  H  H12  1  0.79583647  0.23991222  0.69442805  1.0
  H  H13  1  0.20416678  0.76008245  0.30553418  1.0
  H  H14  1  0.48190852  0.63829322  0.74018722  1.0
  H  H15  1  0.51809269  0.36171075  0.25982602  1.0
  H  H16  1  0.43451571  0.38002629  0.73230065  1.0
  H  H17  1  0.56546539  0.61997945  0.26769883  1.0
  H  H18  1  0.08053739  0.91950100  0.63839412  1.0
  H  H19  1  0.01990417  0.91448532  0.54475369  1.0
  H  H20  1  0.97987170  0.83911134  0.61083834  1.0
  H  H21  1  0.13650469  0.78589642  0.52011846  1.0
  H  H22  1  0.19406912  0.78762505  0.61392434  1.0
  H  H23  1  0.29953459  0.92118005  0.58937240  1.0
  H  H24  1  0.24325439  0.91975686  0.49683240  1.0
  H  H25  1  0.98009715  0.08551917  0.45523805  1.0
  H  H26  1  0.91944168  0.08047809  0.36160507  1.0
  H  H27  1  0.02011125  0.16087429  0.38913153  1.0
  H  H28  1  0.80591288  0.21236365  0.38605573  1.0
  H  H29  1  0.86350317  0.21411103  0.47985640  1.0
  H  H30  1  0.75675607  0.08025984  0.50318276  1.0
  H  H31  1  0.70046190  0.07880941  0.41064517  1.0
  H  H32  1  0.03764051  0.69868999  0.67375971  1.0
  H  H33  1  0.98034379  0.70508906  0.76730641  1.0
  H  H34  1  0.13858396  0.68595741  0.75257103  1.0
  H  H35  1  0.02849628  0.55713860  0.78588995  1.0
  H  H36  1  0.08758415  0.55049868  0.69367158  1.0
  H  H37  1  0.87915326  0.58929156  0.64088488  1.0
  H  H38  1  0.82188740  0.59393922  0.73365517  1.0
  H  H39  1  0.01964183  0.29491002  0.23269588  1.0
  H  H40  1  0.96234512  0.30131092  0.32624316  1.0
  H  H41  1  0.86140167  0.31404289  0.24743127  1.0
  H  H42  1  0.91240335  0.44950342  0.30632793  1.0
  H  H43  1  0.97149119  0.44285926  0.21410952  1.0
  H  H44  1  0.17809909  0.40605320  0.26634705  1.0
  H  H45  1  0.12083240  0.41071359  0.35911804  1.0
  C  C46  1  0.53551120  0.48959868  0.35593882  1.0
  C  C47  1  0.46448272  0.51040647  0.64406531  1.0
  C  C48  1  0.12603119  0.49260705  0.48771776  1.0
  C  C49  1  0.87396100  0.50740106  0.51226997  1.0
  C  C50  1  0.05602927  0.53833659  0.43717528  1.0
  C  C51  1  0.94396838  0.46166912  0.56281814  1.0
  C  C52  1  0.48092573  0.57988928  0.84896818  1.0
  C  C53  1  0.51907176  0.42010741  0.15104213  1.0
  C  C54  1  0.47404804  0.58126842  0.76995563  1.0
  C  C55  1  0.52594674  0.41873129  0.23005184  1.0
  C  C56  1  0.46028246  0.50909487  0.72837312  1.0
  C  C57  1  0.53971328  0.49090908  0.27163215  1.0
  C  C58  1  0.44830764  0.43518799  0.76596040  1.0
  C  C59  1  0.55168352  0.56481473  0.23404142  1.0
  C  C60  1  0.45480548  0.43297144  0.84431259  1.0
  C  C61  1  0.54518566  0.56702642  0.15568691  1.0
  C  C62  1  0.47413639  0.50469569  0.88718255  1.0
  C  C63  1  0.52586112  0.49529612  0.11281865  1.0
  C  C64  1  0.49069407  0.50159203  0.96599562  1.0
  C  C65  1  0.50931348  0.49839616  0.03401073  1.0
  C  C66  1  0.59743489  0.83417132  0.47165720  1.0
  C  C67  1  0.40256544  0.16583140  0.52834527  1.0
  C  C68  1  0.73685488  0.50925601  0.51892896  1.0
  C  C69  1  0.26313909  0.49074727  0.48106383  1.0
  C  C70  1  0.59281082  0.74957228  0.46932118  1.0
  C  C71  1  0.40719044  0.25043227  0.53068415  1.0
  C  C72  1  0.39235612  0.75049132  0.51396118  1.0
  C  C73  1  0.60764698  0.24951201  0.48604189  1.0
  C  C74  1  0.38588282  0.83485306  0.51726294  1.0
  C  C75  1  0.61411752  0.16515208  0.48274126  1.0
  C  C76  1  0.49268206  0.87795137  0.49599624  1.0
  C  C77  1  0.50731920  0.12205134  0.50400624  1.0
  C  C78  1  0.49685913  0.96312908  0.49894453  1.0
  C  C79  1  0.50314123  0.03687788  0.50105855  1.0
  C  C80  1  0.81170115  0.43536932  0.75837863  1.0
  C  C81  1  0.18829463  0.56462545  0.24160674  1.0
  C  C82  1  0.86129523  0.47383045  0.69440920  1.0
  C  C83  1  0.13869409  0.52616374  0.30558232  1.0
  C  C84  1  0.88817034  0.42476687  0.63090572  1.0
  C  C85  1  0.11182646  0.57524184  0.36907980  1.0
  C  C86  1  0.86524620  0.34121337  0.63173879  1.0
  C  C87  1  0.13475521  0.65878923  0.36823369  1.0
  C  C88  1  0.81391802  0.30489046  0.69471041  1.0
  C  C89  1  0.18608060  0.69510302  0.30525686  1.0
  C  C90  1  0.78702915  0.35181509  0.75837625  1.0
  C  C91  1  0.21296478  0.64817116  0.24159939  1.0
  C  C92  1  0.07062394  0.45356766  0.54916655  1.0
  C  C93  1  0.92937926  0.54643923  0.45082015  1.0
  C  C94  1  0.70705783  0.87554954  0.45161209  1.0
  C  C95  1  0.29294067  0.12445500  0.54839151  1.0
  C  C96  1  0.27299333  0.87928209  0.54267872  1.0
  C  C97  1  0.16490610  0.82680846  0.56710256  1.0
  C  C98  1  0.05521564  0.87785387  0.59160739  1.0
  C  C99  1  0.72700515  0.12072065  0.45732769  1.0
  C  C100  1  0.83509154  0.17318934  0.43288285  1.0
  C  C101  1  0.94477186  0.12213788  0.40837843  1.0
  C  C102  1  0.78876228  0.48244227  0.82513168  1.0
  C  C103  1  0.21123060  0.51753617  0.17485802  1.0
  C  C104  1  0.88935844  0.56320620  0.69749001  1.0
  C  C105  1  0.01918363  0.58205453  0.72866007  1.0
  C  C106  1  0.04559468  0.67296082  0.73072517  1.0
  C  C107  1  0.11062719  0.43679227  0.30250888  1.0
  C  C108  1  0.98080568  0.41794515  0.27134000  1.0
  C  C109  1  0.95439003  0.32703887  0.26927712  1.0
  C  C110  1  0.14194590  0.40433911  0.59886471  1.0
  C  C111  1  0.85805637  0.59566901  0.40112708  1.0
  C  C112  1  0.49758511  0.65352696  0.89109034  1.0
  C  C113  1  0.50241968  0.34646429  0.10892224  1.0
  N  N114  1  0.49233082  0.70965669  0.49095564  1.0
  N  N115  1  0.50766951  0.29034785  0.50904968  1.0
  N  N116  1  0.79744313  0.90970887  0.43654297  1.0
  N  N117  1  0.20255811  0.09029569  0.56346463  1.0
  N  N118  1  0.77210442  0.52127313  0.87985773  1.0
  N  N119  1  0.22789291  0.47869141  0.12014092  1.0
  N  N120  1  0.19676060  0.36169971  0.63907405  1.0
  N  N121  1  0.80324444  0.63831206  0.36092007  1.0
  N  N122  1  0.50988117  0.71447642  0.92487370  1.0
  N  N123  1  0.49013552  0.28551180  0.07514067  1.0
  O  O124  1  0.53179241  0.55810172  0.39003866  1.0
  O  O125  1  0.46820061  0.44190646  0.60996549  1.0
  O  O126  1  0.53325235  0.42063125  0.38748633  1.0
  O  O127  1  0.46673792  0.57937572  0.61251722  1.0
  O  O128  1  0.68598147  0.57791733  0.52301858  1.0
  O  O129  1  0.31401253  0.42209081  0.47697539  1.0
  O  O130  1  0.68622995  0.43999986  0.51673260  1.0
  O  O131  1  0.31376586  0.56000951  0.48326650  1.0
