# generated using pymatgen
data_Zr6H11C52S10Cl4O32F5
_symmetry_space_group_name_H-M   'P 1'
_cell_length_a   16.45707409
_cell_length_b   16.46815352
_cell_length_c   16.47793209
_cell_angle_alpha   88.39870921
_cell_angle_beta   60.09792497
_cell_angle_gamma   60.11439834
_symmetry_Int_Tables_number   1
_chemical_formula_structural   Zr6H11C52S10Cl4O32F5
_chemical_formula_sum   'Zr6 H11 C52 S10 Cl4 O32 F5'
_cell_volume   3208.88700234
_cell_formula_units_Z   1
loop_
 _symmetry_equiv_pos_site_id
 _symmetry_equiv_pos_as_xyz
  1  'x, y, z'
loop_
 _atom_site_type_symbol
 _atom_site_label
 _atom_site_symmetry_multiplicity
 _atom_site_fract_x
 _atom_site_fract_y
 _atom_site_fract_z
 _atom_site_occupancy
  Zr  Zr0  1  0.50846826  0.09620366  0.60468846  1.0
  Zr  Zr1  1  0.49519834  0.89001158  0.40125744  1.0
  Zr  Zr2  1  0.28961008  0.09997677  0.60912384  1.0
  Zr  Zr3  1  0.71283201  0.88751191  0.39777340  1.0
  Zr  Zr4  1  0.50155791  0.10195772  0.39308393  1.0
  Zr  Zr5  1  0.50065316  0.88502588  0.61344640  1.0
  H  H6  1  0.34218247  0.24310816  0.57592131  1.0
  H  H7  1  0.66259343  0.91620607  0.25356776  1.0
  H  H8  1  0.32946413  0.91043046  0.59275031  1.0
  H  H9  1  0.67283013  0.90557662  0.58719221  1.0
  H  H10  1  0.51220265  0.38606023  0.36576039  1.0
  H  H11  1  0.49210558  0.86753906  0.90325639  1.0
  H  H12  1  0.01309860  0.86993837  0.12127852  1.0
  H  H13  1  0.01119738  0.60426670  0.37192428  1.0
  H  H14  1  0.30728489  0.34979958  0.82514498  1.0
  H  H15  1  0.70618325  0.70440706  0.12138334  1.0
  H  H16  1  0.76747044  0.12073681  0.62127547  1.0
  C  C17  1  0.51763469  0.25821411  0.48917663  1.0
  C  C18  1  0.48815450  0.00267511  0.23722763  1.0
  C  C19  1  0.50304785  0.72022576  0.50825171  1.0
  C  C20  1  0.49803831  0.99218756  0.77737372  1.0
  C  C21  1  0.24501100  0.26575111  0.75927566  1.0
  C  C22  1  0.77666659  0.99449222  0.49711273  1.0
  C  C23  1  0.76107749  0.73095272  0.23683073  1.0
  C  C24  1  0.22765247  0.99865965  0.50177665  1.0
  C  C25  1  0.23130668  0.26043021  0.49494204  1.0
  C  C26  1  0.23071956  0.99823232  0.78127271  1.0
  C  C27  1  0.77060599  0.71660720  0.50179404  1.0
  C  C28  1  0.77200919  0.99940648  0.23436735  1.0
  C  C29  1  0.51478855  0.56934635  0.56541534  1.0
  C  C30  1  0.51492789  0.40357528  0.42713707  1.0
  C  C31  1  0.50918016  0.62854301  0.50414775  1.0
  C  C32  1  0.51928532  0.34655522  0.48998458  1.0
  C  C33  1  0.51386789  0.48468654  0.45482024  1.0
  C  C34  1  0.51740695  0.48714056  0.53848799  1.0
  C  C35  1  0.48509873  0.06860865  0.09440696  1.0
  C  C36  1  0.49054450  0.93068260  0.92390608  1.0
  C  C37  1  0.48507105  0.00367446  0.14995987  1.0
  C  C38  1  0.49219897  0.99585441  0.86927345  1.0
  C  C39  1  0.48760497  0.95778920  0.00634996  1.0
  C  C40  1  0.48663098  0.04359756  0.01233330  1.0
  C  C41  1  0.02520874  0.06889805  0.92407889  1.0
  C  C42  1  0.97675007  0.93366645  0.09824061  1.0
  C  C43  1  0.14141314  0.00085988  0.87199070  1.0
  C  C44  1  0.86128856  0.00175956  0.14762092  1.0
  C  C45  1  0.03628495  0.95876581  0.01679304  1.0
  C  C46  1  0.96408619  0.04605270  0.00663283  1.0
  C  C47  1  0.02508308  0.39388739  0.55735393  1.0
  C  C48  1  0.97509745  0.57694749  0.43157634  1.0
  C  C49  1  0.14144273  0.34606629  0.49288565  1.0
  C  C50  1  0.85965040  0.62446011  0.49856645  1.0
  C  C51  1  0.03521440  0.49247181  0.45313882  1.0
  C  C52  1  0.96329587  0.47754529  0.53613645  1.0
  C  C53  1  0.05297683  0.43292997  0.86462552  1.0
  C  C54  1  0.21577330  0.39491461  0.86335553  1.0
  C  C55  1  0.15158642  0.47814971  0.93829859  1.0
  C  C56  1  0.03066394  0.53242183  0.99397710  1.0
  C  C57  1  0.95971190  0.59603189  0.09147479  1.0
  C  C58  1  0.79699568  0.65428009  0.08592545  1.0
  C  C59  1  0.86059575  0.58656335  0.99661490  1.0
  C  C60  1  0.98050057  0.51740881  0.94851598  1.0
  C  C61  1  0.16645052  0.36622868  0.83107232  1.0
  C  C62  1  0.84330291  0.65805745  0.13691824  1.0
  C  C63  1  0.15204548  0.93783379  0.43213524  1.0
  C  C64  1  0.85069265  0.06215308  0.56031352  1.0
  C  C65  1  0.13961307  0.00070123  0.49821863  1.0
  C  C66  1  0.86569585  0.99700400  0.49475778  1.0
  C  C67  1  0.95569744  0.04046286  0.53682969  1.0
  C  C68  1  0.04818513  0.95919179  0.45320051  1.0
  S  S69  1  0.50773054  0.58265694  0.41114258  1.0
  S  S70  1  0.52229130  0.39020200  0.58293581  1.0
  S  S71  1  0.48620504  0.91013479  0.10133433  1.0
  S  S72  1  0.48935029  0.09082507  0.91729369  1.0
  S  S73  1  0.17691457  0.90705767  0.92539812  1.0
  S  S74  1  0.82368685  0.09684466  0.09634080  1.0
  S  S75  1  0.17628254  0.40382551  0.40319843  1.0
  S  S76  1  0.82260068  0.56689055  0.58764734  1.0
  S  S77  1  0.99790009  0.08878152  0.58748010  1.0
  S  S78  1  0.00666102  0.90946725  0.40360518  1.0
  Cl  Cl79  1  0.78155097  0.59369636  0.95280331  1.0
  Cl  Cl80  1  0.00470757  0.41196436  0.80154296  1.0
  Cl  Cl81  1  0.22372004  0.51797561  0.95390641  1.0
  Cl  Cl82  1  0.01672507  0.58259571  0.15861530  1.0
  O  O83  1  0.51989889  0.22046835  0.55765974  1.0
  O  O84  1  0.48941882  0.93220678  0.27296424  1.0
  O  O85  1  0.49851143  0.75857835  0.44055205  1.0
  O  O86  1  0.50178985  0.05992647  0.73884409  1.0
  O  O87  1  0.20704560  0.22745991  0.73471454  1.0
  O  O88  1  0.80848603  0.92615709  0.43102218  1.0
  O  O89  1  0.79731585  0.76146679  0.27246246  1.0
  O  O90  1  0.19486357  0.06442104  0.57104994  1.0
  O  O91  1  0.33353545  0.22990685  0.42736517  1.0
  O  O92  1  0.33266067  0.92673391  0.74694112  1.0
  O  O93  1  0.66848288  0.75170701  0.57284884  1.0
  O  O94  1  0.66958147  0.06721889  0.26601627  1.0
  O  O95  1  0.19950329  0.06645795  0.74288430  1.0
  O  O96  1  0.80353840  0.75457304  0.43363617  1.0
  O  O97  1  0.80454827  0.92877179  0.26980324  1.0
  O  O98  1  0.20006742  0.22436880  0.56534413  1.0
  O  O99  1  0.34914295  0.22384742  0.72849181  1.0
  O  O100  1  0.32991066  0.93026920  0.43617245  1.0
  O  O101  1  0.65780898  0.76109997  0.27659724  1.0
  O  O102  1  0.67483868  0.06019076  0.56615260  1.0
  O  O103  1  0.50047921  0.92177907  0.74306583  1.0
  O  O104  1  0.51173700  0.22775795  0.42306445  1.0
  O  O105  1  0.49156595  0.06990713  0.26941188  1.0
  O  O106  1  0.50117872  0.75513805  0.57788055  1.0
  O  O107  1  0.62416827  0.93026264  0.56340958  1.0
  O  O108  1  0.37824735  0.93412131  0.56779733  1.0
  O  O109  1  0.61690274  0.93726131  0.32456243  1.0
  O  O110  1  0.38717028  0.17210047  0.55660572  1.0
  O  O111  1  0.41137237  0.03937913  0.45920916  1.0
  O  O112  1  0.59255994  0.03711249  0.45569553  1.0
  O  O113  1  0.58605729  0.86213891  0.46310978  1.0
  O  O114  1  0.41702079  0.03501785  0.63397880  1.0
  F  F115  1  0.51716073  0.58712369  0.64309258  1.0
  F  F116  1  0.48447321  0.14749911  0.11469472  1.0
  F  F117  1  0.97382372  0.14870868  0.89972893  1.0
  F  F118  1  0.97393488  0.36533318  0.63337493  1.0
  F  F119  1  0.25176867  0.86315550  0.35568011  1.0
