# generated using pymatgen
data_ZnH11C18N3O7
_symmetry_space_group_name_H-M   'P 1'
_cell_length_a   13.25378320
_cell_length_b   15.93877184
_cell_length_c   17.12022868
_cell_angle_alpha   88.66485061
_cell_angle_beta   87.17301623
_cell_angle_gamma   78.74211866
_symmetry_Int_Tables_number   1
_chemical_formula_structural   ZnH11C18N3O7
_chemical_formula_sum   'Zn2 H22 C36 N6 O14'
_cell_volume   3542.38022192
_cell_formula_units_Z   2
loop_
 _symmetry_equiv_pos_site_id
 _symmetry_equiv_pos_as_xyz
  1  'x, y, z'
loop_
 _atom_site_type_symbol
 _atom_site_label
 _atom_site_symmetry_multiplicity
 _atom_site_fract_x
 _atom_site_fract_y
 _atom_site_fract_z
 _atom_site_occupancy
  Zn  Zn0  1  0.48529354  0.59068578  0.50574801  1.0
  Zn  Zn1  1  0.51081009  0.40905832  0.49548606  1.0
  H  H2  1  0.19146915  0.40904752  0.44683948  1.0
  H  H3  1  0.58492746  0.38379045  0.10533013  1.0
  H  H4  1  0.51685465  0.65851066  0.10824753  1.0
  H  H5  1  0.54104526  0.33958135  0.89153322  1.0
  H  H6  1  0.49544623  0.65465476  0.25550997  1.0
  H  H7  1  0.51764517  0.34695431  0.74594303  1.0
  H  H8  1  0.57722182  0.71715381  0.40961312  1.0
  H  H9  1  0.41657257  0.28230121  0.59020013  1.0
  H  H10  1  0.22478186  0.65250808  0.55853796  1.0
  H  H11  1  0.77266641  0.34516626  0.44339083  1.0
  H  H12  1  0.00532079  0.29733226  0.39060464  1.0
  H  H13  1  0.80547928  0.58980627  0.55226528  1.0
  H  H14  1  0.99155216  0.70114062  0.60917565  1.0
  H  H15  1  0.57971246  0.94234600  0.41421571  1.0
  H  H16  1  0.41827944  0.05651557  0.58640258  1.0
  H  H17  1  0.61496104  0.11176416  0.37742824  1.0
  H  H18  1  0.38608803  0.88775863  0.62527074  1.0
  H  H19  1  0.60505967  0.27078295  0.38790844  1.0
  H  H20  1  0.39420104  0.72896543  0.61477510  1.0
  H  H21  1  0.54069212  0.61198939  0.74397129  1.0
  H  H22  1  0.56422217  0.38015271  0.25204054  1.0
  H  H23  1  0.56596721  0.60433391  0.88882332  1.0
  C  C24  1  0.51211452  0.51205874  0.34912829  1.0
  C  C25  1  0.52771924  0.40291185  0.77778508  1.0
  C  C26  1  0.45959798  0.24270637  0.54392056  1.0
  C  C27  1  0.53608010  0.75679862  0.45659719  1.0
  C  C28  1  0.45938919  0.15467107  0.54305548  1.0
  C  C29  1  0.53768104  0.84458528  0.45773738  1.0
  C  C30  1  0.51744132  0.10527707  0.48154956  1.0
  C  C31  1  0.48145381  0.89397889  0.51995662  1.0
  C  C32  1  0.57057033  0.14809329  0.42501976  1.0
  C  C33  1  0.42901863  0.85136894  0.57711705  1.0
  C  C34  1  0.56597733  0.23498808  0.43057886  1.0
  C  C35  1  0.50665536  0.48814300  0.65153104  1.0
  C  C36  1  0.43249844  0.76463663  0.57147550  1.0
  C  C37  1  0.70345859  0.47578090  0.49611388  1.0
  C  C38  1  0.29401009  0.52178844  0.50451294  1.0
  C  C39  1  0.18065407  0.52659363  0.50733778  1.0
  C  C40  1  0.81661694  0.47182417  0.49246742  1.0
  C  C41  1  0.98868669  0.40007718  0.44701624  1.0
  C  C42  1  0.00839095  0.59872897  0.55212927  1.0
  C  C43  1  0.88286576  0.40175789  0.45546450  1.0
  C  C44  1  0.11436288  0.59662671  0.54439609  1.0
  C  C45  1  0.85742462  0.53678563  0.52385794  1.0
  C  C46  1  0.56562611  0.44240201  0.13889060  1.0
  C  C47  1  0.13961797  0.46206906  0.47530958  1.0
  C  C48  1  0.96449964  0.53407193  0.51939965  1.0
  C  C49  1  0.03252055  0.46492312  0.47951403  1.0
  C  C50  1  0.52746232  0.51699822  0.26206630  1.0
  C  C51  1  0.52544092  0.48052587  0.73711067  1.0
  C  C52  1  0.55407053  0.44062657  0.21967354  1.0
  C  C53  1  0.54064292  0.55285242  0.77718339  1.0
  C  C54  1  0.55478100  0.54881473  0.85689835  1.0
  C  C55  1  0.55025565  0.52169394  0.09881996  1.0
  C  C56  1  0.55275220  0.47167761  0.89819713  1.0
  C  C57  1  0.52718616  0.59815318  0.14097401  1.0
  C  C58  1  0.54120118  0.39855602  0.85796862  1.0
  C  C59  1  0.51533421  0.59585512  0.22218833  1.0
  N  N60  1  0.55223285  0.53116471  0.01653840  1.0
  N  N61  1  0.55763525  0.46185838  0.98018283  1.0
  N  N62  1  0.51159562  0.28101528  0.48957248  1.0
  N  N63  1  0.48482854  0.71868962  0.51160369  1.0
  N  N64  1  0.52482207  0.01826553  0.47392425  1.0
  N  N65  1  0.47474368  0.98088666  0.52760528  1.0
  O  O66  1  0.49242129  0.58202404  0.38689243  1.0
  O  O67  1  0.84800170  0.33509950  0.42543013  1.0
  O  O68  1  0.05044949  0.33442763  0.40800112  1.0
  O  O69  1  0.94649684  0.66431517  0.59117133  1.0
  O  O70  1  0.59058391  0.87894132  0.40104511  1.0
  O  O71  1  0.40593571  0.12014343  0.59925184  1.0
  O  O72  1  0.51267970  0.41908676  0.61358761  1.0
  O  O73  1  0.51994308  0.43740979  0.37920684  1.0
  O  O74  1  0.48602899  0.56360843  0.62284464  1.0
  O  O75  1  0.64482675  0.54742923  0.50735836  1.0
  O  O76  1  0.35211917  0.45005412  0.49255701  1.0
  O  O77  1  0.67275907  0.40460956  0.48656494  1.0
  O  O78  1  0.32560007  0.59235867  0.51549221  1.0
  O  O79  1  0.14922807  0.66279171  0.57539982  1.0
