# generated using pymatgen
data_AlH12(C6O5)6
_symmetry_space_group_name_H-M   'P 1'
_cell_length_a   4.43962964
_cell_length_b   29.11291697
_cell_length_c   29.11009862
_cell_angle_alpha   119.98816378
_cell_angle_beta   89.99823454
_cell_angle_gamma   89.99801705
_symmetry_Int_Tables_number   1
_chemical_formula_structural   AlH12(C6O5)6
_chemical_formula_sum   'Al2 H24 C72 O60'
_cell_volume   3258.80637524
_cell_formula_units_Z   2
loop_
 _symmetry_equiv_pos_site_id
 _symmetry_equiv_pos_as_xyz
  1  'x, y, z'
loop_
 _atom_site_type_symbol
 _atom_site_label
 _atom_site_symmetry_multiplicity
 _atom_site_fract_x
 _atom_site_fract_y
 _atom_site_fract_z
 _atom_site_occupancy
  Al  Al0  1  0.00011543  0.50000102  0.50000201  1.0
  Al  Al1  1  0.99997098  0.16667016  0.83334197  1.0
  H  H2  1  0.82069999  0.12871425  0.65267291  1.0
  H  H3  1  0.17802933  0.34722686  0.87116728  1.0
  H  H4  1  0.78532600  0.40658869  0.80769602  1.0
  H  H5  1  0.21410759  0.19230906  0.59339721  1.0
  H  H6  1  0.78552426  0.26006833  0.52552603  1.0
  H  H7  1  0.21446269  0.47441315  0.73985480  1.0
  H  H8  1  0.82180718  0.53784117  0.68051535  1.0
  H  H9  1  0.17847640  0.31938692  0.46207978  1.0
  H  H10  1  0.82087508  0.02394835  0.87127688  1.0
  H  H11  1  0.17803139  0.02393913  0.65277475  1.0
  H  H12  1  0.78533464  0.90110697  0.59341573  1.0
  H  H13  1  0.21413200  0.90107594  0.80769461  1.0
  H  H14  1  0.78546830  0.76545096  0.73991684  1.0
  H  H15  1  0.21442028  0.76544375  0.52556325  1.0
  H  H16  1  0.82174916  0.64267277  0.46213267  1.0
  H  H17  1  0.17835719  0.64268631  0.68058833  1.0
  H  H18  1  0.82060385  0.34732276  0.97604645  1.0
  H  H19  1  0.17825468  0.12881896  0.97607306  1.0
  H  H20  1  0.78551503  0.19229459  0.09890636  1.0
  H  H21  1  0.21408592  0.40659254  0.09891068  1.0
  H  H22  1  0.78551649  0.47446737  0.23453078  1.0
  H  H23  1  0.21445389  0.26014701  0.23457115  1.0
  H  H24  1  0.82179285  0.31949454  0.35734156  1.0
  H  H25  1  0.17836137  0.53791473  0.35729518  1.0
  C  C26  1  0.50011053  0.45962933  0.41920623  1.0
  C  C27  1  0.50009655  0.45959653  0.54039085  1.0
  C  C28  1  0.50006160  0.58080035  0.54040597  1.0
  C  C29  1  0.49994031  0.20705280  0.79291935  1.0
  C  C30  1  0.49995498  0.08586006  0.79294945  1.0
  C  C31  1  0.49992857  0.20707660  0.91415109  1.0
  C  C32  1  0.49991086  0.23712587  0.76284796  1.0
  C  C33  1  0.48706690  0.20977300  0.70706607  1.0
  C  C34  1  0.52053799  0.23748804  0.67946180  1.0
  C  C35  1  0.49988576  0.29327625  0.70672732  1.0
  C  C36  1  0.47914360  0.32053567  0.76251330  1.0
  C  C37  1  0.51259023  0.29290745  0.79020725  1.0
  C  C38  1  0.49988786  0.32125283  0.67874590  1.0
  C  C39  1  0.49997107  0.34540027  0.65454268  1.0
  C  C40  1  0.49998218  0.37337589  0.62656704  1.0
  C  C41  1  0.47931548  0.34610593  0.57077924  1.0
  C  C42  1  0.51279786  0.37373171  0.54308564  1.0
  C  C43  1  0.50005393  0.42951089  0.57044253  1.0
  C  C44  1  0.48728089  0.45686489  0.62621918  1.0
  C  C45  1  0.52067574  0.42916267  0.65383671  1.0
  C  C46  1  0.49992006  0.02571906  0.76287750  1.0
  C  C47  1  0.48711530  0.99729155  0.79023012  1.0
  C  C48  1  0.52051407  0.94197542  0.76251998  1.0
  C  C49  1  0.49981611  0.91344994  0.70673252  1.0
  C  C50  1  0.47910224  0.94197950  0.67947424  1.0
  C  C51  1  0.51255816  0.99729616  0.70709803  1.0
  C  C52  1  0.49979562  0.85748987  0.67875180  1.0
  C  C53  1  0.49988533  0.80914316  0.65459106  1.0
  C  C54  1  0.49990539  0.75319178  0.62660992  1.0
  C  C55  1  0.47924193  0.72467307  0.65387865  1.0
  C  C56  1  0.51271501  0.66935899  0.62625706  1.0
  C  C57  1  0.50002445  0.64093319  0.57048126  1.0
  C  C58  1  0.48726850  0.66935526  0.54312852  1.0
  C  C59  1  0.52061403  0.72466993  0.57082293  1.0
  C  C60  1  0.49983977  0.23714643  0.97429116  1.0
  C  C61  1  0.48698863  0.29292561  0.00272434  1.0
  C  C62  1  0.52051229  0.32054097  0.05803957  1.0
  C  C63  1  0.49992263  0.29326602  0.08655521  1.0
  C  C64  1  0.47920454  0.23748265  0.05802398  1.0
  C  C65  1  0.51258965  0.20977924  0.00270399  1.0
  C  C66  1  0.49997705  0.32126422  0.14251500  1.0
  C  C67  1  0.49999109  0.34544451  0.19086633  1.0
  C  C68  1  0.49994416  0.37343915  0.24681938  1.0
  C  C69  1  0.47926915  0.42922373  0.27533912  1.0
  C  C70  1  0.51270944  0.45692824  0.33065388  1.0
  C  C71  1  0.49998534  0.42957002  0.35907350  1.0
  C  C72  1  0.48719132  0.37379571  0.33064855  1.0
  C  C73  1  0.52062145  0.34616449  0.27533334  1.0
  C  C74  1  0.40521226  0.15202076  0.67376534  1.0
  C  C75  1  0.59379631  0.32620484  0.84798728  1.0
  C  C76  1  0.37854278  0.37775969  0.79066238  1.0
  C  C77  1  0.62097422  0.20934075  0.62223072  1.0
  C  C78  1  0.37875764  0.28887341  0.54260096  1.0
  C  C79  1  0.62122924  0.45733352  0.71106206  1.0
  C  C80  1  0.40603184  0.51464521  0.65950153  1.0
  C  C81  1  0.59417741  0.34044060  0.48531234  1.0
  C  C82  1  0.40533222  0.02175545  0.84798257  1.0
  C  C83  1  0.59380539  0.02178571  0.67381352  1.0
  C  C84  1  0.37853993  0.91289240  0.62225502  1.0
  C  C85  1  0.62098453  0.91287549  0.79064633  1.0
  C  C86  1  0.37869287  0.75373891  0.71110749  1.0
  C  C87  1  0.62118964  0.75373187  0.54266100  1.0
  C  C88  1  0.40597044  0.64485042  0.48535393  1.0
  C  C89  1  0.59409398  0.64486386  0.65953070  1.0
  C  C90  1  0.40512730  0.32622305  0.97827534  1.0
  C  C91  1  0.59397539  0.15200736  0.97822087  1.0
  C  C92  1  0.37869838  0.20934191  0.08710490  1.0
  C  C93  1  0.62095506  0.37777320  0.08713653  1.0
  C  C94  1  0.37873376  0.45739195  0.24627888  1.0
  C  C95  1  0.62120895  0.28893589  0.24627182  1.0
  C  C96  1  0.40600864  0.34051481  0.35514283  1.0
  C  C97  1  0.59409967  0.51469719  0.35513709  1.0
  O  O98  1  0.73511879  0.55849578  0.54510138  1.0
  O  O99  1  0.73516026  0.48661997  0.44151643  1.0
  O  O100  1  0.73516784  0.45489897  0.51339101  1.0
  O  O101  1  0.26500960  0.55849804  0.51340679  1.0
  O  O102  1  0.26503641  0.48659921  0.54509093  1.0
  O  O103  1  0.26506702  0.45491685  0.44150529  1.0
  O  O104  1  0.73503517  0.18009106  0.89184732  1.0
  O  O105  1  0.73505240  0.21175043  0.81990869  1.0
  O  O106  1  0.73506765  0.10815127  0.78825350  1.0
  O  O107  1  0.26492837  0.21178333  0.89183939  1.0
  O  O108  1  0.26494299  0.10817768  0.81996300  1.0
  O  O109  1  0.26494549  0.18003875  0.78822323  1.0
  O  O110  1  0.60407392  0.11738153  0.64217707  1.0
  O  O111  1  0.14035947  0.13956733  0.67387099  1.0
  O  O112  1  0.39456528  0.35776730  0.88255513  1.0
  O  O113  1  0.85836758  0.32610520  0.86057753  1.0
  O  O114  1  0.56598414  0.41750821  0.81446980  1.0
  O  O115  1  0.10469882  0.38452194  0.78995790  1.0
  O  O116  1  0.43346519  0.18554481  0.58248868  1.0
  O  O117  1  0.89476183  0.21006428  0.61543434  1.0
  O  O118  1  0.56624847  0.24913666  0.51872607  1.0
  O  O119  1  0.10497709  0.28207891  0.54333094  1.0
  O  O120  1  0.43372048  0.48122014  0.75079671  1.0
  O  O121  1  0.89498055  0.45657507  0.71786294  1.0
  O  O122  1  0.60522368  0.54922033  0.69104800  1.0
  O  O123  1  0.14137872  0.52720669  0.65942132  1.0
  O  O124  1  0.39508693  0.30886925  0.45072397  1.0
  O  O125  1  0.85886199  0.34053870  0.47277150  1.0
  O  O126  1  0.60423735  0.02478148  0.88260368  1.0
  O  O127  1  0.14051430  0.03432404  0.86046365  1.0
  O  O128  1  0.39459652  0.02477740  0.64224108  1.0
  O  O129  1  0.85838780  0.03445940  0.67389496  1.0
  O  O130  1  0.56599969  0.89696921  0.58250602  1.0
  O  O131  1  0.10470928  0.90542455  0.61548319  1.0
  O  O132  1  0.43348762  0.89693474  0.81445164  1.0
  O  O133  1  0.89477939  0.90537495  0.78994306  1.0
  O  O134  1  0.56617658  0.76957915  0.75084105  1.0
  O  O135  1  0.10491476  0.76126179  0.71791239  1.0
  O  O136  1  0.43370261  0.76957135  0.51876338  1.0
  O  O137  1  0.89494494  0.76127870  0.54340163  1.0
  O  O138  1  0.60513229  0.64183335  0.45077523  1.0
  O  O139  1  0.14129827  0.63222854  0.47279993  1.0
  O  O140  1  0.39497460  0.64184685  0.69110110  1.0
  O  O141  1  0.85877869  0.63223513  0.65945156  1.0
  O  O142  1  0.60395083  0.35780796  0.97521358  1.0
  O  O143  1  0.14026775  0.32611879  0.96571914  1.0
  O  O144  1  0.39480914  0.11743858  0.97522652  1.0
  O  O145  1  0.85858837  0.13943055  0.96555580  1.0
  O  O146  1  0.56616173  0.18553181  0.10304482  1.0
  O  O147  1  0.10487653  0.21004597  0.09459053  1.0
  O  O148  1  0.43342084  0.41751058  0.10305832  1.0
  O  O149  1  0.89474515  0.38456557  0.09464187  1.0
  O  O150  1  0.56621607  0.48125725  0.23040383  1.0
  O  O151  1  0.10496490  0.45666842  0.23874901  1.0
  O  O152  1  0.43372313  0.24920463  0.23043739  1.0
  O  O153  1  0.89498932  0.28214009  0.23874297  1.0
  O  O154  1  0.60519803  0.30897168  0.35818264  1.0
  O  O155  1  0.14135553  0.34059244  0.36778412  1.0
  O  O156  1  0.39496693  0.54927313  0.35813334  1.0
  O  O157  1  0.85877409  0.52724472  0.36776946  1.0
