# generated using pymatgen
data_Zn2H36C44N4O15
_symmetry_space_group_name_H-M   'P 1'
_cell_length_a   9.72644864
_cell_length_b   10.95042142
_cell_length_c   23.66629020
_cell_angle_alpha   90.63025668
_cell_angle_beta   90.39035876
_cell_angle_gamma   90.59873768
_symmetry_Int_Tables_number   1
_chemical_formula_structural   Zn2H36C44N4O15
_chemical_formula_sum   'Zn2 H36 C44 N4 O15'
_cell_volume   2520.31545607
_cell_formula_units_Z   1
loop_
 _symmetry_equiv_pos_site_id
 _symmetry_equiv_pos_as_xyz
  1  'x, y, z'
loop_
 _atom_site_type_symbol
 _atom_site_label
 _atom_site_symmetry_multiplicity
 _atom_site_fract_x
 _atom_site_fract_y
 _atom_site_fract_z
 _atom_site_occupancy
  Zn  Zn0  1  0.36497529  0.50759289  0.50330596  1.0
  Zn  Zn1  1  0.64476564  0.49905940  0.50422938  1.0
  H  H2  1  0.44035266  0.82060467  0.05209338  1.0
  H  H3  1  0.87516561  0.41872632  0.42921179  1.0
  H  H4  1  0.90539703  0.50272306  0.54664244  1.0
  H  H5  1  0.49054468  0.19941435  0.95481245  1.0
  H  H6  1  0.51315225  0.21050365  0.06153953  1.0
  H  H7  1  0.68809865  0.43288863  0.79797094  1.0
  H  H8  1  0.28906760  0.50876173  0.67286672  1.0
  H  H9  1  0.26132035  0.52632115  0.77777444  1.0
  H  H10  1  0.82764727  0.99941686  0.40509244  1.0
  H  H11  1  0.66134765  0.00026213  0.37251320  1.0
  H  H12  1  0.69847045  0.79036080  0.33333333  1.0
  H  H13  1  0.74854079  0.54213387  0.32004964  1.0
  H  H14  1  0.83617404  0.88860236  0.31277062  1.0
  H  H15  1  0.86010820  0.78294525  0.36872863  1.0
  H  H16  1  0.19461950  0.83989239  0.93237827  1.0
  H  H17  1  0.29755226  0.79244750  0.87333559  1.0
  H  H18  1  0.39580949  0.00302968  0.86550536  1.0
  H  H19  1  0.21385666  0.00518357  0.85928832  1.0
  H  H20  1  0.29424957  0.05302882  0.92361175  1.0
  H  H21  1  0.69159832  0.28508210  0.62922879  1.0
  H  H22  1  0.72058110  0.22039801  0.69747631  1.0
  H  H23  1  0.97151932  0.28038685  0.69116241  1.0
  H  H24  1  0.30884461  0.52828065  0.32809046  1.0
  H  H25  1  0.92112923  0.18167652  0.63417022  1.0
  H  H26  1  0.94137356  0.34143027  0.62291689  1.0
  H  H27  1  0.87613251  0.38554265  0.24545834  1.0
  H  H28  1  0.77853454  0.34684615  0.18421144  1.0
  H  H29  1  0.94213432  0.42045464  0.17752870  1.0
  H  H30  1  0.75872629  0.57422139  0.16263080  1.0
  H  H31  1  0.84882500  0.60868760  0.22563333  1.0
  H  H32  1  0.29680583  0.52548139  0.22175389  1.0
  H  H33  1  0.68076232  0.11935706  0.46836023  1.0
  H  H34  1  0.36603970  0.09120064  0.47349765  1.0
  H  H35  1  0.43123250  0.92239334  0.53097782  1.0
  H  H36  1  0.13101673  0.35826686  0.45320149  1.0
  H  H37  1  0.10405136  0.59313701  0.51228429  1.0
  C  C38  1  0.50289240  0.73827419  0.51189317  1.0
  C  C39  1  0.46014715  0.38039474  0.88405718  1.0
  C  C40  1  0.59981830  0.45110684  0.77089554  1.0
  C  C41  1  0.50902464  0.46727146  0.61300006  1.0
  C  C42  1  0.61527151  0.43977636  0.71234013  1.0
  C  C43  1  0.50192666  0.46288336  0.67631319  1.0
  C  C44  1  0.37549552  0.49230845  0.70117953  1.0
  C  C45  1  0.35995677  0.50262140  0.75933112  1.0
  C  C46  1  0.47393065  0.48288315  0.79387156  1.0
  C  C47  1  0.64629247  0.53875424  0.23871881  1.0
  C  C48  1  0.64983727  0.53853480  0.29786838  1.0
  C  C49  1  0.44703360  0.73263498  0.03031335  1.0
  C  C50  1  0.52977491  0.53363519  0.32994184  1.0
  C  C51  1  0.40158807  0.53070466  0.30259530  1.0
  C  C52  1  0.39531953  0.52955075  0.24397156  1.0
  C  C53  1  0.47174149  0.26879218  0.48249358  1.0
  C  C54  1  0.51639552  0.53241429  0.21273268  1.0
  C  C55  1  0.58319335  0.06899580  0.47030953  1.0
  C  C56  1  0.46747811  0.13453659  0.47459828  1.0
  C  C57  1  0.58928280  0.93589925  0.47128143  1.0
  C  C58  1  0.50597991  0.87162801  0.50641873  1.0
  C  C59  1  0.07923344  0.43714977  0.47217778  1.0
  C  C60  1  0.42898342  0.72901902  0.97072115  1.0
  C  C61  1  0.92800964  0.44527502  0.46865860  1.0
  C  C62  1  0.53701749  0.52815001  0.39321241  1.0
  C  C63  1  0.50833414  0.41010851  0.12636237  1.0
  C  C64  1  0.48651893  0.63796166  0.12333883  1.0
  C  C65  1  0.46938773  0.62843569  0.06100730  1.0
  C  C66  1  0.47381951  0.51322026  0.03316114  1.0
  C  C67  1  0.49277230  0.40493671  0.06409409  1.0
  C  C68  1  0.74040698  0.94115970  0.39100920  1.0
  C  C69  1  0.78637137  0.84486741  0.34895389  1.0
  C  C70  1  0.29000554  0.85720515  0.90872212  1.0
  C  C71  1  0.44371845  0.61697730  0.94115736  1.0
  C  C72  1  0.29963841  0.98723339  0.88837130  1.0
  C  C73  1  0.75645860  0.29009979  0.66746238  1.0
  C  C74  1  0.90638526  0.27253055  0.65317968  1.0
  C  C75  1  0.77839043  0.54148583  0.20563833  1.0
  C  C76  1  0.84795460  0.41618345  0.20288332  1.0
  C  C77  1  0.46135723  0.50815846  0.97311609  1.0
  C  C78  1  0.46867005  0.39199192  0.94622915  1.0
  C  C79  1  0.48582222  0.28631744  0.97761532  1.0
  C  C80  1  0.49819456  0.29227564  0.03648992  1.0
  C  C81  1  0.45889759  0.60939975  0.87905203  1.0
  N  N82  1  0.50414823  0.52700293  0.15184003  1.0
  N  N83  1  0.46155918  0.49107651  0.85459799  1.0
  N  N84  1  0.15486531  0.51843508  0.49648033  1.0
  N  N85  1  0.85377752  0.48205845  0.50964257  1.0
  O  O86  1  0.38450991  0.68932807  0.52033186  1.0
  O  O87  1  0.42375928  0.53715884  0.41964569  1.0
  O  O88  1  0.65483147  0.51323625  0.41582485  1.0
  O  O89  1  0.52492224  0.31867507  0.15521695  1.0
  O  O90  1  0.68460305  0.87797239  0.43921333  1.0
  O  O91  1  0.40357113  0.83971549  0.94846618  1.0
  O  O92  1  0.74430416  0.40902250  0.69422183  1.0
  O  O93  1  0.48613809  0.73567897  0.14932821  1.0
  O  O94  1  0.47341351  0.69892489  0.84855252  1.0
  O  O95  1  0.45594232  0.28148479  0.85892508  1.0
  O  O96  1  0.61566915  0.68060155  0.50799800  1.0
  O  O97  1  0.39442054  0.46282186  0.58638451  1.0
  O  O98  1  0.62652182  0.47890084  0.59023340  1.0
  O  O99  1  0.35622662  0.32337968  0.48211313  1.0
  O  O100  1  0.58895713  0.31983394  0.49023072  1.0
