# generated using pymatgen
data_Zn2H16C35Br4N4O13
_symmetry_space_group_name_H-M   'P 1'
_cell_length_a   9.84922679
_cell_length_b   10.98595609
_cell_length_c   17.11918349
_cell_angle_alpha   91.87967022
_cell_angle_beta   95.62738208
_cell_angle_gamma   91.59397647
_symmetry_Int_Tables_number   1
_chemical_formula_structural   Zn2H16C35Br4N4O13
_chemical_formula_sum   'Zn2 H16 C35 Br4 N4 O13'
_cell_volume   1841.53397184
_cell_formula_units_Z   1
loop_
 _symmetry_equiv_pos_site_id
 _symmetry_equiv_pos_as_xyz
  1  'x, y, z'
loop_
 _atom_site_type_symbol
 _atom_site_label
 _atom_site_symmetry_multiplicity
 _atom_site_fract_x
 _atom_site_fract_y
 _atom_site_fract_z
 _atom_site_occupancy
  Zn  Zn0  1  0.35708573  0.49824516  0.50617682  1.0
  Zn  Zn1  1  0.64065121  0.49525322  0.50443092  1.0
  H  H2  1  0.28407613  0.81769724  0.39519631  1.0
  H  H3  1  0.20260413  0.85207113  0.48190837  1.0
  H  H4  1  0.18044676  0.06604041  0.44107221  1.0
  H  H5  1  0.87516390  0.64205880  0.58733835  1.0
  H  H6  1  0.13446509  0.24300931  0.43515189  1.0
  H  H7  1  0.42000790  0.30638295  0.89729853  1.0
  H  H8  1  0.88566539  0.21822302  0.45017659  1.0
  H  H9  1  0.62838241  0.39094316  0.12587962  1.0
  H  H10  1  0.65197955  0.64533829  0.90373386  1.0
  H  H11  1  0.63151565  0.42592214  0.26982721  1.0
  H  H12  1  0.71138722  0.14041613  0.56290979  1.0
  H  H13  1  0.19380793  0.01401103  0.29794967  1.0
  H  H14  1  0.10079382  0.43933380  0.31111024  1.0
  H  H15  1  0.70999201  0.27054716  0.34785575  1.0
  H  H16  1  0.13046735  0.62515011  0.11072871  1.0
  H  H17  1  0.11044381  0.58493016  0.23433305  1.0
  C  C18  1  0.50416364  0.25956903  0.48879467  1.0
  C  C19  1  0.32775755  0.55240839  0.21523648  1.0
  C  C20  1  0.46985544  0.37711265  0.86624046  1.0
  C  C21  1  0.47155937  0.37045384  0.78521322  1.0
  C  C22  1  0.53346787  0.47872055  0.90788615  1.0
  C  C23  1  0.53065505  0.46370991  0.74388609  1.0
  C  C24  1  0.59719356  0.56174488  0.78804291  1.0
  C  C25  1  0.60164459  0.56880671  0.86945385  1.0
  C  C26  1  0.40456986  0.04200278  0.47732033  1.0
  C  C27  1  0.50946960  0.12600926  0.50154233  1.0
  C  C28  1  0.62757969  0.07794303  0.54076580  1.0
  C  C29  1  0.44675573  0.51866390  0.35313993  1.0
  C  C30  1  0.64030420  0.95296576  0.55153151  1.0
  C  C31  1  0.53484939  0.86661093  0.52565711  1.0
  C  C32  1  0.41721613  0.91822945  0.49025557  1.0
  C  C33  1  0.28158756  0.88221010  0.44519561  1.0
  C  C34  1  0.27318966  0.02280855  0.42422502  1.0
  C  C35  1  0.92454706  0.41364466  0.47032103  1.0
  C  C36  1  0.92934314  0.57603197  0.55422243  1.0
  C  C37  1  0.07295370  0.58144528  0.55723247  1.0
  C  C38  1  0.06469735  0.42427094  0.46948870  1.0
  C  C39  1  0.07329016  0.31798651  0.41207491  1.0
  C  C40  1  0.53860978  0.73073878  0.52554330  1.0
  C  C41  1  0.91183960  0.29871601  0.41745319  1.0
  C  C42  1  0.51557524  0.46450762  0.65554609  1.0
  C  C43  1  0.43824225  0.51170002  0.26493643  1.0
  C  C44  1  0.54521003  0.45483188  0.23131516  1.0
  C  C45  1  0.54452915  0.43605884  0.15080017  1.0
  C  C46  1  0.43516539  0.47597896  0.10091977  1.0
  C  C47  1  0.32576738  0.53470017  0.13286624  1.0
  C  C48  1  0.28749813  0.03902387  0.33780021  1.0
  C  C49  1  0.11395823  0.34464354  0.32999013  1.0
  C  C50  1  0.81660152  0.30305498  0.34275087  1.0
  C  C51  1  0.21595459  0.58594834  0.08056592  1.0
  C  C52  1  0.21646548  0.62409305  0.24679727  1.0
  Br  Br53  1  0.39249404  0.22891231  0.72883955  1.0
  Br  Br54  1  0.81065791  0.90706476  0.60450775  1.0
  Br  Br55  1  0.16584616  0.69763741  0.62706056  1.0
  Br  Br56  1  0.67782768  0.69381572  0.73753615  1.0
  N  N57  1  0.43230513  0.45473825  0.01928634  1.0
  N  N58  1  0.53233819  0.50248173  0.98961640  1.0
  N  N59  1  0.85274056  0.49032609  0.51021133  1.0
  N  N60  1  0.14409240  0.50642172  0.51307192  1.0
  O  O61  1  0.38957460  0.31029583  0.48942329  1.0
  O  O62  1  0.61830883  0.31302675  0.48005002  1.0
  O  O63  1  0.33565894  0.51337874  0.38582350  1.0
  O  O64  1  0.56637202  0.52415493  0.38894797  1.0
  O  O65  1  0.42198760  0.67636163  0.52027054  1.0
  O  O66  1  0.65253789  0.67876492  0.52665089  1.0
  O  O67  1  0.39472133  0.47622592  0.62412274  1.0
  O  O68  1  0.62295239  0.45728926  0.62072038  1.0
  O  O69  1  0.39346596  0.07088417  0.31214118  1.0
  O  O70  1  0.16012664  0.26621516  0.28938467  1.0
  O  O71  1  0.85283949  0.34193638  0.28191792  1.0
  O  O72  1  0.21320843  0.58802940  0.00891524  1.0
  O  O73  1  0.23758443  0.72203235  0.28242976  1.0
