# generated using pymatgen
data_Al3H24C42(Cl5O7)2
_symmetry_space_group_name_H-M   'P 1'
_cell_length_a   13.50522562
_cell_length_b   13.91420699
_cell_length_c   27.99802096
_cell_angle_alpha   88.99023222
_cell_angle_beta   88.89677185
_cell_angle_gamma   61.13924107
_symmetry_Int_Tables_number   1
_chemical_formula_structural   Al3H24C42(Cl5O7)2
_chemical_formula_sum   'Al6 H48 C84 Cl20 O28'
_cell_volume   4606.70171765
_cell_formula_units_Z   2
loop_
 _symmetry_equiv_pos_site_id
 _symmetry_equiv_pos_as_xyz
  1  'x, y, z'
loop_
 _atom_site_type_symbol
 _atom_site_label
 _atom_site_symmetry_multiplicity
 _atom_site_fract_x
 _atom_site_fract_y
 _atom_site_fract_z
 _atom_site_occupancy
  Al  Al0  1  0.17498666  0.41413990  0.49799704  1.0
  Al  Al1  1  0.94150336  0.64107761  0.50156994  1.0
  Al  Al2  1  0.92889931  0.43156215  0.49941530  1.0
  Al  Al3  1  0.15569913  0.90953985  0.99850555  1.0
  Al  Al4  1  0.38287149  0.92937333  0.99867971  1.0
  Al  Al5  1  0.40537136  0.70365512  0.99973807  1.0
  H  H6  1  0.72527829  0.80997824  0.21663433  1.0
  H  H7  1  0.34190888  0.07145803  0.30977521  1.0
  H  H8  1  0.08380026  0.34080283  0.28348413  1.0
  H  H9  1  0.04291512  0.10319560  0.22097543  1.0
  H  H10  1  0.25879833  0.47598862  0.28090871  1.0
  H  H11  1  0.21454673  0.76174355  0.28355503  1.0
  H  H12  1  0.31566957  0.62596224  0.30034402  1.0
  H  H13  1  0.34772351  0.56316714  0.22105915  1.0
  H  H14  1  0.11466606  0.51028918  0.28298410  1.0
  H  H15  1  0.09163437  0.55015140  0.20065146  1.0
  H  H16  1  0.82998846  0.51149199  0.73925290  1.0
  H  H17  1  0.67980437  0.53621996  0.79411786  1.0
  H  H18  1  0.61739154  0.87063117  0.78897148  1.0
  H  H19  1  0.81766828  0.70223011  0.79492710  1.0
  H  H20  1  0.51212941  0.83771657  0.77091874  1.0
  H  H21  1  0.25819814  0.00757486  0.69458831  1.0
  H  H22  1  0.32272142  0.09152510  0.69861200  1.0
  H  H23  1  0.54234430  0.61972130  0.29673206  1.0
  H  H24  1  0.06815801  0.07310684  0.70949363  1.0
  H  H25  1  0.04502160  0.35169576  0.72072851  1.0
  H  H26  1  0.08260953  0.32719972  0.79946741  1.0
  H  H27  1  0.99249663  0.66905183  0.72307775  1.0
  H  H28  1  0.05167473  0.81372878  0.71708745  1.0
  H  H29  1  0.12160363  0.82118329  0.79279876  1.0
  H  H30  1  0.30769757  0.47497617  0.70367573  1.0
  H  H31  1  0.34287452  0.58165543  0.70562036  1.0
  H  H32  1  0.29019675  0.46811611  0.78740001  1.0
  H  H33  1  0.09853196  0.53035154  0.73039381  1.0
  H  H34  1  0.08625360  0.56986184  0.81220174  1.0
  H  H35  1  0.37465609  0.53336899  0.78697543  1.0
  H  H36  1  0.17183418  0.97880183  0.22106658  1.0
  H  H37  1  0.20408421  0.99423998  0.30299722  1.0
  H  H38  1  0.29663794  0.20290315  0.28435755  1.0
  H  H39  1  0.34435043  0.99225861  0.23531110  1.0
  H  H40  1  0.05647841  0.08382262  0.30475016  1.0
  H  H41  1  0.18113354  0.28252090  0.21240119  1.0
  H  H42  1  0.57718744  0.89054773  0.29639595  1.0
  H  H43  1  0.96681914  0.72261925  0.27189483  1.0
  H  H44  1  0.01332143  0.81978188  0.28157909  1.0
  H  H45  1  0.99574507  0.73424304  0.19076616  1.0
  H  H46  1  0.87973518  0.60405411  0.72240571  1.0
  H  H47  1  0.33363629  0.06985787  0.78021252  1.0
  H  H48  1  0.01176542  0.71333377  0.80188227  1.0
  H  H49  1  0.18864239  0.78128580  0.69617047  1.0
  H  H50  1  0.42804523  0.82781387  0.25257407  1.0
  H  H51  1  0.26345198  0.74728124  0.77316796  1.0
  H  H52  1  0.36173878  0.32903512  0.52504085  1.0
  H  H53  1  0.97104717  0.97302131  0.02762742  1.0
  C  C54  1  0.10083218  0.60758754  0.43112487  1.0
  C  C55  1  0.73747851  0.64717376  0.39279378  1.0
  C  C56  1  0.51973865  0.77877795  0.25474282  1.0
  C  C57  1  0.60159417  0.73498483  0.20929454  1.0
  C  C58  1  0.58197838  0.66316398  0.27892156  1.0
  C  C59  1  0.66435179  0.69651185  0.30448283  1.0
  C  C60  1  0.66411994  0.61819319  0.23518577  1.0
  C  C61  1  0.74667027  0.65299951  0.25881656  1.0
  C  C62  1  0.57277653  0.74969525  0.16038538  1.0
  C  C63  1  0.70164033  0.67189232  0.35224303  1.0
  C  C64  1  0.13586007  0.07046911  0.28784326  1.0
  C  C65  1  0.79491461  0.61384541  0.43770841  1.0
  C  C66  1  0.28289653  0.13126243  0.28410535  1.0
  C  C67  1  0.30455630  0.08194643  0.23375715  1.0
  C  C68  1  0.20725947  0.07526671  0.11582511  1.0
  C  C69  1  0.15952281  0.16552782  0.29998069  1.0
  C  C70  1  0.13073028  0.06417043  0.23311184  1.0
  C  C71  1  0.18959522  0.12404749  0.20795294  1.0
  C  C72  1  0.12208831  0.24966639  0.21726137  1.0
  C  C73  1  0.07987233  0.26926010  0.26989822  1.0
  C  C74  1  0.20270780  0.09929002  0.15754209  1.0
  C  C75  1  0.14015876  0.19727982  0.34977258  1.0
  C  C76  1  0.08941505  0.29921026  0.43276898  1.0
  C  C77  1  0.11820335  0.23637917  0.38950428  1.0
  C  C78  1  0.17416353  0.53676496  0.26897272  1.0
  C  C79  1  0.24302407  0.67451943  0.27728717  1.0
  C  C80  1  0.27657008  0.64652800  0.22471674  1.0
  C  C81  1  0.21511968  0.66519171  0.10466658  1.0
  C  C82  1  0.14461732  0.65052727  0.28964236  1.0
  C  C83  1  0.17044047  0.54374297  0.21408584  1.0
  C  C84  1  0.17682451  0.64819470  0.19670975  1.0
  C  C85  1  0.05843119  0.74416105  0.21138317  1.0
  C  C86  1  0.03693627  0.74020082  0.26550236  1.0
  C  C87  1  0.10536650  0.60213149  0.56757839  1.0
  C  C88  1  0.19619463  0.65042995  0.14587412  1.0
  C  C89  1  0.12927769  0.64748384  0.34082363  1.0
  C  C90  1  0.11902862  0.63647058  0.38343315  1.0
  C  C91  1  0.80912548  0.59811064  0.73918188  1.0
  C  C92  1  0.61613292  0.62063326  0.72692637  1.0
  C  C93  1  0.61730215  0.61930101  0.78295819  1.0
  C  C94  1  0.60134429  0.73716508  0.89321994  1.0
  C  C95  1  0.70034712  0.66319698  0.70842453  1.0
  C  C96  1  0.78815479  0.64222883  0.79048056  1.0
  C  C97  1  0.65891838  0.69923162  0.80127030  1.0
  C  C98  1  0.80555226  0.59689898  0.56898609  1.0
  C  C99  1  0.60365661  0.80795020  0.77178546  1.0
  C  C100  1  0.65125619  0.78887264  0.72049249  1.0
  C  C101  1  0.63177238  0.72095325  0.85166875  1.0
  C  C102  1  0.72835795  0.64124773  0.65814213  1.0
  C  C103  1  0.75705726  0.62177688  0.61649852  1.0
  C  C104  1  0.13131271  0.28388834  0.72525443  1.0
  C  C105  1  0.25307727  0.07930789  0.71248753  1.0
  C  C106  1  0.26309853  0.06056226  0.76687529  1.0
  C  C107  1  0.18789771  0.10048270  0.88605264  1.0
  C  C108  1  0.13950040  0.18101999  0.70019694  1.0
  C  C109  1  0.09188638  0.29163012  0.56336316  1.0
  C  C110  1  0.15297718  0.26168590  0.77996647  1.0
  C  C111  1  0.15652528  0.14996869  0.79366506  1.0
  C  C112  1  0.04228624  0.15832229  0.77575620  1.0
  C  C113  1  0.04480559  0.15691926  0.72007050  1.0
  C  C114  1  0.16935799  0.12896274  0.84456172  1.0
  C  C115  1  0.12779691  0.20167612  0.64918759  1.0
  C  C116  1  0.11461980  0.23060225  0.60762066  1.0
  C  C117  1  0.07799140  0.61571045  0.73653706  1.0
  C  C118  1  0.14208261  0.75461899  0.72081004  1.0
  C  C119  1  0.18142384  0.74904659  0.77251723  1.0
  C  C120  1  0.60164323  0.81281728  0.27867130  1.0
  C  C121  1  0.23132453  0.67610755  0.88793871  1.0
  C  C122  1  0.16240166  0.63941469  0.70677252  1.0
  C  C123  1  0.08511379  0.63646737  0.79014759  1.0
  C  C124  1  0.19424604  0.64373646  0.79827795  1.0
  C  C125  1  0.29394342  0.54179650  0.77513249  1.0
  C  C126  1  0.28486619  0.55382376  0.72036559  1.0
  C  C127  1  0.21359824  0.65489790  0.84810245  1.0
  C  C128  1  0.14381471  0.63388218  0.65643165  1.0
  C  C129  1  0.12900512  0.62519657  0.61438624  1.0
  C  C130  1  0.22108878  0.03501137  0.06789537  1.0
  C  C131  1  0.68392065  0.76855035  0.23480896  1.0
  C  C132  1  0.51285025  0.76821432  0.06959423  1.0
  C  C133  1  0.24161226  0.70612193  0.06145196  1.0
  C  C134  1  0.21816749  0.04506021  0.93175822  1.0
  C  C135  1  0.54118174  0.76150614  0.93828026  1.0
  C  C136  1  0.25300182  0.71591471  0.93134648  1.0
  C  C137  1  0.55211847  0.75453801  0.11792142  1.0
  Cl  Cl138  1  0.40412292  0.10951390  0.20145621  1.0
  Cl  Cl139  1  0.93627567  0.30010710  0.27883941  1.0
  Cl  Cl140  1  0.01369056  0.32402012  0.17540922  1.0
  Cl  Cl141  1  0.28015875  0.41999248  0.18865089  1.0
  Cl  Cl142  1  0.32995049  0.73182264  0.19927631  1.0
  Cl  Cl143  1  0.89227035  0.57335049  0.26108710  1.0
  Cl  Cl144  1  0.04001911  0.87583831  0.19304643  1.0
  Cl  Cl145  1  0.86778519  0.53447629  0.83223483  1.0
  Cl  Cl146  1  0.47933151  0.69814844  0.70257269  1.0
  Cl  Cl147  1  0.66782528  0.48188480  0.70782339  1.0
  Cl  Cl148  1  0.48880368  0.64059609  0.80967067  1.0
  Cl  Cl149  1  0.76505662  0.82279753  0.71495623  1.0
  Cl  Cl150  1  0.54779963  0.88010852  0.67949481  1.0
  Cl  Cl151  1  0.70271913  0.49567848  0.20731179  1.0
  Cl  Cl152  1  0.27534336  0.26350897  0.80151746  1.0
  Cl  Cl153  1  0.22078797  0.32738491  0.69572232  1.0
  Cl  Cl154  1  0.29801382  0.92313915  0.78302744  1.0
  Cl  Cl155  1  0.91167019  0.24115010  0.69379479  1.0
  Cl  Cl156  1  0.92779311  0.28098161  0.79978348  1.0
  Cl  Cl157  1  0.02236757  0.04773136  0.79749104  1.0
  O  O158  1  0.16273460  0.32080637  0.44910984  1.0
  O  O159  1  0.83005182  0.66688230  0.54992065  1.0
  O  O160  1  0.82470760  0.50591288  0.55066551  1.0
  O  O161  1  0.99721220  0.31667832  0.54323778  1.0
  O  O162  1  0.01284771  0.49651791  0.49984360  1.0
  O  O163  1  0.16800973  0.79977757  0.04727523  1.0
  O  O164  1  0.15718635  0.99867577  0.05424677  1.0
  O  O165  1  0.30251584  0.03613784  0.04311971  1.0
  O  O166  1  0.48890117  0.85920042  0.04869787  1.0
  O  O167  1  0.50074293  0.69048073  0.05182360  1.0
  O  O168  1  0.34032154  0.64654803  0.04274894  1.0
  O  O169  1  0.16940370  0.51246101  0.44575190  1.0
  O  O170  1  0.17577985  0.80604282  0.94723483  1.0
  O  O171  1  0.15257493  0.01302872  0.94941937  1.0
  O  O172  1  0.31288531  0.02896831  0.94891071  1.0
  O  O173  1  0.50395452  0.85843790  0.95435631  1.0
  O  O174  1  0.52427326  0.68623513  0.95701817  1.0
  O  O175  1  0.35218012  0.65719517  0.94951328  1.0
  O  O176  1  0.31679072  0.84684590  0.99873332  1.0
  O  O177  1  0.01286590  0.67996234  0.45370029  1.0
  O  O178  1  0.82615453  0.67854485  0.45584562  1.0
  O  O179  1  0.81462626  0.52076957  0.45524592  1.0
  O  O180  1  0.98885519  0.33153318  0.44987752  1.0
  O  O181  1  0.16358242  0.31997284  0.54975949  1.0
  O  O182  1  0.17353369  0.51073773  0.54936411  1.0
  O  O183  1  0.01271248  0.67594499  0.54837298  1.0
  O  O184  1  0.32271503  0.33943729  0.49523382  1.0
  O  O185  1  0.00809340  0.97343222  0.99779882  1.0
