# generated using pymatgen
data_Zn4H11C24S4BrN4O13
_symmetry_space_group_name_H-M   'P 1'
_cell_length_a   19.66620619
_cell_length_b   19.67328567
_cell_length_c   33.37907111
_cell_angle_alpha   79.20018157
_cell_angle_beta   79.23089005
_cell_angle_gamma   63.93322453
_symmetry_Int_Tables_number   1
_chemical_formula_structural   Zn4H11C24S4BrN4O13
_chemical_formula_sum   'Zn16 H44 C96 S16 Br4 N16 O52'
_cell_volume   11315.02139853
_cell_formula_units_Z   4
loop_
 _symmetry_equiv_pos_site_id
 _symmetry_equiv_pos_as_xyz
  1  'x, y, z'
loop_
 _atom_site_type_symbol
 _atom_site_label
 _atom_site_symmetry_multiplicity
 _atom_site_fract_x
 _atom_site_fract_y
 _atom_site_fract_z
 _atom_site_occupancy
  Zn  Zn0  1  0.59981050  0.94511613  0.52193133  1.0
  Zn  Zn1  1  0.51667461  0.01565364  0.43937213  1.0
  Zn  Zn2  1  0.44041156  0.94073205  0.51811120  1.0
  Zn  Zn3  1  0.44323336  0.09853606  0.52020351  1.0
  Zn  Zn4  1  0.65073155  0.30672379  0.72823393  1.0
  Zn  Zn5  1  0.81070746  0.31041583  0.73350496  1.0
  Zn  Zn6  1  0.73222686  0.23149293  0.80921212  1.0
  Zn  Zn7  1  0.80534213  0.15176043  0.72804051  1.0
  Zn  Zn8  1  0.23326568  0.73290486  0.30961270  1.0
  Zn  Zn9  1  0.30443362  0.65115556  0.22785279  1.0
  Zn  Zn10  1  0.15116489  0.80799393  0.22907631  1.0
  Zn  Zn11  1  0.31090145  0.80987905  0.23267480  1.0
  Zn  Zn12  1  0.94002625  0.44026434  0.01692758  1.0
  Zn  Zn13  1  0.94488839  0.59813471  0.02127281  1.0
  Zn  Zn14  1  0.09968533  0.44393623  0.02140990  1.0
  Zn  Zn15  1  0.01709244  0.51714452  0.93963796  1.0
  H  H16  1  0.75047930  0.04482973  0.64812336  1.0
  H  H17  1  0.54680356  0.25334672  0.65038072  1.0
  H  H18  1  0.69801298  0.00167533  0.59983507  1.0
  H  H19  1  0.40345565  0.90327331  0.30027980  1.0
  H  H20  1  0.29913483  0.79749011  0.40121968  1.0
  H  H21  1  0.44926759  0.94932397  0.35050589  1.0
  H  H22  1  0.94949986  0.44972475  0.84629642  1.0
  H  H23  1  0.84784247  0.34981872  0.95149959  1.0
  H  H24  1  0.89972989  0.39892255  0.80049109  1.0
  H  H25  1  0.20493273  0.49898678  0.10195832  1.0
  H  H26  1  0.99632259  0.70262624  0.10008189  1.0
  H  H27  1  0.24844909  0.55140296  0.15007077  1.0
  H  H28  1  0.44547378  0.68465272  0.60427572  1.0
  H  H29  1  0.44804033  0.76628143  0.57368462  1.0
  H  H30  1  0.79724929  0.57458161  0.65510133  1.0
  H  H31  1  0.80055319  0.48599053  0.67829162  1.0
  H  H32  1  0.47667380  0.23481294  0.31438870  1.0
  H  H33  1  0.48307951  0.16513536  0.35624306  1.0
  H  H34  1  0.29677385  0.51555055  0.43539034  1.0
  H  H35  1  0.27272761  0.58476797  0.39303371  1.0
  H  H36  1  0.73426188  0.95313492  0.31430891  1.0
  H  H37  1  0.66525288  0.97724016  0.35667982  1.0
  H  H38  1  0.01514907  0.77456114  0.43546710  1.0
  H  H39  1  0.08510720  0.76699692  0.39353610  1.0
  H  H40  1  0.19627705  0.25598146  0.61542376  1.0
  H  H41  1  0.27474388  0.20409252  0.58230059  1.0
  H  H42  1  0.06517993  0.98485277  0.64500132  1.0
  H  H43  1  0.97808945  0.04406099  0.66976211  1.0
  H  H44  1  0.51541027  0.27649291  0.93524619  1.0
  H  H45  1  0.58547076  0.26735931  0.89306987  1.0
  H  H46  1  0.23382451  0.45597709  0.81408886  1.0
  H  H47  1  0.16458210  0.47886890  0.85669096  1.0
  H  H48  1  0.91360299  0.85427610  0.77385722  1.0
  H  H49  1  0.88205155  0.95241283  0.76067165  1.0
  H  H50  1  0.81569832  0.89572814  0.97492553  1.0
  H  H51  1  0.86337182  0.79759003  0.98891584  1.0
  H  H52  1  0.56480134  0.48434038  0.14469453  1.0
  H  H53  1  0.47824065  0.54327664  0.17012490  1.0
  H  H54  1  0.69667568  0.75482054  0.11602772  1.0
  H  H55  1  0.77470133  0.70331038  0.08272039  1.0
  H  H56  1  0.29723534  0.07559621  0.15491331  1.0
  H  H57  1  0.30100903  0.98682441  0.17800619  1.0
  H  H58  1  0.94511222  0.18413184  0.10465466  1.0
  H  H59  1  0.94723547  0.26600010  0.07418981  1.0
  C  C60  1  0.68437486  0.93977833  0.43753438  1.0
  C  C61  1  0.43030566  0.93113131  0.43093009  1.0
  C  C62  1  0.56160222  0.81511325  0.56144816  1.0
  C  C63  1  0.31482509  0.06274570  0.56173689  1.0
  C  C64  1  0.56768952  0.07014143  0.56913355  1.0
  C  C65  1  0.43762411  0.18394828  0.43692903  1.0
  C  C66  1  0.68963242  0.43500882  0.68803100  1.0
  C  C67  1  0.81990164  0.31770557  0.81920040  1.0
  C  C68  1  0.56536740  0.31171731  0.81197026  1.0
  C  C69  1  0.81202939  0.06376342  0.81057563  1.0
  C  C70  1  0.68099367  0.17954771  0.68106310  1.0
  C  C71  1  0.93492637  0.18756570  0.68811215  1.0
  C  C72  1  0.31050464  0.56566374  0.31204647  1.0
  C  C73  1  0.18005478  0.68155810  0.18101496  1.0
  C  C74  1  0.06591253  0.81282419  0.31262050  1.0
  C  C75  1  0.19018265  0.93568329  0.18829519  1.0
  C  C76  1  0.32037156  0.81876912  0.31884814  1.0
  C  C77  1  0.43500434  0.68703297  0.18815063  1.0
  C  C78  1  0.81485884  0.56296438  0.06136302  1.0
  C  C79  1  0.06934204  0.56856884  0.06953684  1.0
  C  C80  1  0.06069203  0.31492036  0.06119713  1.0
  C  C81  1  0.18466661  0.43943322  0.93763750  1.0
  C  C82  1  0.93066567  0.43181740  0.93014430  1.0
  C  C83  1  0.93842447  0.68568311  0.93886450  1.0
  C  C84  1  0.59325182  0.10210559  0.59789863  1.0
  C  C85  1  0.65136505  0.15171715  0.65232118  1.0
  C  C86  1  0.55075582  0.17381129  0.61247759  1.0
  C  C87  1  0.69455749  0.08049868  0.63808185  1.0
  C  C88  1  0.57977489  0.19795116  0.63935263  1.0
  C  C89  1  0.66540845  0.05675794  0.61135980  1.0
  C  C90  1  0.40026077  0.90020404  0.40390789  1.0
  C  C91  1  0.34847600  0.84747221  0.34790301  1.0
  C  C92  1  0.35737950  0.85685810  0.41802999  1.0
  C  C93  1  0.39083348  0.89051799  0.33333333  1.0
  C  C94  1  0.33209506  0.83092537  0.39017395  1.0
  C  C95  1  0.41606209  0.91593986  0.36110403  1.0
  C  C96  1  0.54601052  0.69587047  0.59824480  1.0
  C  C97  1  0.70589205  0.55344635  0.65040000  1.0
  C  C98  1  0.58688135  0.74120102  0.58551794  1.0
  C  C99  1  0.66509514  0.50812370  0.66310034  1.0
  C  C100  1  0.66142559  0.62232159  0.62689838  1.0
  C  C101  1  0.59007407  0.62750254  0.62226742  1.0
  C  C102  1  0.42323891  0.27342829  0.36978882  1.0
  C  C103  1  0.32480155  0.47631307  0.37920379  1.0
  C  C104  1  0.41268233  0.25787998  0.41277935  1.0
  C  C105  1  0.33492353  0.49177669  0.33617893  1.0
  C  C106  1  0.35805298  0.39609068  0.39116348  1.0
  C  C107  1  0.39142771  0.35367408  0.35789622  1.0
  C  C108  1  0.77373551  0.92551897  0.37038718  1.0
  C  C109  1  0.97667557  0.82682563  0.37978111  1.0
  C  C110  1  0.75833207  0.91541982  0.41340063  1.0
  C  C111  1  0.99209506  0.83762023  0.33677243  1.0
  C  C112  1  0.89641026  0.85874647  0.39168166  1.0
  C  C113  1  0.85392379  0.89228219  0.35841663  1.0
  C  C114  1  0.19929275  0.15700506  0.60209796  1.0
  C  C115  1  0.04989359  0.09431754  0.64684880  1.0
  C  C116  1  0.24101699  0.08718265  0.58581398  1.0
  C  C117  1  0.00800270  0.16405011  0.66320006  1.0
  C  C118  1  0.12026368  0.09208888  0.62497016  1.0
  C  C119  1  0.12971431  0.15851671  0.62483328  1.0
  C  C120  1  0.84630957  0.34554857  0.84961657  1.0
  C  C121  1  0.90169752  0.40251487  0.90179084  1.0
  C  C122  1  0.83183439  0.33200027  0.89274490  1.0
  C  C123  1  0.91654327  0.41672282  0.85905974  1.0
  C  C124  1  0.85931032  0.36036730  0.91830090  1.0
  C  C125  1  0.88895732  0.38853454  0.83378749  1.0
  C  C126  1  0.47666846  0.32671111  0.87931815  1.0
  C  C127  1  0.27346834  0.42561179  0.87037687  1.0
  C  C128  1  0.49171279  0.33715921  0.83624313  1.0
  C  C129  1  0.25840474  0.41532259  0.91344037  1.0
  C  C130  1  0.35364888  0.39238089  0.85825343  1.0
  C  C131  1  0.39641582  0.35889854  0.89140027  1.0
  C  C132  1  0.87752245  0.91847718  0.82170176  1.0
  C  C133  1  0.87552657  0.83110064  0.92781817  1.0
  C  C134  1  0.83774138  0.99067633  0.83547399  1.0
  C  C135  1  0.91508286  0.75880705  0.91403462  1.0
  C  C136  1  0.86144760  0.88911051  0.89364549  1.0
  C  C137  1  0.89036520  0.86042861  0.85580222  1.0
  C  C138  1  0.14792744  0.65601252  0.15230563  1.0
  C  C139  1  0.09759582  0.59789777  0.09821152  1.0
  C  C140  1  0.07610965  0.69865566  0.13781896  1.0
  C  C141  1  0.16915591  0.55474282  0.11215560  1.0
  C  C142  1  0.05168910  0.66950673  0.11113628  1.0
  C  C143  1  0.19313252  0.58390804  0.13875898  1.0
  C  C144  1  0.55008281  0.59359034  0.14696887  1.0
  C  C145  1  0.69900688  0.65681604  0.10192470  1.0
  C  C146  1  0.50821780  0.66328917  0.16333956  1.0
  C  C147  1  0.74093097  0.58718967  0.08548825  1.0
  C  C148  1  0.62957341  0.65815247  0.12468819  1.0
  C  C149  1  0.62027521  0.59162568  0.12484807  1.0
  C  C150  1  0.20607468  0.05406211  0.15031570  1.0
  C  C151  1  0.04551539  0.19571213  0.09840055  1.0
  C  C152  1  0.16549535  0.00858920  0.16325836  1.0
  C  C153  1  0.08608012  0.24123860  0.08545427  1.0
  C  C154  1  0.08991540  0.12754654  0.12242511  1.0
  C  C155  1  0.16125454  0.12274011  0.12682663  1.0
  S  S156  1  0.67730632  0.70005683  0.60222978  1.0
  S  S157  1  0.57493535  0.54894300  0.64611519  1.0
  S  S158  1  0.36415182  0.33987761  0.43778291  1.0
  S  S159  1  0.38326728  0.40976519  0.31119766  1.0
  S  S160  1  0.84037767  0.86693650  0.43836866  1.0
  S  S161  1  0.91000206  0.88642761  0.31178732  1.0
  S  S162  1  0.19541654  0.02575335  0.59768873  1.0
  S  S163  1  0.05360678  0.22550569  0.65130290  1.0
  S  S164  1  0.40934906  0.38610728  0.81149375  1.0
  S  S165  1  0.34075651  0.36685712  0.93820650  1.0
  S  S166  1  0.81781700  0.98717525  0.88895599  1.0
  S  S167  1  0.93540708  0.76239370  0.86054028  1.0
  S  S168  1  0.55355517  0.72499145  0.15129382  1.0
  S  S169  1  0.69543898  0.52563615  0.09733686  1.0
  S  S170  1  0.07519388  0.04889891  0.14650336  1.0
  S  S171  1  0.17666367  0.20059828  0.10193175  1.0
  Br  Br172  1  0.45277976  0.24557432  0.59795450  1.0
  Br  Br173  1  0.32944037  0.82808142  0.47428234  1.0
  Br  Br174  1  0.77509056  0.27630674  0.92119712  1.0
  Br  Br175  1  0.00532469  0.79720634  0.15169094  1.0
  N  N176  1  0.47582447  0.71323912  0.58826774  1.0
  N  N177  1  0.77811387  0.53363848  0.65823258  1.0
  N  N178  1  0.45654817  0.21977954  0.34319631  1.0
  N  N179  1  0.28658390  0.52980903  0.40567048  1.0
  N  N180  1  0.72008329  0.96395403  0.34391925  1.0
  N  N181  1  0.03028779  0.79321525  0.40634755  1.0
  N  N182  1  0.22085024  0.21541775  0.59613329  1.0
  N  N183  1  0.02610790  0.03790283  0.65015516  1.0
  N  N184  1  0.53044588  0.29297290  0.90569488  1.0
  N  N185  1  0.21971823  0.46372105  0.84412616  1.0
  N  N186  1  0.90239430  0.90574791  0.78167445  1.0
  N  N187  1  0.85556371  0.84415003  0.96785216  1.0
  N  N188  1  0.52630302  0.53718330  0.15056856  1.0
  N  N189  1  0.72027256  0.71560184  0.09593140  1.0
  N  N190  1  0.27836823  0.03446268  0.15796757  1.0
  N  N191  1  0.97529177  0.21282952  0.08855607  1.0
  O  O192  1  0.50138584  0.99960285  0.49930003  1.0
  O  O193  1  0.68282835  0.92396913  0.47664091  1.0
  O  O194  1  0.47252789  0.96481416  0.41289191  1.0
  O  O195  1  0.49453836  0.84239416  0.54956591  1.0
  O  O196  1  0.62544072  0.97565871  0.41759627  1.0
  O  O197  1  0.60693850  0.84824266  0.55371340  1.0
  O  O198  1  0.41141054  0.92198585  0.46932625  1.0
  O  O199  1  0.34492856  0.99492860  0.55147856  1.0
  O  O200  1  0.50148938  0.10957762  0.55827799  1.0
  O  O201  1  0.34507601  0.11108985  0.55237785  1.0
  O  O202  1  0.61474101  0.00533178  0.55794732  1.0
  O  O203  1  0.47271571  0.12467340  0.41728106  1.0
  O  O204  1  0.42301762  0.18288361  0.47608876  1.0
  O  O205  1  0.75041154  0.25021327  0.74925055  1.0
  O  O206  1  0.64297248  0.40337724  0.69660620  1.0
  O  O207  1  0.83434019  0.33913698  0.78120873  1.0
  O  O208  1  0.62458243  0.27594251  0.83170510  1.0
  O  O209  1  0.75671726  0.40718041  0.69989715  1.0
  O  O210  1  0.56678517  0.32623816  0.77276457  1.0
  O  O211  1  0.78570546  0.27502082  0.83335658  1.0
  O  O212  1  0.77348718  0.12293999  0.82938247  1.0
  O  O213  1  0.74621146  0.13448416  0.69243633  1.0
  O  O214  1  0.82963339  0.06389673  0.77120833  1.0
  O  O215  1  0.63863390  0.24570496  0.69163528  1.0
  O  O216  1  0.90695956  0.25315917  0.70097715  1.0
  O  O217  1  0.90333418  0.14022406  0.69564986  1.0
  O  O218  1  0.25098019  0.74965850  0.24982589  1.0
  O  O219  1  0.27393071  0.62458501  0.33190312  1.0
  O  O220  1  0.24555866  0.63486502  0.19165827  1.0
  O  O221  1  0.06729932  0.82801248  0.27346873  1.0
  O  O222  1  0.32691740  0.56736293  0.27291791  1.0
  O  O223  1  0.12519489  0.77702707  0.33234509  1.0
  O  O224  1  0.14021412  0.74712596  0.19246949  1.0
  O  O225  1  0.14321928  0.90445784  0.19742815  1.0
  O  O226  1  0.33492734  0.83743696  0.28062170  1.0
  O  O227  1  0.25767075  0.90747813  0.19970915  1.0
  O  O228  1  0.28427403  0.77812919  0.33495737  1.0
  O  O229  1  0.40315180  0.63999970  0.19596232  1.0
  O  O230  1  0.40727633  0.75303034  0.20058210  1.0
  O  O231  1  0.00044806  0.50000532  0.99974511  1.0
  O  O232  1  0.84439057  0.49585018  0.05026260  1.0
  O  O233  1  0.00281218  0.61130913  0.05917860  1.0
  O  O234  1  0.10643720  0.34758387  0.05320138  1.0
  O  O235  1  0.84571705  0.61089867  0.05288059  1.0
  O  O236  1  0.99352170  0.34244948  0.04941762  1.0
  O  O237  1  0.11392169  0.50364648  0.05798047  1.0
  O  O238  1  0.18329036  0.42353291  0.97678522  1.0
  O  O239  1  0.97036226  0.46863042  0.91344920  1.0
  O  O240  1  0.12549631  0.47520404  0.91787998  1.0
  O  O241  1  0.91316143  0.41731439  0.96853633  1.0
  O  O242  1  0.92277040  0.68586323  0.97832176  1.0
  O  O243  1  0.97266723  0.62613222  0.91999695  1.0
