# generated using pymatgen
data_Zn2H15C47N2(O10F3)2
_symmetry_space_group_name_H-M   'P 1'
_cell_length_a   11.01853214
_cell_length_b   13.79978018
_cell_length_c   26.22741214
_cell_angle_alpha   90.69886316
_cell_angle_beta   91.29734940
_cell_angle_gamma   90.02245289
_symmetry_Int_Tables_number   1
_chemical_formula_structural   Zn2H15C47N2(O10F3)2
_chemical_formula_sum   'Zn4 H30 C94 N4 O40 F12'
_cell_volume   3986.64537352
_cell_formula_units_Z   2
loop_
 _symmetry_equiv_pos_site_id
 _symmetry_equiv_pos_as_xyz
  1  'x, y, z'
loop_
 _atom_site_type_symbol
 _atom_site_label
 _atom_site_symmetry_multiplicity
 _atom_site_fract_x
 _atom_site_fract_y
 _atom_site_fract_z
 _atom_site_occupancy
  Zn  Zn0  1  0.51083793  0.60233122  0.49791922  1.0
  Zn  Zn1  1  0.50721995  0.40140325  0.49768633  1.0
  Zn  Zn2  1  0.49281859  0.39883568  0.91606354  1.0
  Zn  Zn3  1  0.49031262  0.59969177  0.91763558  1.0
  H  H4  1  0.36956571  0.75027423  0.44702511  1.0
  H  H5  1  0.64992324  0.75499913  0.55391903  1.0
  H  H6  1  0.65266338  0.25420122  0.54794272  1.0
  H  H7  1  0.35660583  0.24788896  0.44893024  1.0
  H  H8  1  0.67365802  0.58700514  0.80921487  1.0
  H  H9  1  0.69282517  0.59345920  0.61912959  1.0
  H  H10  1  0.51428112  0.33867377  0.33473229  1.0
  H  H11  1  0.52158133  0.64780272  0.33966601  1.0
  H  H12  1  0.52392993  0.65613877  0.07969186  1.0
  H  H13  1  0.51822201  0.34672246  0.07515761  1.0
  H  H14  1  0.77159972  0.39819613  0.41735209  1.0
  H  H15  1  0.22289054  0.41299921  0.40554539  1.0
  H  H16  1  0.37243412  0.25125762  0.97394937  1.0
  H  H17  1  0.61239803  0.24735191  0.85594067  1.0
  H  H18  1  0.62797522  0.74808388  0.86509383  1.0
  H  H19  1  0.35322890  0.75311111  0.96980908  1.0
  H  H20  1  0.75544245  0.60375707  0.99265520  1.0
  H  H21  1  0.20710796  0.58987273  0.01192404  1.0
  H  H22  1  0.31660006  0.09450357  0.34896480  1.0
  H  H23  1  0.19217501  0.81900422  0.46963886  1.0
  H  H24  1  0.64144638  0.18080174  0.63116752  1.0
  H  H25  1  0.89105203  0.96992959  0.58712659  1.0
  H  H26  1  0.67911501  0.25176443  0.12833761  1.0
  H  H27  1  0.33934312  0.24221251  0.26989954  1.0
  H  H28  1  0.34440209  0.76948410  0.15315522  1.0
  H  H29  1  0.67521903  0.73856879  0.29451180  1.0
  H  H30  1  0.33433328  0.88352324  0.06774526  1.0
  H  H31  1  0.19793002  0.19110836  0.95408644  1.0
  H  H32  1  0.68040491  0.94505859  0.75542639  1.0
  H  H33  1  0.80518128  0.16534758  0.85609190  1.0
  C  C34  1  0.51824828  0.49226880  0.39831577  1.0
  C  C35  1  0.27302433  0.51174355  0.48874645  1.0
  C  C36  1  0.49515818  0.49737810  0.59645031  1.0
  C  C37  1  0.74535605  0.50523346  0.50064761  1.0
  C  C38  1  0.51793165  0.50197783  0.01611802  1.0
  C  C39  1  0.25675093  0.49506139  0.92681405  1.0
  C  C40  1  0.47084584  0.49753163  0.81824914  1.0
  C  C41  1  0.72796364  0.49891190  0.91057079  1.0
  C  C42  1  0.42719728  0.79664682  0.47124427  1.0
  C  C43  1  0.41568137  0.89775536  0.47215210  1.0
  C  C44  1  0.32616799  0.94913771  0.44186322  1.0
  C  C45  1  0.58710781  0.79884684  0.53139828  1.0
  C  C46  1  0.58703385  0.90057937  0.53458039  1.0
  C  C47  1  0.67215091  0.95474621  0.56662237  1.0
  C  C48  1  0.58651746  0.20746067  0.52822275  1.0
  C  C49  1  0.58725880  0.10627492  0.53295942  1.0
  C  C50  1  0.67268350  0.05474942  0.56529784  1.0
  C  C51  1  0.42056552  0.20429040  0.47117642  1.0
  C  C52  1  0.41537672  0.10276337  0.47104936  1.0
  C  C53  1  0.32760038  0.04883172  0.44061699  1.0
  C  C54  1  0.50086505  0.95053013  0.50346290  1.0
  C  C55  1  0.50048669  0.05308121  0.50281315  1.0
  C  C56  1  0.47777385  0.49994759  0.76125334  1.0
  C  C57  1  0.57810120  0.54598020  0.73798481  1.0
  C  C58  1  0.38955978  0.45576203  0.73113376  1.0
  C  C59  1  0.67455090  0.58753772  0.76771944  1.0
  C  C60  1  0.77216584  0.62744349  0.74416315  1.0
  C  C61  1  0.49078101  0.50031965  0.65354770  1.0
  C  C62  1  0.39630298  0.45574308  0.67753971  1.0
  C  C63  1  0.58448094  0.54671830  0.68334237  1.0
  C  C64  1  0.68591842  0.59059129  0.66040129  1.0
  C  C65  1  0.77732354  0.62993434  0.69042820  1.0
  C  C66  1  0.51573633  0.40623996  0.31370157  1.0
  C  C67  1  0.51508533  0.40618992  0.26024742  1.0
  C  C68  1  0.51239115  0.31732536  0.23076277  1.0
  C  C69  1  0.52120345  0.58202771  0.31631751  1.0
  C  C70  1  0.52234763  0.58573249  0.26294113  1.0
  C  C71  1  0.52188963  0.67625249  0.23589560  1.0
  C  C72  1  0.52200364  0.58853335  0.10068398  1.0
  C  C73  1  0.52023720  0.58863121  0.15411723  1.0
  C  C74  1  0.51834028  0.67746607  0.18351180  1.0
  C  C75  1  0.52042853  0.41276441  0.09831167  1.0
  C  C76  1  0.52157164  0.40921085  0.15167841  1.0
  C  C77  1  0.51877973  0.31867368  0.17853842  1.0
  C  C78  1  0.51876347  0.49332165  0.34124531  1.0
  C  C79  1  0.51955904  0.49673700  0.23427646  1.0
  C  C80  1  0.52108819  0.50135750  0.07321115  1.0
  C  C81  1  0.52067699  0.49823260  0.18025863  1.0
  C  C82  1  0.88018545  0.50609758  0.49470847  1.0
  C  C83  1  0.93764664  0.45477864  0.45403795  1.0
  C  C84  1  0.95079695  0.56021535  0.52859557  1.0
  C  C85  1  0.86990153  0.40376251  0.41558196  1.0
  C  C86  1  0.92809633  0.36031245  0.37567043  1.0
  C  C87  1  0.13699551  0.51161119  0.48796135  1.0
  C  C88  1  0.07802879  0.56278312  0.52532852  1.0
  C  C89  1  0.06761574  0.45819147  0.45061858  1.0
  C  C90  1  0.12459326  0.41135491  0.40900826  1.0
  C  C91  1  0.05569048  0.36438382  0.37221724  1.0
  C  C92  1  0.42113812  0.20475698  0.94746397  1.0
  C  C93  1  0.40963056  0.10342916  0.94713010  1.0
  C  C94  1  0.32538433  0.05190151  0.97833244  1.0
  C  C95  1  0.56096314  0.20246891  0.88174196  1.0
  C  C96  1  0.56494800  0.10079216  0.88041510  1.0
  C  C97  1  0.63995443  0.04580697  0.84600402  1.0
  C  C98  1  0.56688009  0.79373688  0.88685704  1.0
  C  C99  1  0.56893129  0.89517326  0.88342747  1.0
  C  C100  1  0.64421773  0.94597789  0.84812262  1.0
  C  C101  1  0.41350314  0.79678885  0.94696940  1.0
  C  C102  1  0.40977758  0.89828555  0.94801340  1.0
  C  C103  1  0.32682488  0.95209773  0.97919276  1.0
  C  C104  1  0.48808458  0.05076030  0.91430568  1.0
  C  C105  1  0.48898536  0.94823331  0.91513916  1.0
  C  C106  1  0.86370668  0.50189939  0.91568960  1.0
  C  C107  1  0.92212220  0.55063072  0.95784744  1.0
  C  C108  1  0.93274138  0.45271988  0.88086792  1.0
  C  C109  1  0.85395837  0.59873501  0.99589191  1.0
  C  C110  1  0.91222817  0.64004863  0.03746748  1.0
  C  C111  1  0.12078540  0.49720258  0.92532025  1.0
  C  C112  1  0.06021044  0.45062947  0.88538615  1.0
  C  C113  1  0.05223856  0.54747212  0.96300054  1.0
  C  C114  1  0.10888500  0.59126984  0.00667887  1.0
  C  C115  1  0.03991825  0.63562075  0.04303284  1.0
  C  C116  1  0.23084192  0.10691806  0.41269207  1.0
  C  C117  1  0.22986159  0.89669229  0.41054737  1.0
  C  C118  1  0.76707321  0.11163538  0.59540001  1.0
  C  C119  1  0.74892626  0.89675940  0.60408920  1.0
  C  C120  1  0.51547494  0.22454945  0.14880965  1.0
  C  C121  1  0.51112165  0.22214034  0.25847095  1.0
  C  C122  1  0.52049963  0.77158368  0.15472392  1.0
  C  C123  1  0.51884527  0.77110471  0.26479082  1.0
  C  C124  1  0.23126962  0.89458419  0.00641049  1.0
  C  C125  1  0.23130355  0.10227904  0.00993339  1.0
  C  C126  1  0.73393164  0.88583728  0.81831811  1.0
  C  C127  1  0.70690732  0.09792630  0.80502320  1.0
  N  N128  1  0.51064466  0.75042891  0.49991909  1.0
  N  N129  1  0.50468944  0.25329729  0.49856844  1.0
  N  N130  1  0.49352433  0.25088371  0.91537489  1.0
  N  N131  1  0.49037435  0.74766408  0.91737225  1.0
  O  O132  1  0.53054318  0.57356876  0.42125684  1.0
  O  O133  1  0.50574139  0.41018178  0.41924855  1.0
  O  O134  1  0.32398454  0.42975655  0.49374551  1.0
  O  O135  1  0.32527248  0.59327518  0.48505720  1.0
  O  O136  1  0.50826711  0.41449925  0.57560803  1.0
  O  O137  1  0.48688041  0.57796635  0.57377969  1.0
  O  O138  1  0.69450950  0.58678077  0.50773462  1.0
  O  O139  1  0.69232022  0.42333007  0.49751847  1.0
  O  O140  1  0.50544795  0.42027821  0.99363368  1.0
  O  O141  1  0.52718315  0.58387227  0.99462738  1.0
  O  O142  1  0.31068766  0.57629006  0.93220703  1.0
  O  O143  1  0.30711245  0.41276894  0.92195738  1.0
  O  O144  1  0.45840979  0.57847966  0.84111592  1.0
  O  O145  1  0.48183999  0.41516274  0.83893606  1.0
  O  O146  1  0.67901013  0.41596402  0.91330766  1.0
  O  O147  1  0.67349935  0.57949250  0.90516459  1.0
  O  O148  1  0.25057328  0.13171446  0.36420433  1.0
  O  O149  1  0.14296643  0.13636772  0.43544996  1.0
  O  O150  1  0.16715916  0.82540612  0.43382294  1.0
  O  O151  1  0.20634737  0.91763623  0.36660234  1.0
  O  O152  1  0.72984634  0.18011538  0.62846981  1.0
  O  O153  1  0.87572675  0.09790924  0.58988867  1.0
  O  O154  1  0.86956699  0.90834077  0.60410011  1.0
  O  O155  1  0.69938192  0.83934745  0.63180000  1.0
  O  O156  1  0.61550857  0.20381501  0.12103142  1.0
  O  O157  1  0.42912757  0.16990027  0.14821138  1.0
  O  O158  1  0.40399636  0.19734628  0.28003923  1.0
  O  O159  1  0.59972786  0.17083977  0.26342926  1.0
  O  O160  1  0.41057177  0.80525828  0.13769371  1.0
  O  O161  1  0.61327479  0.81326830  0.14424383  1.0
  O  O162  1  0.61402420  0.78948241  0.29759834  1.0
  O  O163  1  0.43678213  0.82924158  0.25996327  1.0
  O  O164  1  0.26054967  0.85582506  0.05179333  1.0
  O  O165  1  0.13487921  0.87713630  0.98475719  1.0
  O  O166  1  0.17230973  0.17940959  0.98893342  1.0
  O  O167  1  0.20508620  0.07421685  0.05193516  1.0
  O  O168  1  0.72962053  0.88946373  0.76720199  1.0
  O  O169  1  0.80517980  0.83402113  0.84130644  1.0
  O  O170  1  0.79281127  0.16304311  0.81904821  1.0
  O  O171  1  0.68371718  0.08290196  0.75980275  1.0
  F  F172  1  0.30582421  0.41152899  0.65013338  1.0
  F  F173  1  0.29312099  0.41188878  0.75222319  1.0
  F  F174  1  0.86666417  0.66418820  0.77186896  1.0
  F  F175  1  0.87539123  0.67099155  0.66957648  1.0
  F  F176  1  0.14068458  0.61482440  0.56122636  1.0
  F  F177  1  0.90136417  0.61038673  0.56746052  1.0
  F  F178  1  0.86377547  0.31289641  0.33843245  1.0
  F  F179  1  0.10869736  0.32181172  0.33147609  1.0
  F  F180  1  0.12067642  0.40304083  0.84843235  1.0
  F  F181  1  0.87986335  0.40523960  0.84056132  1.0
  F  F182  1  0.84819856  0.68515223  0.07431324  1.0
  F  F183  1  0.09312383  0.67550662  0.08544479  1.0
