# generated using pymatgen
data_NiH32C18(NO)6
_symmetry_space_group_name_H-M   'P 1'
_cell_length_a   9.32965544
_cell_length_b   14.82771543
_cell_length_c   16.37664981
_cell_angle_alpha   90.48456765
_cell_angle_beta   98.83139718
_cell_angle_gamma   101.02958278
_symmetry_Int_Tables_number   1
_chemical_formula_structural   NiH32C18(NO)6
_chemical_formula_sum   'Ni3 H96 C54 N18 O18'
_cell_volume   2195.62242220
_cell_formula_units_Z   3
loop_
 _symmetry_equiv_pos_site_id
 _symmetry_equiv_pos_as_xyz
  1  'x, y, z'
loop_
 _atom_site_type_symbol
 _atom_site_label
 _atom_site_symmetry_multiplicity
 _atom_site_fract_x
 _atom_site_fract_y
 _atom_site_fract_z
 _atom_site_occupancy
  Ni  Ni0  1  0.00000333  0.99999628  0.99999600  1.0
  Ni  Ni1  1  0.50000645  0.00000153  0.50000786  1.0
  Ni  Ni2  1  0.49999860  0.50000661  0.00000140  1.0
  H  H3  1  0.93230561  0.10841183  0.09815253  1.0
  H  H4  1  0.06771082  0.89158179  0.90184180  1.0
  H  H5  1  0.27810619  0.02432038  0.04894648  1.0
  H  H6  1  0.72190109  0.97567196  0.95104665  1.0
  H  H7  1  0.95598852  0.25890859  0.02819997  1.0
  H  H8  1  0.04403264  0.74108491  0.97179953  1.0
  H  H9  1  0.03277225  0.20435816  0.95159626  1.0
  H  H10  1  0.96723976  0.79562787  0.04840125  1.0
  H  H11  1  0.15925332  0.21188368  0.14817979  1.0
  H  H12  1  0.84074366  0.78810595  0.85181692  1.0
  H  H13  1  0.22877557  0.18109742  0.05811474  1.0
  H  H14  1  0.77124004  0.81889890  0.94188451  1.0
  H  H15  1  0.30915798  0.09211730  0.18337415  1.0
  H  H16  1  0.69085814  0.90787491  0.81662196  1.0
  H  H17  1  0.11864863  0.04644250  0.18560177  1.0
  H  H18  1  0.88136643  0.95354899  0.81439730  1.0
  H  H19  1  0.31549996  0.91315629  0.15365541  1.0
  H  H20  1  0.68452122  0.08683866  0.84633863  1.0
  H  H21  1  0.11968890  0.88820323  0.15073213  1.0
  H  H22  1  0.88033503  0.11178613  0.84926559  1.0
  H  H23  1  0.71104306  0.07493854  0.04278986  1.0
  H  H24  1  0.28896816  0.92505583  0.95720356  1.0
  H  H25  1  0.72571296  0.19461392  0.05628981  1.0
  H  H26  1  0.27429728  0.80538044  0.94370478  1.0
  H  H27  1  0.50040143  0.07154233  0.92585162  1.0
  H  H28  1  0.49960130  0.92844097  0.07414893  1.0
  H  H29  1  0.52165642  0.19287950  0.93799500  1.0
  H  H30  1  0.47833358  0.80710535  0.06200177  1.0
  H  H31  1  0.50099079  0.15242227  0.08255451  1.0
  H  H32  1  0.49902853  0.84758032  0.91743841  1.0
  H  H33  1  0.56765090  0.17070533  0.49178012  1.0
  H  H34  1  0.43236589  0.82930262  0.50822503  1.0
  H  H35  1  0.25502568  0.04093847  0.45271306  1.0
  H  H36  1  0.74496509  0.95905043  0.54728938  1.0
  H  H37  1  0.82938929  0.19959763  0.48100908  1.0
  H  H38  1  0.17062562  0.80038950  0.51900515  1.0
  H  H39  1  0.80442597  0.08324749  0.44403488  1.0
  H  H40  1  0.19556326  0.91673439  0.55597704  1.0
  H  H41  1  0.61465173  0.20295980  0.34909611  1.0
  H  H42  1  0.38536860  0.79701580  0.65090099  1.0
  H  H43  1  0.60942283  0.08290678  0.33506192  1.0
  H  H44  1  0.39059001  0.91706375  0.66495537  1.0
  H  H45  1  0.38467083  0.97908264  0.31464593  1.0
  H  H46  1  0.61533785  0.02089557  0.68536828  1.0
  H  H47  1  0.21576477  0.02180043  0.30056996  1.0
  H  H48  1  0.78424232  0.97818135  0.69943692  1.0
  H  H49  1  0.25493480  0.85584523  0.38641359  1.0
  H  H50  1  0.74508905  0.14414448  0.61360675  1.0
  H  H51  1  0.09491793  0.89833137  0.40271901  1.0
  H  H52  1  0.90509472  0.10165179  0.59728458  1.0
  H  H53  1  0.35314596  0.21176723  0.42748837  1.0
  H  H54  1  0.64685280  0.78821331  0.57251430  1.0
  H  H55  1  0.20945962  0.16297895  0.34614764  1.0
  H  H56  1  0.79055259  0.83700703  0.65385233  1.0
  H  H57  1  0.47526768  0.31501608  0.32911343  1.0
  H  H58  1  0.52474541  0.68496827  0.67090305  1.0
  H  H59  1  0.35393941  0.25226710  0.24428602  1.0
  H  H60  1  0.64607493  0.74773253  0.75572303  1.0
  H  H61  1  0.16388049  0.30960743  0.30539592  1.0
  H  H62  1  0.83613640  0.69038717  0.69462476  1.0
  H  H63  1  0.48985251  0.45913834  0.14687788  1.0
  H  H64  1  0.51013771  0.54085960  0.85312050  1.0
  H  H65  1  0.23466163  0.47960180  0.93844766  1.0
  H  H66  1  0.76531406  0.52038852  0.06156186  1.0
  H  H67  1  0.47062786  0.28803612  0.14655872  1.0
  H  H68  1  0.52934134  0.71195759  0.85341260  1.0
  H  H69  1  0.45290014  0.29334362  0.03607364  1.0
  H  H70  1  0.54706721  0.70666318  0.96390040  1.0
  H  H71  1  0.24000562  0.37621390  0.14417675  1.0
  H  H72  1  0.76000497  0.62379879  0.85583795  1.0
  H  H73  1  0.23245334  0.34780511  0.03705833  1.0
  H  H74  1  0.76751530  0.65220052  0.96294754  1.0
  H  H75  1  0.10711092  0.47982482  0.05692960  1.0
  H  H76  1  0.89290399  0.52021388  0.94309651  1.0
  H  H77  1  0.27576466  0.54313888  0.11300650  1.0
  H  H78  1  0.72429591  0.45687145  0.88699707  1.0
  H  H79  1  0.15664128  0.62694107  0.95910847  1.0
  H  H80  1  0.84333382  0.37303863  0.04087320  1.0
  H  H81  1  0.33038002  0.66171277  0.02423347  1.0
  H  H82  1  0.66959383  0.33829596  0.97574590  1.0
  H  H83  1  0.80176323  0.44682615  0.18902804  1.0
  H  H84  1  0.19817989  0.55318571  0.81094530  1.0
  H  H85  1  0.67501980  0.36368297  0.23005585  1.0
  H  H86  1  0.32493094  0.63632260  0.76991777  1.0
  H  H87  1  0.93917055  0.31940233  0.15613302  1.0
  H  H88  1  0.06080458  0.68061035  0.84385816  1.0
  H  H89  1  0.81415413  0.24102456  0.20557891  1.0
  H  H90  1  0.18580420  0.75898840  0.79440393  1.0
  H  H91  1  0.99602323  0.40231269  0.28822637  1.0
  H  H92  1  0.00394660  0.59769510  0.71177230  1.0
  H  H93  1  0.74652633  0.77425710  0.10235536  1.0
  H  H94  1  0.25331172  0.22575735  0.89760198  1.0
  H  H95  1  0.53509410  0.68043691  0.31067465  1.0
  H  H96  1  0.46488488  0.31959768  0.68932595  1.0
  H  H97  1  0.72580667  0.96703639  0.29491632  1.0
  H  H98  1  0.27425143  0.03297582  0.70510121  1.0
  C  C99  1  0.95459295  0.19258322  0.99596320  1.0
  C  C100  1  0.04542003  0.80740901  0.00403394  1.0
  C  C101  1  0.15341729  0.15603431  0.10198017  1.0
  C  C102  1  0.84659481  0.84395516  0.89801745  1.0
  C  C103  1  0.19916460  0.07275955  0.14487673  1.0
  C  C104  1  0.80085097  0.92723057  0.85512111  1.0
  C  C105  1  0.20773355  0.90939530  0.11343087  1.0
  C  C106  1  0.79228646  0.09059896  0.88656492  1.0
  C  C107  1  0.70029232  0.13808891  0.00892695  1.0
  C  C108  1  0.29972022  0.86190614  0.99106657  1.0
  C  C109  1  0.53988866  0.13018734  0.97026733  1.0
  C  C110  1  0.46011301  0.86980016  0.02972961  1.0
  C  C111  1  0.76468783  0.12950056  0.48461369  1.0
  C  C112  1  0.23531833  0.87048667  0.51539879  1.0
  C  C113  1  0.56403169  0.13385612  0.36712606  1.0
  C  C114  1  0.43598081  0.86612488  0.63288418  1.0
  C  C115  1  0.32403938  0.02655496  0.34012652  1.0
  C  C116  1  0.67596900  0.97342604  0.65988592  1.0
  C  C117  1  0.21333514  0.90169480  0.42632880  1.0
  C  C118  1  0.78667525  0.09829514  0.57368463  1.0
  C  C119  1  0.32909625  0.19137352  0.36095846  1.0
  C  C120  1  0.67091730  0.80860893  0.63904576  1.0
  C  C121  1  0.36194690  0.27643768  0.30927503  1.0
  C  C122  1  0.63806714  0.72354815  0.69073422  1.0
  C  C123  1  0.50239786  0.33111734  0.09487651  1.0
  C  C124  1  0.49757762  0.66888035  0.90510203  1.0
  C  C125  1  0.27999258  0.40057457  0.08658961  1.0
  C  C126  1  0.71999704  0.59943569  0.91341643  1.0
  C  C127  1  0.22905133  0.49032554  0.06349836  1.0
  C  C128  1  0.77095854  0.50969076  0.93650662  1.0
  C  C129  1  0.27373643  0.61966790  0.96882844  1.0
  C  C130  1  0.72624889  0.38032820  0.03115798  1.0
  C  C131  1  0.74926530  0.37288637  0.18352256  1.0
  C  C132  1  0.25069397  0.62711768  0.81645580  1.0
  C  C133  1  0.86709429  0.31378513  0.20431167  1.0
  C  C134  1  0.13287816  0.68622967  0.79567757  1.0
  C  C135  1  0.82935599  0.95505957  0.14942193  1.0
  C  C136  1  0.17065074  0.04495620  0.85057367  1.0
  C  C137  1  0.56930325  0.84689910  0.39002982  1.0
  C  C138  1  0.43073912  0.15311739  0.60998873  1.0
  C  C139  1  0.59470201  0.62093746  0.16338723  1.0
  C  C140  1  0.40527247  0.37908261  0.83661758  1.0
  C  C141  1  0.74892584  0.87833515  0.19515775  1.0
  C  C142  1  0.25105168  0.12169206  0.80482971  1.0
  C  C143  1  0.71472380  0.78821389  0.16169403  1.0
  C  C144  1  0.28519501  0.21181125  0.83828312  1.0
  C  C145  1  0.63724826  0.71675297  0.20231954  1.0
  C  C146  1  0.36270923  0.28328128  0.79767059  1.0
  C  C147  1  0.59446352  0.73564007  0.27802323  1.0
  C  C148  1  0.40551478  0.26439446  0.72198221  1.0
  C  C149  1  0.62467299  0.82589325  0.31127542  1.0
  C  C150  1  0.37533316  0.17413410  0.68873088  1.0
  C  C151  1  0.70211590  0.89668965  0.26959985  1.0
  C  C152  1  0.29790569  0.10333895  0.73040557  1.0
  N  N153  1  0.00404682  0.12679032  0.05559085  1.0
  N  N154  1  0.99596639  0.87319987  0.94440440  1.0
  N  N155  1  0.19336578  0.00077248  0.08144324  1.0
  N  N156  1  0.80664555  0.99921841  0.91855254  1.0
  N  N157  1  0.80644839  0.16033752  0.95165578  1.0
  N  N158  1  0.19356439  0.83965748  0.04834082  1.0
  N  N159  1  0.60544777  0.12345601  0.45678476  1.0
  N  N160  1  0.39456109  0.87654296  0.54322577  1.0
  N  N161  1  0.30187690  0.99511230  0.42374694  1.0
  N  N162  1  0.69812889  0.00487700  0.57626558  1.0
  N  N163  1  0.40595035  0.11912665  0.33914571  1.0
  N  N164  1  0.59406133  0.88085304  0.66086016  1.0
  N  N165  1  0.44186036  0.41587597  0.09463768  1.0
  N  N166  1  0.55812879  0.58412618  0.90535709  1.0
  N  N167  1  0.28526022  0.52335705  0.98762498  1.0
  N  N168  1  0.71473700  0.47664492  0.01237638  1.0
  N  N169  1  0.66160049  0.34609593  0.10192963  1.0
  N  N170  1  0.33837213  0.65389351  0.89804789  1.0
  O  O171  1  0.45067722  0.11296712  0.03478407  1.0
  O  O172  1  0.54934195  0.88701943  0.96521939  1.0
  O  O173  1  0.26828042  0.34026120  0.31673412  1.0
  O  O174  1  0.73174297  0.65972367  0.68328727  1.0
  O  O175  1  0.95448122  0.33659480  0.28441378  1.0
  O  O176  1  0.04548890  0.66341240  0.71557816  1.0
  O  O177  1  0.87499140  0.92903930  0.08457825  1.0
  O  O178  1  0.12500323  0.07097863  0.91541853  1.0
  O  O179  1  0.84547046  0.03730740  0.17637390  1.0
  O  O180  1  0.15458513  0.96271603  0.82363341  1.0
  O  O181  1  0.59247084  0.93290329  0.41195025  1.0
  O  O182  1  0.40759989  0.06712251  0.58807332  1.0
  O  O183  1  0.50361764  0.78125843  0.42728988  1.0
  O  O184  1  0.49643533  0.21876291  0.57272028  1.0
  O  O185  1  0.58923283  0.61563261  0.08394637  1.0
  O  O186  1  0.41081856  0.38438118  0.91606225  1.0
  O  O187  1  0.56548700  0.55405063  0.20912555  1.0
  O  O188  1  0.43442886  0.44597629  0.79087288  1.0
