# generated using pymatgen
data_Al2H11C22O10F3
_symmetry_space_group_name_H-M   'P 1'
_cell_length_a   6.69975382
_cell_length_b   11.07300395
_cell_length_c   15.17693439
_cell_angle_alpha   92.91071505
_cell_angle_beta   99.99078614
_cell_angle_gamma   106.39056766
_symmetry_Int_Tables_number   1
_chemical_formula_structural   Al2H11C22O10F3
_chemical_formula_sum   'Al2 H11 C22 O10 F3'
_cell_volume   1057.84157944
_cell_formula_units_Z   1
loop_
 _symmetry_equiv_pos_site_id
 _symmetry_equiv_pos_as_xyz
  1  'x, y, z'
loop_
 _atom_site_type_symbol
 _atom_site_label
 _atom_site_symmetry_multiplicity
 _atom_site_fract_x
 _atom_site_fract_y
 _atom_site_fract_z
 _atom_site_occupancy
  Al  Al0  1  0.99062311  0.49427271  0.49868641  1.0
  Al  Al1  1  0.49185958  0.49296259  0.50164317  1.0
  H  H2  1  0.33519094  0.63894506  0.56629211  1.0
  H  H3  1  0.65806501  0.42113785  0.38989591  1.0
  H  H4  1  0.37022027  0.10051443  0.50012933  1.0
  H  H5  1  0.74379720  0.12762355  0.50429305  1.0
  H  H6  1  0.23467435  0.86583473  0.50360313  1.0
  H  H7  1  0.29263463  0.41714390  0.04881852  1.0
  H  H8  1  0.65445139  0.48906648  0.95043331  1.0
  H  H9  1  0.18061095  0.49578553  0.75714367  1.0
  H  H10  1  0.29559539  0.51238867  0.92233770  1.0
  H  H11  1  0.89871626  0.59716725  0.24173325  1.0
  H  H12  1  0.81798173  0.60505693  0.07699569  1.0
  C  C13  1  0.80679912  0.48325645  0.65981820  1.0
  C  C14  1  0.84553567  0.72351422  0.50805459  1.0
  C  C15  1  0.18016617  0.50398548  0.33864090  1.0
  C  C16  1  0.13949431  0.26784935  0.49730643  1.0
  C  C17  1  0.91642196  0.86397692  0.50709685  1.0
  C  C18  1  0.06520591  0.12809345  0.50140412  1.0
  C  C19  1  0.78222120  0.94099837  0.50788160  1.0
  C  C20  1  0.20465626  0.05456497  0.50206895  1.0
  C  C21  1  0.85235695  0.07064647  0.50448186  1.0
  C  C22  1  0.12963430  0.92461546  0.50432802  1.0
  C  C23  1  0.14516997  0.50971663  0.23932117  1.0
  C  C24  1  0.85913841  0.48673225  0.75974408  1.0
  C  C25  1  0.25675711  0.46356964  0.18210079  1.0
  C  C26  1  0.20805304  0.46162790  0.08919474  1.0
  C  C27  1  0.71623415  0.48582075  0.81726699  1.0
  C  C28  1  0.77540776  0.49364843  0.91010314  1.0
  C  C29  1  0.06795247  0.49498620  0.80091333  1.0
  C  C30  1  0.13065454  0.50323019  0.89362373  1.0
  C  C31  1  0.98574598  0.55994429  0.19824456  1.0
  C  C32  1  0.93868904  0.56210135  0.10581096  1.0
  C  C33  1  0.04593264  0.51013734  0.04913229  1.0
  C  C34  1  0.98514885  0.50304821  0.95027165  1.0
  O  O35  1  0.94966737  0.46958510  0.61820945  1.0
  O  O36  1  0.64819717  0.66886205  0.50077097  1.0
  O  O37  1  0.35275597  0.48698130  0.37744102  1.0
  O  O38  1  0.99637518  0.32348638  0.48396344  1.0
  O  O39  1  0.02981258  0.51570339  0.37655112  1.0
  O  O40  1  0.33809872  0.31995615  0.50650476  1.0
  O  O41  1  0.63012118  0.49733180  0.62360821  1.0
  O  O42  1  0.99103971  0.66884125  0.51587694  1.0
  O  O43  1  0.28372092  0.55074797  0.54165179  1.0
  O  O44  1  0.69814905  0.44114839  0.45473612  1.0
  F  F45  1  0.57481316  0.89054322  0.51283978  1.0
  F  F46  1  0.41362174  0.41287409  0.21546034  1.0
  F  F47  1  0.50960509  0.47443675  0.78370022  1.0
