# generated using pymatgen
data_AlH8C16NO7
_symmetry_space_group_name_H-M   'P 1'
_cell_length_a   6.64424555
_cell_length_b   20.29054406
_cell_length_c   22.86442606
_cell_angle_alpha   86.45251292
_cell_angle_beta   89.39350494
_cell_angle_gamma   88.83104808
_symmetry_Int_Tables_number   1
_chemical_formula_structural   AlH8C16NO7
_chemical_formula_sum   'Al4 H32 C64 N4 O28'
_cell_volume   3075.79477840
_cell_formula_units_Z   4
loop_
 _symmetry_equiv_pos_site_id
 _symmetry_equiv_pos_as_xyz
  1  'x, y, z'
loop_
 _atom_site_type_symbol
 _atom_site_label
 _atom_site_symmetry_multiplicity
 _atom_site_fract_x
 _atom_site_fract_y
 _atom_site_fract_z
 _atom_site_occupancy
  Al  Al0  1  0.79425641  0.24859622  0.75057890  1.0
  Al  Al1  1  0.20573826  0.75140909  0.24942319  1.0
  Al  Al2  1  0.29459113  0.25011541  0.74902627  1.0
  Al  Al3  1  0.70541265  0.74988744  0.25097537  1.0
  H  H4  1  0.68914712  0.45544065  0.95871993  1.0
  H  H5  1  0.31084310  0.54456440  0.04127910  1.0
  H  H6  1  0.20036649  0.04922064  0.54838501  1.0
  H  H7  1  0.79962813  0.95078387  0.45162146  1.0
  H  H8  1  0.66417510  0.53581530  0.03719780  1.0
  H  H9  1  0.33580925  0.46418432  0.96280168  1.0
  H  H10  1  0.15556634  0.96980873  0.47039810  1.0
  H  H11  1  0.84442824  0.03019674  0.52960881  1.0
  H  H12  1  0.76248930  0.33919878  0.58352992  1.0
  H  H13  1  0.23750577  0.66079606  0.41646692  1.0
  H  H14  1  0.79951395  0.15290739  0.92274522  1.0
  H  H15  1  0.20048238  0.84709302  0.07725644  1.0
  H  H16  1  0.28766828  0.42970895  0.64541159  1.0
  H  H17  1  0.71232072  0.57028846  0.35458394  1.0
  H  H18  1  0.27674726  0.07540194  0.84698359  1.0
  H  H19  1  0.72325207  0.92459842  0.15301849  1.0
  H  H20  1  0.54798970  0.63354029  0.54499961  1.0
  H  H21  1  0.53189342  0.63143655  0.46802851  1.0
  H  H22  1  0.36341751  0.68284641  0.50584303  1.0
  H  H23  1  0.45207531  0.36643406  0.45499055  1.0
  H  H24  1  0.63664848  0.31714171  0.49415458  1.0
  H  H25  1  0.46812770  0.36854525  0.53196303  1.0
  H  H26  1  0.93246051  0.88319444  0.94150132  1.0
  H  H27  1  0.09347260  0.82831829  0.98408418  1.0
  H  H28  1  0.93127993  0.88445185  0.01873504  1.0
  H  H29  1  0.06754649  0.11680260  0.05849857  1.0
  H  H30  1  0.06871955  0.11554528  0.98126398  1.0
  H  H31  1  0.90653580  0.17168112  0.01591702  1.0
  H  H32  1  0.54217053  0.33537648  0.75966359  1.0
  H  H33  1  0.45781661  0.66462773  0.24034070  1.0
  H  H34  1  0.05068638  0.16340398  0.74005300  1.0
  H  H35  1  0.94929930  0.83659764  0.25995305  1.0
  C  C36  1  0.55152828  0.16769049  0.83049681  1.0
  C  C37  1  0.44846502  0.83231094  0.16950441  1.0
  C  C38  1  0.03159693  0.33073744  0.66881107  1.0
  C  C39  1  0.96839791  0.66926417  0.33118751  1.0
  C  C40  1  0.54488907  0.17346912  0.67304820  1.0
  C  C41  1  0.45509636  0.82654248  0.32695610  1.0
  C  C42  1  0.04508211  0.32536110  0.82660541  1.0
  C  C43  1  0.95491105  0.67464973  0.17338836  1.0
  C  C44  1  0.81033093  0.51987718  0.02058495  1.0
  C  C45  1  0.18965781  0.48012855  0.97941145  1.0
  C  C46  1  0.30558567  0.98327913  0.48359280  1.0
  C  C47  1  0.69440898  0.01672274  0.51641630  1.0
  C  C48  1  0.98604065  0.54534141  0.04417398  1.0
  C  C49  1  0.01395117  0.45466182  0.95582286  1.0
  C  C50  1  0.47515953  0.95526727  0.45607265  1.0
  C  C51  1  0.52483056  0.04473550  0.54393777  1.0
  C  C52  1  0.17586328  0.52474583  0.02286666  1.0
  C  C53  1  0.82411790  0.47526146  0.97712887  1.0
  C  C54  1  0.66974575  0.97267013  0.47319725  1.0
  C  C55  1  0.33025484  0.02733526  0.52681053  1.0
  C  C56  1  0.97296485  0.59073877  0.08866504  1.0
  C  C57  1  0.02702386  0.40926684  0.91133312  1.0
  C  C58  1  0.45475563  0.91040542  0.41165889  1.0
  C  C59  1  0.54523581  0.08960449  0.58834803  1.0
  C  C60  1  0.03596597  0.37032038  0.87287397  1.0
  C  C61  1  0.96403632  0.62969087  0.12711321  1.0
  C  C62  1  0.55094001  0.12835474  0.62690052  1.0
  C  C63  1  0.44905756  0.87165673  0.37309806  1.0
  C  C64  1  0.87336364  0.37769489  0.57677378  1.0
  C  C65  1  0.12662977  0.62230430  0.42322437  1.0
  C  C66  1  0.67907399  0.11732552  0.92636303  1.0
  C  C67  1  0.32092539  0.88267393  0.07363818  1.0
  C  C68  1  0.02722375  0.38015100  0.61769266  1.0
  C  C69  1  0.97278483  0.61984474  0.38230459  1.0
  C  C70  1  0.53794699  0.11835853  0.88152698  1.0
  C  C71  1  0.46205235  0.88164190  0.11847423  1.0
  C  C72  1  0.17097084  0.42935133  0.61237100  1.0
  C  C73  1  0.82903943  0.57064191  0.38761968  1.0
  C  C74  1  0.38311237  0.07285191  0.88295650  1.0
  C  C75  1  0.61689306  0.92714766  0.11704251  1.0
  C  C76  1  0.15881508  0.47841948  0.56651323  1.0
  C  C77  1  0.84119213  0.52157356  0.43348052  1.0
  C  C78  1  0.36951592  0.02434140  0.92903099  1.0
  C  C79  1  0.63048649  0.97565757  0.07096977  1.0
  C  C80  1  0.00546089  0.47544963  0.52347600  1.0
  C  C81  1  0.99456148  0.52454156  0.47651510  1.0
  C  C82  1  0.50874007  0.02404047  0.97620834  1.0
  C  C83  1  0.49125927  0.97595940  0.02379374  1.0
  C  C84  1  0.86196512  0.42374288  0.52864398  1.0
  C  C85  1  0.13805263  0.57625012  0.47134976  1.0
  C  C86  1  0.66541514  0.07154938  0.97469370  1.0
  C  C87  1  0.33458728  0.92844857  0.02530751  1.0
  C  C88  1  0.29681440  0.53207537  0.55978041  1.0
  C  C89  1  0.70318985  0.46791509  0.44021510  1.0
  C  C90  1  0.21679996  0.97502358  0.93224432  1.0
  C  C91  1  0.78319637  0.02497683  0.06775734  1.0
  C  C92  1  0.29465655  0.57960975  0.51451735  1.0
  C  C93  1  0.70537205  0.42037513  0.48547198  1.0
  C  C94  1  0.19177859  0.92882539  0.97791359  1.0
  C  C95  1  0.80821932  0.07117313  0.02208674  1.0
  C  C96  1  0.44247898  0.63465025  0.50858479  1.0
  C  C97  1  0.55755872  0.36532996  0.49140761  1.0
  C  C98  1  0.02861039  0.87865375  0.98009400  1.0
  C  C99  1  0.97139057  0.12134380  0.01990589  1.0
  N  N100  1  0.44703048  0.53605984  0.60655984  1.0
  N  N101  1  0.55296930  0.46392811  0.39343655  1.0
  N  N102  1  0.08319007  0.97412637  0.88101500  1.0
  N  N103  1  0.91680629  0.02587305  0.11898666  1.0
  O  O104  1  0.37347376  0.19977902  0.68352982  1.0
  O  O105  1  0.62651634  0.80022884  0.31647140  1.0
  O  O106  1  0.87959270  0.31452385  0.80153931  1.0
  O  O107  1  0.12042605  0.68548637  0.19845486  1.0
  O  O108  1  0.72166115  0.19349444  0.81913124  1.0
  O  O109  1  0.27833948  0.80651113  0.18087391  1.0
  O  O110  1  0.19826226  0.32056321  0.69536954  1.0
  O  O111  1  0.80172631  0.67944342  0.30463519  1.0
  O  O112  1  0.70870222  0.18252375  0.69966438  1.0
  O  O113  1  0.29128323  0.81748354  0.30034517  1.0
  O  O114  1  0.21758910  0.30100327  0.81444028  1.0
  O  O115  1  0.78241172  0.69899921  0.18555962  1.0
  O  O116  1  0.86554264  0.30341330  0.68238205  1.0
  O  O117  1  0.13445981  0.69658588  0.31761565  1.0
  O  O118  1  0.39036524  0.17919754  0.80161197  1.0
  O  O119  1  0.60963418  0.82080097  0.19838836  1.0
  O  O120  1  0.54271599  0.29002150  0.74872404  1.0
  O  O121  1  0.45727113  0.70998258  0.25128201  1.0
  O  O122  1  0.04761073  0.20872350  0.75113722  1.0
  O  O123  1  0.95237947  0.79127922  0.24886707  1.0
  O  O124  1  0.38225741  0.54603354  0.65629851  1.0
  O  O125  1  0.62712303  0.52909618  0.59311584  1.0
  O  O126  1  0.61773143  0.45397210  0.34369220  1.0
  O  O127  1  0.37287434  0.47086550  0.40688976  1.0
  O  O128  1  0.16266807  0.96053420  0.83390004  1.0
  O  O129  1  0.90198423  0.98708372  0.88839436  1.0
  O  O130  1  0.83732087  0.03946183  0.16610118  1.0
  O  O131  1  0.09801056  0.01291488  0.11161212  1.0
