# generated using pymatgen
data_Zn4H6C24S4N2O19
_symmetry_space_group_name_H-M   'P 1'
_cell_length_a   19.61649332
_cell_length_b   19.62882368
_cell_length_c   33.37691952
_cell_angle_alpha   79.12810812
_cell_angle_beta   79.11266369
_cell_angle_gamma   63.83292180
_symmetry_Int_Tables_number   1
_chemical_formula_structural   Zn4H6C24S4N2O19
_chemical_formula_sum   'Zn16 H24 C96 S16 N8 O76'
_cell_volume   11245.80815404
_cell_formula_units_Z   4
loop_
 _symmetry_equiv_pos_site_id
 _symmetry_equiv_pos_as_xyz
  1  'x, y, z'
loop_
 _atom_site_type_symbol
 _atom_site_label
 _atom_site_symmetry_multiplicity
 _atom_site_fract_x
 _atom_site_fract_y
 _atom_site_fract_z
 _atom_site_occupancy
  Zn  Zn0  1  0.59901719  0.94587056  0.52182603  1.0
  Zn  Zn1  1  0.51724116  0.01201360  0.43978344  1.0
  Zn  Zn2  1  0.43489124  0.94375964  0.51805962  1.0
  Zn  Zn3  1  0.44446188  0.09877841  0.52131792  1.0
  Zn  Zn4  1  0.64990810  0.30682241  0.72791422  1.0
  Zn  Zn5  1  0.80730982  0.31367959  0.73448779  1.0
  Zn  Zn6  1  0.73504875  0.22958684  0.81060919  1.0
  Zn  Zn7  1  0.80372270  0.15320860  0.72846704  1.0
  Zn  Zn8  1  0.23502544  0.73076402  0.31132684  1.0
  Zn  Zn9  1  0.30519295  0.64820739  0.22992485  1.0
  Zn  Zn10  1  0.15262614  0.80484125  0.22903773  1.0
  Zn  Zn11  1  0.31178365  0.80827237  0.23419912  1.0
  Zn  Zn12  1  0.93921726  0.43906801  0.01746180  1.0
  Zn  Zn13  1  0.94564993  0.59830001  0.02280176  1.0
  Zn  Zn14  1  0.09942258  0.44280036  0.02192410  1.0
  Zn  Zn15  1  0.01780497  0.51529180  0.94066418  1.0
  H  H16  1  0.54804875  0.25581690  0.64775763  1.0
  H  H17  1  0.70078305  0.99994091  0.60000726  1.0
  H  H18  1  0.30969702  0.78630296  0.40156696  1.0
  H  H19  1  0.44696762  0.95259465  0.35170818  1.0
  H  H20  1  0.75956987  0.53848325  0.65758533  1.0
  H  H21  1  0.29656238  0.51612733  0.40012280  1.0
  H  H22  1  0.02130461  0.79659859  0.39910191  1.0
  H  H23  1  0.03280132  0.04992277  0.65760550  1.0
  H  H24  1  0.84183910  0.35430399  0.95236917  1.0
  H  H25  1  0.89639564  0.40147128  0.80076802  1.0
  H  H26  1  0.23096397  0.45298064  0.85173877  1.0
  H  H27  1  0.85825785  0.83756028  0.95930645  1.0
  H  H28  1  0.99969306  0.69901691  0.10132084  1.0
  H  H29  1  0.25749431  0.54897591  0.14741268  1.0
  H  H30  1  0.71690499  0.70215723  0.09702602  1.0
  H  H31  1  0.98765954  0.21322347  0.09375170  1.0
  H  H32  1  0.47302892  0.19951000  0.57817405  1.0
  H  H33  1  0.77983734  0.05985778  0.66573968  1.0
  H  H34  1  0.37153372  0.84698887  0.47540514  1.0
  H  H35  1  0.39454515  0.88238513  0.27807711  1.0
  H  H36  1  0.76105782  0.28824325  0.89073422  1.0
  H  H37  1  0.97546235  0.46841745  0.86294303  1.0
  H  H38  1  0.05641058  0.77483234  0.17031845  1.0
  H  H39  1  0.19951410  0.47137138  0.07989659  1.0
  C  C40  1  0.68291509  0.93561216  0.43962809  1.0
  C  C41  1  0.42764343  0.92770202  0.43325720  1.0
  C  C42  1  0.55803461  0.82144979  0.56217101  1.0
  C  C43  1  0.31458804  0.06485435  0.56140745  1.0
  C  C44  1  0.56835084  0.07320487  0.56872157  1.0
  C  C45  1  0.44092796  0.17829229  0.43859686  1.0
  C  C46  1  0.68870351  0.43493613  0.68716477  1.0
  C  C47  1  0.80936271  0.32524227  0.82218415  1.0
  C  C48  1  0.56860448  0.30519672  0.81058644  1.0
  C  C49  1  0.81540234  0.06532416  0.81017579  1.0
  C  C50  1  0.68066046  0.18214322  0.67914355  1.0
  C  C51  1  0.93459573  0.18886227  0.69262589  1.0
  C  C52  1  0.30838400  0.56356386  0.31308782  1.0
  C  C53  1  0.18169945  0.67988257  0.18045448  1.0
  C  C54  1  0.06709372  0.81267543  0.31217140  1.0
  C  C55  1  0.18913061  0.93265991  0.19095598  1.0
  C  C56  1  0.32767172  0.81252205  0.32000402  1.0
  C  C57  1  0.43073000  0.68971093  0.18841524  1.0
  C  C58  1  0.81568053  0.56280459  0.06196270  1.0
  C  C59  1  0.07424280  0.56757061  0.06915629  1.0
  C  C60  1  0.06000537  0.31516634  0.06235674  1.0
  C  C61  1  0.18518237  0.43680492  0.93869237  1.0
  C  C62  1  0.93011078  0.42972704  0.93070498  1.0
  C  C63  1  0.93800406  0.68311618  0.93931773  1.0
  C  C64  1  0.59619919  0.10262404  0.59679771  1.0
  C  C65  1  0.65313387  0.15350058  0.65055784  1.0
  C  C66  1  0.55226962  0.17647051  0.60996739  1.0
  C  C67  1  0.69774528  0.08031851  0.63669136  1.0
  C  C68  1  0.58147816  0.19992132  0.63706220  1.0
  C  C69  1  0.66770858  0.05610216  0.61041698  1.0
  C  C70  1  0.40251319  0.89639297  0.40486428  1.0
  C  C71  1  0.35543738  0.84121530  0.34846541  1.0
  C  C72  1  0.36398145  0.84801348  0.41948499  1.0
  C  C73  1  0.39582134  0.88788320  0.33383925  1.0
  C  C74  1  0.34029638  0.82230774  0.39082546  1.0
  C  C75  1  0.41755527  0.91548461  0.36251058  1.0
  C  C76  1  0.54464691  0.69566325  0.59643568  1.0
  C  C77  1  0.70268153  0.55501980  0.64958832  1.0
  C  C78  1  0.58269732  0.74308526  0.58413341  1.0
  C  C79  1  0.66303273  0.50974792  0.66179694  1.0
  C  C80  1  0.65866683  0.62329163  0.62611807  1.0
  C  C81  1  0.58685542  0.62801998  0.62108153  1.0
  C  C82  1  0.42092213  0.27003313  0.36960903  1.0
  C  C83  1  0.32517408  0.47192641  0.37969213  1.0
  C  C84  1  0.41286722  0.25211868  0.41218212  1.0
  C  C85  1  0.33423742  0.48780389  0.33735464  1.0
  C  C86  1  0.35786259  0.39217533  0.39133960  1.0
  C  C87  1  0.39099483  0.34973606  0.35750766  1.0
  C  C88  1  0.77401735  0.92840048  0.37088498  1.0
  C  C89  1  0.97650691  0.82651517  0.37908342  1.0
  C  C90  1  0.75702524  0.91704354  0.41338619  1.0
  C  C91  1  0.99146508  0.83805501  0.33676277  1.0
  C  C92  1  0.89685668  0.85880918  0.39131081  1.0
  C  C93  1  0.85345753  0.89406118  0.35796483  1.0
  C  C94  1  0.19409254  0.16316925  0.60141590  1.0
  C  C95  1  0.05153884  0.09578972  0.65189505  1.0
  C  C96  1  0.23795278  0.09393548  0.58534165  1.0
  C  C97  1  0.00944161  0.16506944  0.66740681  1.0
  C  C98  1  0.11967821  0.09499383  0.62838493  1.0
  C  C99  1  0.12738322  0.16366332  0.62666293  1.0
  C  C100  1  0.83863626  0.35229249  0.85074253  1.0
  C  C101  1  0.89958323  0.40344007  0.90238537  1.0
  C  C102  1  0.82259846  0.33854700  0.89419480  1.0
  C  C103  1  0.91538802  0.41737824  0.85891022  1.0
  C  C104  1  0.85371883  0.36443192  0.91911437  1.0
  C  C105  1  0.88446714  0.39138807  0.83401727  1.0
  C  C106  1  0.47838352  0.32506621  0.88018034  1.0
  C  C107  1  0.27572826  0.42289297  0.87176973  1.0
  C  C108  1  0.49525759  0.33415330  0.83754365  1.0
  C  C109  1  0.26080245  0.41173761  0.91410567  1.0
  C  C110  1  0.35537447  0.39005103  0.85955070  1.0
  C  C111  1  0.39876399  0.35521891  0.89293815  1.0
  C  C112  1  0.88438103  0.91594569  0.82175758  1.0
  C  C113  1  0.87568545  0.82915675  0.92704135  1.0
  C  C114  1  0.84509792  0.98885790  0.83417762  1.0
  C  C115  1  0.91414613  0.75763887  0.91369821  1.0
  C  C116  1  0.86377449  0.88679536  0.89320565  1.0
  C  C117  1  0.89375599  0.85745639  0.85509439  1.0
  C  C118  1  0.15344481  0.65225656  0.15164843  1.0
  C  C119  1  0.10335336  0.59539869  0.09738131  1.0
  C  C120  1  0.07941175  0.69572752  0.13855325  1.0
  C  C121  1  0.17735223  0.55192383  0.11048243  1.0
  C  C122  1  0.05607908  0.66632595  0.11153522  1.0
  C  C123  1  0.20096217  0.58157303  0.13732604  1.0
  C  C124  1  0.54650266  0.59634549  0.14364405  1.0
  C  C125  1  0.69708153  0.65725287  0.10136030  1.0
  C  C126  1  0.50313687  0.66491065  0.16046043  1.0
  C  C127  1  0.73948890  0.58793537  0.08589028  1.0
  C  C128  1  0.62692392  0.65964314  0.12288303  1.0
  C  C129  1  0.61787847  0.59216246  0.12302072  1.0
  C  C130  1  0.20771604  0.05137231  0.14923606  1.0
  C  C131  1  0.04533971  0.19593046  0.10079729  1.0
  C  C132  1  0.16826988  0.00569538  0.16365110  1.0
  C  C133  1  0.08581987  0.24023157  0.08745715  1.0
  C  C134  1  0.08973672  0.12749932  0.12402551  1.0
  C  C135  1  0.16277966  0.12161456  0.12746561  1.0
  S  S136  1  0.67146405  0.70305434  0.60165421  1.0
  S  S137  1  0.57259636  0.54948999  0.64540852  1.0
  S  S138  1  0.36625764  0.33333333  0.43719744  1.0
  S  S139  1  0.38294719  0.40707383  0.31147783  1.0
  S  S140  1  0.83896220  0.86663609  0.43754080  1.0
  S  S141  1  0.90981933  0.88692386  0.31160257  1.0
  S  S142  1  0.19576977  0.03063305  0.60015899  1.0
  S  S143  1  0.05208992  0.22888454  0.65428251  1.0
  S  S144  1  0.41325312  0.38248204  0.81334088  1.0
  S  S145  1  0.34234900  0.36131739  0.93924393  1.0
  S  S146  1  0.82225598  0.98530259  0.88699058  1.0
  S  S147  1  0.93519423  0.75951986  0.86046587  1.0
  S  S148  1  0.54884914  0.72540218  0.14939014  1.0
  S  S149  1  0.69540094  0.52531275  0.09744903  1.0
  S  S150  1  0.07697513  0.04801555  0.14905985  1.0
  S  S151  1  0.17680401  0.20023140  0.10316425  1.0
  N  N152  1  0.47203096  0.70726478  0.58472597  1.0
  N  N153  1  0.45065362  0.21716223  0.33858742  1.0
  N  N154  1  0.72037901  0.97432193  0.34109139  1.0
  N  N155  1  0.20765685  0.23200580  0.59251239  1.0
  N  N156  1  0.53252721  0.29339614  0.91049367  1.0
  N  N157  1  0.91893851  0.89668654  0.78043320  1.0
  N  N158  1  0.52405431  0.53473980  0.14352653  1.0
  N  N159  1  0.28769106  0.03171105  0.15202143  1.0
  O  O160  1  0.49956052  0.99934707  0.50044759  1.0
  O  O161  1  0.68487235  0.93525182  0.47782694  1.0
  O  O162  1  0.45559568  0.97574981  0.41806815  1.0
  O  O163  1  0.48693286  0.86114011  0.56047672  1.0
  O  O164  1  0.62519719  0.94756783  0.42272617  1.0
  O  O165  1  0.61213947  0.84246803  0.54803533  1.0
  O  O166  1  0.41938255  0.90424951  0.47217331  1.0
  O  O167  1  0.33141486  0.00637203  0.54334303  1.0
  O  O168  1  0.50543828  0.12017045  0.55369613  1.0
  O  O169  1  0.35747877  0.09768021  0.56185649  1.0
  O  O170  1  0.60699027  0.00446461  0.56093752  1.0
  O  O171  1  0.49334631  0.12050746  0.42287141  1.0
  O  O172  1  0.41016734  0.18090829  0.47614278  1.0
  O  O173  1  0.74847154  0.25172800  0.75043375  1.0
  O  O174  1  0.64272814  0.40269843  0.69403991  1.0
  O  O175  1  0.82734157  0.33867866  0.78382789  1.0
  O  O176  1  0.62608551  0.25119293  0.82585599  1.0
  O  O177  1  0.75399641  0.40927370  0.69990614  1.0
  O  O178  1  0.56592179  0.33663535  0.77327046  1.0
  O  O179  1  0.76716584  0.28901860  0.83816827  1.0
  O  O180  1  0.79617643  0.12163269  0.83050331  1.0
  O  O181  1  0.74947809  0.14033115  0.68854534  1.0
  O  O182  1  0.80895416  0.06922893  0.77257809  1.0
  O  O183  1  0.63607787  0.24535582  0.69286533  1.0
  O  O184  1  0.90621639  0.25590479  0.70366541  1.0
  O  O185  1  0.90489773  0.14076938  0.70084771  1.0
  O  O186  1  0.25088410  0.74840890  0.25100034  1.0
  O  O187  1  0.27603196  0.62181048  0.33285977  1.0
  O  O188  1  0.24899830  0.63950731  0.19014327  1.0
  O  O189  1  0.06698634  0.83022442  0.27319471  1.0
  O  O190  1  0.32081148  0.56363773  0.27404622  1.0
  O  O191  1  0.12529232  0.77597664  0.33173587  1.0
  O  O192  1  0.13532489  0.74427001  0.19419506  1.0
  O  O193  1  0.14695736  0.89762940  0.19181758  1.0
  O  O194  1  0.34752563  0.82568664  0.28098176  1.0
  O  O195  1  0.24413250  0.91225661  0.21187819  1.0
  O  O196  1  0.28602378  0.77713592  0.33511412  1.0
  O  O197  1  0.40837724  0.63891480  0.20646129  1.0
  O  O198  1  0.39864146  0.76107984  0.19284862  1.0
  O  O199  1  0.00017865  0.49922619  0.00067384  1.0
  O  O200  1  0.84330127  0.49595019  0.05068490  1.0
  O  O201  1  0.00801043  0.60965354  0.05829158  1.0
  O  O202  1  0.10671701  0.34668264  0.05498559  1.0
  O  O203  1  0.84705090  0.60942188  0.05459462  1.0
  O  O204  1  0.99423358  0.34161495  0.05012362  1.0
  O  O205  1  0.11851587  0.50113439  0.05713918  1.0
  O  O206  1  0.18512366  0.41909761  0.97760090  1.0
  O  O207  1  0.97234397  0.46571828  0.91427175  1.0
  O  O208  1  0.12689918  0.47379844  0.91913836  1.0
  O  O209  1  0.91351084  0.41595275  0.96915855  1.0
  O  O210  1  0.92324725  0.68383935  0.97816497  1.0
  O  O211  1  0.97198533  0.62434108  0.91980469  1.0
  O  O212  1  0.48321531  0.22523120  0.59778738  1.0
  O  O213  1  0.76790237  0.03252064  0.64779120  1.0
  O  O214  1  0.34844704  0.82587460  0.45981450  1.0
  O  O215  1  0.41375142  0.90761020  0.29347844  1.0
  O  O216  1  0.77870118  0.30165136  0.91283601  1.0
  O  O217  1  0.95914885  0.45463400  0.84036280  1.0
  O  O218  1  0.03021977  0.76449148  0.15098655  1.0
  O  O219  1  0.22632239  0.48303688  0.09825373  1.0
  O  O220  1  0.43628671  0.67486244  0.60944358  1.0
  O  O221  1  0.45217876  0.74451468  0.55145382  1.0
  O  O222  1  0.47827101  0.24046484  0.30507406  1.0
  O  O223  1  0.44363929  0.15642085  0.34650288  1.0
  O  O224  1  0.74104029  0.95514429  0.30572271  1.0
  O  O225  1  0.66149797  0.02945968  0.35189400  1.0
  O  O226  1  0.17848844  0.27627776  0.61948538  1.0
  O  O227  1  0.24309344  0.24386961  0.55922126  1.0
  O  O228  1  0.50991247  0.26539784  0.94409995  1.0
  O  O229  1  0.59420703  0.29874303  0.90206142  1.0
  O  O230  1  0.92643170  0.83355297  0.77323212  1.0
  O  O231  1  0.94114621  0.94089194  0.75636507  1.0
  O  O232  1  0.57790374  0.47004019  0.14184501  1.0
  O  O233  1  0.45595324  0.55020194  0.14322699  1.0
  O  O234  1  0.30305383  0.08701397  0.15161573  1.0
  O  O235  1  0.33445346  0.96411249  0.15264222  1.0
