# generated using pymatgen
data_MgH6C11NO4
_symmetry_space_group_name_H-M   'P 1'
_cell_length_a   6.93947395
_cell_length_b   34.83606377
_cell_length_c   34.83658406
_cell_angle_alpha   119.56475925
_cell_angle_beta   93.81054209
_cell_angle_gamma   93.80607319
_symmetry_Int_Tables_number   1
_chemical_formula_structural   MgH6C11NO4
_chemical_formula_sum   'Mg6 H36 C66 N6 O24'
_cell_volume   7260.97114132
_cell_formula_units_Z   6
loop_
 _symmetry_equiv_pos_site_id
 _symmetry_equiv_pos_as_xyz
  1  'x, y, z'
loop_
 _atom_site_type_symbol
 _atom_site_label
 _atom_site_symmetry_multiplicity
 _atom_site_fract_x
 _atom_site_fract_y
 _atom_site_fract_z
 _atom_site_occupancy
  Mg  Mg0  1  0.76272289  0.69290144  0.32689853  1.0
  Mg  Mg1  1  0.27246366  0.30605900  0.67138639  1.0
  Mg  Mg2  1  0.06981176  0.63397946  0.30709592  1.0
  Mg  Mg3  1  0.96630512  0.36534080  0.69395313  1.0
  Mg  Mg4  1  0.43582355  0.67309403  0.36600700  1.0
  Mg  Mg5  1  0.60102215  0.32861775  0.63468444  1.0
  H  H6  1  0.99065079  0.55132493  0.11910242  1.0
  H  H7  1  0.99904347  0.60754820  0.19621641  1.0
  H  H8  1  0.29623020  0.56154966  0.18370355  1.0
  H  H9  1  0.46400386  0.53106240  0.11522332  1.0
  H  H10  1  0.17828236  0.54879468  0.07415529  1.0
  H  H11  1  0.36460608  0.51246837  0.01133042  1.0
  H  H12  1  0.83326317  0.44462626  0.92342472  1.0
  H  H13  1  0.64638822  0.48066156  0.98643572  1.0
  H  H14  1  0.02913523  0.44558281  0.87864893  1.0
  H  H15  1  0.02876314  0.38851177  0.80156403  1.0
  H  H16  1  0.73248906  0.43585379  0.81814194  1.0
  H  H17  1  0.55671548  0.46564473  0.88546178  1.0
  H  H18  1  0.43943327  0.56776937  0.44865268  1.0
  H  H19  1  0.39137637  0.58867222  0.39245323  1.0
  H  H20  1  0.73468759  0.62215777  0.43846777  1.0
  H  H21  1  0.93298908  0.58416423  0.46894170  1.0
  H  H22  1  0.62961074  0.52537049  0.45121448  1.0
  H  H23  1  0.85237615  0.49886429  0.48752476  1.0
  H  H24  1  0.38872802  0.47878602  0.55532812  1.0
  H  H25  1  0.16584140  0.50576894  0.51931833  1.0
  H  H26  1  0.58356139  0.43307205  0.55443190  1.0
  H  H27  1  0.64028118  0.41304790  0.61148000  1.0
  H  H28  1  0.29665357  0.38228474  0.56414982  1.0
  H  H29  1  0.09111151  0.41980256  0.53436131  1.0
  H  H30  1  0.87172659  0.88086719  0.43221421  1.0
  H  H31  1  0.80279936  0.80374829  0.41131040  1.0
  H  H32  1  0.11262878  0.81630328  0.37784626  1.0
  H  H33  1  0.34891235  0.88475235  0.41582250  1.0
  H  H34  1  0.10426742  0.92582973  0.47461980  1.0
  H  H35  1  0.35354715  0.98865746  0.50113156  1.0
  H  H36  1  0.90994754  0.07654439  0.52119395  1.0
  H  H37  1  0.66014554  0.01354756  0.49422500  1.0
  H  H38  1  0.15052841  0.12134885  0.56692010  1.0
  H  H39  1  0.22728899  0.19845080  0.58695408  1.0
  H  H40  1  0.91444855  0.18184722  0.61772806  1.0
  H  H41  1  0.67125748  0.11453661  0.58019090  1.0
  C  C42  1  0.76576974  0.53704876  0.07078195  1.0
  C  C43  1  0.74261495  0.56782695  0.15120736  1.0
  C  C44  1  0.84409104  0.59713580  0.19289833  1.0
  C  C45  1  0.75102845  0.61531764  0.23192336  1.0
  C  C46  1  0.54663176  0.60240071  0.22785984  1.0
  C  C47  1  0.44996989  0.57183680  0.18546087  1.0
  C  C48  1  0.54219711  0.55454294  0.14743817  1.0
  C  C49  1  0.43174211  0.61835743  0.26568205  1.0
  C  C50  1  0.89622779  0.51692093  0.03495587  1.0
  C  C51  1  0.09956370  0.52557790  0.04156100  1.0
  C  C52  1  0.20711156  0.50545471  0.00576174  1.0
  C  C53  1  0.11477349  0.47654950  0.96274068  1.0
  C  C54  1  0.91142752  0.46791579  0.95606135  1.0
  C  C55  1  0.80382349  0.48796125  0.99192485  1.0
  C  C56  1  0.24652356  0.45622967  0.92721213  1.0
  C  C57  1  0.28081098  0.42847122  0.84788193  1.0
  C  C58  1  0.18391199  0.39915473  0.80579189  1.0
  C  C59  1  0.28148300  0.38132404  0.76746332  1.0
  C  C60  1  0.48606873  0.39462999  0.77262580  1.0
  C  C61  1  0.57844957  0.42518128  0.81551565  1.0
  C  C62  1  0.48159750  0.44210771  0.85288627  1.0
  C  C63  1  0.60433820  0.37931211  0.73538624  1.0
  C  C64  1  0.22887572  0.53374016  0.46294651  1.0
  C  C65  1  0.17486617  0.58339812  0.43220101  1.0
  C  C66  1  0.24689736  0.59577971  0.40288799  1.0
  C  C67  1  0.13569679  0.61662614  0.38471951  1.0
  C  C68  1  0.94425260  0.62549112  0.39764101  1.0
  C  C69  1  0.87818689  0.61365071  0.42819929  1.0
  C  C70  1  0.98774080  0.59290260  0.44547191  1.0
  C  C71  1  0.81340689  0.64731955  0.38163859  1.0
  C  C72  1  0.37947098  0.51804259  0.48307127  1.0
  C  C73  1  0.57418522  0.51600658  0.47444192  1.0
  C  C74  1  0.70192711  0.50033491  0.49456313  1.0
  C  C75  1  0.63839519  0.48620860  0.52345553  1.0
  C  C76  1  0.44364144  0.48815691  0.53206204  1.0
  C  C77  1  0.31597787  0.50397076  0.51202006  1.0
  C  C78  1  0.79034859  0.47097147  0.54376544  1.0
  C  C79  1  0.85238284  0.41941561  0.57152830  1.0
  C  C80  1  0.78480347  0.40664834  0.60084568  1.0
  C  C81  1  0.90022863  0.38615803  0.61868283  1.0
  C  C82  1  0.09156010  0.37802122  0.60540206  1.0
  C  C83  1  0.15331397  0.39033668  0.57483198  1.0
  C  C84  1  0.03949791  0.41076621  0.55789408  1.0
  C  C85  1  0.22506860  0.35607120  0.62070972  1.0
  C  C86  1  0.69521492  0.92919467  0.46624551  1.0
  C  C87  1  0.59155187  0.84877630  0.41659560  1.0
  C  C88  1  0.65119617  0.80707709  0.40420034  1.0
  C  C89  1  0.51906179  0.76806282  0.38335974  1.0
  C  C90  1  0.31873984  0.77212473  0.37450541  1.0
  C  C91  1  0.26461502  0.81453153  0.38635943  1.0
  C  C92  1  0.39494269  0.85254620  0.40708969  1.0
  C  C93  1  0.16602112  0.73431035  0.35267850  1.0
  C  C94  1  0.86147694  0.96502707  0.48196455  1.0
  C  C95  1  0.05821228  0.95843652  0.48402963  1.0
  C  C96  1  0.20164080  0.99423634  0.49969701  1.0
  C  C97  1  0.15226042  0.03724972  0.51379286  1.0
  C  C98  1  0.95555848  0.04391568  0.51184092  1.0
  C  C99  1  0.81210646  0.00805738  0.49603674  1.0
  C  C100  1  0.31946246  0.07279608  0.52901605  1.0
  C  C101  1  0.43300403  0.15212984  0.58060039  1.0
  C  C102  1  0.37821547  0.19421939  0.59336240  1.0
  C  C103  1  0.51422197  0.23253504  0.61385124  1.0
  C  C104  1  0.71366631  0.22737951  0.62200482  1.0
  C  C105  1  0.76304329  0.18448336  0.60969213  1.0
  C  C106  1  0.62877447  0.14711882  0.58924286  1.0
  C  C107  1  0.86917418  0.26463114  0.64393485  1.0
  N  N108  1  0.84488568  0.55105367  0.11369003  1.0
  N  N109  1  0.17364318  0.44484684  0.88463194  1.0
  N  N110  1  0.29395292  0.56264370  0.44894613  1.0
  N  N111  1  0.72880495  0.43977471  0.55514275  1.0
  N  N112  1  0.73138023  0.88628370  0.43734848  1.0
  N  N113  1  0.28908122  0.11537322  0.56021144  1.0
  O  O114  1  0.25233438  0.60419807  0.26065798  1.0
  O  O115  1  0.51750625  0.64766756  0.30455452  1.0
  O  O116  1  0.85791020  0.64394943  0.27061871  1.0
  O  O117  1  0.78410132  0.39358675  0.74117776  1.0
  O  O118  1  0.52094651  0.35052154  0.69606836  1.0
  O  O119  1  0.17713190  0.35272215  0.72842150  1.0
  O  O120  1  0.59404918  0.54016890  0.06205822  1.0
  O  O121  1  0.41460797  0.45090868  0.93595843  1.0
  O  O122  1  0.64815327  0.65645085  0.39579255  1.0
  O  O123  1  0.86983838  0.65685382  0.35230955  1.0
  O  O124  1  0.21391476  0.62666936  0.35607383  1.0
  O  O125  1  0.39052723  0.34757840  0.60642426  1.0
  O  O126  1  0.17046752  0.34553302  0.64948841  1.0
  O  O127  1  0.82441494  0.37570387  0.64727238  1.0
  O  O128  1  0.05405109  0.52191521  0.45985908  1.0
  O  O129  1  0.96379281  0.48502885  0.54908976  1.0
  O  O130  1  0.99164428  0.73934945  0.34355630  1.0
  O  O131  1  0.21291148  0.69544353  0.34312875  1.0
  O  O132  1  0.58727756  0.72937274  0.37331577  1.0
  O  O133  1  0.04312502  0.25884425  0.65243157  1.0
  O  O134  1  0.82505826  0.30394246  0.65445107  1.0
  O  O135  1  0.44884816  0.27157394  0.62428776  1.0
  O  O136  1  0.53218864  0.93792663  0.47805775  1.0
  O  O137  1  0.47887016  0.06406111  0.51496912  1.0
