# generated using pymatgen
data_ZnH22C28N3O14
_symmetry_space_group_name_H-M   'P 1'
_cell_length_a   14.69293069
_cell_length_b   16.06962574
_cell_length_c   19.36379796
_cell_angle_alpha   90.34000825
_cell_angle_beta   90.61041165
_cell_angle_gamma   90.62658943
_symmetry_Int_Tables_number   1
_chemical_formula_structural   ZnH22C28N3O14
_chemical_formula_sum   'Zn2 H44 C56 N6 O28'
_cell_volume   4571.36780186
_cell_formula_units_Z   2
loop_
 _symmetry_equiv_pos_site_id
 _symmetry_equiv_pos_as_xyz
  1  'x, y, z'
loop_
 _atom_site_type_symbol
 _atom_site_label
 _atom_site_symmetry_multiplicity
 _atom_site_fract_x
 _atom_site_fract_y
 _atom_site_fract_z
 _atom_site_occupancy
  Zn  Zn0  1  0.40539332  0.49436625  0.50002659  1.0
  Zn  Zn1  1  0.59460126  0.50563125  0.49998022  1.0
  H  H2  1  0.05061188  0.39301960  0.41789253  1.0
  H  H3  1  0.73261580  0.43098321  0.24200865  1.0
  H  H4  1  0.46399965  0.70102199  0.88614929  1.0
  H  H5  1  0.34328696  0.71609060  0.88023755  1.0
  H  H6  1  0.40876810  0.71071768  0.80251104  1.0
  H  H7  1  0.65674022  0.28388714  0.11979262  1.0
  H  H8  1  0.53602673  0.29895260  0.11385866  1.0
  H  H9  1  0.59123724  0.28925811  0.19750867  1.0
  H  H10  1  0.71600431  0.38677671  0.92864370  1.0
  H  H11  1  0.28402336  0.61320403  0.07133278  1.0
  H  H12  1  0.57533591  0.27119615  0.71782217  1.0
  H  H13  1  0.94938475  0.60698349  0.58210502  1.0
  H  H14  1  0.64241803  0.30241684  0.64470558  1.0
  H  H15  1  0.52689786  0.33479024  0.65082423  1.0
  H  H16  1  0.35756963  0.69758369  0.35526815  1.0
  H  H17  1  0.42466380  0.72877890  0.28215258  1.0
  H  H18  1  0.47309251  0.66520037  0.34916498  1.0
  H  H19  1  0.61115959  0.03307973  0.33008909  1.0
  H  H20  1  0.49131461  0.03020630  0.31106744  1.0
  H  H21  1  0.56473913  0.95538114  0.27205457  1.0
  H  H22  1  0.50868471  0.96979803  0.68892032  1.0
  H  H23  1  0.38883831  0.96691527  0.66990328  1.0
  H  H24  1  0.39352213  0.05807635  0.41428960  1.0
  H  H25  1  0.43525745  0.04462193  0.72793110  1.0
  H  H26  1  0.72042006  0.94895106  0.41780808  1.0
  H  H27  1  0.74501745  0.95359074  0.50868004  1.0
  H  H28  1  0.80330774  0.02244788  0.45092503  1.0
  H  H29  1  0.25497101  0.04641481  0.49131283  1.0
  H  H30  1  0.27957786  0.05104767  0.58218326  1.0
  H  H31  1  0.19668072  0.97755767  0.54906783  1.0
  H  H32  1  0.84089482  0.59149891  0.31590173  1.0
  H  H33  1  0.15911132  0.40850483  0.68409226  1.0
  H  H34  1  0.98430755  0.73180319  0.50736557  1.0
  H  H35  1  0.60646145  0.94191983  0.58569391  1.0
  H  H36  1  0.95589520  0.70921789  0.41841517  1.0
  H  H37  1  0.05504181  0.77130870  0.43969902  1.0
  H  H38  1  0.04410419  0.29078957  0.58158345  1.0
  H  H39  1  0.01568906  0.26819679  0.49263455  1.0
  H  H40  1  0.94496029  0.22869504  0.56030528  1.0
  H  H41  1  0.28941259  0.52474295  0.67336253  1.0
  H  H42  1  0.26234252  0.63297560  0.68234193  1.0
  H  H43  1  0.26738898  0.56900317  0.75802091  1.0
  H  H44  1  0.73765206  0.36701137  0.31768912  1.0
  H  H45  1  0.71057789  0.47524214  0.32666591  1.0
  C  C46  1  0.49619064  0.66166486  0.50478053  1.0
  C  C47  1  0.58677107  0.02414692  0.48434205  1.0
  C  C48  1  0.49394851  0.91465893  0.50059181  1.0
  C  C49  1  0.50603304  0.08533849  0.49939117  1.0
  C  C50  1  0.49068609  0.82691077  0.50170886  1.0
  C  C51  1  0.50930232  0.17309042  0.49828192  1.0
  C  C52  1  0.03111400  0.57597888  0.47847448  1.0
  C  C53  1  0.96888262  0.42402422  0.52152306  1.0
  C  C54  1  0.96557376  0.51331092  0.43463399  1.0
  C  C55  1  0.03442218  0.48669155  0.56536356  1.0
  C  C56  1  0.97275409  0.56056633  0.54513147  1.0
  C  C57  1  0.50379715  0.33833388  0.49522832  1.0
  C  C58  1  0.02724185  0.43943614  0.45486608  1.0
  C  C59  1  0.90765410  0.50092650  0.50258174  1.0
  C  C60  1  0.09234320  0.49907535  0.49741530  1.0
  C  C61  1  0.50018206  0.49435509  0.63449802  1.0
  C  C62  1  0.49980294  0.50563679  0.36550923  1.0
  C  C63  1  0.81158721  0.50209821  0.50383428  1.0
  C  C64  1  0.18840735  0.49790053  0.49616479  1.0
  C  C65  1  0.44454647  0.54827253  0.74799174  1.0
  C  C66  1  0.55545210  0.45171131  0.25202073  1.0
  C  C67  1  0.44571580  0.55115959  0.82072626  1.0
  C  C68  1  0.44015545  0.03082151  0.45197109  1.0
  C  C69  1  0.55429222  0.44881495  0.17928675  1.0
  C  C70  1  0.50436317  0.49887593  0.85767188  1.0
  C  C71  1  0.49564544  0.50109112  0.14233336  1.0
  C  C72  1  0.56096835  0.44308985  0.82205754  1.0
  C  C73  1  0.43903344  0.55687903  0.17794147  1.0
  C  C74  1  0.56080353  0.44171746  0.74958154  1.0
  C  C75  1  0.43919290  0.55826198  0.25041489  1.0
  C  C76  1  0.50179171  0.49407073  0.71224208  1.0
  C  C77  1  0.49819934  0.50591183  0.28776466  1.0
  C  C78  1  0.49801578  0.49999140  0.06635302  1.0
  C  C79  1  0.55982950  0.96917468  0.54801346  1.0
  C  C80  1  0.50200849  0.49997695  0.93365283  1.0
  C  C81  1  0.29641154  0.58021048  0.70670472  1.0
  C  C82  1  0.70358370  0.41977524  0.29332116  1.0
  C  C83  1  0.40212179  0.68756153  0.85550744  1.0
  C  C84  1  0.59789578  0.31241180  0.14451233  1.0
  C  C85  1  0.62443972  0.38619370  0.85925913  1.0
  C  C86  1  0.37557156  0.61377520  0.14073064  1.0
  C  C87  1  0.58908786  0.32108014  0.68056140  1.0
  C  C88  1  0.41090246  0.67890735  0.31942315  1.0
  C  C89  1  0.55231553  0.99192389  0.31885137  1.0
  C  C90  1  0.52009506  0.96967923  0.43592203  1.0
  C  C91  1  0.44767966  0.00807544  0.68113582  1.0
  C  C92  1  0.73848005  0.99073712  0.46123089  1.0
  C  C93  1  0.26151043  0.00926532  0.53876094  1.0
  C  C94  1  0.92564045  0.52385177  0.36423980  1.0
  C  C95  1  0.07435888  0.47615009  0.63575621  1.0
  C  C96  1  0.01180868  0.71921488  0.45575423  1.0
  C  C97  1  0.98818933  0.28078823  0.54424746  1.0
  C  C98  1  0.47989124  0.03031634  0.56406201  1.0
  C  C99  1  0.49087573  0.75121820  0.50365785  1.0
  C  C100  1  0.50911472  0.24877556  0.49634583  1.0
  C  C101  1  0.41321524  0.97584927  0.51564302  1.0
  N  N102  1  0.49537583  0.42565111  0.96562028  1.0
  N  N103  1  0.50466002  0.57431666  0.03438719  1.0
  N  N104  1  0.49352787  0.42546299  0.03372566  1.0
  N  N105  1  0.50650797  0.57450477  0.96628129  1.0
  N  N106  1  0.73274417  0.50393181  0.50320584  1.0
  N  N107  1  0.26725107  0.49606631  0.49679582  1.0
  O  O108  1  0.42108977  0.62110025  0.50546374  1.0
  O  O109  1  0.60880808  0.39659385  0.28777304  1.0
  O  O110  1  0.38385257  0.59899784  0.85547187  1.0
  O  O111  1  0.61616502  0.40097613  0.14455049  1.0
  O  O112  1  0.63016057  0.31145143  0.84979991  1.0
  O  O113  1  0.67903156  0.42882993  0.90538265  1.0
  O  O114  1  0.36985006  0.68851996  0.15018986  1.0
  O  O115  1  0.32098859  0.57114644  0.09459583  1.0
  O  O116  1  0.62346819  0.39360708  0.71684698  1.0
  O  O117  1  0.37652417  0.60637607  0.28314428  1.0
  O  O118  1  0.53863735  0.93282564  0.37335215  1.0
  O  O119  1  0.57890686  0.37889975  0.49454155  1.0
  O  O120  1  0.46134965  0.06717180  0.62663293  1.0
  O  O121  1  0.67222268  0.05489385  0.46942815  1.0
  O  O122  1  0.32776297  0.94510482  0.53055538  1.0
  O  O123  1  0.94154397  0.47895297  0.31506331  1.0
  O  O124  1  0.86811458  0.58962472  0.36235341  1.0
  O  O125  1  0.05845811  0.52105139  0.68493428  1.0
  O  O126  1  0.13188613  0.41037963  0.63764159  1.0
  O  O127  1  0.07090523  0.64782451  0.45777093  1.0
  O  O128  1  0.92909070  0.35217734  0.54222713  1.0
  O  O129  1  0.57611505  0.63184940  0.50433702  1.0
  O  O130  1  0.42388023  0.36814874  0.49567548  1.0
  O  O131  1  0.42273228  0.48433345  0.60546681  1.0
  O  O132  1  0.57725692  0.51567089  0.39454258  1.0
  O  O133  1  0.57594710  0.50437614  0.60492473  1.0
  O  O134  1  0.42404470  0.49561637  0.39507896  1.0
  O  O135  1  0.39118783  0.60339435  0.71224769  1.0
