# generated using pymatgen
data_ZnH8C14S2N3O10
_symmetry_space_group_name_H-M   'P 1'
_cell_length_a   9.69465782
_cell_length_b   11.01242032
_cell_length_c   19.23291230
_cell_angle_alpha   90.18053950
_cell_angle_beta   89.95655494
_cell_angle_gamma   89.92318378
_symmetry_Int_Tables_number   1
_chemical_formula_structural   ZnH8C14S2N3O10
_chemical_formula_sum   'Zn2 H16 C28 S4 N6 O20'
_cell_volume   2053.32475346
_cell_formula_units_Z   2
loop_
 _symmetry_equiv_pos_site_id
 _symmetry_equiv_pos_as_xyz
  1  'x, y, z'
loop_
 _atom_site_type_symbol
 _atom_site_label
 _atom_site_symmetry_multiplicity
 _atom_site_fract_x
 _atom_site_fract_y
 _atom_site_fract_z
 _atom_site_occupancy
  Zn  Zn0  1  0.34749267  0.50242622  0.50057395  1.0
  Zn  Zn1  1  0.64214217  0.50294088  0.50063986  1.0
  H  H2  1  0.71551540  0.11374041  0.49655558  1.0
  H  H3  1  0.27277736  0.88648187  0.50727603  1.0
  H  H4  1  0.71510898  0.88577571  0.49342010  1.0
  H  H5  1  0.27191283  0.11389021  0.50427624  1.0
  H  H6  1  0.33831569  0.36800395  0.15186119  1.0
  H  H7  1  0.67778630  0.37378949  0.84665969  1.0
  H  H8  1  0.33184632  0.62100149  0.85061971  1.0
  H  H9  1  0.67583564  0.62245871  0.15230600  1.0
  H  H10  1  0.86214155  0.65626085  0.56170210  1.0
  H  H11  1  0.12431474  0.34073260  0.44232613  1.0
  H  H12  1  0.86300978  0.34225943  0.44113994  1.0
  H  H13  1  0.12331663  0.65947680  0.55912381  1.0
  H  H14  1  0.37282126  0.27842350  0.39365696  1.0
  H  H15  1  0.63459897  0.27822133  0.60661586  1.0
  H  H16  1  0.36649631  0.71555552  0.60858725  1.0
  H  H17  1  0.57706885  0.82777590  0.30367302  1.0
  C  C18  1  0.49417215  0.26138274  0.50018260  1.0
  C  C19  1  0.49563691  0.73833530  0.50259974  1.0
  C  C20  1  0.50530035  0.49477975  0.93358461  1.0
  C  C21  1  0.50680551  0.49460943  0.06692562  1.0
  C  C22  1  0.50068600  0.49882740  0.36921749  1.0
  C  C23  1  0.49732724  0.49851041  0.63237723  1.0
  C  C24  1  0.61915298  0.06307087  0.49802123  1.0
  C  C25  1  0.36890867  0.93717114  0.50405097  1.0
  C  C26  1  0.61923324  0.93705005  0.49693572  1.0
  C  C27  1  0.36844415  0.06326862  0.50236955  1.0
  C  C28  1  0.49415226  0.87362446  0.50098281  1.0
  C  C29  1  0.49368398  0.12665740  0.50018844  1.0
  C  C30  1  0.92159541  0.58726596  0.53416776  1.0
  C  C31  1  0.06554837  0.41096636  0.46888871  1.0
  C  C32  1  0.92216343  0.41155355  0.46843179  1.0
  C  C33  1  0.06502595  0.58872526  0.53294083  1.0
  C  C34  1  0.41178363  0.42468961  0.25229050  1.0
  C  C35  1  0.59782714  0.42784727  0.74719411  1.0
  C  C36  1  0.40561143  0.56786727  0.74953230  1.0
  C  C37  1  0.59738188  0.57008309  0.25258003  1.0
  C  C38  1  0.41121177  0.42522371  0.17982391  1.0
  C  C39  1  0.60126034  0.42853940  0.81963728  1.0
  C  C40  1  0.40581959  0.56570784  0.82194627  1.0
  C  C41  1  0.60111656  0.56703627  0.18008611  1.0
  C  C42  1  0.50665267  0.49562539  0.14347088  1.0
  C  C43  1  0.50403896  0.49612741  0.85712461  1.0
  C  C44  1  0.50342761  0.49827980  0.29063408  1.0
  C  C45  1  0.49961475  0.49741511  0.71064986  1.0
  S  S46  1  0.29053900  0.31968139  0.29051314  1.0
  S  S47  1  0.72413705  0.32879688  0.70651703  1.0
  S  S48  1  0.28323652  0.67234911  0.71164549  1.0
  S  S49  1  0.71489677  0.67769530  0.29150210  1.0
  N  N50  1  0.13599759  0.50025411  0.50060296  1.0
  N  N51  1  0.85162736  0.49932324  0.50133792  1.0
  N  N52  1  0.63025244  0.49520828  0.03427180  1.0
  N  N53  1  0.38174745  0.49374892  0.96640891  1.0
  N  N54  1  0.62948507  0.49416641  0.96561441  1.0
  N  N55  1  0.38264781  0.49255406  0.03498619  1.0
  O  O56  1  0.38813014  0.31671626  0.47551765  1.0
  O  O57  1  0.60481316  0.68433818  0.48445793  1.0
  O  O58  1  0.38421214  0.68482278  0.52365798  1.0
  O  O59  1  0.60028490  0.31608335  0.52400557  1.0
  O  O60  1  0.39191934  0.53861452  0.39804859  1.0
  O  O61  1  0.60602889  0.53618981  0.60286405  1.0
  O  O62  1  0.38821696  0.46209573  0.60233549  1.0
  O  O63  1  0.60673001  0.45754164  0.39967966  1.0
  O  O64  1  0.18428908  0.38499602  0.32759024  1.0
  O  O65  1  0.25418091  0.23516805  0.23670720  1.0
  O  O66  1  0.38359958  0.24780731  0.34416877  1.0
  O  O67  1  0.82096295  0.39768682  0.66576389  1.0
  O  O68  1  0.77173494  0.24916743  0.76026361  1.0
  O  O69  1  0.63052979  0.24923222  0.65617673  1.0
  O  O70  1  0.17745297  0.60743835  0.67420805  1.0
  O  O71  1  0.24628755  0.75635767  0.76562308  1.0
  O  O72  1  0.37653980  0.74495980  0.65808648  1.0
  O  O73  1  0.80067325  0.62133065  0.34260481  1.0
  O  O74  1  0.77258801  0.74878064  0.23600692  1.0
  O  O75  1  0.60964237  0.76364581  0.33484398  1.0
