# generated using pymatgen
data_ZnH14C14Br2(N2O)2
_symmetry_space_group_name_H-M   'P 1'
_cell_length_a   7.50480338
_cell_length_b   12.21005041
_cell_length_c   22.76751512
_cell_angle_alpha   89.99993112
_cell_angle_beta   90.00000390
_cell_angle_gamma   89.99997410
_symmetry_Int_Tables_number   1
_chemical_formula_structural   ZnH14C14Br2(N2O)2
_chemical_formula_sum   'Zn4 H56 C56 Br8 N16 O8'
_cell_volume   2086.27910859
_cell_formula_units_Z   4
loop_
 _symmetry_equiv_pos_site_id
 _symmetry_equiv_pos_as_xyz
  1  'x, y, z'
loop_
 _atom_site_type_symbol
 _atom_site_label
 _atom_site_symmetry_multiplicity
 _atom_site_fract_x
 _atom_site_fract_y
 _atom_site_fract_z
 _atom_site_occupancy
  Zn  Zn0  1  0.74999990  0.50000071  0.74982497  1.0
  Zn  Zn1  1  0.74999972  0.99999946  0.75017487  1.0
  Zn  Zn2  1  0.25000008  0.49999970  0.25017536  1.0
  Zn  Zn3  1  0.25000026  0.00000013  0.24982502  1.0
  H  H4  1  0.50507793  0.99194858  0.90710328  1.0
  H  H5  1  0.99492457  0.00805085  0.90710317  1.0
  H  H6  1  0.99492436  0.49194847  0.59289613  1.0
  H  H7  1  0.50507675  0.50805084  0.59289655  1.0
  H  H8  1  0.49492471  0.00805101  0.09289661  1.0
  H  H9  1  0.00507674  0.99194956  0.09289629  1.0
  H  H10  1  0.00507695  0.50805112  0.40710377  1.0
  H  H11  1  0.49492457  0.49194875  0.40710378  1.0
  H  H12  1  0.85331102  0.66294259  0.84254299  1.0
  H  H13  1  0.64668614  0.33705780  0.84254353  1.0
  H  H14  1  0.64668485  0.16294243  0.65745663  1.0
  H  H15  1  0.85331094  0.83705837  0.65745730  1.0
  H  H16  1  0.14668630  0.33705700  0.15745646  1.0
  H  H17  1  0.35331384  0.66294343  0.15745636  1.0
  H  H18  1  0.35331513  0.83705552  0.34254326  1.0
  H  H19  1  0.14668638  0.16294285  0.34254391  1.0
  H  H20  1  0.70509124  0.80297390  0.90510049  1.0
  H  H21  1  0.79491127  0.19702635  0.90510069  1.0
  H  H22  1  0.79491120  0.30297384  0.59489948  1.0
  H  H23  1  0.70508991  0.69702628  0.59489979  1.0
  H  H24  1  0.29491008  0.19702569  0.09489940  1.0
  H  H25  1  0.20509005  0.80297488  0.09489920  1.0
  H  H26  1  0.20508878  0.69702411  0.40510129  1.0
  H  H27  1  0.29491140  0.30297331  0.40510098  1.0
  H  H28  1  0.20625741  0.70945684  0.82361995  1.0
  H  H29  1  0.29374286  0.29054373  0.82361877  1.0
  H  H30  1  0.29374155  0.20945578  0.67638138  1.0
  H  H31  1  0.20625603  0.79054266  0.67638076  1.0
  H  H32  1  0.79374124  0.29054357  0.17638126  1.0
  H  H33  1  0.70625845  0.70945668  0.17638112  1.0
  H  H34  1  0.70625977  0.79054381  0.32361939  1.0
  H  H35  1  0.79374129  0.20945611  0.32361870  1.0
  H  H36  1  0.37484815  0.57079488  0.76562860  1.0
  H  H37  1  0.12515078  0.42920582  0.76562864  1.0
  H  H38  1  0.12514958  0.07079538  0.73437107  1.0
  H  H39  1  0.37484668  0.92920458  0.73437167  1.0
  H  H40  1  0.62514917  0.42920471  0.23437085  1.0
  H  H41  1  0.87485053  0.57079541  0.23437081  1.0
  H  H42  1  0.87485040  0.92920503  0.26562926  1.0
  H  H43  1  0.62514931  0.07079501  0.26562910  1.0
  H  H44  1  0.23720286  0.88663786  0.87674339  1.0
  H  H45  1  0.26279875  0.11336177  0.87674320  1.0
  H  H46  1  0.26279863  0.38663775  0.62325651  1.0
  H  H47  1  0.23720294  0.61336163  0.62325644  1.0
  H  H48  1  0.76279845  0.11336091  0.12325650  1.0
  H  H49  1  0.73720256  0.88663946  0.12325625  1.0
  H  H50  1  0.73720269  0.61336184  0.37674382  1.0
  H  H51  1  0.76279838  0.38663796  0.37674389  1.0
  H  H52  1  0.26479323  0.80756686  0.94106664  1.0
  H  H53  1  0.23520840  0.19243345  0.94106640  1.0
  H  H54  1  0.23520699  0.30756526  0.55893331  1.0
  H  H55  1  0.26479323  0.69243345  0.55893319  1.0
  H  H56  1  0.73520809  0.19243273  0.05893281  1.0
  H  H57  1  0.76479291  0.80756778  0.05893305  1.0
  H  H58  1  0.76479299  0.69243351  0.44106614  1.0
  H  H59  1  0.73520808  0.30756614  0.44106714  1.0
  C  C60  1  0.70922596  0.67412274  0.84081376  1.0
  C  C61  1  0.79077386  0.32587765  0.84081432  1.0
  C  C62  1  0.79077257  0.17412254  0.65918629  1.0
  C  C63  1  0.70922589  0.82587744  0.65918652  1.0
  C  C64  1  0.29077402  0.32587603  0.15918613  1.0
  C  C65  1  0.20922612  0.67412358  0.15918601  1.0
  C  C66  1  0.20922608  0.82587623  0.34081448  1.0
  C  C67  1  0.29077409  0.17412215  0.34081469  1.0
  C  C68  1  0.62565279  0.75260642  0.87544510  1.0
  C  C69  1  0.87434571  0.24739471  0.87544570  1.0
  C  C70  1  0.87434568  0.25260628  0.62455447  1.0
  C  C71  1  0.62565410  0.74739297  0.62455518  1.0
  C  C72  1  0.37434452  0.24739317  0.12455479  1.0
  C  C73  1  0.12565561  0.75260651  0.12455463  1.0
  C  C74  1  0.12565564  0.74739249  0.37544630  1.0
  C  C75  1  0.37434588  0.25260499  0.37544603  1.0
  C  C76  1  0.44128020  0.76631237  0.87048056  1.0
  C  C77  1  0.05872141  0.23368727  0.87048029  1.0
  C  C78  1  0.05872137  0.26631231  0.62951986  1.0
  C  C79  1  0.44128152  0.73368624  0.62951971  1.0
  C  C80  1  0.55872111  0.23368640  0.12951977  1.0
  C  C81  1  0.94127857  0.76631396  0.12952004  1.0
  C  C82  1  0.94127994  0.73368647  0.37048003  1.0
  C  C83  1  0.55872112  0.26631253  0.37048018  1.0
  C  C84  1  0.34921519  0.69978199  0.83051004  1.0
  C  C85  1  0.15078242  0.30021856  0.83050972  1.0
  C  C86  1  0.15078244  0.19978263  0.66948999  1.0
  C  C87  1  0.34921513  0.80021665  0.66949068  1.0
  C  C88  1  0.65078080  0.30021678  0.16948985  1.0
  C  C89  1  0.84921889  0.69978349  0.16949017  1.0
  C  C90  1  0.84921887  0.80021614  0.33050946  1.0
  C  C91  1  0.65078218  0.19978294  0.33051009  1.0
  C  C92  1  0.44162403  0.62300265  0.79774540  1.0
  C  C93  1  0.05837224  0.37699716  0.79774547  1.0
  C  C94  1  0.05837099  0.12300323  0.70225424  1.0
  C  C95  1  0.44162393  0.87699679  0.70225532  1.0
  C  C96  1  0.55837062  0.37699612  0.20225405  1.0
  C  C97  1  0.94162907  0.62300488  0.20225442  1.0
  C  C98  1  0.94162766  0.87699554  0.29774565  1.0
  C  C99  1  0.55837073  0.12300362  0.29774545  1.0
  C  C100  1  0.33815556  0.84920799  0.90559108  1.0
  C  C101  1  0.16184473  0.15079239  0.90559043  1.0
  C  C102  1  0.16184463  0.34920716  0.59440884  1.0
  C  C103  1  0.33815560  0.65079229  0.59440875  1.0
  C  C104  1  0.66184443  0.15079160  0.09440881  1.0
  C  C105  1  0.83815525  0.84920883  0.09440858  1.0
  C  C106  1  0.83815535  0.65078998  0.40559149  1.0
  C  C107  1  0.66184572  0.34920730  0.40559158  1.0
  C  C108  1  0.45000390  0.94762271  0.99110061  1.0
  C  C109  1  0.04999641  0.05237830  0.99110089  1.0
  C  C110  1  0.04999888  0.44762291  0.50889882  1.0
  C  C111  1  0.45000266  0.55237591  0.50889879  1.0
  C  C112  1  0.54999875  0.05237770  0.00889841  1.0
  C  C113  1  0.95000224  0.94762292  0.00889856  1.0
  C  C114  1  0.95000110  0.55238077  0.49110195  1.0
  C  C115  1  0.54999999  0.44762041  0.49110198  1.0
  Br  Br116  1  0.98285473  0.59159413  0.69821501  1.0
  Br  Br117  1  0.51714640  0.40840576  0.69821506  1.0
  Br  Br118  1  0.51714786  0.09159369  0.80178510  1.0
  Br  Br119  1  0.98285329  0.90840679  0.80178484  1.0
  Br  Br120  1  0.01714658  0.40840628  0.30178488  1.0
  Br  Br121  1  0.48285225  0.59159465  0.30178439  1.0
  Br  Br122  1  0.48284946  0.90840508  0.19821392  1.0
  Br  Br123  1  0.01714802  0.09159443  0.19821549  1.0
  N  N124  1  0.61972730  0.60988392  0.80274595  1.0
  N  N125  1  0.88027118  0.39011656  0.80274646  1.0
  N  N126  1  0.88026994  0.10988360  0.69725371  1.0
  N  N127  1  0.61972586  0.89011629  0.69725433  1.0
  N  N128  1  0.38027135  0.39011486  0.19725350  1.0
  N  N129  1  0.11973013  0.60988466  0.19725343  1.0
  N  N130  1  0.11973004  0.89011517  0.30274706  1.0
  N  N131  1  0.38027146  0.10988412  0.30274688  1.0
  N  N132  1  0.44377322  0.93393487  0.93257204  1.0
  N  N133  1  0.05622708  0.06606545  0.93257144  1.0
  N  N134  1  0.05622824  0.43393412  0.56742783  1.0
  N  N135  1  0.44377332  0.56606456  0.56742779  1.0
  N  N136  1  0.55622810  0.06606472  0.06742829  1.0
  N  N137  1  0.94377424  0.93393577  0.06742757  1.0
  N  N138  1  0.94377308  0.56606465  0.43257162  1.0
  N  N139  1  0.55622800  0.43393421  0.43257210  1.0
  O  O140  1  0.38249772  0.88554297  0.02815847  1.0
  O  O141  1  0.11750239  0.11445692  0.02815784  1.0
  O  O142  1  0.11750500  0.38554294  0.47184122  1.0
  O  O143  1  0.38249653  0.61445514  0.47184115  1.0
  O  O144  1  0.61750359  0.11445661  0.97184186  1.0
  O  O145  1  0.88249892  0.88554430  0.97184117  1.0
  O  O146  1  0.88249765  0.61445501  0.52815823  1.0
  O  O147  1  0.61750211  0.38554281  0.52815830  1.0
