# generated using pymatgen
data_AlH5C8O7
_symmetry_space_group_name_H-M   'P 1'
_cell_length_a   6.77003039
_cell_length_b   13.65272772
_cell_length_c   16.31467167
_cell_angle_alpha   89.94155534
_cell_angle_beta   89.33024078
_cell_angle_gamma   89.27369010
_symmetry_Int_Tables_number   1
_chemical_formula_structural   AlH5C8O7
_chemical_formula_sum   'Al4 H20 C32 O28'
_cell_volume   1507.73026457
_cell_formula_units_Z   4
loop_
 _symmetry_equiv_pos_site_id
 _symmetry_equiv_pos_as_xyz
  1  'x, y, z'
loop_
 _atom_site_type_symbol
 _atom_site_label
 _atom_site_symmetry_multiplicity
 _atom_site_fract_x
 _atom_site_fract_y
 _atom_site_fract_z
 _atom_site_occupancy
  Al  Al0  1  0.00956191  0.99766967  0.50090266  1.0
  Al  Al1  1  0.50961447  0.00240980  0.49889649  1.0
  Al  Al2  1  0.99040007  0.49759006  0.00110137  1.0
  Al  Al3  1  0.49044491  0.50231884  0.99909160  1.0
  H  H4  1  0.26367121  0.86877318  0.49951529  1.0
  H  H5  1  0.76189432  0.13116645  0.50244118  1.0
  H  H6  1  0.23635289  0.63121888  0.00049940  1.0
  H  H7  1  0.73813657  0.36882389  0.99756866  1.0
  H  H8  1  0.42809476  0.69655912  0.80840160  1.0
  H  H9  1  0.07192130  0.80348649  0.69161713  1.0
  H  H10  1  0.92969653  0.30091146  0.18928169  1.0
  H  H11  1  0.57035035  0.19908683  0.31072958  1.0
  H  H12  1  0.56735520  0.30290898  0.80971821  1.0
  H  H13  1  0.93268183  0.19709380  0.69026157  1.0
  H  H14  1  0.42682451  0.70109739  0.19292003  1.0
  H  H15  1  0.07310853  0.79883779  0.30711208  1.0
  H  H16  1  0.42656000  0.86184420  0.64208079  1.0
  H  H17  1  0.07343266  0.63818903  0.85793311  1.0
  H  H18  1  0.92505322  0.13553261  0.35552375  1.0
  H  H19  1  0.57495251  0.36446435  0.14447291  1.0
  H  H20  1  0.58207128  0.13692497  0.64459177  1.0
  H  H21  1  0.91795535  0.36309250  0.85537823  1.0
  H  H22  1  0.42694166  0.86744886  0.35737384  1.0
  H  H23  1  0.07298832  0.63253324  0.14261903  1.0
  C  C24  1  0.76469550  0.88351024  0.38665108  1.0
  C  C25  1  0.76190021  0.88254441  0.61255636  1.0
  C  C26  1  0.24914573  0.11645781  0.61320925  1.0
  C  C27  1  0.25948160  0.11742913  0.38742836  1.0
  C  C28  1  0.73526765  0.61645916  0.11336041  1.0
  C  C29  1  0.73809781  0.61747255  0.88745968  1.0
  C  C30  1  0.25089050  0.38354951  0.88677084  1.0
  C  C31  1  0.24053841  0.38255327  0.11256489  1.0
  C  C32  1  0.75380501  0.81509242  0.68319152  1.0
  C  C33  1  0.74612016  0.68494452  0.81683941  1.0
  C  C34  1  0.56978419  0.78458697  0.71719360  1.0
  C  C35  1  0.93016901  0.71544476  0.78284584  1.0
  C  C36  1  0.56927296  0.71982660  0.78324924  1.0
  C  C37  1  0.93066843  0.78021029  0.71678410  1.0
  C  C38  1  0.25264138  0.18495599  0.31682291  1.0
  C  C39  1  0.24733848  0.31504558  0.18317044  1.0
  C  C40  1  0.06951179  0.21387694  0.28144920  1.0
  C  C41  1  0.43049014  0.28613188  0.21854347  1.0
  C  C42  1  0.07019681  0.27866023  0.21540844  1.0
  C  C43  1  0.42980816  0.22133686  0.28458975  1.0
  C  C44  1  0.25142922  0.18434037  0.68351303  1.0
  C  C45  1  0.24859080  0.31566920  0.81646158  1.0
  C  C46  1  0.43267220  0.21462863  0.71848284  1.0
  C  C47  1  0.06735372  0.28538605  0.78148746  1.0
  C  C48  1  0.42789699  0.27994817  0.78409320  1.0
  C  C49  1  0.07212441  0.22006286  0.71588753  1.0
  C  C50  1  0.75549873  0.81570155  0.31639782  1.0
  C  C51  1  0.74447615  0.68427441  0.18361364  1.0
  C  C52  1  0.57074168  0.78772869  0.28292899  1.0
  C  C53  1  0.92921972  0.71225096  0.21709231  1.0
  C  C54  1  0.56876430  0.72236240  0.21740496  1.0
  C  C55  1  0.93118702  0.77759897  0.28261515  1.0
  O  O56  1  0.93014202  0.90794961  0.41587712  1.0
  O  O57  1  0.59468441  0.91190912  0.58272201  1.0
  O  O58  1  0.41973581  0.08825479  0.58397819  1.0
  O  O59  1  0.09208041  0.08706037  0.41635606  1.0
  O  O60  1  0.08563647  0.08943514  0.58400523  1.0
  O  O61  1  0.42593763  0.09280441  0.41703140  1.0
  O  O62  1  0.59623477  0.91438782  0.41587617  1.0
  O  O63  1  0.92884584  0.90804352  0.58374357  1.0
  O  O64  1  0.26286939  0.93976293  0.49961515  1.0
  O  O65  1  0.75922437  0.06027013  0.50020287  1.0
  O  O66  1  0.90374463  0.58559399  0.08412240  1.0
  O  O67  1  0.57116408  0.59196974  0.91626999  1.0
  O  O68  1  0.41441145  0.41057947  0.91597666  1.0
  O  O69  1  0.07409413  0.40717795  0.08296672  1.0
  O  O70  1  0.08029892  0.41174961  0.91600619  1.0
  O  O71  1  0.40793412  0.41290667  0.08362066  1.0
  O  O72  1  0.56980641  0.59201617  0.08413441  1.0
  O  O73  1  0.90530052  0.58810349  0.91728365  1.0
  O  O74  1  0.23714287  0.56023283  0.00039712  1.0
  O  O75  1  0.74078300  0.43972761  0.99979048  1.0
  O  O76  1  0.39362838  0.81629388  0.68787480  1.0
  O  O77  1  0.10640396  0.68375094  0.81214206  1.0
  O  O78  1  0.89323903  0.18064740  0.30934846  1.0
  O  O79  1  0.60678280  0.31935463  0.19065428  1.0
  O  O80  1  0.61128044  0.18215870  0.69067453  1.0
  O  O81  1  0.88874765  0.31786683  0.80928872  1.0
  O  O82  1  0.39446995  0.82203109  0.31187864  1.0
  O  O83  1  0.10547923  0.67794802  0.18811786  1.0
