# generated using pymatgen
data_Zn4H4C24S6Cl4O19
_symmetry_space_group_name_H-M   'P 1'
_cell_length_a   19.58661921
_cell_length_b   19.71916344
_cell_length_c   33.20653821
_cell_angle_alpha   79.09800394
_cell_angle_beta   79.49110771
_cell_angle_gamma   64.07985487
_symmetry_Int_Tables_number   1
_chemical_formula_structural   Zn4H4C24S6Cl4O19
_chemical_formula_sum   'Zn16 H16 C96 S24 Cl16 O76'
_cell_volume   11254.61877588
_cell_formula_units_Z   4
loop_
 _symmetry_equiv_pos_site_id
 _symmetry_equiv_pos_as_xyz
  1  'x, y, z'
loop_
 _atom_site_type_symbol
 _atom_site_label
 _atom_site_symmetry_multiplicity
 _atom_site_fract_x
 _atom_site_fract_y
 _atom_site_fract_z
 _atom_site_occupancy
  Zn  Zn0  1  0.05657118  0.39791608  0.47969973  1.0
  Zn  Zn1  1  0.98749042  0.48005228  0.56081920  1.0
  Zn  Zn2  1  0.05634946  0.56234055  0.48144715  1.0
  Zn  Zn3  1  0.90208060  0.55611383  0.47910977  1.0
  Zn  Zn4  1  0.69076142  0.34921501  0.27273830  1.0
  Zn  Zn5  1  0.68795503  0.19032282  0.26727872  1.0
  Zn  Zn6  1  0.77145138  0.26512028  0.19047782  1.0
  Zn  Zn7  1  0.84836146  0.19574158  0.27071165  1.0
  Zn  Zn8  1  0.26841644  0.76431615  0.68910113  1.0
  Zn  Zn9  1  0.35271493  0.69706328  0.76940886  1.0
  Zn  Zn10  1  0.19036639  0.84735939  0.77141335  1.0
  Zn  Zn11  1  0.19033199  0.69096980  0.76868199  1.0
  Zn  Zn12  1  0.55621080  0.06547673  0.98277141  1.0
  Zn  Zn13  1  0.40177075  0.05610183  0.97570597  1.0
  Zn  Zn14  1  0.55756041  0.90075761  0.98067229  1.0
  Zn  Zn15  1  0.48176734  0.98142386  0.05938683  1.0
  H  H16  1  0.74809672  0.45067556  0.34943026  1.0
  H  H17  1  0.00047716  0.30131770  0.40053619  1.0
  H  H18  1  0.19982844  0.70132383  0.60137098  1.0
  H  H19  1  0.04955418  0.54893232  0.64894823  1.0
  H  H20  1  0.64917579  0.14842849  0.04921343  1.0
  H  H21  1  0.60147975  0.10023986  0.20099412  1.0
  H  H22  1  0.30197680  0.99888610  0.90072883  1.0
  H  H23  1  0.44909594  0.74948978  0.84911390  1.0
  H  H24  1  0.84313687  0.57279684  0.39967678  1.0
  H  H25  1  0.96449585  0.23808043  0.29145371  1.0
  H  H26  1  0.06958210  0.68718812  0.51361929  1.0
  H  H27  1  0.06336362  0.67728404  0.73713274  1.0
  H  H28  1  0.79520937  0.17705440  0.12160894  1.0
  H  H29  1  0.56973558  0.95682982  0.12936021  1.0
  H  H30  1  0.17750649  0.90626609  0.84992449  1.0
  H  H31  1  0.51658918  0.78448171  0.95783759  1.0
  C  C32  1  0.06251212  0.31397079  0.56311738  1.0
  C  C33  1  0.06572914  0.57369717  0.56814109  1.0
  C  C34  1  0.18171911  0.44057405  0.43937578  1.0
  C  C35  1  0.93515628  0.68646130  0.43806994  1.0
  C  C36  1  0.93346505  0.43373902  0.42888504  1.0
  C  C37  1  0.82050625  0.55915341  0.56193320  1.0
  C  C38  1  0.56364612  0.30996169  0.31204030  1.0
  C  C39  1  0.68735361  0.17569520  0.18078265  1.0
  C  C40  1  0.68988109  0.43071634  0.18856144  1.0
  C  C41  1  0.93776961  0.18678352  0.18898500  1.0
  C  C42  1  0.82017275  0.32297776  0.31621490  1.0
  C  C43  1  0.81150114  0.06857799  0.31106130  1.0
  C  C44  1  0.43550959  0.69024450  0.68604858  1.0
  C  C45  1  0.31576251  0.81815466  0.82055103  1.0
  C  C46  1  0.18758814  0.93045128  0.68869965  1.0
  C  C47  1  0.06377129  0.80900594  0.81292916  1.0
  C  C48  1  0.17630844  0.68381263  0.68220722  1.0
  C  C49  1  0.31573541  0.56859690  0.80994210  1.0
  C  C50  1  0.43460593  0.18734859  0.93780029  1.0
  C  C51  1  0.43167171  0.92684013  0.93281953  1.0
  C  C52  1  0.68135445  0.94301024  0.93979248  1.0
  C  C53  1  0.56133557  0.81475248  0.06311614  1.0
  C  C54  1  0.57136484  0.06484997  0.06949207  1.0
  C  C55  1  0.31671977  0.06085373  0.05885728  1.0
  C  C56  1  0.89977539  0.40673895  0.40142918  1.0
  C  C57  1  0.85063780  0.34710241  0.34670286  1.0
  C  C58  1  0.82723760  0.44804058  0.38721125  1.0
  C  C59  1  0.92190282  0.30450782  0.36222424  1.0
  C  C60  1  0.80410245  0.41806605  0.36024940  1.0
  C  C61  1  0.94526862  0.33473811  0.38892242  1.0
  C  C62  1  0.09783519  0.60154272  0.59592557  1.0
  C  C63  1  0.14851795  0.65170725  0.65441207  1.0
  C  C64  1  0.14167620  0.64416320  0.58278239  1.0
  C  C65  1  0.10653119  0.60724606  0.66755695  1.0
  C  C66  1  0.16596436  0.66854835  0.61190062  1.0
  C  C67  1  0.08187754  0.58324056  0.63842547  1.0
  C  C68  1  0.30317877  0.45513666  0.40138233  1.0
  C  C69  1  0.44214339  0.29563557  0.35010800  1.0
  C  C70  1  0.25630012  0.41663529  0.41451109  1.0
  C  C71  1  0.48892053  0.33416379  0.33679833  1.0
  C  C72  1  0.37421112  0.33999487  0.37350873  1.0
  C  C73  1  0.37084194  0.41093535  0.37768351  1.0
  C  C74  1  0.72863410  0.57621902  0.62964269  1.0
  C  C75  1  0.52727423  0.67172205  0.61814013  1.0
  C  C76  1  0.74597969  0.58318014  0.58683065  1.0
  C  C77  1  0.50989254  0.66468626  0.66094400  1.0
  C  C78  1  0.60720229  0.63889505  0.60673226  1.0
  C  C79  1  0.64874680  0.60811630  0.64100648  1.0
  C  C80  1  0.07879203  0.22234598  0.63121636  1.0
  C  C81  1  0.17346642  0.02212441  0.62074869  1.0
  C  C82  1  0.08719275  0.23974776  0.58839547  1.0
  C  C83  1  0.16494567  0.00471938  0.66357372  1.0
  C  C84  1  0.14249429  0.10160294  0.60902335  1.0
  C  C85  1  0.11086461  0.14282281  0.64302054  1.0
  C  C86  1  0.84118914  0.80381886  0.39594673  1.0
  C  C87  1  0.90557591  0.95128524  0.35326724  1.0
  C  C88  1  0.90967017  0.76097236  0.41318795  1.0
  C  C89  1  0.83725602  0.99388288  0.33582728  1.0
  C  C90  1  0.90701605  0.88169896  0.37500952  1.0
  C  C91  1  0.83998355  0.87307325  0.37388015  1.0
  C  C92  1  0.65678000  0.15102133  0.15057977  1.0
  C  C93  1  0.59712721  0.09440418  0.09964172  1.0
  C  C94  1  0.66876301  0.16543452  0.10719025  1.0
  C  C95  1  0.58290618  0.08223181  0.14302023  1.0
  C  C96  1  0.63932814  0.13700807  0.08263954  1.0
  C  C97  1  0.61284244  0.11014584  0.16757212  1.0
  C  C98  1  0.67414429  0.52254134  0.12041361  1.0
  C  C99  1  0.57673068  0.72282610  0.13109231  1.0
  C  C100  1  0.66541813  0.50494115  0.16323099  1.0
  C  C101  1  0.58584217  0.74045983  0.08829454  1.0
  C  C102  1  0.60931746  0.64327429  0.14278296  1.0
  C  C103  1  0.64203730  0.60217260  0.10879192  1.0
  C  C104  1  0.08546811  0.12412086  0.17715821  1.0
  C  C105  1  0.16905822  0.12421813  0.07083926  1.0
  C  C106  1  0.01252735  0.16185819  0.16437503  1.0
  C  C107  1  0.24199011  0.08680917  0.08360470  1.0
  C  C108  1  0.11197542  0.13816795  0.10504366  1.0
  C  C109  1  0.14261040  0.11082580  0.14294944  1.0
  C  C110  1  0.34353083  0.85019518  0.84843573  1.0
  C  C111  1  0.40608131  0.89669728  0.90291243  1.0
  C  C112  1  0.30261390  0.92170903  0.86294821  1.0
  C  C113  1  0.44789131  0.82609775  0.88749099  1.0
  C  C114  1  0.33409848  0.94356906  0.88976257  1.0
  C  C115  1  0.41625311  0.80404161  0.86084335  1.0
  C  C116  1  0.40833476  0.45103091  0.85277625  1.0
  C  C117  1  0.34194668  0.30495560  0.89501021  1.0
  C  C118  1  0.34079635  0.49386614  0.83468901  1.0
  C  C119  1  0.40966118  0.26192806  0.91291744  1.0
  C  C120  1  0.34169347  0.37385171  0.87286957  1.0
  C  C121  1  0.40879073  0.38193749  0.87463611  1.0
  C  C122  1  0.94096654  0.79631237  0.85024161  1.0
  C  C123  1  0.80390478  0.95576721  0.90211486  1.0
  C  C124  1  0.98895335  0.83368727  0.83756678  1.0
  C  C125  1  0.75579272  0.91854237  0.91468369  1.0
  C  C126  1  0.87126809  0.91122901  0.87840054  1.0
  C  C127  1  0.87316617  0.84117427  0.87361433  1.0
  S  S128  1  0.29487296  0.32703337  0.39796331  1.0
  S  S129  1  0.44988301  0.42410851  0.35290509  1.0
  S  S130  1  0.66496953  0.62805495  0.56065433  1.0
  S  S131  1  0.59092215  0.61813597  0.68705815  1.0
  S  S132  1  0.13411775  0.15924182  0.56275247  1.0
  S  S133  1  0.11984707  0.08519082  0.68930123  1.0
  S  S134  1  0.97206490  0.80532323  0.40244857  1.0
  S  S135  1  0.77542080  0.94894763  0.34592925  1.0
  S  S136  1  0.61820065  0.58536844  0.18899935  1.0
  S  S137  1  0.63403150  0.66001778  0.06259142  1.0
  S  S138  1  0.01391330  0.18091092  0.11082019  1.0
  S  S139  1  0.24070851  0.06931344  0.13715547  1.0
  S  S140  1  0.27839360  0.44961236  0.84420803  1.0
  S  S141  1  0.47256290  0.30564017  0.90276161  1.0
  S  S142  1  0.95121157  0.92322936  0.85411513  1.0
  S  S143  1  0.79265861  0.82973773  0.89738799  1.0
  S  S144  1  0.75645844  0.53696932  0.40382366  1.0
  S  S145  1  0.98549988  0.20826856  0.35296418  1.0
  S  S146  1  0.17558744  0.66569187  0.52975746  1.0
  S  S147  1  0.08613178  0.57216877  0.72056025  1.0
  S  S148  1  0.71497279  0.22497874  0.07950358  1.0
  S  S149  1  0.52212336  0.03728505  0.17064697  1.0
  S  S150  1  0.21245933  0.99280610  0.84690125  1.0
  S  S151  1  0.54466979  0.76182015  0.89684725  1.0
  Cl  Cl152  1  0.28540756  0.54321995  0.41131042  1.0
  Cl  Cl153  1  0.46002861  0.20715208  0.34050564  1.0
  Cl  Cl154  1  0.79187908  0.53505472  0.66550778  1.0
  Cl  Cl155  1  0.46395265  0.71332865  0.58235600  1.0
  Cl  Cl156  1  0.03654406  0.28505153  0.66666667  1.0
  Cl  Cl157  1  0.21532155  0.95935840  0.58525628  1.0
  Cl  Cl158  1  0.76686474  0.77934792  0.39926791  1.0
  Cl  Cl159  1  0.97976154  0.97579024  0.34999421  1.0
  Cl  Cl160  1  0.71689668  0.45992905  0.08502647  1.0
  Cl  Cl161  1  0.53385100  0.78555398  0.16651295  1.0
  Cl  Cl162  1  0.10730028  0.09668712  0.22669255  1.0
  Cl  Cl163  1  0.14692682  0.15195532  0.02130737  1.0
  Cl  Cl164  1  0.48306043  0.47477031  0.85009919  1.0
  Cl  Cl165  1  0.26704209  0.28146762  0.89785029  1.0
  Cl  Cl166  1  0.95736348  0.70897651  0.83959091  1.0
  Cl  Cl167  1  0.78770304  0.04329220  0.91249567  1.0
  O  O168  1  0.00137805  0.49759576  0.50022899  1.0
  O  O169  1  0.08131282  0.31295801  0.52405462  1.0
  O  O170  1  0.04921845  0.51815325  0.58358496  1.0
  O  O171  1  0.15550590  0.50420163  0.45351948  1.0
  O  O172  1  0.02469272  0.37266203  0.58178399  1.0
  O  O173  1  0.14954580  0.39456119  0.44462163  1.0
  O  O174  1  0.05487980  0.60800468  0.53134446  1.0
  O  O175  1  0.00363492  0.65864832  0.44773637  1.0
  O  O176  1  0.90758983  0.50546540  0.43047915  1.0
  O  O177  1  0.88836792  0.65539008  0.44818511  1.0
  O  O178  1  0.98749322  0.38323038  0.44813610  1.0
  O  O179  1  0.87983994  0.53289324  0.58079950  1.0
  O  O180  1  0.81872316  0.56764686  0.52275000  1.0
  O  O181  1  0.74792033  0.25116020  0.25056886  1.0
  O  O182  1  0.59196337  0.35937776  0.30281325  1.0
  O  O183  1  0.65383315  0.17804150  0.21724289  1.0
  O  O184  1  0.72053950  0.37172328  0.16977637  1.0
  O  O185  1  0.59402403  0.24281445  0.30192712  1.0
  O  O186  1  0.67783648  0.43235483  0.22777766  1.0
  O  O187  1  0.74587531  0.19094378  0.16870564  1.0
  O  O188  1  0.87976535  0.22440172  0.16865884  1.0
  O  O189  1  0.86770760  0.27329964  0.29286867  1.0
  O  O190  1  0.93584704  0.16944724  0.22807833  1.0
  O  O191  1  0.74864976  0.35506143  0.31469921  1.0
  O  O192  1  0.74822129  0.09094719  0.29590804  1.0
  O  O193  1  0.85337513  0.10469096  0.30680780  1.0
  O  O194  1  0.25122680  0.74995869  0.74970220  1.0
  O  O195  1  0.37599080  0.72767360  0.66737960  1.0
  O  O196  1  0.36649537  0.76604061  0.80065711  1.0
  O  O197  1  0.17720255  0.93167244  0.72794291  1.0
  O  O198  1  0.43730036  0.67238988  0.72520657  1.0
  O  O199  1  0.21466160  0.87182758  0.66980761  1.0
  O  O200  1  0.24351076  0.84331619  0.81918448  1.0
  O  O201  1  0.09218029  0.85836957  0.80329179  1.0
  O  O202  1  0.14290551  0.69278731  0.71914391  1.0
  O  O203  1  0.09465598  0.74155271  0.80312953  1.0
  O  O204  1  0.23083981  0.70214188  0.66666667  1.0
  O  O205  1  0.35843482  0.60392951  0.80491138  1.0
  O  O206  1  0.25142232  0.59172492  0.79569602  1.0
  O  O207  1  0.49960067  0.00133449  0.99925753  1.0
  O  O208  1  0.50239509  0.15998163  0.94834306  1.0
  O  O209  1  0.39928864  0.99803916  0.93371248  1.0
  O  O210  1  0.64869970  0.89745470  0.94473988  1.0
  O  O211  1  0.38793589  0.15610913  0.94683253  1.0
  O  O212  1  0.65594836  0.00591524  0.95455632  1.0
  O  O213  1  0.48239152  0.87991422  0.95620857  1.0
  O  O214  1  0.58224876  0.81397093  0.02415481  1.0
  O  O215  1  0.55596286  0.00669263  0.08172183  1.0
  O  O216  1  0.52151850  0.87364629  0.08143438  1.0
  O  O217  1  0.56840210  0.09873638  0.03299751  1.0
  O  O218  1  0.31805636  0.06712546  0.01980926  1.0
  O  O219  1  0.37466755  0.03318122  0.07939849  1.0
  O  O220  1  0.79600883  0.59322225  0.38518401  1.0
  O  O221  1  0.69137298  0.56120071  0.38199160  1.0
  O  O222  1  0.74892834  0.52783349  0.44823289  1.0
  O  O223  1  0.01261227  0.21864657  0.30493635  1.0
  O  O224  1  0.05184096  0.18522869  0.37355865  1.0
  O  O225  1  0.94060043  0.16465010  0.36114299  1.0
  O  O226  1  0.09807541  0.72002778  0.51063433  1.0
  O  O227  1  0.21578497  0.71177410  0.52888082  1.0
  O  O228  1  0.21168663  0.59547616  0.51185503  1.0
  O  O229  1  0.03092528  0.64850864  0.73970026  1.0
  O  O230  1  0.04046020  0.53158257  0.72121257  1.0
  O  O231  1  0.15699573  0.53659275  0.73862261  1.0
  O  O232  1  0.80015160  0.17827354  0.09080456  1.0
  O  O233  1  0.71829092  0.22357806  0.03618429  1.0
  O  O234  1  0.67953505  0.29565927  0.09694519  1.0
  O  O235  1  0.56854275  0.95234196  0.16011734  1.0
  O  O236  1  0.52350806  0.03409750  0.21397418  1.0
  O  O237  1  0.45116300  0.07289892  0.15266094  1.0
  O  O238  1  0.15656841  0.95248750  0.86478631  1.0
  O  O239  1  0.18841115  0.05599259  0.86957217  1.0
  O  O240  1  0.22058817  0.00280647  0.80247659  1.0
  O  O241  1  0.53499962  0.73618281  0.94513829  1.0
  O  O242  1  0.56581680  0.69557001  0.87722351  1.0
  O  O243  1  0.58961006  0.80543276  0.88762484  1.0
