# generated using pymatgen
data_Zn4C40N4O21F16
_symmetry_space_group_name_H-M   'P 1'
_cell_length_a   23.66165227
_cell_length_b   23.66238993
_cell_length_c   23.66040365
_cell_angle_alpha   65.87148278
_cell_angle_beta   72.80389935
_cell_angle_gamma   107.19268868
_symmetry_Int_Tables_number   1
_chemical_formula_structural   Zn4C40N4O21F16
_chemical_formula_sum   'Zn8 C80 N8 O42 F32'
_cell_volume   10146.68054887
_cell_formula_units_Z   2
loop_
 _symmetry_equiv_pos_site_id
 _symmetry_equiv_pos_as_xyz
  1  'x, y, z'
loop_
 _atom_site_type_symbol
 _atom_site_label
 _atom_site_symmetry_multiplicity
 _atom_site_fract_x
 _atom_site_fract_y
 _atom_site_fract_z
 _atom_site_occupancy
  Zn  Zn0  1  0.05694458  0.10033114  0.45832420  1.0
  Zn  Zn1  1  0.05693998  0.95661064  0.48473100  1.0
  Zn  Zn2  1  0.94305309  0.95831302  0.60034093  1.0
  Zn  Zn3  1  0.94306621  0.98475333  0.45660355  1.0
  Zn  Zn4  1  0.94135257  0.39967444  0.04338849  1.0
  Zn  Zn5  1  0.05866517  0.54340238  0.89965656  1.0
  Zn  Zn6  1  0.94134874  0.54168076  0.01525780  1.0
  Zn  Zn7  1  0.05864663  0.51525862  0.04168713  1.0
  C  C8  1  0.17774714  0.08886877  0.41113170  1.0
  C  C9  1  0.99999058  0.86400752  0.63599152  1.0
  C  C10  1  0.99998158  0.09052578  0.59053480  1.0
  C  C11  1  0.82225165  0.91113668  0.58887917  1.0
  C  C12  1  0.00000893  0.13599957  0.36401045  1.0
  C  C13  1  0.99998448  0.90945763  0.40948554  1.0
  C  C14  1  0.00002751  0.41114858  0.91110524  1.0
  C  C15  1  0.00001330  0.63599737  0.86399613  1.0
  C  C16  1  0.81894431  0.40947106  0.09052909  1.0
  C  C17  1  0.99999936  0.58887959  0.08886866  1.0
  C  C18  1  0.99999219  0.36401028  0.13599494  1.0
  C  C19  1  0.18106076  0.59054238  0.90946274  1.0
  C  C20  1  0.00000664  0.19459335  0.30541292  1.0
  C  C21  1  0.99999415  0.30541388  0.19459194  1.0
  C  C22  1  0.95652310  0.18038265  0.27796580  1.0
  C  C23  1  0.04165523  0.31962250  0.22386380  1.0
  C  C24  1  0.95833930  0.23448593  0.22203865  1.0
  C  C25  1  0.04348711  0.26551966  0.27614244  1.0
  C  C26  1  0.99999406  0.80541059  0.69458615  1.0
  C  C27  1  0.00001266  0.69459374  0.80540172  1.0
  C  C28  1  0.95651146  0.77613224  0.76552561  1.0
  C  C29  1  0.04166951  0.72204677  0.73446578  1.0
  C  C30  1  0.95834789  0.72385631  0.81962699  1.0
  C  C31  1  0.04348455  0.77797226  0.68036371  1.0
  C  C32  1  0.00000502  0.37358453  0.87354522  1.0
  C  C33  1  0.95495989  0.30126879  0.90884923  1.0
  C  C34  1  0.95501321  0.26629625  0.87379964  1.0
  C  C35  1  0.99999481  0.30160361  0.80156436  1.0
  C  C36  1  0.04498414  0.37383035  0.76624900  1.0
  C  C37  1  0.04504093  0.40887689  0.80122323  1.0
  C  C38  1  0.99998596  0.26622323  0.76619864  1.0
  C  C39  1  0.99997381  0.23553799  0.73555235  1.0
  C  C40  1  0.99998220  0.20016908  0.70018236  1.0
  C  C41  1  0.95864387  0.12689447  0.73649596  1.0
  C  C42  1  0.95863628  0.09179986  0.70155468  1.0
  C  C43  1  0.99995956  0.12810730  0.62812731  1.0
  C  C44  1  0.04128176  0.20153390  0.59180504  1.0
  C  C45  1  0.04129159  0.23647505  0.62689824  1.0
  C  C46  1  0.00000594  0.62645340  0.12642009  1.0
  C  C47  1  0.04505279  0.63620776  0.15368775  1.0
  C  C48  1  0.04499542  0.67119949  0.18871561  1.0
  C  C49  1  0.00000366  0.69843696  0.19840035  1.0
  C  C50  1  0.95501499  0.68874973  0.17116408  1.0
  C  C51  1  0.95496343  0.65372809  0.13616687  1.0
  C  C52  1  0.99999879  0.73380094  0.23377901  1.0
  C  C53  1  0.99998795  0.76445347  0.26445336  1.0
  C  C54  1  0.99998483  0.79981649  0.29983091  1.0
  C  C55  1  0.04129876  0.80482423  0.33179761  1.0
  C  C56  1  0.04128709  0.83975228  0.36690419  1.0
  C  C57  1  0.99995790  0.87184834  0.37192380  1.0
  C  C58  1  0.95862667  0.86682341  0.33982918  1.0
  C  C59  1  0.95864258  0.83174718  0.30487221  1.0
  C  C60  1  0.74377073  0.37188867  0.12811397  1.0
  C  C61  1  0.70665903  0.29846788  0.16022506  1.0
  C  C62  1  0.63662440  0.26352502  0.19516199  1.0
  C  C63  1  0.59965374  0.29983344  0.20018091  1.0
  C  C64  1  0.63662195  0.37310934  0.16821959  1.0
  C  C65  1  0.70665671  0.40819939  0.13312030  1.0
  C  C66  1  0.52891504  0.26445812  0.23556187  1.0
  C  C67  1  0.46757963  0.23377683  0.26623925  1.0
  C  C68  1  0.39683525  0.19839793  0.30161109  1.0
  C  C69  1  0.35991396  0.12617436  0.32884858  1.0
  C  C70  1  0.28989404  0.09112874  0.36384315  1.0
  C  C71  1  0.25287381  0.12642699  0.37358579  1.0
  C  C72  1  0.28989303  0.19873906  0.34631639  1.0
  C  C73  1  0.35991387  0.23370643  0.31129130  1.0
  C  C74  1  0.25623570  0.62814688  0.87187871  1.0
  C  C75  1  0.29335302  0.66025878  0.79844644  1.0
  C  C76  1  0.36338851  0.69518531  0.76350822  1.0
  C  C77  1  0.40035246  0.70018039  0.79982818  1.0
  C  C78  1  0.36337511  0.66822394  0.87311212  1.0
  C  C79  1  0.29334249  0.63313764  0.90820081  1.0
  C  C80  1  0.47108995  0.73555300  0.76445881  1.0
  C  C81  1  0.53242236  0.76622589  0.73378064  1.0
  C  C82  1  0.60316918  0.80160532  0.69840490  1.0
  C  C83  1  0.64009467  0.82884474  0.62617159  1.0
  C  C84  1  0.71011501  0.86384280  0.59112882  1.0
  C  C85  1  0.74712835  0.87357993  0.62643405  1.0
  C  C86  1  0.71009999  0.84630218  0.69875536  1.0
  C  C87  1  0.64007953  0.81127573  0.73372421  1.0
  N  N88  1  0.90592719  0.10658618  0.30881435  1.0
  N  N89  1  0.08460378  0.39341912  0.20066282  1.0
  N  N90  1  0.91539081  0.21472996  0.19119392  1.0
  N  N91  1  0.09408742  0.28527652  0.29933574  1.0
  N  N92  1  0.90591182  0.79932671  0.78529079  1.0
  N  N93  1  0.08462155  0.69120720  0.71470118  1.0
  N  N94  1  0.91539897  0.70064680  0.89343298  1.0
  N  N95  1  0.09407959  0.80882844  0.60655695  1.0
  O  O96  1  0.00000354  0.00000396  0.50000082  1.0
  O  O97  1  0.14880485  0.12644698  0.39663233  1.0
  O  O98  1  0.01915965  0.86820370  0.57772850  1.0
  O  O99  1  0.94783888  0.03163169  0.62038340  1.0
  O  O100  1  0.14879452  0.02234495  0.45456776  1.0
  O  O101  1  0.05214445  0.12037138  0.53165130  1.0
  O  O102  1  0.98081166  0.90308659  0.65097970  1.0
  O  O103  1  0.85119550  0.89663005  0.62645613  1.0
  O  O104  1  0.98084006  0.07774319  0.36820293  1.0
  O  O105  1  0.85120731  0.95458844  0.52235376  1.0
  O  O106  1  0.01918792  0.15097648  0.40309316  1.0
  O  O107  1  0.05214261  0.93176491  0.41620911  1.0
  O  O108  1  0.94783620  0.91620835  0.43178636  1.0
  O  O109  1  0.00000290  0.50000330  0.99999667  1.0
  O  O110  1  0.97694131  0.37357455  0.97763295  1.0
  O  O111  1  0.05408069  0.63180241  0.84901601  1.0
  O  O112  1  0.84798700  0.46836083  0.08379111  1.0
  O  O113  1  0.02311477  0.47766730  0.87352819  1.0
  O  O114  1  0.84798697  0.37962738  0.06822331  1.0
  O  O115  1  0.94594796  0.59689919  0.92225807  1.0
  O  O116  1  0.97692423  0.60337189  0.04541919  1.0
  O  O117  1  0.05405297  0.42227221  0.09691305  1.0
  O  O118  1  0.02306642  0.54542835  0.10337485  1.0
  O  O119  1  0.94592767  0.34902729  0.13179616  1.0
  O  O120  1  0.15203266  0.56824420  0.87960612  1.0
  O  O121  1  0.15200960  0.58379230  0.96836641  1.0
  O  O122  1  0.85970186  0.07667094  0.36877159  1.0
  O  O123  1  0.91433516  0.08353244  0.27057672  1.0
  O  O124  1  0.05456297  0.42332642  0.21698275  1.0
  O  O125  1  0.14589617  0.41647723  0.16919196  1.0
  O  O126  1  0.94542878  0.22845987  0.13123775  1.0
  O  O127  1  0.85409854  0.18490140  0.22943187  1.0
  O  O128  1  0.14031300  0.27155083  0.28301996  1.0
  O  O129  1  0.08567893  0.31510182  0.33080088  1.0
  O  O130  1  0.85968577  0.78301698  0.77156529  1.0
  O  O131  1  0.91432238  0.83078352  0.81512406  1.0
  O  O132  1  0.05458361  0.63125725  0.72842985  1.0
  O  O133  1  0.14591304  0.72944298  0.68486668  1.0
  O  O134  1  0.94543882  0.71694790  0.92334847  1.0
  O  O135  1  0.85410665  0.66918574  0.91649551  1.0
  O  O136  1  0.14029969  0.86878016  0.57664437  1.0
  O  O137  1  0.08568160  0.77060319  0.58349088  1.0
  F  F138  1  0.90901329  0.26362966  0.97728239  1.0
  F  F139  1  0.09100746  0.47729648  0.76357621  1.0
  F  F140  1  0.08917689  0.40952607  0.69729675  1.0
  F  F141  1  0.91081764  0.19734959  0.90951200  1.0
  F  F142  1  0.91858283  0.08996576  0.80664061  1.0
  F  F143  1  0.08135196  0.30661385  0.58996617  1.0
  F  F144  1  0.08115133  0.24105507  0.52160791  1.0
  F  F145  1  0.91875506  0.02161111  0.74107164  1.0
  F  F146  1  0.09100971  0.61373607  0.14536892  1.0
  F  F147  1  0.90900044  0.64540232  0.11370605  1.0
  F  F148  1  0.91081428  0.71349357  0.17966495  1.0
  F  F149  1  0.08919250  0.67968968  0.21346675  1.0
  F  F150  1  0.08137021  0.77475379  0.32865026  1.0
  F  F151  1  0.91857161  0.82860812  0.27479961  1.0
  F  F152  1  0.91873432  0.89712045  0.34020966  1.0
  F  F153  1  0.08117020  0.84011397  0.39721325  1.0
  F  F154  1  0.73732947  0.25895010  0.15986074  1.0
  F  F155  1  0.73732728  0.47838472  0.10280602  1.0
  F  F156  1  0.60340519  0.41003435  0.17135330  1.0
  F  F157  1  0.60340778  0.19338398  0.22524891  1.0
  F  F158  1  0.39316371  0.09048075  0.32034797  1.0
  F  F159  1  0.39315250  0.30264902  0.28654582  1.0
  F  F160  1  0.25910407  0.23637710  0.35463233  1.0
  F  F161  1  0.25911407  0.02270774  0.38630685  1.0
  F  F162  1  0.26268429  0.65992115  0.75891979  1.0
  F  F163  1  0.26265760  0.60281789  0.97839687  1.0
  F  F164  1  0.39658310  0.67134840  0.91004662  1.0
  F  F165  1  0.39661207  0.72526998  0.69336191  1.0
  F  F166  1  0.60685470  0.82035220  0.59046541  1.0
  F  F167  1  0.60682960  0.78651983  0.80267716  1.0
  F  F168  1  0.74088027  0.85461087  0.73640199  1.0
  F  F169  1  0.74090860  0.88631918  0.52269644  1.0
