# generated using pymatgen
data_Zn2H49C48Br4N8O7
_symmetry_space_group_name_H-M   'P 1'
_cell_length_a   18.42928117
_cell_length_b   18.66878884
_cell_length_c   18.68269552
_cell_angle_alpha   104.23719824
_cell_angle_beta   110.93429003
_cell_angle_gamma   107.46270678
_symmetry_Int_Tables_number   1
_chemical_formula_structural   Zn2H49C48Br4N8O7
_chemical_formula_sum   'Zn4 H98 C96 Br8 N16 O14'
_cell_volume   5257.72766005
_cell_formula_units_Z   2
loop_
 _symmetry_equiv_pos_site_id
 _symmetry_equiv_pos_as_xyz
  1  'x, y, z'
loop_
 _atom_site_type_symbol
 _atom_site_label
 _atom_site_symmetry_multiplicity
 _atom_site_fract_x
 _atom_site_fract_y
 _atom_site_fract_z
 _atom_site_occupancy
  Zn  Zn0  1  0.10335366  0.60277001  0.00243180  1.0
  Zn  Zn1  1  0.90080083  0.39359674  0.01013429  1.0
  Zn  Zn2  1  0.89052892  0.50569171  0.89299030  1.0
  Zn  Zn3  1  0.11876509  0.48804832  0.12255284  1.0
  H  H4  1  0.64148461  0.12546757  0.35689209  1.0
  H  H5  1  0.32006235  0.77913786  0.53586255  1.0
  H  H6  1  0.42808242  0.79318017  0.57738057  1.0
  H  H7  1  0.44961074  0.85965525  0.72406654  1.0
  H  H8  1  0.36470037  0.75950555  0.67101312  1.0
  H  H9  1  0.34098493  0.84569763  0.68189243  1.0
  H  H10  1  0.74073595  0.26765081  0.15846092  1.0
  H  H11  1  0.82617799  0.35560119  0.24785762  1.0
  H  H12  1  0.82387656  0.18646578  0.18233804  1.0
  H  H13  1  0.91577229  0.27420638  0.26390646  1.0
  H  H14  1  0.83754419  0.28795836  0.34879173  1.0
  H  H15  1  0.60207584  0.02209224  0.34715983  1.0
  H  H16  1  0.84086104  0.19147368  0.32417502  1.0
  H  H17  1  0.74463110  0.19909856  0.26873652  1.0
  H  H18  1  0.19626257  0.65866067  0.87064196  1.0
  H  H19  1  0.10413423  0.58709527  0.77371728  1.0
  H  H20  1  0.28556900  0.59484199  0.83259511  1.0
  H  H21  1  0.19393924  0.52216809  0.73758060  1.0
  H  H22  1  0.17902525  0.63443639  0.69025214  1.0
  H  H23  1  0.28262320  0.63814760  0.71443116  1.0
  H  H24  1  0.26930973  0.70920958  0.78576836  1.0
  H  H25  1  0.84830343  0.76245702  0.98776882  1.0
  H  H26  1  0.78988226  0.15030778  0.44060941  1.0
  H  H27  1  0.82337423  0.72295608  0.05815037  1.0
  H  H28  1  0.72446651  0.64377693  0.86651016  1.0
  H  H29  1  0.70202533  0.59500405  0.93117905  1.0
  H  H30  1  0.66802449  0.70557556  0.99763872  1.0
  H  H31  1  0.60334030  0.66213115  0.88781154  1.0
  H  H32  1  0.69336372  0.75875016  0.93649087  1.0
  H  H33  1  0.30608893  0.34316754  0.08528906  1.0
  H  H34  1  0.36179435  0.41913033  0.05766927  1.0
  H  H35  1  0.16939798  0.30135191  0.95636275  1.0
  H  H36  1  0.22552371  0.37479282  0.92800350  1.0
  H  H37  1  0.75592840  0.05755032  0.45391997  1.0
  H  H38  1  0.32041759  0.30157019  0.91993491  1.0
  H  H39  1  0.20999958  0.23561859  0.85145653  1.0
  H  H40  1  0.26224832  0.22763085  0.94728039  1.0
  H  H41  1  0.72177935  0.35044468  0.03962120  1.0
  H  H42  1  0.69600359  0.42992379  0.01710165  1.0
  H  H43  1  0.72184257  0.40198488  0.17782749  1.0
  H  H44  1  0.69269375  0.47759679  0.15182323  1.0
  H  H45  1  0.55497331  0.36789342  0.02682375  1.0
  H  H46  1  0.56183687  0.35593990  0.11988929  1.0
  H  H47  1  0.58347111  0.29095043  0.05149026  1.0
  H  H48  1  0.70207972  0.97520740  0.30478236  1.0
  H  H49  1  0.38920874  0.76114678  0.01156331  1.0
  H  H50  1  0.41423025  0.67648643  0.01514293  1.0
  H  H51  1  0.42828395  0.80862040  0.16232756  1.0
  H  H52  1  0.44544947  0.72143461  0.16714146  1.0
  H  H53  1  0.56693303  0.76437454  0.13224239  1.0
  H  H54  1  0.58579757  0.84205149  0.22267179  1.0
  H  H55  1  0.55135127  0.85261422  0.12575595  1.0
  H  H56  1  0.16896903  0.90053090  0.15121524  1.0
  H  H57  1  0.25967585  0.89089515  0.21790039  1.0
  H  H58  1  0.09272856  0.86065348  0.23162822  1.0
  H  H59  1  0.80996518  0.04733136  0.34564960  1.0
  H  H60  1  0.18050367  0.84746697  0.29667393  1.0
  H  H61  1  0.27721481  0.99679727  0.34987219  1.0
  H  H62  1  0.18673059  0.98381105  0.36778065  1.0
  H  H63  1  0.19075376  0.01195326  0.28471581  1.0
  H  H64  1  0.63802701  0.11492832  0.77529782  1.0
  H  H65  1  0.66820205  0.10366340  0.87244731  1.0
  H  H66  1  0.59651899  0.18628019  0.91463787  1.0
  H  H67  1  0.57714584  0.21120842  0.82621996  1.0
  H  H68  1  0.47762116  0.06616712  0.73006371  1.0
  H  H69  1  0.44350247  0.10003089  0.80406971  1.0
  H  H70  1  0.72415641  0.06397465  0.28219741  1.0
  H  H71  1  0.49672062  0.03544582  0.81540555  1.0
  H  H72  1  0.19691085  0.64381790  0.42400453  1.0
  H  H73  1  0.08751469  0.58893930  0.39906177  1.0
  H  H74  1  0.14671969  0.69112205  0.30741142  1.0
  H  H75  1  0.03966587  0.64249941  0.28893371  1.0
  H  H76  1  0.08422133  0.73455604  0.43828795  1.0
  H  H77  1  0.10424610  0.79172764  0.37886461  1.0
  H  H78  1  0.19036907  0.78342824  0.45262496  1.0
  H  H79  1  0.76354207  0.26157017  0.61171692  1.0
  H  H80  1  0.87102939  0.30248734  0.62615861  1.0
  H  H81  1  0.37196778  0.93285224  0.59992836  1.0
  H  H82  1  0.74473146  0.38089308  0.58829857  1.0
  H  H83  1  0.85256971  0.42734759  0.60744350  1.0
  H  H84  1  0.82183985  0.31007700  0.48217943  1.0
  H  H85  1  0.75280570  0.35794312  0.45324876  1.0
  H  H86  1  0.71338038  0.26323626  0.46292849  1.0
  H  H87  1  0.52688434  0.15387908  0.37362828  1.0
  H  H88  1  0.48594884  0.17030113  0.44648472  1.0
  H  H89  1  0.37939720  0.11199668  0.25728257  1.0
  H  H90  1  0.34371314  0.13531916  0.33245638  1.0
  H  H91  1  0.45595477  0.28277441  0.39787328  1.0
  H  H92  1  0.47982063  0.94312175  0.63359394  1.0
  H  H93  1  0.38532293  0.25410344  0.29135757  1.0
  H  H94  1  0.49022002  0.25917348  0.32112501  1.0
  H  H95  1  0.71198622  0.97482461  0.70196444  1.0
  H  H96  1  0.71147217  0.06469370  0.68516342  1.0
  H  H97  1  0.72545659  0.92586149  0.57081531  1.0
  H  H98  1  0.73193883  0.01831281  0.55966597  1.0
  H  H99  1  0.86882901  0.09868708  0.69319566  1.0
  H  H100  1  0.87750304  0.02021856  0.62569360  1.0
  H  H101  1  0.86273962  0.00910235  0.71183696  1.0
  C  C102  1  0.06878613  0.72916788  0.92970436  1.0
  C  C103  1  0.56090912  0.96289559  0.45405580  1.0
  C  C104  1  0.47960518  0.03040210  0.42560028  1.0
  C  C105  1  0.56442541  0.97923172  0.54360342  1.0
  C  C106  1  0.32425107  0.81486423  0.28845175  1.0
  C  C107  1  0.65262894  0.20129373  0.69490667  1.0
  C  C108  1  0.46391224  0.95345838  0.50033307  1.0
  C  C109  1  0.58125418  0.05640413  0.46989946  1.0
  C  C110  1  0.46180141  0.93919270  0.41246057  1.0
  C  C111  1  0.58064300  0.07207429  0.55672878  1.0
  C  C112  1  0.39343145  0.87134523  0.34080438  1.0
  C  C113  1  0.95871271  0.27570610  0.91946180  1.0
  C  C114  1  0.63090393  0.14290149  0.63190801  1.0
  C  C115  1  0.98444224  0.43594291  0.33673983  1.0
  C  C116  1  0.00568024  0.42959990  0.68282293  1.0
  C  C117  1  0.92300677  0.38095291  0.17730717  1.0
  C  C118  1  0.06889199  0.49464174  0.83906352  1.0
  C  C119  1  0.99229037  0.43586606  0.40517925  1.0
  C  C120  1  0.00817913  0.42825269  0.61739249  1.0
  C  C121  1  0.99976083  0.43322657  0.47822778  1.0
  C  C122  1  0.00571561  0.42997039  0.54545472  1.0
  C  C123  1  0.40460875  0.56470455  0.06757443  1.0
  C  C124  1  0.98267209  0.43600656  0.26174348  1.0
  C  C125  1  0.76376491  0.59824260  0.08251965  1.0
  C  C126  1  0.47706917  0.57409637  0.07682365  1.0
  C  C127  1  0.70039683  0.59980704  0.09012391  1.0
  C  C128  1  0.55499767  0.58514804  0.08475637  1.0
  C  C129  1  0.62659410  0.59487065  0.09021508  1.0
  C  C130  1  0.99745434  0.80877102  0.86364163  1.0
  C  C131  1  0.00352736  0.15988951  0.92336551  1.0
  C  C132  1  0.99727070  0.87437229  0.86238886  1.0
  C  C133  1  0.00119930  0.09105397  0.90087605  1.0
  C  C134  1  0.99758302  0.94743176  0.86851848  1.0
  C  C135  1  0.00110666  0.44044379  0.75723751  1.0
  C  C136  1  0.99860058  0.01607546  0.88078083  1.0
  C  C137  1  0.86981437  0.60694351  0.02182768  1.0
  C  C138  1  0.26561070  0.49833041  0.07226891  1.0
  C  C139  1  0.23269788  0.66448112  0.22790006  1.0
  C  C140  1  0.72020395  0.35305141  0.78250494  1.0
  C  C141  1  0.84723013  0.51587132  0.07806443  1.0
  C  C142  1  0.28328154  0.60936476  0.04343771  1.0
  C  C143  1  0.17193419  0.73145151  0.16387941  1.0
  C  C144  1  0.73801528  0.27497880  0.85221323  1.0
  C  C145  1  0.05175955  0.48729660  0.25337814  1.0
  C  C146  1  0.82558889  0.58057183  0.06570288  1.0
  C  C147  1  0.92899678  0.41244253  0.77157974  1.0
  C  C148  1  0.92953351  0.66157587  0.84708937  1.0
  C  C149  1  0.06655302  0.29967194  0.03746161  1.0
  C  C150  1  0.99864499  0.73844726  0.87581484  1.0
  C  C151  1  0.00910743  0.23794079  0.95608814  1.0
  C  C152  1  0.65266438  0.08427859  0.38858283  1.0
  C  C153  1  0.74115311  0.08634159  0.40912167  1.0
  C  C154  1  0.74448262  0.04083641  0.33107336  1.0
  C  C155  1  0.41227874  0.90359763  0.58698832  1.0
  C  C156  1  0.38480033  0.81898198  0.58848956  1.0
  C  C157  1  0.32451919  0.55717111  0.05944767  1.0
  C  C158  1  0.38505499  0.82108407  0.67084601  1.0
  C  C159  1  0.81086411  0.29924138  0.19769658  1.0
  C  C160  1  0.84511959  0.24455728  0.23354558  1.0
  C  C161  1  0.81521720  0.22989465  0.29722428  1.0
  C  C162  1  0.16644130  0.59691165  0.82150827  1.0
  C  C163  1  0.22434248  0.58561858  0.78339760  1.0
  C  C164  1  0.23977554  0.64524303  0.74128019  1.0
  C  C165  1  0.81915762  0.70615540  0.99553826  1.0
  C  C166  1  0.72635094  0.65492060  0.92785907  1.0
  C  C167  1  0.66975046  0.69787396  0.93808958  1.0
  C  C168  1  0.24880020  0.74460985  0.23124853  1.0
  C  C169  1  0.29871621  0.38297883  0.05129206  1.0
  C  C170  1  0.23230399  0.33320134  0.96013792  1.0
  C  C171  1  0.25779450  0.27119185  0.91739443  1.0
  C  C172  1  0.72699133  0.41222784  0.06770719  1.0
  C  C173  1  0.68630206  0.41520827  0.12529796  1.0
  C  C174  1  0.59153091  0.35405637  0.07831675  1.0
  C  C175  1  0.39196867  0.71880406  0.04314888  1.0
  C  C176  1  0.45045833  0.76486839  0.13665283  1.0
  C  C177  1  0.54376995  0.80841009  0.15518160  1.0
  C  C178  1  0.18958898  0.86932499  0.19188120  1.0
  C  C179  1  0.69294283  0.26972668  0.77017735  1.0
  C  C180  1  0.16318383  0.88364501  0.26062368  1.0
  C  C181  1  0.20694045  0.97406025  0.31894446  1.0
  C  C182  1  0.65406340  0.14402331  0.84112403  1.0
  C  C183  1  0.58134401  0.16247401  0.84844977  1.0
  C  C184  1  0.49519260  0.08671339  0.79678997  1.0
  C  C185  1  0.13026802  0.61385954  0.37384534  1.0
  C  C186  1  0.10716878  0.67335596  0.33779889  1.0
  C  C187  1  0.12216316  0.74971810  0.40570626  1.0
  C  C188  1  0.81994106  0.31834387  0.63200712  1.0
  C  C189  1  0.79699019  0.36817031  0.58164509  1.0
  C  C190  1  0.47989168  0.04446268  0.51268126  1.0
  C  C191  1  0.76963492  0.32216031  0.48977548  1.0
  C  C192  1  0.46813043  0.13577896  0.38105448  1.0
  C  C193  1  0.40031325  0.15224065  0.32174930  1.0
  C  C194  1  0.43482472  0.24196389  0.33363643  1.0
  C  C195  1  0.69662158  0.99999797  0.65411825  1.0
  C  C196  1  0.74703031  0.99125288  0.60603847  1.0
  C  C197  1  0.84420988  0.03211475  0.66251101  1.0
  Br  Br198  1  0.18455230  0.80343754  0.98415598  1.0
  Br  Br199  1  0.87523562  0.23134531  0.80839315  1.0
  Br  Br200  1  0.42441238  0.10149314  0.55548173  1.0
  Br  Br201  1  0.60032978  0.89277005  0.40050145  1.0
  Br  Br202  1  0.30687216  0.63134066  0.29545005  1.0
  Br  Br203  1  0.67717237  0.39523482  0.70432992  1.0
  Br  Br204  1  0.81541844  0.62650856  0.76951449  1.0
  Br  Br205  1  0.14891519  0.29250728  0.12585265  1.0
  N  N206  1  0.04285952  0.65612690  0.93424798  1.0
  N  N207  1  0.20988639  0.58403096  0.04770829  1.0
  N  N208  1  0.11741429  0.65026286  0.12284886  1.0
  N  N209  1  0.79143345  0.35303987  0.90475144  1.0
  N  N210  1  0.03534875  0.46351059  0.17375574  1.0
  N  N211  1  0.95244533  0.44660983  0.85383325  1.0
  N  N212  1  0.95530251  0.61319161  0.88174091  1.0
  N  N213  1  0.05179395  0.36588690  0.04629375  1.0
  N  N214  1  0.98232498  0.35119651  0.97410839  1.0
  N  N215  1  0.95506006  0.39692122  0.12609257  1.0
  N  N216  1  0.04002347  0.49753132  0.89543274  1.0
  N  N217  1  0.91338795  0.56206158  0.00997860  1.0
  N  N218  1  0.19785511  0.51422864  0.06471513  1.0
  N  N219  1  0.15589432  0.61039554  0.16636689  1.0
  N  N220  1  0.78044751  0.40284836  0.86077061  1.0
  N  N221  1  0.89953375  0.50605631  0.04620693  1.0
  O  O222  1  0.64582967  0.11177435  0.46492583  1.0
  O  O223  1  0.73543794  0.21698322  0.88317192  1.0
  O  O224  1  0.12908710  0.54668264  0.31302959  1.0
  O  O225  1  0.84652244  0.36054126  0.71985633  1.0
  O  O226  1  0.43397081  0.04875307  0.36271487  1.0
  O  O227  1  0.60342605  0.95419834  0.60342227  1.0
  O  O228  1  0.40180148  0.89507909  0.50412077  1.0
  O  O229  1  0.84354374  0.32047429  0.14233579  1.0
  O  O230  1  0.15179439  0.53989168  0.86187403  1.0
  O  O231  1  0.87445429  0.66554735  0.99171284  1.0
  O  O232  1  0.27255044  0.43721791  0.09606141  1.0
  O  O233  1  0.81895030  0.46737763  0.11434732  1.0
  O  O234  1  0.30305720  0.67392550  0.02254128  1.0
  O  O235  1  0.14657971  0.78352223  0.13534612  1.0
