# generated using pymatgen
data_AlH9C24(BrO2)3
_symmetry_space_group_name_H-M   'P 1'
_cell_length_a   4.00352061
_cell_length_b   29.05304056
_cell_length_c   29.05306786
_cell_angle_alpha   120.00103237
_cell_angle_beta   90.00547407
_cell_angle_gamma   89.99774462
_symmetry_Int_Tables_number   1
_chemical_formula_structural   AlH9C24(BrO2)3
_chemical_formula_sum   'Al2 H18 C48 Br6 O12'
_cell_volume   2926.52183812
_cell_formula_units_Z   2
loop_
 _symmetry_equiv_pos_site_id
 _symmetry_equiv_pos_as_xyz
  1  'x, y, z'
loop_
 _atom_site_type_symbol
 _atom_site_label
 _atom_site_symmetry_multiplicity
 _atom_site_fract_x
 _atom_site_fract_y
 _atom_site_fract_z
 _atom_site_occupancy
  Al  Al0  1  0.01080399  0.50000529  0.00000583  1.0
  Al  Al1  1  0.01031847  0.83333426  0.66667440  1.0
  H  H2  1  0.47106309  0.68997578  0.52178426  1.0
  H  H3  1  0.48188662  0.63766705  0.42276098  1.0
  H  H4  1  0.50915280  0.78425134  0.41885106  1.0
  H  H5  1  0.50916448  0.54909031  0.24783054  1.0
  H  H6  1  0.47176314  0.64337633  0.14490476  1.0
  H  H7  1  0.48234576  0.69568108  0.24392502  1.0
  H  H8  1  0.47117290  0.83180089  0.81003246  1.0
  H  H9  1  0.48201064  0.78508232  0.86233721  1.0
  H  H10  1  0.50917980  0.63459085  0.71574887  1.0
  H  H11  1  0.50919735  0.69874037  0.95091556  1.0
  H  H12  1  0.47173325  0.50152382  0.85662516  1.0
  H  H13  1  0.48238402  0.54824205  0.80432287  1.0
  H  H14  1  0.47113269  0.97822117  0.66818827  1.0
  H  H15  1  0.48190571  0.07724138  0.71489535  1.0
  H  H16  1  0.50920093  0.08117057  0.86539815  1.0
  H  H17  1  0.50923416  0.25218277  0.80125954  1.0
  H  H18  1  0.47170102  0.35510451  0.99847612  1.0
  H  H19  1  0.48238953  0.25608073  0.95175122  1.0
  C  C20  1  0.50794590  0.41864053  0.95779514  1.0
  C  C21  1  0.50801156  0.53915655  0.08137035  1.0
  C  C22  1  0.50792181  0.54221262  0.96084846  1.0
  C  C23  1  0.50756314  0.79420291  0.58531242  1.0
  C  C24  1  0.50760543  0.79110302  0.70580450  1.0
  C  C25  1  0.50758135  0.91469690  0.70889796  1.0
  C  C26  1  0.50006320  0.76578680  0.52603042  1.0
  C  C27  1  0.48372351  0.71004734  0.49859193  1.0
  C  C28  1  0.48868416  0.68092838  0.44349195  1.0
  C  C29  1  0.50035980  0.70731128  0.41382286  1.0
  C  C30  1  0.50767485  0.76335003  0.44117147  1.0
  C  C31  1  0.51094460  0.79185638  0.49640862  1.0
  C  C32  1  0.50115115  0.67868348  0.35760007  1.0
  C  C33  1  0.50120268  0.65465847  0.30908341  1.0
  C  C34  1  0.50051784  0.62603342  0.25286060  1.0
  C  C35  1  0.50775747  0.56998950  0.22550654  1.0
  C  C36  1  0.51109941  0.54148933  0.17027698  1.0
  C  C37  1  0.50043477  0.56755494  0.14064987  1.0
  C  C38  1  0.48422560  0.62330885  0.16810125  1.0
  C  C39  1  0.48905884  0.65240867  0.22318779  1.0
  C  C40  1  0.50011381  0.76023379  0.73421445  1.0
  C  C41  1  0.48379842  0.78853739  0.78996250  1.0
  C  C42  1  0.48875539  0.76255217  0.81907090  1.0
  C  C43  1  0.50040898  0.70650343  0.79269300  1.0
  C  C44  1  0.50770718  0.67780760  0.73664671  1.0
  C  C45  1  0.51097807  0.70454400  0.70814647  1.0
  C  C46  1  0.50122216  0.67890839  0.82131607  1.0
  C  C47  1  0.50129645  0.65442231  0.84534586  1.0
  C  C48  1  0.50056848  0.62682404  0.87397210  1.0
  C  C49  1  0.50776503  0.65551496  0.93001690  1.0
  C  C50  1  0.51105336  0.62878337  0.95851441  1.0
  C  C51  1  0.50037666  0.57309256  0.93244676  1.0
  C  C52  1  0.48420057  0.54478948  0.87669641  1.0
  C  C53  1  0.48908494  0.57077706  0.84759483  1.0
  C  C54  1  0.50009269  0.97397933  0.73975993  1.0
  C  C55  1  0.48377371  0.00141631  0.71144869  1.0
  C  C56  1  0.48871801  0.05651543  0.73742885  1.0
  C  C57  1  0.50039297  0.08619124  0.79348084  1.0
  C  C58  1  0.50770292  0.05884504  0.82217550  1.0
  C  C59  1  0.51095867  0.00361450  0.79545137  1.0
  C  C60  1  0.50120880  0.14241100  0.82107304  1.0
  C  C61  1  0.50128032  0.19092769  0.84556903  1.0
  C  C62  1  0.50057000  0.24715287  0.87317275  1.0
  C  C63  1  0.50778976  0.27450934  0.84448494  1.0
  C  C64  1  0.51108825  0.32973754  0.87122025  1.0
  C  C65  1  0.50040528  0.35936108  0.92691081  1.0
  C  C66  1  0.48420330  0.33190804  0.95521064  1.0
  C  C67  1  0.48908534  0.27681959  0.92922020  1.0
  Br  Br68  1  0.50629963  0.86731473  0.53016937  1.0
  Br  Br69  1  0.50636013  0.46602768  0.13650544  1.0
  Br  Br70  1  0.50641690  0.66284638  0.63268593  1.0
  Br  Br71  1  0.50626285  0.67047104  0.03397815  1.0
  Br  Br72  1  0.50636661  0.96987157  0.83716831  1.0
  Br  Br73  1  0.50629315  0.36352166  0.82954068  1.0
  O  O74  1  0.74774811  0.55106304  0.99293137  1.0
  O  O75  1  0.74772346  0.44187398  0.94894948  1.0
  O  O76  1  0.74780951  0.50708092  0.05814247  1.0
  O  O77  1  0.27665386  0.50807022  0.94966987  1.0
  O  O78  1  0.27672804  0.55033830  0.05840277  1.0
  O  O79  1  0.27668053  0.44160342  0.99193927  1.0
  O  O80  1  0.74726679  0.89146529  0.71774577  1.0
  O  O81  1  0.74722819  0.82628107  0.60855278  1.0
  O  O82  1  0.74728958  0.78226090  0.67372771  1.0
  O  O83  1  0.27618893  0.89173916  0.67475817  1.0
  O  O84  1  0.27623807  0.82524694  0.71698982  1.0
  O  O85  1  0.27618387  0.78301461  0.60826645  1.0
