# generated using pymatgen
data_AlH2C10SCl3O5
_symmetry_space_group_name_H-M   'P 1'
_cell_length_a   6.59218425
_cell_length_b   11.08406276
_cell_length_c   12.71327940
_cell_angle_alpha   92.23814433
_cell_angle_beta   104.90288876
_cell_angle_gamma   106.17801753
_symmetry_Int_Tables_number   1
_chemical_formula_structural   AlH2C10SCl3O5
_chemical_formula_sum   'Al2 H4 C20 S2 Cl6 O10'
_cell_volume   855.98595030
_cell_formula_units_Z   2
loop_
 _symmetry_equiv_pos_site_id
 _symmetry_equiv_pos_as_xyz
  1  'x, y, z'
loop_
 _atom_site_type_symbol
 _atom_site_label
 _atom_site_symmetry_multiplicity
 _atom_site_fract_x
 _atom_site_fract_y
 _atom_site_fract_z
 _atom_site_occupancy
  Al  Al0  1  0.01128810  0.50242744  0.49835976  1.0
  Al  Al1  1  0.50872745  0.49825471  0.49746858  1.0
  H  H2  1  0.37113710  0.65519490  0.56830260  1.0
  H  H3  1  0.65939728  0.42172427  0.36506820  1.0
  H  H4  1  0.52192581  0.75567966  0.36449958  1.0
  H  H5  1  0.75191975  0.22410884  0.37857541  1.0
  C  C6  1  0.87367775  0.72697346  0.49352765  1.0
  C  C7  1  0.85068909  0.50642956  0.69172141  1.0
  C  C8  1  0.14404054  0.27718169  0.50494855  1.0
  C  C9  1  0.16506456  0.48846485  0.30001010  1.0
  C  C10  1  0.12230994  0.55154340  0.88592225  1.0
  C  C11  1  0.89320756  0.43887337  0.10559447  1.0
  C  C12  1  0.91565502  0.50341211  0.81065118  1.0
  C  C13  1  0.09980295  0.48723938  0.18080770  1.0
  C  C14  1  0.90101419  0.46214639  0.99782219  1.0
  C  C15  1  0.11374538  0.52774971  0.99348226  1.0
  C  C16  1  0.93899239  0.86836413  0.49591922  1.0
  C  C17  1  0.78961670  0.92839567  0.43367039  1.0
  C  C18  1  0.14456995  0.94094107  0.56069240  1.0
  C  C19  1  0.57578667  0.85815659  0.36869025  1.0
  C  C20  1  0.43039074  0.91773174  0.31247453  1.0
  C  C21  1  0.07201160  0.13564727  0.50199672  1.0
  C  C22  1  0.21239133  0.07504315  0.56309403  1.0
  C  C23  1  0.85659903  0.06365421  0.43722319  1.0
  C  C24  1  0.70574771  0.12189673  0.37589347  1.0
  C  C25  1  0.49665525  0.05183185  0.31613848  1.0
  S  S26  1  0.71141410  0.43052214  0.87130443  1.0
  S  S27  1  0.30361322  0.55919038  0.11972219  1.0
  Cl  Cl28  1  0.36031560  0.63296728  0.85884402  1.0
  Cl  Cl29  1  0.65694601  0.35518719  0.13367836  1.0
  Cl  Cl30  1  0.46565191  0.16035634  0.64739563  1.0
  Cl  Cl31  1  0.31813370  0.87230646  0.64604259  1.0
  Cl  Cl32  1  0.16865336  0.82938891  0.23916976  1.0
  Cl  Cl33  1  0.31572210  0.12776187  0.24750548  1.0
  O  O34  1  0.00265282  0.67137701  0.46899681  1.0
  O  O35  1  0.64463960  0.47768759  0.64459006  1.0
  O  O36  1  0.31941326  0.32766740  0.47891879  1.0
  O  O37  1  0.01439008  0.46292815  0.34868633  1.0
  O  O38  1  0.01955851  0.33570414  0.53020855  1.0
  O  O39  1  0.37222444  0.51642517  0.34629770  1.0
  O  O40  1  0.69541110  0.67413311  0.51690062  1.0
  O  O41  1  0.00237017  0.53723479  0.64430916  1.0
  O  O42  1  0.31437105  0.56494487  0.54421578  1.0
  O  O43  1  0.70622251  0.44047084  0.44445112  1.0
