# generated using pymatgen
data_Ni3H42C72N6O13
_symmetry_space_group_name_H-M   'P 1'
_cell_length_a   18.56473420
_cell_length_b   18.57281334
_cell_length_c   18.68609319
_cell_angle_alpha   98.69006978
_cell_angle_beta   98.67275014
_cell_angle_gamma   98.93948187
_symmetry_Int_Tables_number   1
_chemical_formula_structural   Ni3H42C72N6O13
_chemical_formula_sum   'Ni6 H84 C144 N12 O26'
_cell_volume   6190.62552622
_cell_formula_units_Z   2
loop_
 _symmetry_equiv_pos_site_id
 _symmetry_equiv_pos_as_xyz
  1  'x, y, z'
loop_
 _atom_site_type_symbol
 _atom_site_label
 _atom_site_symmetry_multiplicity
 _atom_site_fract_x
 _atom_site_fract_y
 _atom_site_fract_z
 _atom_site_occupancy
  Ni  Ni0  1  0.68433033  0.81534991  0.74989521  1.0
  Ni  Ni1  1  0.81515883  0.74988555  0.68421925  1.0
  Ni  Ni2  1  0.74995725  0.68444017  0.81544315  1.0
  Ni  Ni3  1  0.31566572  0.18464925  0.25009668  1.0
  Ni  Ni4  1  0.18484816  0.25012454  0.31577905  1.0
  Ni  Ni5  1  0.25004586  0.31555372  0.18456744  1.0
  H  H6  1  0.30443234  0.28933140  0.55188668  1.0
  H  H7  1  0.33716124  0.24469381  0.67066484  1.0
  H  H8  1  0.37030091  0.04002870  0.54893786  1.0
  H  H9  1  0.34372291  0.08699120  0.43292736  1.0
  H  H10  1  0.45788568  0.05103216  0.63645754  1.0
  H  H11  1  0.45944703  0.91807645  0.81809549  1.0
  H  H12  1  0.54970144  0.83183794  0.81393385  1.0
  H  H13  1  0.28944956  0.55247885  0.30429071  1.0
  H  H14  1  0.24448989  0.67169290  0.33763075  1.0
  H  H15  1  0.03980606  0.54758975  0.37037213  1.0
  H  H16  1  0.08708677  0.43119029  0.34318989  1.0
  H  H17  1  0.05099457  0.63555331  0.45829528  1.0
  H  H18  1  0.91796958  0.81781664  0.45970091  1.0
  H  H19  1  0.83174428  0.81371541  0.54972716  1.0
  H  H20  1  0.55193061  0.30448078  0.28892830  1.0
  H  H21  1  0.67139113  0.33769132  0.24389668  1.0
  H  H22  1  0.54797654  0.36993921  0.04049224  1.0
  H  H23  1  0.43136662  0.34305702  0.08782120  1.0
  H  H24  1  0.63602397  0.45814378  0.05108791  1.0
  H  H25  1  0.81800436  0.45927622  0.91826337  1.0
  H  H26  1  0.81347298  0.54926291  0.83189128  1.0
  H  H27  1  0.19555338  0.94808598  0.21145901  1.0
  H  H28  1  0.16216974  0.82844084  0.25620107  1.0
  H  H29  1  0.12990818  0.95149779  0.45977132  1.0
  H  H30  1  0.15686987  0.06827632  0.41264242  1.0
  H  H31  1  0.04170618  0.86355082  0.44879742  1.0
  H  H32  1  0.04032136  0.68183141  0.58168348  1.0
  H  H33  1  0.95014105  0.68642787  0.66781649  1.0
  H  H34  1  0.21093673  0.19561730  0.94800538  1.0
  H  H35  1  0.25534016  0.16274044  0.82911097  1.0
  H  H36  1  0.46016819  0.12958607  0.95064865  1.0
  H  H37  1  0.41335765  0.15623206  0.06675622  1.0
  H  H38  1  0.44887376  0.04201866  0.86321955  1.0
  H  H39  1  0.58184558  0.04027112  0.68177373  1.0
  H  H40  1  0.66784869  0.94981321  0.68589043  1.0
  H  H41  1  0.94755381  0.21085245  0.19576819  1.0
  H  H42  1  0.82813110  0.25554504  0.16226970  1.0
  H  H43  1  0.95190720  0.46037156  0.12955098  1.0
  H  H44  1  0.06850895  0.41331377  0.15681109  1.0
  H  H45  1  0.86406539  0.44885181  0.04165167  1.0
  H  H46  1  0.68204483  0.58191400  0.03994996  1.0
  H  H47  1  0.68621521  0.66792741  0.94973045  1.0
  H  H48  1  0.69556356  0.71068409  0.44808470  1.0
  H  H49  1  0.66283088  0.75533734  0.32931702  1.0
  H  H50  1  0.62969003  0.95998554  0.45107006  1.0
  H  H51  1  0.65627820  0.91301474  0.56706884  1.0
  H  H52  1  0.54210095  0.94900296  0.36353930  1.0
  H  H53  1  0.54054373  0.08194846  0.18189085  1.0
  H  H54  1  0.45027561  0.16817330  0.18605166  1.0
  H  H55  1  0.71056495  0.44753242  0.69569973  1.0
  H  H56  1  0.75552978  0.32832316  0.66235352  1.0
  H  H57  1  0.96020760  0.45243409  0.62960391  1.0
  H  H58  1  0.91292072  0.56882849  0.65679952  1.0
  H  H59  1  0.94903025  0.36446025  0.54169334  1.0
  H  H60  1  0.08204484  0.18220845  0.54028174  1.0
  H  H61  1  0.16826657  0.18630374  0.45025281  1.0
  H  H62  1  0.44805262  0.69551818  0.71111681  1.0
  H  H63  1  0.32860376  0.66229392  0.75615439  1.0
  H  H64  1  0.45203800  0.62999411  0.95953061  1.0
  H  H65  1  0.56863718  0.65689346  0.91218792  1.0
  H  H66  1  0.36397924  0.54183041  0.94896585  1.0
  H  H67  1  0.18198102  0.54067473  0.08176757  1.0
  H  H68  1  0.18651856  0.45068477  0.16813130  1.0
  H  H69  1  0.80444718  0.05193044  0.78852334  1.0
  H  H70  1  0.83783836  0.17157840  0.74378502  1.0
  H  H71  1  0.87010585  0.04852377  0.54021577  1.0
  H  H72  1  0.84312929  0.93174583  0.58733551  1.0
  H  H73  1  0.95830085  0.13646160  0.55117270  1.0
  H  H74  1  0.95968898  0.31818701  0.41828104  1.0
  H  H75  1  0.04987561  0.31358687  0.33216065  1.0
  H  H76  1  0.78904112  0.80439831  0.05197733  1.0
  H  H77  1  0.74464876  0.83728524  0.17087649  1.0
  H  H78  1  0.53981426  0.87044266  0.04934884  1.0
  H  H79  1  0.58661813  0.84379045  0.93323974  1.0
  H  H80  1  0.55110481  0.95799633  0.13677143  1.0
  H  H81  1  0.41813726  0.95973942  0.31820838  1.0
  H  H82  1  0.33213950  0.05019874  0.31409656  1.0
  H  H83  1  0.05246460  0.78910480  0.80423129  1.0
  H  H84  1  0.17188174  0.74440226  0.83772881  1.0
  H  H85  1  0.04808772  0.53960036  0.87048746  1.0
  H  H86  1  0.93149819  0.58666616  0.84321828  1.0
  H  H87  1  0.13592810  0.55109193  0.95837035  1.0
  H  H88  1  0.31796889  0.41806009  0.96008927  1.0
  H  H89  1  0.31380173  0.33204991  0.05030872  1.0
  C  C90  1  0.30646072  0.21661090  0.41203012  1.0
  C  C91  1  0.32442517  0.19196381  0.48488224  1.0
  C  C92  1  0.32031248  0.23522631  0.55207251  1.0
  C  C93  1  0.33805162  0.21015978  0.61823808  1.0
  C  C94  1  0.35907876  0.14066651  0.61870517  1.0
  C  C95  1  0.35859649  0.09594636  0.55068125  1.0
  C  C96  1  0.34269362  0.12154566  0.48510545  1.0
  C  C97  1  0.38528251  0.11505208  0.68788893  1.0
  C  C98  1  0.43692737  0.06715557  0.68669915  1.0
  C  C99  1  0.50507139  0.92778315  0.78823309  1.0
  C  C100  1  0.55501645  0.87933866  0.78631619  1.0
  C  C101  1  0.21699414  0.41171725  0.30586094  1.0
  C  C102  1  0.19204367  0.48453126  0.32410013  1.0
  C  C103  1  0.23533158  0.55236766  0.32023796  1.0
  C  C104  1  0.21012753  0.61863562  0.33832097  1.0
  C  C105  1  0.14056644  0.61829327  0.35941426  1.0
  C  C106  1  0.09577818  0.54964222  0.35866272  1.0
  C  C107  1  0.12153762  0.48396390  0.34239526  1.0
  C  C108  1  0.11479400  0.68748659  0.38570692  1.0
  C  C109  1  0.06696810  0.68610980  0.43726054  1.0
  C  C110  1  0.92771114  0.78806212  0.50522198  1.0
  C  C111  1  0.87935198  0.78626599  0.55512017  1.0
  C  C112  1  0.41133946  0.30623281  0.21685745  1.0
  C  C113  1  0.48437209  0.32425778  0.19213785  1.0
  C  C114  1  0.55203124  0.32034279  0.23508461  1.0
  C  C115  1  0.61840749  0.33829259  0.20983406  1.0
  C  C116  1  0.61833238  0.35922071  0.14059906  1.0
  C  C117  1  0.54982354  0.35839258  0.09617853  1.0
  C  C118  1  0.48405773  0.34233679  0.12197343  1.0
  C  C119  1  0.68769001  0.38557220  0.11485933  1.0
  C  C120  1  0.68653342  0.43718119  0.06707810  1.0
  C  C121  1  0.78819512  0.50495306  0.92781346  1.0
  C  C122  1  0.78616658  0.55480338  0.87939355  1.0
  C  C123  1  0.19425348  0.08840763  0.28379644  1.0
  C  C124  1  0.17574391  0.01537637  0.30835519  1.0
  C  C125  1  0.17960557  0.94781469  0.26524888  1.0
  C  C126  1  0.16157618  0.88137593  0.29033122  1.0
  C  C127  1  0.14068411  0.88135325  0.35955232  1.0
  C  C128  1  0.14147089  0.94976713  0.40410552  1.0
  C  C129  1  0.15755981  0.01560541  0.37845044  1.0
  C  C130  1  0.11435525  0.81193951  0.38515414  1.0
  C  C131  1  0.06267807  0.81306113  0.43283778  1.0
  C  C132  1  0.99463777  0.71160737  0.57199873  1.0
  C  C133  1  0.94468121  0.71367741  0.62027913  1.0
  C  C134  1  0.28395536  0.19402709  0.08772257  1.0
  C  C135  1  0.30841354  0.17561539  0.01485625  1.0
  C  C136  1  0.26500678  0.17969179  0.94771911  1.0
  C  C137  1  0.28994045  0.16188440  0.88151913  1.0
  C  C138  1  0.35943450  0.14089074  0.88100542  1.0
  C  C139  1  0.40426586  0.14131932  0.94896954  1.0
  C  C140  1  0.37875634  0.15723239  0.01458323  1.0
  C  C141  1  0.38493599  0.11469403  0.81178826  1.0
  C  C142  1  0.43274828  0.06297726  0.81295804  1.0
  C  C143  1  0.57202749  0.99461351  0.71158970  1.0
  C  C144  1  0.62032517  0.94453735  0.71345884  1.0
  C  C145  1  0.08811240  0.28361924  0.19460583  1.0
  C  C146  1  0.01525772  0.30838135  0.17596417  1.0
  C  C147  1  0.94750215  0.26493566  0.17978072  1.0
  C  C148  1  0.88116576  0.28998120  0.16165019  1.0
  C  C149  1  0.88141578  0.35954662  0.14059325  1.0
  C  C150  1  0.94998555  0.40442425  0.14127834  1.0
  C  C151  1  0.01574337  0.37881515  0.15757307  1.0
  C  C152  1  0.81215585  0.38517339  0.11431329  1.0
  C  C153  1  0.81349965  0.43289852  0.06267383  1.0
  C  C154  1  0.71174159  0.57203796  0.99441383  1.0
  C  C155  1  0.71357918  0.62027813  0.94440842  1.0
  C  C156  1  0.69353949  0.78339732  0.58795504  1.0
  C  C157  1  0.67557130  0.80804401  0.51510353  1.0
  C  C158  1  0.67968406  0.76478853  0.44790991  1.0
  C  C159  1  0.66194068  0.78986412  0.38174878  1.0
  C  C160  1  0.64091287  0.85935372  0.38129111  1.0
  C  C161  1  0.64139686  0.90407120  0.44931833  1.0
  C  C162  1  0.65730527  0.87846207  0.51488857  1.0
  C  C163  1  0.61470118  0.88497110  0.31210525  1.0
  C  C164  1  0.56306080  0.93286873  0.31329827  1.0
  C  C165  1  0.49491401  0.07223096  0.21174785  1.0
  C  C166  1  0.44497008  0.12067085  0.21366641  1.0
  C  C167  1  0.78302011  0.58829551  0.69414608  1.0
  C  C168  1  0.80797276  0.51548505  0.67589689  1.0
  C  C169  1  0.76468272  0.44764445  0.67975691  1.0
  C  C170  1  0.78988922  0.38138122  0.66166445  1.0
  C  C171  1  0.85945044  0.38172651  0.64057224  1.0
  C  C172  1  0.90423951  0.45037696  0.64132930  1.0
  C  C173  1  0.87847646  0.51605127  0.65759849  1.0
  C  C174  1  0.88522709  0.31253543  0.61428006  1.0
  C  C175  1  0.93304960  0.31390685  0.56272100  1.0
  C  C176  1  0.07229857  0.21195554  0.49475580  1.0
  C  C177  1  0.12065748  0.21375011  0.44486094  1.0
  C  C178  1  0.58865636  0.69376673  0.78316538  1.0
  C  C179  1  0.51562843  0.67572390  0.80788885  1.0
  C  C180  1  0.44796269  0.67964004  0.76495654  1.0
  C  C181  1  0.38158714  0.66167636  0.79020881  1.0
  C  C182  1  0.38166843  0.64072764  0.85943332  1.0
  C  C183  1  0.45018023  0.64154503  0.90384336  1.0
  C  C184  1  0.51594359  0.65761921  0.87804455  1.0
  C  C185  1  0.31231515  0.61438943  0.88518286  1.0
  C  C186  1  0.31346909  0.56278442  0.93297350  1.0
  C  C187  1  0.21179338  0.49500334  0.07221465  1.0
  C  C188  1  0.21382414  0.44515345  0.12063122  1.0
  C  C189  1  0.80574632  0.91160480  0.71618208  1.0
  C  C190  1  0.82426022  0.98463513  0.69162438  1.0
  C  C191  1  0.82039783  0.05219669  0.73473290  1.0
  C  C192  1  0.83842434  0.11864190  0.70965279  1.0
  C  C193  1  0.85932390  0.11866872  0.64043375  1.0
  C  C194  1  0.85853397  0.05025534  0.59587729  1.0
  C  C195  1  0.84243985  0.98441486  0.62152915  1.0
  C  C196  1  0.88565950  0.18807933  0.61483019  1.0
  C  C197  1  0.93733607  0.18695622  0.56714436  1.0
  C  C198  1  0.00537028  0.28840688  0.42797247  1.0
  C  C199  1  0.05533505  0.28633983  0.37969966  1.0
  C  C200  1  0.71602467  0.80597378  0.91227178  1.0
  C  C201  1  0.69156489  0.82440417  0.98513582  1.0
  C  C202  1  0.73497329  0.82032634  0.05227128  1.0
  C  C203  1  0.71004062  0.83813601  0.11847180  1.0
  C  C204  1  0.64054558  0.85912844  0.11899050  1.0
  C  C205  1  0.59571638  0.85870266  0.05102687  1.0
  C  C206  1  0.62122504  0.84278981  0.98541431  1.0
  C  C207  1  0.61504600  0.88532536  0.18820597  1.0
  C  C208  1  0.56723269  0.93703978  0.18703235  1.0
  C  C209  1  0.42795818  0.00540001  0.28839676  1.0
  C  C210  1  0.37966125  0.05547585  0.28652595  1.0
  C  C211  1  0.91190090  0.71636366  0.80539913  1.0
  C  C212  1  0.98474865  0.69158663  0.82403655  1.0
  C  C213  1  0.05250826  0.73501881  0.82021227  1.0
  C  C214  1  0.11884212  0.70997356  0.83835001  1.0
  C  C215  1  0.11859225  0.64041651  0.85942238  1.0
  C  C216  1  0.05001516  0.59554616  0.85873792  1.0
  C  C217  1  0.98426360  0.62115737  0.84244308  1.0
  C  C218  1  0.18784568  0.61478638  0.88572178  1.0
  C  C219  1  0.18649771  0.56706096  0.93736242  1.0
  C  C220  1  0.28826284  0.42793031  0.00561729  1.0
  C  C221  1  0.28642917  0.37969215  0.05562484  1.0
  C  C222  1  0.46046570  0.03938990  0.74983556  1.0
  C  C223  1  0.51272495  0.98707648  0.74989410  1.0
  C  C224  1  0.03918140  0.74955411  0.46062213  1.0
  C  C225  1  0.98696406  0.74969862  0.51278514  1.0
  C  C226  1  0.75005094  0.46062123  0.03923858  1.0
  C  C227  1  0.75004201  0.51273821  0.98696972  1.0
  C  C228  1  0.53951597  0.96062539  0.25015427  1.0
  C  C229  1  0.48726072  0.01294032  0.25009235  1.0
  C  C230  1  0.96083163  0.25046361  0.53935615  1.0
  C  C231  1  0.01304458  0.25032084  0.48718768  1.0
  C  C232  1  0.24994886  0.53934224  0.96079871  1.0
  C  C233  1  0.24995118  0.48721667  0.01306220  1.0
  N  N234  1  0.61186643  0.88765611  0.74987089  1.0
  N  N235  1  0.36059474  0.13943616  0.74984392  1.0
  N  N236  1  0.88774058  0.74999340  0.61186137  1.0
  N  N237  1  0.13910475  0.74978146  0.36095213  1.0
  N  N238  1  0.74983888  0.61174313  0.88767371  1.0
  N  N239  1  0.74988721  0.36087448  0.13910325  1.0
  N  N240  1  0.38812065  0.11235295  0.25011226  1.0
  N  N241  1  0.63938861  0.86058440  0.25015083  1.0
  N  N242  1  0.11227408  0.25002817  0.38812295  1.0
  N  N243  1  0.86091567  0.25024082  0.63903044  1.0
  N  N244  1  0.25016328  0.38822447  0.11235082  1.0
  N  N245  1  0.25012099  0.63908601  0.86093890  1.0
  O  O246  1  0.26505428  0.26484838  0.40799723  1.0
  O  O247  1  0.33210789  0.18336266  0.35945181  1.0
  O  O248  1  0.26502056  0.40806240  0.26435639  1.0
  O  O249  1  0.18401384  0.35870649  0.33175342  1.0
  O  O250  1  0.40726327  0.26471044  0.26485383  1.0
  O  O251  1  0.35864106  0.33210973  0.18382729  1.0
  O  O252  1  0.23628625  0.09201067  0.23624890  1.0
  O  O253  1  0.16825885  0.14118114  0.31657507  1.0
  O  O254  1  0.23605840  0.23582341  0.09127613  1.0
  O  O255  1  0.31709416  0.16832641  0.14038527  1.0
  O  O256  1  0.09131016  0.23596969  0.23655093  1.0
  O  O257  1  0.14116257  0.31646295  0.16861450  1.0
  O  O258  1  0.73496916  0.73518080  0.59199023  1.0
  O  O259  1  0.66787438  0.81662683  0.64053151  1.0
  O  O260  1  0.73500159  0.59194375  0.73565936  1.0
  O  O261  1  0.81598104  0.64130471  0.66823567  1.0
  O  O262  1  0.59273195  0.73530381  0.73518329  1.0
  O  O263  1  0.64135465  0.66788056  0.81618122  1.0
  O  O264  1  0.76369719  0.90799772  0.76371609  1.0
  O  O265  1  0.83175461  0.85883349  0.68341869  1.0
  O  O266  1  0.76390063  0.76415300  0.90872639  1.0
  O  O267  1  0.68290684  0.83168923  0.85961034  1.0
  O  O268  1  0.90870482  0.76400228  0.76344246  1.0
  O  O269  1  0.85885192  0.68353573  0.83140472  1.0
  O  O270  1  0.75453311  0.75449952  0.75447498  1.0
  O  O271  1  0.24547453  0.24550569  0.24553217  1.0
