# generated using pymatgen
data_ZnH2C7SN3O11
_symmetry_space_group_name_H-M   'P 1'
_cell_length_a   10.38010667
_cell_length_b   10.46007952
_cell_length_c   11.44110755
_cell_angle_alpha   87.48847366
_cell_angle_beta   75.88217783
_cell_angle_gamma   84.67615198
_symmetry_Int_Tables_number   1
_chemical_formula_structural   ZnH2C7SN3O11
_chemical_formula_sum   'Zn2 H4 C14 S2 N6 O22'
_cell_volume   1199.23207451
_cell_formula_units_Z   2
loop_
 _symmetry_equiv_pos_site_id
 _symmetry_equiv_pos_as_xyz
  1  'x, y, z'
loop_
 _atom_site_type_symbol
 _atom_site_label
 _atom_site_symmetry_multiplicity
 _atom_site_fract_x
 _atom_site_fract_y
 _atom_site_fract_z
 _atom_site_occupancy
  Zn  Zn0  1  0.70527317  0.48673973  0.46919589  1.0
  Zn  Zn1  1  0.39927732  0.50478975  0.53411172  1.0
  H  H2  1  0.36128899  0.14555697  0.54487980  1.0
  H  H3  1  0.48457881  0.86587315  0.48523085  1.0
  H  H4  1  0.77980532  0.18461015  0.33383712  1.0
  H  H5  1  0.96101328  0.98168619  0.50540398  1.0
  C  C6  1  0.26823025  0.75694678  0.53994946  1.0
  C  C7  1  0.57733195  0.25336207  0.49304149  1.0
  C  C8  1  0.57571593  0.54299514  0.28746149  1.0
  C  C9  1  0.55142374  0.54244054  0.71445000  1.0
  C  C10  1  0.57676327  0.56661773  0.16293922  1.0
  C  C11  1  0.55959686  0.56048267  0.83617075  1.0
  C  C12  1  0.57155573  0.57041351  0.05717408  1.0
  C  C13  1  0.56524822  0.56830144  0.94107714  1.0
  C  C14  1  0.28034182  0.90077631  0.53899828  1.0
  C  C15  1  0.56513650  0.11328433  0.47971521  1.0
  C  C16  1  0.40479332  0.94224086  0.51063150  1.0
  C  C17  1  0.44106064  0.07111740  0.51239003  1.0
  C  C18  1  0.14278522  0.43092474  0.46095321  1.0
  C  C19  1  0.99891267  0.42735696  0.46714440  1.0
  S  S20  1  0.71541352  0.01477853  0.42237323  1.0
  S  S21  1  0.12882940  0.00176086  0.58592461  1.0
  N  N22  1  0.20130317  0.45807486  0.54054745  1.0
  N  N23  1  0.91029158  0.51111229  0.44753917  1.0
  N  N24  1  0.95728779  0.28984468  0.48140729  1.0
  N  N25  1  0.23079913  0.39258686  0.33556239  1.0
  N  N26  1  0.94697120  0.66390207  0.44193018  1.0
  N  N27  1  0.10525717  0.47517772  0.67523394  1.0
  O  O28  1  0.38075587  0.69165698  0.49964787  1.0
  O  O29  1  0.47749858  0.31818346  0.55421139  1.0
  O  O30  1  0.15797773  0.71209946  0.57881363  1.0
  O  O31  1  0.68929218  0.29997096  0.44055250  1.0
  O  O32  1  0.67547156  0.57518432  0.32445983  1.0
  O  O33  1  0.43696301  0.54247203  0.69501093  1.0
  O  O34  1  0.47796730  0.48713103  0.35059651  1.0
  O  O35  1  0.66451445  0.52669282  0.63726452  1.0
  O  O36  1  0.79383269  0.01602350  0.51144391  1.0
  O  O37  1  0.69106309  0.89383479  0.38137483  1.0
  O  O38  1  0.78104781  0.09485654  0.30580309  1.0
  O  O39  1  0.05687340  0.96111317  0.70329626  1.0
  O  O40  1  0.15858724  0.13508139  0.56848991  1.0
  O  O41  1  0.06090997  0.96538984  0.48378445  1.0
  O  O42  1  0.99306184  0.22967613  0.38729793  1.0
  O  O43  1  0.89408827  0.25699016  0.58077512  1.0
  O  O44  1  0.30634856  0.29578001  0.33370916  1.0
  O  O45  1  0.21210806  0.46430551  0.25270706  1.0
  O  O46  1  0.03121663  0.69252658  0.35533900  1.0
  O  O47  1  0.87573915  0.72005215  0.52574662  1.0
  O  O48  1  0.17021492  0.46529603  0.74931932  1.0
  O  O49  1  0.98675384  0.48969073  0.68251309  1.0
