# generated using pymatgen
data_Cu2H8C7(IN2)2
_symmetry_space_group_name_H-M   'P 1'
_cell_length_a   16.80496466
_cell_length_b   19.36055261
_cell_length_c   19.36052224
_cell_angle_alpha   111.98333325
_cell_angle_beta   106.81782936
_cell_angle_gamma   106.81810397
_symmetry_Int_Tables_number   1
_chemical_formula_structural   Cu2H8C7(IN2)2
_chemical_formula_sum   'Cu24 H96 C84 I24 N48'
_cell_volume   4998.78162681
_cell_formula_units_Z   12
loop_
 _symmetry_equiv_pos_site_id
 _symmetry_equiv_pos_as_xyz
  1  'x, y, z'
loop_
 _atom_site_type_symbol
 _atom_site_label
 _atom_site_symmetry_multiplicity
 _atom_site_fract_x
 _atom_site_fract_y
 _atom_site_fract_z
 _atom_site_occupancy
  Cu  Cu0  1  0.42374839  0.47132711  0.87231859  1.0
  Cu  Cu1  1  0.95248763  0.40122063  0.52864325  1.0
  Cu  Cu2  1  0.55119784  0.12731407  0.59861452  1.0
  Cu  Cu3  1  0.05119389  0.59862084  0.12731694  1.0
  Cu  Cu4  1  0.92374757  0.87231946  0.47132201  1.0
  Cu  Cu5  1  0.45249351  0.52864571  0.40122602  1.0
  Cu  Cu6  1  0.26801713  0.40143674  0.87179800  1.0
  Cu  Cu7  1  0.86672774  0.47053116  0.59867920  1.0
  Cu  Cu8  1  0.39610555  0.12797572  0.52949363  1.0
  Cu  Cu9  1  0.89610431  0.52948960  0.12797820  1.0
  Cu  Cu10  1  0.76801432  0.87179799  0.40143561  1.0
  Cu  Cu11  1  0.36672327  0.59867903  0.47053048  1.0
  Cu  Cu12  1  0.42197642  0.43353209  0.98392119  1.0
  Cu  Cu13  1  0.98801008  0.55043203  0.56624394  1.0
  Cu  Cu14  1  0.43746247  0.01566571  0.44951679  1.0
  Cu  Cu15  1  0.93746943  0.44951561  0.01566748  1.0
  Cu  Cu16  1  0.92197068  0.98392024  0.43352691  1.0
  Cu  Cu17  1  0.48800900  0.56624564  0.55042948  1.0
  Cu  Cu18  1  0.38242276  0.54997146  0.98546332  1.0
  Cu  Cu19  1  0.83189916  0.43555173  0.45007177  1.0
  Cu  Cu20  1  0.39650122  0.01438699  0.56453181  1.0
  Cu  Cu21  1  0.89650017  0.56452715  0.01437937  1.0
  Cu  Cu22  1  0.88241779  0.98546694  0.54996840  1.0
  Cu  Cu23  1  0.33190425  0.45007430  0.43555665  1.0
  H  H24  1  0.44730795  0.53258909  0.74397320  1.0
  H  H25  1  0.91486159  0.21177058  0.46759974  1.0
  H  H26  1  0.70262514  0.25567152  0.78795712  1.0
  H  H27  1  0.20263745  0.78796597  0.25567395  1.0
  H  H28  1  0.94731113  0.74397996  0.53257973  1.0
  H  H29  1  0.41486335  0.46760569  0.21177464  1.0
  H  H30  1  0.54199789  0.37702961  0.81154452  1.0
  H  H31  1  0.16523843  0.43477450  0.62300628  1.0
  H  H32  1  0.73051906  0.18847149  0.56519219  1.0
  H  H33  1  0.23050048  0.56519094  0.18847608  1.0
  H  H34  1  0.04199627  0.81153902  0.37701402  1.0
  H  H35  1  0.66524139  0.62300564  0.43477308  1.0
  H  H36  1  0.49451876  0.35781179  0.26127922  1.0
  H  H37  1  0.13652757  0.90319518  0.64194477  1.0
  H  H38  1  0.23394451  0.73867483  0.09674884  1.0
  H  H39  1  0.73394581  0.09675222  0.73867716  1.0
  H  H40  1  0.99452093  0.26128400  0.35781208  1.0
  H  H41  1  0.63653313  0.64195100  0.90320889  1.0
  H  H42  1  0.68411029  0.36433392  0.11040149  1.0
  H  H43  1  0.31946414  0.74574812  0.63568599  1.0
  H  H44  1  0.57399611  0.88978537  0.25450187  1.0
  H  H45  1  0.07400194  0.25449711  0.88978657  1.0
  H  H46  1  0.18411288  0.11040388  0.36433603  1.0
  H  H47  1  0.81946474  0.63567556  0.74575252  1.0
  H  H48  1  0.52633762  0.46890935  0.64307007  1.0
  H  H49  1  0.05744555  0.17442886  0.53116630  1.0
  H  H50  1  0.88253566  0.35687866  0.82559017  1.0
  H  H51  1  0.38254247  0.82558776  0.35687988  1.0
  H  H52  1  0.02633368  0.64306450  0.46889387  1.0
  H  H53  1  0.55744825  0.53116544  0.17442900  1.0
  H  H54  1  0.76355394  0.46178285  0.82474130  1.0
  H  H55  1  0.30217912  0.36310024  0.53824145  1.0
  H  H56  1  0.93871903  0.17544745  0.63695950  1.0
  H  H57  1  0.43870078  0.63694176  0.17543729  1.0
  H  H58  1  0.26353875  0.82473382  0.46177526  1.0
  H  H59  1  0.80217740  0.53823398  0.36309478  1.0
  H  H60  1  0.54501549  0.32137938  0.61309825  1.0
  H  H61  1  0.22380022  0.29206643  0.67870560  1.0
  H  H62  1  0.93166922  0.38701280  0.70833305  1.0
  H  H63  1  0.43166041  0.70832062  0.38701030  1.0
  H  H64  1  0.04500428  0.61308220  0.32137273  1.0
  H  H65  1  0.72379898  0.67870272  0.29206422  1.0
  H  H66  1  0.59286198  0.31967612  0.70667267  1.0
  H  H67  1  0.27332461  0.38721572  0.68020122  1.0
  H  H68  1  0.88611417  0.29354221  0.61305574  1.0
  H  H69  1  0.38609730  0.61304431  0.29352945  1.0
  H  H70  1  0.09285477  0.70665852  0.31965830  1.0
  H  H71  1  0.77332703  0.68019746  0.38721628  1.0
  H  H72  1  0.47060581  0.23371696  0.12054031  1.0
  H  H73  1  0.23690911  0.88666157  0.76625430  1.0
  H  H74  1  0.35055815  0.87949787  0.11343781  1.0
  H  H75  1  0.85056070  0.11343590  0.87949746  1.0
  H  H76  1  0.97060268  0.12054014  0.23371694  1.0
  H  H77  1  0.73691020  0.76625252  0.88666265  1.0
  H  H78  1  0.57441062  0.23140713  0.11522631  1.0
  H  H79  1  0.34280939  0.88346399  0.76846598  1.0
  H  H80  1  0.45985778  0.88516806  0.11680287  1.0
  H  H81  1  0.95985672  0.11680064  0.88516584  1.0
  H  H82  1  0.07440999  0.11522792  0.23140841  1.0
  H  H83  1  0.84281162  0.76846463  0.88346969  1.0
  H  H84  1  0.72830410  0.32089956  0.24725247  1.0
  H  H85  1  0.40743846  0.92629324  0.67928010  1.0
  H  H86  1  0.48188682  0.75311115  0.07396492  1.0
  H  H87  1  0.98188738  0.07396624  0.75310863  1.0
  H  H88  1  0.22830455  0.24725452  0.32090316  1.0
  H  H89  1  0.90743835  0.67927177  0.92629090  1.0
  H  H90  1  0.40561291  0.31586629  0.06793258  1.0
  H  H91  1  0.08932191  0.75200269  0.68382597  1.0
  H  H92  1  0.33757645  0.93172578  0.24800408  1.0
  H  H93  1  0.83757625  0.24800425  0.93172036  1.0
  H  H94  1  0.90561659  0.06794133  0.31586993  1.0
  H  H95  1  0.58932200  0.68382624  0.75200361  1.0
  H  H96  1  0.62699755  0.45194991  0.03877726  1.0
  H  H97  1  0.17464268  0.58663489  0.54794761  1.0
  H  H98  1  0.58799160  0.96104188  0.41355873  1.0
  H  H99  1  0.08799357  0.41355298  0.96104101  1.0
  H  H100  1  0.12699615  0.03877983  0.45195023  1.0
  H  H101  1  0.67464626  0.54794693  0.58664318  1.0
  H  H102  1  0.90635328  0.52493076  0.78736194  1.0
  H  H103  1  0.38167690  0.26234830  0.47522404  1.0
  H  H104  1  0.11888846  0.21284841  0.73728324  1.0
  H  H105  1  0.61886900  0.73727291  0.21283616  1.0
  H  H106  1  0.40634642  0.78736691  0.52493454  1.0
  H  H107  1  0.88167645  0.47521653  0.26234502  1.0
  H  H108  1  0.65354408  0.37922536  0.56602968  1.0
  H  H109  1  0.27411036  0.18683519  0.62074302  1.0
  H  H110  1  0.08729797  0.43413938  0.81325637  1.0
  H  H111  1  0.58729109  0.81324996  0.43413242  1.0
  H  H112  1  0.15354173  0.56602680  0.37922250  1.0
  H  H113  1  0.77411758  0.62074802  0.18684506  1.0
  H  H114  1  0.64393949  0.44945391  0.41820410  1.0
  H  H115  1  0.19462729  0.96858339  0.55044786  1.0
  H  H116  1  0.22660907  0.58179048  0.03125487  1.0
  H  H117  1  0.72660958  0.03126496  0.58179443  1.0
  H  H118  1  0.14394213  0.41820908  0.44945730  1.0
  H  H119  1  0.69463269  0.55044885  0.96858987  1.0
  C  C120  1  0.48107838  0.49264016  0.74462697  1.0
  C  C121  1  0.98858650  0.25234418  0.50748765  1.0
  C  C122  1  0.73591041  0.25505607  0.74748486  1.0
  C  C123  1  0.23591231  0.74748817  0.25505827  1.0
  C  C124  1  0.98108067  0.74462802  0.49262690  1.0
  C  C125  1  0.48858859  0.50749015  0.25234580  1.0
  C  C126  1  0.52834258  0.41299850  0.78209542  1.0
  C  C127  1  0.11552816  0.36939128  0.58708240  1.0
  C  C128  1  0.74602365  0.21790725  0.63053839  1.0
  C  C129  1  0.24601666  0.63053989  0.21791715  1.0
  C  C130  1  0.02834458  0.78209129  0.41298475  1.0
  C  C131  1  0.61552719  0.58708349  0.36939113  1.0
  C  C132  1  0.56448865  0.36365048  0.28167165  1.0
  C  C133  1  0.20075927  0.91781635  0.63623551  1.0
  C  C134  1  0.28357500  0.71836041  0.08218922  1.0
  C  C135  1  0.78357383  0.08218645  0.71836134  1.0
  C  C136  1  0.06449143  0.28167594  0.36365341  1.0
  C  C137  1  0.70076032  0.63623567  0.91782204  1.0
  C  C138  1  0.61842002  0.36710507  0.09076914  1.0
  C  C139  1  0.25096357  0.72337933  0.63283798  1.0
  C  C140  1  0.52788668  0.90942198  0.27680982  1.0
  C  C141  1  0.02788969  0.27680492  0.90941902  1.0
  C  C142  1  0.11842165  0.09077361  0.36710633  1.0
  C  C143  1  0.75096701  0.63283635  0.72338802  1.0
  C  C144  1  0.51992978  0.46188532  0.69444858  1.0
  C  C145  1  0.05813574  0.23286296  0.53822851  1.0
  C  C146  1  0.82493005  0.30544090  0.76711777  1.0
  C  C147  1  0.32493085  0.76711715  0.30543871  1.0
  C  C148  1  0.01992926  0.69444419  0.46187383  1.0
  C  C149  1  0.55813762  0.53823053  0.23286303  1.0
  C  C150  1  0.76262336  0.45642052  0.76670893  1.0
  C  C151  1  0.30648265  0.31040417  0.54364011  1.0
  C  C152  1  0.99579213  0.23348309  0.68963291  1.0
  C  C153  1  0.49577671  0.68961694  0.23347282  1.0
  C  C154  1  0.26261259  0.76670459  0.45641694  1.0
  C  C155  1  0.80648447  0.54363569  0.31040218  1.0
  C  C156  1  0.58994871  0.36081230  0.68045756  1.0
  C  C157  1  0.22927108  0.31987271  0.63917544  1.0
  C  C158  1  0.90927425  0.31967314  0.68036458  1.0
  C  C159  1  0.40926596  0.68035356  0.31967007  1.0
  C  C160  1  0.08994098  0.68044400  0.36079776  1.0
  C  C161  1  0.72927365  0.63917326  0.31987259  1.0
  C  C162  1  0.54314648  0.27216316  0.13785159  1.0
  C  C163  1  0.27084296  0.86542428  0.72770449  1.0
  C  C164  1  0.40583352  0.86228125  0.13468867  1.0
  C  C165  1  0.90583412  0.13468590  0.86227839  1.0
  C  C166  1  0.04314636  0.13785569  0.27216440  1.0
  C  C167  1  0.77084342  0.72770198  0.86542756  1.0
  C  C168  1  0.68596986  0.34356080  0.27337969  1.0
  C  C169  1  0.34235922  0.92957988  0.65640861  1.0
  C  C170  1  0.41343476  0.72686143  0.07048865  1.0
  C  C171  1  0.91343670  0.07049366  0.72685885  1.0
  C  C172  1  0.18597011  0.27338327  0.34355967  1.0
  C  C173  1  0.84235657  0.65640347  0.92957710  1.0
  C  C174  1  0.47285017  0.34108941  0.06888410  1.0
  C  C175  1  0.13136398  0.72769404  0.65868867  1.0
  C  C176  1  0.40392016  0.93089759  0.27236555  1.0
  C  C177  1  0.90392138  0.27236271  0.93089384  1.0
  C  C178  1  0.97285208  0.06888939  0.34109504  1.0
  C  C179  1  0.63136554  0.65868951  0.72769557  1.0
  C  C180  1  0.58953176  0.41061270  0.05583503  1.0
  C  C181  1  0.17846329  0.64500805  0.58925071  1.0
  C  C182  1  0.53361037  0.94406871  0.35513298  1.0
  C  C183  1  0.03361161  0.35512608  0.94406541  1.0
  C  C184  1  0.08953160  0.05583824  0.41061311  1.0
  C  C185  1  0.67846869  0.58925171  0.64501254  1.0
  C  C186  1  0.83222352  0.48700452  0.74718752  1.0
  C  C187  1  0.34542067  0.26020384  0.51312300  1.0
  C  C188  1  0.08492051  0.25302765  0.73970205  1.0
  C  C189  1  0.58490356  0.73968776  0.25301631  1.0
  C  C190  1  0.33221824  0.74718944  0.48700450  1.0
  C  C191  1  0.84541980  0.51311511  0.26019832  1.0
  C  C192  1  0.70400863  0.41247776  0.63103073  1.0
  C  C193  1  0.29147852  0.21861105  0.58754866  1.0
  C  C194  1  0.07276901  0.36914136  0.78144623  1.0
  C  C195  1  0.57275857  0.78143661  0.36913382  1.0
  C  C196  1  0.20400661  0.63102826  0.41247593  1.0
  C  C197  1  0.79148248  0.58754716  0.21861242  1.0
  C  C198  1  0.63914994  0.40915668  0.35893223  1.0
  C  C199  1  0.23004371  0.94960981  0.59079001  1.0
  C  C200  1  0.28103183  0.64112814  0.05030067  1.0
  C  C201  1  0.78102998  0.05030286  0.64112877  1.0
  C  C202  1  0.13915303  0.35893618  0.40915997  1.0
  C  C203  1  0.73004596  0.59079057  0.94961495  1.0
  I  I204  1  0.30388054  0.52900702  0.82955008  1.0
  I  I205  1  0.77489212  0.30065846  0.47108570  1.0
  I  I206  1  0.47417106  0.17038582  0.69924346  1.0
  I  I207  1  0.97417278  0.69924924  0.17038389  1.0
  I  I208  1  0.80388418  0.82955186  0.52900381  1.0
  I  I209  1  0.27489125  0.47108191  0.30065735  1.0
  I  I210  1  0.34550612  0.30085546  0.82794598  1.0
  I  I211  1  0.04468795  0.52737750  0.69918522  1.0
  I  I212  1  0.51726475  0.17166351  0.47261138  1.0
  I  I213  1  0.01726238  0.47260679  0.17165699  1.0
  I  I214  1  0.84549352  0.82794306  0.30084707  1.0
  I  I215  1  0.54468595  0.69918891  0.52738435  1.0
  I  I216  1  0.29346441  0.44541992  0.03428735  1.0
  I  I217  1  0.84770579  0.58896920  0.55445456  1.0
  I  I218  1  0.25870137  0.96538208  0.41099849  1.0
  I  I219  1  0.75869606  0.41099588  0.96538097  1.0
  I  I220  1  0.79345998  0.03428520  0.44541589  1.0
  I  I221  1  0.34770646  0.55445749  0.58896805  1.0
  I  I222  1  0.56038482  0.58815343  0.03661412  1.0
  I  I223  1  0.97163644  0.44819533  0.41160792  1.0
  I  I224  1  0.52361904  0.96342271  0.55186964  1.0
  I  I225  1  0.02362219  0.55186395  0.96341927  1.0
  I  I226  1  0.06038129  0.03663063  0.58815386  1.0
  I  I227  1  0.47163940  0.41160872  0.44819759  1.0
  N  N228  1  0.48606478  0.46117677  0.79854950  1.0
  N  N229  1  0.02506585  0.33771612  0.53892880  1.0
  N  N230  1  0.68718452  0.20120517  0.66210119  1.0
  N  N231  1  0.18717990  0.66210442  0.20121199  1.0
  N  N232  1  0.98606503  0.79854701  0.46116118  1.0
  N  N233  1  0.52506743  0.53893127  0.33771740  1.0
  N  N234  1  0.79489782  0.45867551  0.66233292  1.0
  N  N235  1  0.33620385  0.20363027  0.54139932  1.0
  N  N236  1  0.13241865  0.33786293  0.79627538  1.0
  N  N237  1  0.63240178  0.79626641  0.33785229  1.0
  N  N238  1  0.29489583  0.66233472  0.45867648  1.0
  N  N239  1  0.83620357  0.54139305  0.20362711  1.0
  N  N240  1  0.49896173  0.39374378  0.04250243  1.0
  N  N241  1  0.10475309  0.64865274  0.60602892  1.0
  N  N242  1  0.45622542  0.95719827  0.35141119  1.0
  N  N243  1  0.95622927  0.35140818  0.95719725  1.0
  N  N244  1  0.99896301  0.04250570  0.39374696  1.0
  N  N245  1  0.60475813  0.60603369  0.64865542  1.0
  N  N246  1  0.54985409  0.41173669  0.71905774  1.0
  N  N247  1  0.13823719  0.30758081  0.58833183  1.0
  N  N248  1  0.83045864  0.28100252  0.69247228  1.0
  N  N249  1  0.33045296  0.69246935  0.28100607  1.0
  N  N250  1  0.04985460  0.71905296  0.41172313  1.0
  N  N251  1  0.63823840  0.58833435  0.30758209  1.0
  N  N252  1  0.54347003  0.32260238  0.09829302  1.0
  N  N253  1  0.22054993  0.77546899  0.67725886  1.0
  N  N254  1  0.44540628  0.90175128  0.22464650  1.0
  N  N255  1  0.94540646  0.22464263  0.90174702  1.0
  N  N256  1  0.04347032  0.09829791  0.32260485  1.0
  N  N257  1  0.72054948  0.67725637  0.77547320  1.0
  N  N258  1  0.71399988  0.39590942  0.35282847  1.0
  N  N259  1  0.31814531  0.95674048  0.60409179  1.0
  N  N260  1  0.36203179  0.64735558  0.04321342  1.0
  N  N261  1  0.86203148  0.04321917  0.64735368  1.0
  N  N262  1  0.21400167  0.35283206  0.39591008  1.0
  N  N263  1  0.81814513  0.60409110  0.95674310  1.0
  N  N264  1  0.68175607  0.40952848  0.69258757  1.0
  N  N265  1  0.27231561  0.28318133  0.59046606  1.0
  N  N266  1  0.98896861  0.30756186  0.71695148  1.0
  N  N267  1  0.48895774  0.71693634  0.30755562  1.0
  N  N268  1  0.18174859  0.69258091  0.40952146  1.0
  N  N269  1  0.77231853  0.59046180  0.28318141  1.0
  N  N270  1  0.59475865  0.32164865  0.22769054  1.0
  N  N271  1  0.27300069  0.90580628  0.67825521  1.0
  N  N272  1  0.36782163  0.77244920  0.09428328  1.0
  N  N273  1  0.86782299  0.09428316  0.77244774  1.0
  N  N274  1  0.09475862  0.22769515  0.32164935  1.0
  N  N275  1  0.77299945  0.67825022  0.90580555  1.0
