# generated using pymatgen
data_Cu4H8C13N8
_symmetry_space_group_name_H-M   'P 1'
_cell_length_a   19.84063836
_cell_length_b   19.85149353
_cell_length_c   19.85898769
_cell_angle_alpha   109.30169335
_cell_angle_beta   109.61741876
_cell_angle_gamma   109.46889626
_symmetry_Int_Tables_number   1
_chemical_formula_structural   Cu4H8C13N8
_chemical_formula_sum   'Cu24 H48 C78 N48'
_cell_volume   6023.08495719
_cell_formula_units_Z   6
loop_
 _symmetry_equiv_pos_site_id
 _symmetry_equiv_pos_as_xyz
  1  'x, y, z'
loop_
 _atom_site_type_symbol
 _atom_site_label
 _atom_site_symmetry_multiplicity
 _atom_site_fract_x
 _atom_site_fract_y
 _atom_site_fract_z
 _atom_site_occupancy
  Cu  Cu0  1  0.36090263  0.43447916  0.46982847  1.0
  Cu  Cu1  1  0.43386140  0.47218872  0.35825123  1.0
  Cu  Cu2  1  0.46980421  0.35865941  0.43115381  1.0
  Cu  Cu3  1  0.13960334  0.60888585  0.07251949  1.0
  Cu  Cu4  1  0.06567505  0.42470278  0.03790439  1.0
  Cu  Cu5  1  0.02954815  0.46090835  0.88823953  1.0
  Cu  Cu6  1  0.46427976  0.89069843  0.03081705  1.0
  Cu  Cu7  1  0.61390109  0.07530638  0.14147951  1.0
  Cu  Cu8  1  0.42746964  0.03820745  0.06820360  1.0
  Cu  Cu9  1  0.03607581  0.06634198  0.42741404  1.0
  Cu  Cu10  1  0.88641446  0.02742700  0.46219546  1.0
  Cu  Cu11  1  0.07248467  0.14113157  0.61160424  1.0
  Cu  Cu12  1  0.86061562  0.96928392  0.93337308  1.0
  Cu  Cu13  1  0.93417616  0.85805127  0.97199129  1.0
  Cu  Cu14  1  0.97092629  0.93158440  0.85927057  1.0
  Cu  Cu15  1  0.63994915  0.57256305  0.10911161  1.0
  Cu  Cu16  1  0.56609678  0.53810678  0.92464411  1.0
  Cu  Cu17  1  0.52881345  0.38836249  0.96094121  1.0
  Cu  Cu18  1  0.96348831  0.53101512  0.39084585  1.0
  Cu  Cu19  1  0.11336927  0.64153961  0.57528583  1.0
  Cu  Cu20  1  0.92705010  0.56767437  0.53879216  1.0
  Cu  Cu21  1  0.53593299  0.92780441  0.56683871  1.0
  Cu  Cu22  1  0.38598873  0.96257332  0.52802378  1.0
  Cu  Cu23  1  0.57247124  0.11212108  0.64102402  1.0
  H  H24  1  0.25967760  0.52865216  0.46667010  1.0
  H  H25  1  0.36077578  0.58337625  0.31696225  1.0
  H  H26  1  0.46295701  0.25502207  0.52451151  1.0
  H  H27  1  0.31872121  0.36342960  0.58078919  1.0
  H  H28  1  0.52841427  0.46739873  0.25706983  1.0
  H  H29  1  0.58027666  0.31705323  0.35920040  1.0
  H  H30  1  0.24126238  0.70750287  0.26763959  1.0
  H  H31  1  0.13777759  0.45701409  0.22211370  1.0
  H  H32  1  0.03541322  0.56060978  0.79090800  1.0
  H  H33  1  0.18235162  0.76143197  0.04322737  1.0
  H  H34  1  0.97124011  0.22888743  0.93936220  1.0
  H  H35  1  0.91898872  0.27847241  0.73675501  1.0
  H  H36  1  0.56153374  0.79276547  0.03470353  1.0
  H  H37  1  0.76617399  0.04337001  0.18223181  1.0
  H  H38  1  0.23028205  0.93830314  0.97432373  1.0
  H  H39  1  0.28213300  0.73758626  0.92013427  1.0
  H  H40  1  0.71040618  0.27098746  0.24242615  1.0
  H  H41  1  0.45771909  0.22047455  0.13958726  1.0
  H  H42  1  0.93949930  0.97276080  0.23242934  1.0
  H  H43  1  0.73439430  0.91592863  0.27795276  1.0
  H  H44  1  0.26950958  0.24528746  0.70879794  1.0
  H  H45  1  0.21806028  0.13838445  0.45652028  1.0
  H  H46  1  0.78939344  0.03172665  0.56108233  1.0
  H  H47  1  0.04186269  0.18222980  0.76330702  1.0
  H  H48  1  0.75915707  0.96601281  0.02740136  1.0
  H  H49  1  0.86220989  0.81784763  0.08372555  1.0
  H  H50  1  0.96565922  0.02639348  0.75678774  1.0
  H  H51  1  0.81785677  0.07959307  0.86137726  1.0
  H  H52  1  0.02850702  0.75631271  0.96732433  1.0
  H  H53  1  0.08172930  0.85970547  0.81848958  1.0
  H  H54  1  0.74190998  0.76792585  0.20753327  1.0
  H  H55  1  0.63893111  0.72191695  0.95671953  1.0
  H  H56  1  0.53378405  0.29071541  0.06049133  1.0
  H  H57  1  0.68236453  0.54273522  0.26176092  1.0
  H  H58  1  0.47119871  0.43966097  0.72873892  1.0
  H  H59  1  0.41774296  0.23716741  0.77829604  1.0
  H  H60  1  0.06053490  0.53511706  0.29250095  1.0
  H  H61  1  0.26536312  0.68245221  0.54329953  1.0
  H  H62  1  0.72963520  0.47261305  0.43878835  1.0
  H  H63  1  0.78118942  0.42032571  0.23800920  1.0
  H  H64  1  0.21061171  0.74226308  0.77118949  1.0
  H  H65  1  0.95835113  0.63945307  0.72138676  1.0
  H  H66  1  0.43885920  0.73248335  0.47265162  1.0
  H  H67  1  0.23398269  0.77873739  0.41613583  1.0
  H  H68  1  0.76990167  0.20922294  0.74370141  1.0
  H  H69  1  0.71824677  0.95684671  0.63912713  1.0
  H  H70  1  0.28896463  0.06154088  0.53270914  1.0
  H  H71  1  0.54125944  0.26357941  0.68146240  1.0
  C  C72  1  0.29201531  0.53546850  0.43274923  1.0
  C  C73  1  0.29366760  0.57747131  0.38855181  1.0
  C  C74  1  0.34381033  0.56343847  0.35643809  1.0
  C  C75  1  0.43053312  0.28900544  0.53160127  1.0
  C  C76  1  0.38719162  0.29288453  0.57430427  1.0
  C  C77  1  0.35695150  0.34439693  0.56041041  1.0
  C  C78  1  0.53430145  0.43324009  0.28940812  1.0
  C  C79  1  0.57579149  0.38856538  0.29169456  1.0
  C  C80  1  0.56079641  0.35656922  0.34167274  1.0
  C  C81  1  0.20849391  0.64131816  0.24237695  1.0
  C  C82  1  0.20610507  0.59559780  0.28284773  1.0
  C  C83  1  0.15543843  0.51334967  0.21893157  1.0
  C  C84  1  0.06859740  0.60025283  0.85726806  1.0
  C  C85  1  0.11265089  0.68628060  0.90435389  1.0
  C  C86  1  0.14353616  0.70279765  0.98610530  1.0
  C  C87  1  0.96520394  0.25513347  0.89913647  1.0
  C  C88  1  0.92362159  0.21577034  0.81305217  1.0
  C  C89  1  0.93853304  0.28057406  0.79578424  1.0
  C  C90  1  0.60230074  0.85895805  0.06810306  1.0
  C  C91  1  0.68851890  0.90476693  0.11164194  1.0
  C  C92  1  0.70670135  0.98698861  0.14332049  1.0
  C  C93  1  0.25711829  0.89870821  0.96776294  1.0
  C  C94  1  0.21816755  0.81267718  0.92552495  1.0
  C  C95  1  0.28353959  0.79620770  0.93998662  1.0
  C  C96  1  0.64387484  0.24452534  0.20995368  1.0
  C  C97  1  0.59682393  0.28362339  0.20744954  1.0
  C  C98  1  0.51483934  0.21863237  0.15733789  1.0
  C  C99  1  0.89855210  0.96543120  0.25769432  1.0
  C  C100  1  0.81233066  0.92293812  0.21722572  1.0
  C  C101  1  0.79394183  0.93641154  0.28113761  1.0
  C  C102  1  0.24281522  0.21171131  0.64245850  1.0
  C  C103  1  0.28179316  0.20847585  0.59538720  1.0
  C  C104  1  0.21655267  0.15705568  0.51365507  1.0
  C  C105  1  0.85591769  0.06593830  0.60119441  1.0
  C  C106  1  0.90278194  0.11059166  0.68726890  1.0
  C  C107  1  0.98484128  0.14269249  0.70435581  1.0
  C  C108  1  0.79179836  0.93231963  0.03447244  1.0
  C  C109  1  0.79414336  0.88859663  0.07698174  1.0
  C  C110  1  0.84462345  0.85681279  0.06325809  1.0
  C  C111  1  0.93220720  0.03261527  0.78972553  1.0
  C  C112  1  0.88788743  0.07449303  0.79256066  1.0
  C  C113  1  0.85684339  0.05985330  0.84321831  1.0
  C  C114  1  0.03474715  0.78897997  0.93351807  1.0
  C  C115  1  0.07666634  0.79165631  0.88935991  1.0
  C  C116  1  0.06189293  0.84191488  0.85761640  1.0
  C  C117  1  0.70927321  0.74253488  0.14128530  1.0
  C  C118  1  0.70701656  0.78287235  0.09537820  1.0
  C  C119  1  0.65649029  0.71886482  0.01315887  1.0
  C  C120  1  0.56743322  0.35705556  0.10027306  1.0
  C  C121  1  0.61180600  0.40396254  0.18639724  1.0
  C  C122  1  0.64320074  0.48574365  0.20300793  1.0
  C  C123  1  0.46499589  0.39948815  0.75503274  1.0
  C  C124  1  0.42312934  0.31346893  0.71564435  1.0
  C  C125  1  0.43771683  0.29619397  0.78045838  1.0
  C  C126  1  0.10140834  0.56852605  0.35873742  1.0
  C  C127  1  0.18769535  0.61199557  0.40464170  1.0
  C  C128  1  0.20586073  0.64360807  0.48685886  1.0
  C  C129  1  0.75641281  0.46662863  0.39917841  1.0
  C  C130  1  0.71740000  0.42490401  0.31306465  1.0
  C  C131  1  0.78275743  0.43986102  0.29668361  1.0
  C  C132  1  0.14410517  0.70983172  0.74482507  1.0
  C  C133  1  0.09736986  0.70740397  0.78414519  1.0
  C  C134  1  0.01527644  0.65722143  0.71927972  1.0
  C  C135  1  0.39798732  0.75793795  0.46556475  1.0
  C  C136  1  0.31172386  0.71763656  0.42305433  1.0
  C  C137  1  0.29349406  0.78170934  0.43668029  1.0
  C  C138  1  0.74311559  0.14285363  0.71076199  1.0
  C  C139  1  0.78210595  0.09564951  0.70794531  1.0
  C  C140  1  0.71672759  0.01400083  0.65726644  1.0
  C  C141  1  0.35546647  0.10158676  0.56648493  1.0
  C  C142  1  0.40228081  0.18761853  0.61053941  1.0
  C  C143  1  0.48433678  0.20462828  0.64236215  1.0
  C  C144  1  0.37356708  0.25066888  0.62390768  1.0
  C  C145  1  0.12629687  0.74952893  0.87588709  1.0
  C  C146  1  0.62549090  0.37529479  0.24964378  1.0
  C  C147  1  0.87402097  0.12404870  0.75022018  1.0
  C  C148  1  0.24980100  0.62569760  0.37479641  1.0
  C  C149  1  0.75053017  0.87476523  0.12527711  1.0
  N  N150  1  0.37038626  0.51646455  0.38028931  1.0
  N  N151  1  0.33823502  0.49904974  0.42762326  1.0
  N  N152  1  0.38113612  0.36971959  0.51303553  1.0
  N  N153  1  0.42677622  0.33537811  0.49503983  1.0
  N  N154  1  0.51377004  0.38082635  0.36752652  1.0
  N  N155  1  0.49724485  0.42842254  0.33510312  1.0
  N  N156  1  0.12926296  0.51046434  0.14535585  1.0
  N  N157  1  0.16217908  0.58983015  0.15987049  1.0
  N  N158  1  0.11912951  0.63133570  0.98738101  1.0
  N  N159  1  0.07266985  0.56762137  0.90754240  1.0
  N  N160  1  0.98557554  0.35351162  0.86685846  1.0
  N  N161  1  0.00221954  0.33783641  0.93109787  1.0
  N  N162  1  0.63586660  0.98973567  0.11978593  1.0
  N  N163  1  0.57107011  0.91033529  0.07315653  1.0
  N  N164  1  0.35631167  0.86767722  0.98725563  1.0
  N  N165  1  0.34008322  0.93139022  0.00460799  1.0
  N  N166  1  0.51331480  0.14580939  0.13159957  1.0
  N  N167  1  0.59339282  0.16180135  0.16424567  1.0
  N  N168  1  0.86465810  0.98354958  0.35471524  1.0
  N  N169  1  0.92955924  0.00159758  0.34020274  1.0
  N  N170  1  0.14378291  0.13123469  0.51239690  1.0
  N  N171  1  0.15989120  0.16508549  0.59221869  1.0
  N  N172  1  0.98654943  0.11849801  0.63318706  1.0
  N  N173  1  0.90654651  0.07085750  0.56907019  1.0
  N  N174  1  0.87069082  0.88032123  0.01594774  1.0
  N  N175  1  0.83793522  0.92717147  0.99801129  1.0
  N  N176  1  0.88130600  0.01272129  0.86892139  1.0
  N  N177  1  0.92806326  0.99569226  0.83574619  1.0
  N  N178  1  0.01462355  0.86762308  0.88153469  1.0
  N  N179  1  0.99769756  0.83477734  0.92865357  1.0
  N  N180  1  0.63025023  0.64541380  0.01044668  1.0
  N  N181  1  0.66299199  0.66001154  0.08991898  1.0
  N  N182  1  0.61886301  0.48724445  0.13158433  1.0
  N  N183  1  0.57185534  0.40742876  0.06772739  1.0
  N  N184  1  0.48493651  0.36720969  0.85346042  1.0
  N  N185  1  0.50195392  0.43141223  0.83777258  1.0
  N  N186  1  0.13507234  0.62015193  0.48956284  1.0
  N  N187  1  0.07020299  0.57357682  0.41008353  1.0
  N  N188  1  0.85559658  0.48704054  0.36821138  1.0
  N  N189  1  0.83940571  0.50377300  0.43193261  1.0
  N  N190  1  0.01337763  0.63141399  0.64630860  1.0
  N  N191  1  0.09333889  0.66406649  0.66206940  1.0
  N  N192  1  0.36425869  0.85514060  0.48397067  1.0
  N  N193  1  0.42916928  0.84047413  0.50196624  1.0
  N  N194  1  0.64390320  0.01284367  0.63152964  1.0
  N  N195  1  0.66012936  0.09276851  0.66470212  1.0
  N  N196  1  0.48616345  0.13348163  0.61857258  1.0
  N  N197  1  0.40617374  0.06943714  0.57146581  1.0
