# generated using pymatgen
data_Zn6H45C66N9O32
_symmetry_space_group_name_H-M   'P 1'
_cell_length_a   18.72296020
_cell_length_b   18.72965826
_cell_length_c   18.74110037
_cell_angle_alpha   109.37436961
_cell_angle_beta   109.42293190
_cell_angle_gamma   109.43252957
_symmetry_Int_Tables_number   1
_chemical_formula_structural   Zn6H45C66N9O32
_chemical_formula_sum   'Zn6 H45 C66 N9 O32'
_cell_volume   5070.59426926
_cell_formula_units_Z   1
loop_
 _symmetry_equiv_pos_site_id
 _symmetry_equiv_pos_as_xyz
  1  'x, y, z'
loop_
 _atom_site_type_symbol
 _atom_site_label
 _atom_site_symmetry_multiplicity
 _atom_site_fract_x
 _atom_site_fract_y
 _atom_site_fract_z
 _atom_site_occupancy
  Zn  Zn0  1  0.56109508  0.56903644  0.50152705  1.0
  Zn  Zn1  1  0.43959235  0.44167791  0.50174823  1.0
  Zn  Zn2  1  0.00288020  0.56045530  0.05264363  1.0
  Zn  Zn3  1  0.00495313  0.43550331  0.93198320  1.0
  Zn  Zn4  1  0.56783233  0.99794621  0.05604879  1.0
  Zn  Zn5  1  0.43658738  0.99994026  0.94245844  1.0
  H  H6  1  0.66110981  0.56955117  0.77883169  1.0
  H  H7  1  0.71711969  0.48856766  0.54368026  1.0
  H  H8  1  0.31685901  0.75080450  0.67691087  1.0
  H  H9  1  0.65372675  0.78087086  0.76484894  1.0
  H  H10  1  0.88600045  0.21520541  0.98137087  1.0
  H  H11  1  0.78503110  0.11552122  0.00664219  1.0
  H  H12  1  0.62242348  0.30162796  0.03141910  1.0
  H  H13  1  0.20911134  0.57127419  0.87402304  1.0
  H  H14  1  0.33153632  0.69018751  0.88785867  1.0
  H  H15  1  0.40022825  0.89844559  0.20764514  1.0
  H  H16  1  0.26755601  0.78362126  0.18958917  1.0
  H  H17  1  0.39789906  0.24252620  0.05904922  1.0
  H  H18  1  0.19972059  0.80730272  0.11967816  1.0
  H  H19  1  0.93829388  0.45248814  0.63644440  1.0
  H  H20  1  0.94669824  0.49336756  0.77748757  1.0
  H  H21  1  0.51344765  0.30241831  0.10402952  1.0
  H  H22  1  0.49490057  0.77271374  0.59285834  1.0
  H  H23  1  0.17487199  0.57125561  0.48303330  1.0
  H  H24  1  0.67912630  0.92804704  0.84216838  1.0
  H  H25  1  0.66840323  0.96513272  0.92911719  1.0
  H  H26  1  0.68690179  0.85389622  0.98754317  1.0
  H  H27  1  0.58751916  0.83928406  0.96348976  1.0
  H  H28  1  0.52511526  0.42017679  0.22824478  1.0
  H  H29  1  0.62620418  0.69434724  0.86391850  1.0
  H  H30  1  0.70696276  0.72205228  0.84266487  1.0
  H  H31  1  0.51239154  0.25080140  0.88385217  1.0
  H  H32  1  0.51627353  0.16283617  0.88261104  1.0
  H  H33  1  0.69359776  0.37098973  0.80800675  1.0
  H  H34  1  0.76309736  0.41970039  0.44656869  1.0
  H  H35  1  0.84794807  0.40252552  0.48294728  1.0
  H  H36  1  0.81495458  0.55760587  0.11953115  1.0
  H  H37  1  0.27899893  0.93229583  0.09561756  1.0
  H  H38  1  0.35789537  0.99870388  0.19969193  1.0
  H  H39  1  0.40956887  0.36163111  0.18266595  1.0
  H  H40  1  0.71085658  0.56655465  0.90995945  1.0
  H  H41  1  0.81169654  0.57773972  0.96437966  1.0
  H  H42  1  0.48979514  0.25763208  0.43779552  1.0
  H  H43  1  0.48529183  0.16114102  0.38926905  1.0
  H  H44  1  0.53322235  0.07465520  0.23606843  1.0
  H  H45  1  0.56765827  0.13640316  0.34273285  1.0
  H  H46  1  0.25433103  0.39187521  0.24787204  1.0
  H  H47  1  0.13317623  0.39310157  0.14219227  1.0
  H  H48  1  0.32330257  0.73910682  0.28777921  1.0
  H  H49  1  0.27818251  0.73613753  0.35835229  1.0
  H  H50  1  0.44981013  0.73645176  0.38635204  1.0
  C  C51  1  0.48889286  0.36926699  0.39029437  1.0
  C  C52  1  0.50403468  0.17160290  0.26263527  1.0
  C  C53  1  0.48668323  0.17149134  0.18281210  1.0
  C  C54  1  0.63969602  0.53519138  0.62403453  1.0
  C  C55  1  0.47392926  0.23925720  0.17658854  1.0
  C  C56  1  0.46121600  0.28063703  0.11959870  1.0
  C  C57  1  0.46839939  0.35535012  0.19787897  1.0
  C  C58  1  0.33573644  0.60862715  0.33403950  1.0
  C  C59  1  0.33509646  0.53170215  0.32522403  1.0
  C  C60  1  0.25842886  0.45370703  0.25591462  1.0
  C  C61  1  0.18976630  0.45438437  0.19760127  1.0
  C  C62  1  0.77118392  0.51361331  0.67672502  1.0
  C  C63  1  0.19081732  0.53288078  0.20772759  1.0
  C  C64  1  0.26482655  0.60956899  0.27879802  1.0
  C  C65  1  0.30911888  0.70837737  0.32580899  1.0
  C  C66  1  0.45353906  0.58817904  0.60044788  1.0
  C  C67  1  0.38965886  0.70839206  0.38890594  1.0
  C  C68  1  0.51983511  0.72325918  0.73944526  1.0
  C  C69  1  0.44574900  0.65869621  0.65925964  1.0
  C  C70  1  0.37176088  0.67034699  0.63818510  1.0
  C  C71  1  0.37426195  0.74312199  0.69638918  1.0
  C  C72  1  0.44907880  0.80607702  0.77800362  1.0
  C  C73  1  0.70967222  0.53554490  0.69268611  1.0
  C  C74  1  0.52073961  0.79275901  0.79799797  1.0
  C  C75  1  0.61659137  0.83307067  0.86653253  1.0
  C  C76  1  0.61666221  0.75546788  0.79402108  1.0
  C  C77  1  0.88791707  0.35900991  0.97097342  1.0
  C  C78  1  0.40687937  0.52753519  0.38528176  1.0
  C  C79  1  0.89579094  0.52817947  0.89596042  1.0
  C  C80  1  0.13246998  0.58430450  0.97659871  1.0
  C  C81  1  0.11820865  0.52899720  0.13956994  1.0
  C  C82  1  0.42164790  0.86672103  0.01288997  1.0
  C  C83  1  0.48576934  0.10687639  0.11046085  1.0
  C  C84  1  0.71000160  0.55421785  0.77008110  1.0
  C  C85  1  0.63631776  0.11055572  0.00822407  1.0
  C  C86  1  0.45640098  0.88236695  0.84471560  1.0
  C  C87  1  0.74970892  0.29615065  0.97581933  1.0
  C  C88  1  0.82209091  0.29153006  0.97498320  1.0
  C  C89  1  0.83107330  0.22246486  0.98301015  1.0
  C  C90  1  0.76679791  0.48857799  0.59475415  1.0
  C  C91  1  0.77327493  0.16541030  0.99620542  1.0
  C  C92  1  0.69949357  0.17028587  0.99533716  1.0
  C  C93  1  0.68859934  0.23571071  0.98191029  1.0
  C  C94  1  0.62962863  0.27554204  0.97370380  1.0
  C  C95  1  0.77407319  0.55740818  0.84025070  1.0
  C  C96  1  0.70586353  0.35184930  0.97593584  1.0
  C  C97  1  0.25587746  0.73735246  0.05781650  1.0
  C  C98  1  0.21129305  0.65217187  0.98844625  1.0
  C  C99  1  0.24256969  0.63696611  0.92921916  1.0
  C  C100  1  0.31227125  0.70425398  0.93752523  1.0
  C  C101  1  0.35584736  0.79010681  0.00731698  1.0
  C  C102  1  0.82422589  0.46394676  0.57799522  1.0
  C  C103  1  0.32701962  0.80335863  0.06737531  1.0
  C  C104  1  0.33994777  0.87421798  0.14798783  1.0
  C  C105  1  0.25683535  0.79809828  0.13587635  1.0
  C  C106  1  0.83548243  0.53476505  0.82732005  1.0
  C  C107  1  0.89024463  0.46826215  0.64705953  1.0
  C  C108  1  0.89524000  0.49188174  0.72724399  1.0
  C  C109  1  0.83465450  0.51303210  0.74522344  1.0
  C  C110  1  0.41037304  0.74496811  0.48285864  1.0
  C  C111  1  0.29431621  0.61003063  0.54910477  1.0
  C  C112  1  0.67402880  0.36764498  0.90011467  1.0
  C  C113  1  0.75669538  0.43525196  0.06416231  1.0
  C  C114  1  0.47970615  0.30433495  0.24484450  1.0
  C  C115  1  0.48903854  0.30167645  0.32097539  1.0
  C  C116  1  0.49842811  0.23218947  0.32816672  1.0
  N  N117  1  0.68069965  0.92048579  0.89413424  1.0
  N  N118  1  0.62301016  0.81926570  0.93937384  1.0
  N  N119  1  0.64124613  0.69780965  0.81685870  1.0
  N  N120  1  0.55043537  0.22243678  0.88983198  1.0
  N  N121  1  0.82089928  0.44002967  0.49776372  1.0
  N  N122  1  0.33851924  0.94843913  0.14147328  1.0
  N  N123  1  0.77077158  0.58197110  0.91639107  1.0
  N  N124  1  0.51000733  0.22403996  0.40196597  1.0
  N  N125  1  0.52087489  0.11013151  0.27991624  1.0
  O  O126  1  0.53523268  0.44818866  0.41258240  1.0
  O  O127  1  0.39082958  0.90040898  0.97161394  1.0
  O  O128  1  0.53727366  0.07648444  0.12886155  1.0
  O  O129  1  0.44090888  0.34314977  0.42268330  1.0
  O  O130  1  0.43385940  0.08625154  0.03244223  1.0
  O  O131  1  0.66478741  0.07836209  0.05502794  1.0
  O  O132  1  0.55821842  0.09568198  0.97270667  1.0
  O  O133  1  0.52052035  0.91781988  0.92107986  1.0
  O  O134  1  0.40208839  0.91007655  0.82646272  1.0
  O  O135  1  0.66303443  0.58716357  0.59487250  1.0
  O  O136  1  0.56150461  0.48310563  0.59917041  1.0
  O  O137  1  0.91836905  0.33351648  0.92144335  1.0
  O  O138  1  0.51309474  0.61687072  0.58278337  1.0
  O  O139  1  0.40634002  0.50815473  0.57688227  1.0
  O  O140  1  0.48609562  0.58581056  0.41559840  1.0
  O  O141  1  0.38494576  0.46622245  0.40248137  1.0
  O  O142  1  0.90872682  0.43718406  0.01809154  1.0
  O  O143  1  0.36293895  0.76012488  0.50959003  1.0
  O  O144  1  0.48917865  0.75750884  0.53510413  1.0
  O  O145  1  0.29647132  0.56677423  0.48544776  1.0
  O  O146  1  0.21981844  0.60878760  0.54474827  1.0
  O  O147  1  0.61825160  0.38893647  0.88380924  1.0
  O  O148  1  0.92038477  0.57901045  0.97695188  1.0
  O  O149  1  0.71524962  0.35662044  0.85365430  1.0
  O  O150  1  0.77202014  0.43573448  0.13279710  1.0
  O  O151  1  0.78343128  0.50963890  0.05927255  1.0
  O  O152  1  0.92053729  0.47260651  0.87495395  1.0
  O  O153  1  0.09995382  0.61079786  0.02228202  1.0
  O  O154  1  0.10134598  0.50333555  0.92169127  1.0
  O  O155  1  0.09244283  0.58444053  0.16212553  1.0
  O  O156  1  0.08630123  0.47025772  0.06175576  1.0
  O  O157  1  0.50355439  0.89446049  0.06007731  1.0
