# generated using pymatgen
data_Zn2H20C27N7O8F3
_symmetry_space_group_name_H-M   'P 1'
_cell_length_a   9.79621177
_cell_length_b   11.10235262
_cell_length_c   22.21479722
_cell_angle_alpha   90.73486557
_cell_angle_beta   90.31972463
_cell_angle_gamma   91.74697995
_symmetry_Int_Tables_number   1
_chemical_formula_structural   Zn2H20C27N7O8F3
_chemical_formula_sum   'Zn4 H40 C54 N14 O16 F6'
_cell_volume   2414.73876685
_cell_formula_units_Z   2
loop_
 _symmetry_equiv_pos_site_id
 _symmetry_equiv_pos_as_xyz
  1  'x, y, z'
loop_
 _atom_site_type_symbol
 _atom_site_label
 _atom_site_symmetry_multiplicity
 _atom_site_fract_x
 _atom_site_fract_y
 _atom_site_fract_z
 _atom_site_occupancy
  Zn  Zn0  1  0.35372236  0.49301836  0.49598995  1.0
  Zn  Zn1  1  0.64375662  0.50176860  0.50290808  1.0
  Zn  Zn2  1  0.64416350  0.49386888  0.99281185  1.0
  Zn  Zn3  1  0.35543413  0.48318959  0.99752471  1.0
  H  H4  1  0.87697590  0.40185131  0.63415251  1.0
  H  H5  1  0.85858985  0.27547419  0.58396362  1.0
  H  H6  1  0.11558178  0.26313046  0.57901260  1.0
  H  H7  1  0.13308487  0.39102290  0.62849120  1.0
  H  H8  1  0.82015510  0.12729571  0.46200848  1.0
  H  H9  1  0.82122467  0.10869613  0.54173127  1.0
  H  H10  1  0.82330938  0.88449435  0.52746014  1.0
  H  H11  1  0.81277018  0.90384540  0.44779561  1.0
  H  H12  1  0.19431751  0.55428165  0.18499675  1.0
  H  H13  1  0.18976474  0.39517784  0.19376083  1.0
  H  H14  1  0.18524702  0.42611041  0.30664788  1.0
  H  H15  1  0.20240437  0.58512910  0.29541532  1.0
  H  H16  1  0.13557132  0.38270807  0.86731103  1.0
  H  H17  1  0.11212709  0.25353117  0.91382537  1.0
  H  H18  1  0.85712864  0.27098402  0.90519702  1.0
  H  H19  1  0.88039655  0.40024420  0.85892386  1.0
  H  H20  1  0.19191613  0.10787062  0.03336436  1.0
  H  H21  1  0.18467252  0.08409755  0.95367842  1.0
  H  H22  1  0.18268873  0.86013033  0.96824281  1.0
  H  H23  1  0.19433094  0.88488691  0.04799072  1.0
  H  H24  1  0.23432352  0.59662694  0.40073318  1.0
  H  H25  1  0.07809476  0.63894274  0.37428058  1.0
  H  H26  1  0.76776699  0.68277321  0.44018196  1.0
  H  H27  1  0.92462875  0.72908436  0.41325792  1.0
  H  H28  1  0.25266338  0.78551957  0.50906234  1.0
  H  H29  1  0.18100313  0.91797765  0.53081358  1.0
  H  H30  1  0.25693700  0.20365066  0.48927236  1.0
  H  H31  1  0.17642760  0.06580300  0.47621513  1.0
  H  H32  1  0.75248277  0.45600651  0.35366540  1.0
  H  H33  1  0.82379737  0.40174077  0.28861003  1.0
  H  H34  1  0.75652453  0.45405938  0.14232738  1.0
  H  H35  1  0.84097468  0.49294793  0.20892707  1.0
  H  H36  1  0.76659851  0.66005210  0.06837387  1.0
  H  H37  1  0.91795117  0.67039542  0.11118222  1.0
  H  H38  1  0.24626370  0.60956934  0.08631506  1.0
  H  H39  1  0.12254876  0.71455053  0.08447465  1.0
  H  H40  1  0.75374054  0.78661382  0.98781743  1.0
  H  H41  1  0.82337466  0.91808644  0.96023546  1.0
  H  H42  1  0.75243088  0.20689327  0.98670048  1.0
  H  H43  1  0.83270551  0.07849942  0.00890375  1.0
  C  C44  1  0.50602265  0.26420014  0.50122320  1.0
  C  C45  1  0.48183447  0.51530360  0.61535248  1.0
  C  C46  1  0.50048769  0.73512398  0.49446325  1.0
  C  C47  1  0.50617711  0.49122278  0.37911754  1.0
  C  C48  1  0.50273625  0.25483137  0.98660657  1.0
  C  C49  1  0.48605985  0.51807648  0.87991338  1.0
  C  C50  1  0.50269867  0.72709573  0.00450460  1.0
  C  C51  1  0.50821404  0.47209143  0.11444403  1.0
  C  C52  1  0.92823831  0.44382377  0.53960742  1.0
  C  C53  1  0.07256796  0.56280033  0.45634197  1.0
  C  C54  1  0.06741676  0.43713633  0.53639177  1.0
  C  C55  1  0.92682791  0.57909783  0.46374272  1.0
  C  C56  1  0.91557045  0.36049700  0.59269469  1.0
  C  C57  1  0.07734227  0.35311869  0.58931740  1.0
  C  C58  1  0.50076868  0.13065644  0.50099831  1.0
  C  C59  1  0.49759973  0.86822490  0.49554833  1.0
  C  C60  1  0.62025003  0.06393866  0.49966907  1.0
  C  C61  1  0.37474563  0.93243182  0.50016273  1.0
  C  C62  1  0.61871297  0.93957237  0.49468459  1.0
  C  C63  1  0.37621737  0.06192195  0.49940209  1.0
  C  C64  1  0.77470443  0.07584286  0.49925391  1.0
  C  C65  1  0.77302354  0.93417780  0.49147689  1.0
  C  C66  1  0.48228807  0.53081979  0.81223266  1.0
  C  C67  1  0.40283776  0.61589264  0.78076128  1.0
  C  C68  1  0.55708331  0.45095511  0.77903084  1.0
  C  C69  1  0.32723308  0.70487211  0.81122403  1.0
  C  C70  1  0.24737470  0.78454167  0.78080238  1.0
  C  C71  1  0.47880715  0.52852822  0.68324631  1.0
  C  C72  1  0.55564294  0.45004832  0.71570855  1.0
  C  C73  1  0.40035050  0.61424739  0.71554550  1.0
  C  C74  1  0.32101821  0.70099827  0.68616016  1.0
  C  C75  1  0.24400166  0.78234147  0.71753464  1.0
  C  C76  1  0.51222061  0.46932575  0.18111203  1.0
  C  C77  1  0.51231963  0.48529056  0.31240284  1.0
  C  C78  1  0.39233256  0.47898602  0.21509071  1.0
  C  C79  1  0.63496283  0.46936106  0.27988191  1.0
  C  C80  1  0.39282034  0.48918174  0.27721187  1.0
  C  C81  1  0.63520216  0.46382859  0.21506165  1.0
  C  C82  1  0.23797870  0.48021997  0.21023205  1.0
  C  C83  1  0.23881719  0.49674244  0.28081907  1.0
  C  C84  1  0.06773478  0.42717332  0.95928179  1.0
  C  C85  1  0.92989230  0.56925602  0.03392610  1.0
  C  C86  1  0.92886029  0.43715104  0.95488910  1.0
  C  C87  1  0.07738311  0.56049961  0.03768738  1.0
  C  C88  1  0.07711987  0.34461624  0.90491750  1.0
  C  C89  1  0.91592977  0.35581619  0.89973395  1.0
  C  C90  1  0.50752424  0.12157615  0.98827448  1.0
  C  C91  1  0.50773875  0.86012066  0.99996437  1.0
  C  C92  1  0.38754062  0.05008677  0.99349383  1.0
  C  C93  1  0.63106957  0.92891645  0.99261609  1.0
  C  C94  1  0.38770389  0.92632742  0.99979904  1.0
  C  C95  1  0.63109552  0.05809445  0.98847679  1.0
  C  C96  1  0.23335686  0.05561308  0.99567436  1.0
  C  C97  1  0.23353529  0.91440198  0.00401832  1.0
  N  N98  1  0.85340167  0.51415789  0.50375621  1.0
  N  N99  1  0.14389771  0.49428456  0.49431240  1.0
  N  N100  1  0.14596590  0.48805174  0.00036871  1.0
  N  N101  1  0.85484170  0.50588597  0.99237923  1.0
  N  N102  1  0.13674896  0.62217050  0.41083673  1.0
  N  N103  1  0.86461495  0.65922451  0.42762297  1.0
  N  N104  1  0.24648860  0.87611385  0.50254813  1.0
  N  N105  1  0.24931642  0.11424956  0.49967019  1.0
  N  N106  1  0.76151564  0.46274921  0.30794814  1.0
  N  N107  1  0.76086505  0.44886858  0.18821109  1.0
  N  N108  1  0.86858940  0.64490629  0.07280477  1.0
  N  N109  1  0.14407003  0.62545041  0.08248305  1.0
  N  N110  1  0.75895802  0.87828522  0.99037196  1.0
  N  N111  1  0.75842030  0.11533284  0.98342938  1.0
  O  O112  1  0.39519574  0.31775797  0.48804283  1.0
  O  O113  1  0.61919966  0.31884577  0.51355725  1.0
  O  O114  1  0.59636619  0.53910959  0.59119928  1.0
  O  O115  1  0.37261316  0.47856818  0.58962902  1.0
  O  O116  1  0.61523817  0.68554800  0.48576236  1.0
  O  O117  1  0.38893338  0.67455467  0.50308113  1.0
  O  O118  1  0.39019259  0.51207409  0.40288849  1.0
  O  O119  1  0.61464988  0.47425856  0.40998027  1.0
  O  O120  1  0.61411775  0.31537186  0.97570643  1.0
  O  O121  1  0.38816070  0.30219756  0.99677058  1.0
  O  O122  1  0.37606064  0.48279227  0.90460440  1.0
  O  O123  1  0.60095908  0.53977706  0.90496521  1.0
  O  O124  1  0.38819164  0.67169802  0.99768420  1.0
  O  O125  1  0.61563979  0.67310475  0.01481957  1.0
  O  O126  1  0.61834160  0.45600076  0.08469451  1.0
  O  O127  1  0.39303785  0.49258094  0.08959274  1.0
  F  F128  1  0.63008484  0.36587087  0.68737087  1.0
  F  F129  1  0.63203392  0.36701334  0.80660869  1.0
  F  F130  1  0.32009651  0.70884047  0.62552243  1.0
  F  F131  1  0.16802786  0.86232761  0.68807809  1.0
  F  F132  1  0.17491616  0.86691669  0.81103099  1.0
  F  F133  1  0.33333333  0.71657629  0.87178317  1.0
