# generated using pymatgen
data_ZnH7C12Br(NF)4
_symmetry_space_group_name_H-M   'P 1'
_cell_length_a   14.10563581
_cell_length_b   18.50288192
_cell_length_c   18.98325443
_cell_angle_alpha   89.25218587
_cell_angle_beta   89.59665011
_cell_angle_gamma   89.44415422
_symmetry_Int_Tables_number   1
_chemical_formula_structural   ZnH7C12Br(NF)4
_chemical_formula_sum   'Zn8 H56 C96 Br8 N32 F32'
_cell_volume   4953.75932027
_cell_formula_units_Z   8
loop_
 _symmetry_equiv_pos_site_id
 _symmetry_equiv_pos_as_xyz
  1  'x, y, z'
loop_
 _atom_site_type_symbol
 _atom_site_label
 _atom_site_symmetry_multiplicity
 _atom_site_fract_x
 _atom_site_fract_y
 _atom_site_fract_z
 _atom_site_occupancy
  Zn  Zn0  1  0.96439915  0.62326408  0.49071469  1.0
  Zn  Zn1  1  0.48706711  0.12847761  0.99775762  1.0
  Zn  Zn2  1  0.99087832  0.37826996  0.49356317  1.0
  Zn  Zn3  1  0.51709295  0.88434068  0.99360213  1.0
  Zn  Zn4  1  0.80141249  0.49381292  0.49238549  1.0
  Zn  Zn5  1  0.33220299  0.99604789  0.00714870  1.0
  Zn  Zn6  1  0.14100306  0.50953107  0.50435114  1.0
  Zn  Zn7  1  0.67100129  0.01661644  0.99525339  1.0
  H  H8  1  0.97898538  0.65194754  0.65229741  1.0
  H  H9  1  0.78365773  0.28652531  0.71346101  1.0
  H  H10  1  0.31411873  0.92041329  0.68655408  1.0
  H  H11  1  0.32476248  0.75733991  0.24036974  1.0
  H  H12  1  0.65593672  0.27851575  0.19939084  1.0
  H  H13  1  0.51426766  0.20789973  0.71732677  1.0
  H  H14  1  0.12837490  0.74850257  0.73454152  1.0
  H  H15  1  0.02329793  0.67536389  0.20207055  1.0
  H  H16  1  0.72255040  0.32648760  0.29518354  1.0
  H  H17  1  0.56348741  0.26344143  0.61770751  1.0
  H  H18  1  0.20177887  0.80616795  0.82202855  1.0
  H  H19  1  0.83497723  0.75768406  0.42727470  1.0
  H  H20  1  0.10077049  0.76836868  0.14868474  1.0
  H  H21  1  0.14785304  0.84162965  0.64580086  1.0
  H  H22  1  0.11891965  0.74873608  0.28499993  1.0
  H  H23  1  0.69625451  0.36080582  0.10293772  1.0
  H  H24  1  0.63612788  0.23709105  0.80388991  1.0
  H  H25  1  0.73840037  0.42174603  0.20384359  1.0
  H  H26  1  0.66343524  0.31201743  0.70516067  1.0
  H  H27  1  0.21124951  0.90563320  0.73764650  1.0
  H  H28  1  0.23097048  0.81801524  0.22187001  1.0
  H  H29  1  0.71771639  0.83990047  0.37505396  1.0
  H  H30  1  0.50407158  0.16583120  0.16329195  1.0
  H  H31  1  0.92067007  0.69827280  0.75926107  1.0
  H  H32  1  0.20625508  0.33517660  0.87915131  1.0
  H  H33  1  0.43952377  0.20750885  0.28320873  1.0
  H  H34  1  0.04731980  0.29459777  0.77376391  1.0
  H  H35  1  0.25710338  0.18089458  0.37307720  1.0
  H  H36  1  0.54022312  0.82501742  0.27997487  1.0
  H  H37  1  0.75539931  0.68170231  0.86747079  1.0
  H  H38  1  0.56715992  0.72136873  0.35916028  1.0
  H  H39  1  0.77060704  0.58024525  0.78402581  1.0
  H  H40  1  0.09397388  0.19655417  0.85036371  1.0
  H  H41  1  0.34547791  0.25971912  0.93274564  1.0
  H  H42  1  0.28887736  0.08789196  0.28850046  1.0
  H  H43  1  0.28676860  0.60501729  0.59768474  1.0
  H  H44  1  0.21888191  0.51821261  0.34509768  1.0
  H  H45  1  0.83122350  0.12269923  0.06731602  1.0
  H  H46  1  0.71428468  0.01941297  0.83254025  1.0
  H  H47  1  0.06563821  0.76628102  0.57054958  1.0
  H  H48  1  0.97485266  0.66110903  0.32556829  1.0
  H  H49  1  0.59341552  0.27173354  0.05969815  1.0
  H  H50  1  0.46483350  0.15795083  0.83212873  1.0
  H  H51  1  0.16168129  0.51923747  0.67418344  1.0
  H  H52  1  0.25410876  0.84867545  0.59672262  1.0
  H  H53  1  0.34041001  0.42142108  0.44856907  1.0
  H  H54  1  0.70443164  0.02584584  0.16640974  1.0
  H  H55  1  0.85999940  0.92440626  0.92083555  1.0
  H  H56  1  0.75882040  0.49007167  0.66368640  1.0
  H  H57  1  0.61833166  0.59360088  0.43066914  1.0
  H  H58  1  0.29055547  0.99899747  0.17540787  1.0
  H  H59  1  0.15000028  0.08097222  0.93287231  1.0
  H  H60  1  0.21928866  0.71140237  0.32686921  1.0
  H  H61  1  0.81330968  0.36077526  0.06982339  1.0
  H  H62  1  0.74830780  0.19538081  0.79660792  1.0
  H  H63  1  0.84838565  0.43870062  0.16268402  1.0
  C  C64  1  0.92780251  0.60957901  0.64377481  1.0
  C  C65  1  0.88190405  0.39523846  0.29959713  1.0
  C  C66  1  0.28782779  0.78110451  0.09684716  1.0
  C  C67  1  0.36673129  0.87675148  0.81825118  1.0
  C  C68  1  0.19753952  0.70594730  0.60553618  1.0
  C  C69  1  0.11345094  0.60174005  0.30600909  1.0
  C  C70  1  0.73576168  0.21956633  0.08132124  1.0
  C  C71  1  0.60147265  0.10094058  0.80138117  1.0
  C  C72  1  0.35243925  0.74123646  0.66004267  1.0
  C  C73  1  0.25226515  0.60952034  0.21913411  1.0
  C  C74  1  0.88684856  0.25354336  0.14450056  1.0
  C  C75  1  0.79212271  0.70953627  0.43363591  1.0
  C  C76  1  0.71384310  0.10299593  0.69425119  1.0
  C  C77  1  0.93114006  0.30843486  0.19876376  1.0
  C  C78  1  0.76437052  0.15711952  0.64107098  1.0
  C  C79  1  0.40151394  0.79173457  0.71562461  1.0
  C  C80  1  0.29381967  0.65448250  0.15408220  1.0
  C  C81  1  0.22490123  0.83295353  0.64832705  1.0
  C  C82  1  0.18565923  0.71914931  0.27543760  1.0
  C  C83  1  0.77024680  0.34902478  0.11688665  1.0
  C  C84  1  0.68570542  0.21223025  0.76634563  1.0
  C  C85  1  0.20392389  0.73267007  0.73431563  1.0
  C  C86  1  0.45492479  0.12198242  0.15495154  1.0
  C  C87  1  0.09349259  0.65753090  0.18308913  1.0
  C  C88  1  0.72781912  0.25551861  0.20589931  1.0
  C  C89  1  0.55933088  0.16970118  0.68775716  1.0
  C  C90  1  0.24404725  0.75146949  0.66005723  1.0
  C  C91  1  0.15922040  0.64357141  0.24660388  1.0
  C  C92  1  0.78039908  0.26760450  0.13459171  1.0
  C  C93  1  0.63814088  0.14275804  0.73813087  1.0
  C  C94  1  0.85117660  0.34965276  0.23825422  1.0
  C  C95  1  0.70719691  0.22836777  0.63322116  1.0
  C  C96  1  0.32601936  0.83089028  0.76081353  1.0
  C  C97  1  0.30802115  0.20903101  0.93946205  1.0
  C  C98  1  0.24366039  0.72874174  0.14847659  1.0
  C  C99  1  0.80044094  0.39559496  0.17988434  1.0
  C  C100  1  0.71210239  0.26534107  0.70656059  1.0
  C  C101  1  0.26758415  0.87827388  0.70789069  1.0
  C  C102  1  0.25035596  0.76056727  0.22399418  1.0
  C  C103  1  0.01671464  0.38517836  0.65386786  1.0
  C  C104  1  0.17380451  0.30129089  0.44318420  1.0
  C  C105  1  0.54123926  0.90364856  0.15162444  1.0
  C  C106  1  0.68989677  0.80749302  0.93477341  1.0
  C  C107  1  0.77634841  0.29511995  0.26692348  1.0
  C  C108  1  0.07640371  0.42025400  0.70114649  1.0
  C  C109  1  0.60090412  0.21162130  0.62244792  1.0
  C  C110  1  0.25515941  0.77522213  0.79284785  1.0
  C  C111  1  0.13608329  0.71740572  0.13515820  1.0
  C  C112  1  0.10904920  0.39623597  0.76933166  1.0
  C  C113  1  0.33511340  0.27436769  0.38525963  1.0
  C  C114  1  0.63241038  0.91147579  0.26704824  1.0
  C  C115  1  0.83809367  0.77402326  0.86416116  1.0
  C  C116  1  0.09666797  0.33040178  0.79991231  1.0
  C  C117  1  0.32208082  0.20838708  0.35711845  1.0
  C  C118  1  0.60167830  0.85167422  0.30211814  1.0
  C  C119  1  0.26872758  0.31621400  0.42613407  1.0
  C  C120  1  0.81757355  0.70635782  0.84292499  1.0
  C  C121  1  0.63286608  0.74567426  0.37747734  1.0
  C  C122  1  0.82959398  0.60773966  0.75762147  1.0
  C  C123  1  0.14939209  0.22930963  0.87394382  1.0
  C  C124  1  0.35068303  0.11680238  0.26776746  1.0
  C  C125  1  0.65322939  0.81435856  0.35631105  1.0
  C  C126  1  0.86249615  0.66993913  0.78561971  1.0
  C  C127  1  0.15323532  0.30044839  0.85554612  1.0
  C  C128  1  0.37805864  0.17715783  0.30200793  1.0
  C  C129  1  0.71735004  0.35027610  0.56078569  1.0
  C  C130  1  0.60498570  0.93612261  0.19773577  1.0
  C  C131  1  0.82127193  0.43705477  0.34327709  1.0
  C  C132  1  0.25913653  0.85369402  0.08488682  1.0
  C  C133  1  0.31570595  0.92122233  0.86571063  1.0
  C  C134  1  0.22498685  0.63697141  0.58314367  1.0
  C  C135  1  0.15375781  0.54926113  0.35094920  1.0
  C  C136  1  0.76469654  0.15115046  0.05844645  1.0
  C  C137  1  0.64994323  0.04981827  0.84337181  1.0
  C  C138  1  0.83699833  0.27847741  0.54432743  1.0
  C  C139  1  0.96486644  0.39472549  0.34004004  1.0
  C  C140  1  0.36989662  0.77824180  0.05491077  1.0
  C  C141  1  0.78157114  0.81998527  0.90856921  1.0
  C  C142  1  0.45879429  0.88353125  0.84473062  1.0
  C  C143  1  0.11236644  0.71928425  0.56964785  1.0
  C  C144  1  0.02924637  0.62200282  0.34064059  1.0
  C  C145  1  0.64368612  0.22719163  0.05470230  1.0
  C  C146  1  0.52277137  0.12042213  0.84305975  1.0
  C  C147  1  0.11288368  0.47717007  0.65923417  1.0
  C  C148  1  0.27834682  0.38721659  0.45095903  1.0
  C  C149  1  0.65012365  0.98716352  0.15327739  1.0
  C  C150  1  0.79765430  0.89154472  0.93000048  1.0
  C  C151  1  0.81613581  0.52645071  0.64956875  1.0
  C  C152  1  0.74868395  0.27956032  0.57885097  1.0
  C  C153  1  0.68202871  0.62564192  0.43543118  1.0
  C  C154  1  0.34664209  0.03627177  0.16088277  1.0
  C  C155  1  0.20874839  0.11762644  0.93954460  1.0
  C  C156  1  0.85918152  0.58032583  0.69001142  1.0
  C  C157  1  0.69669389  0.69826909  0.41559180  1.0
  C  C158  1  0.38650919  0.09175933  0.20093684  1.0
  C  C159  1  0.21669590  0.18994707  0.91684237  1.0
  Br  Br160  1  0.82398241  0.22979474  0.34126496  1.0
  Br  Br161  1  0.57352167  0.16675420  0.53195380  1.0
  Br  Br162  1  0.30891538  0.71266709  0.86693542  1.0
  Br  Br163  1  0.10208345  0.70564573  0.03628594  1.0
  Br  Br164  1  0.60355063  0.39938230  0.58336331  1.0
  Br  Br165  1  0.69256295  0.46361017  0.33229207  1.0
  Br  Br166  1  0.15025433  0.90443919  0.11600868  1.0
  Br  Br167  1  0.18388600  0.93823478  0.87390441  1.0
  N  N168  1  0.92359564  0.57689861  0.58120689  1.0
  N  N169  1  0.86409474  0.45718796  0.40247394  1.0
  N  N170  1  0.31844264  0.88919436  0.04196584  1.0
  N  N171  1  0.37202810  0.95065107  0.91365992  1.0
  N  N172  1  0.16153438  0.61162876  0.53748230  1.0
  N  N173  1  0.09801784  0.54041796  0.40829126  1.0
  N  N174  1  0.69522760  0.12062340  0.02108210  1.0
  N  N175  1  0.60424195  0.04130990  0.90544613  1.0
  N  N176  1  0.85660330  0.34036332  0.51069513  1.0
  N  N177  1  0.95435804  0.42935970  0.40150399  1.0
  N  N178  1  0.38928936  0.84135619  0.02316888  1.0
  N  N179  1  0.83026600  0.64884261  0.46133287  1.0
  N  N180  1  0.46243476  0.92567876  0.90183774  1.0
  N  N181  1  0.09072824  0.66236971  0.52905194  1.0
  N  N182  1  0.02143542  0.58496074  0.40214780  1.0
  N  N183  1  0.61940166  0.16777033  0.01893064  1.0
  N  N184  1  0.52603533  0.08459789  0.90559162  1.0
  N  N185  1  0.07851845  0.47350200  0.59342814  1.0
  N  N186  1  0.19641788  0.41100470  0.47955897  1.0
  N  N187  1  0.61637899  0.98248824  0.08734528  1.0
  N  N188  1  0.72191604  0.91781483  0.96530586  1.0
  N  N189  1  0.85502504  0.52566150  0.58436068  1.0
  N  N190  1  0.45335710  0.08787705  0.09273232  1.0
  N  N191  1  0.76176271  0.59627791  0.46248698  1.0
  N  N192  1  0.38672981  0.03504444  0.09629564  1.0
  N  N193  1  0.28803612  0.09556536  0.97254393  1.0
  N  N194  1  0.35006006  0.15259833  0.97246219  1.0
  N  N195  1  0.01796553  0.41638490  0.59009360  1.0
  N  N196  1  0.13049305  0.35657528  0.47450294  1.0
  N  N197  1  0.54808202  0.93042195  0.08618682  1.0
  N  N198  1  0.65404941  0.86445733  0.96802269  1.0
  N  N199  1  0.78030589  0.38615827  0.52075461  1.0
  F  F200  1  0.37746608  0.67063693  0.67556020  1.0
  F  F201  1  0.38970309  0.66272828  0.16488892  1.0
  F  F202  1  0.98644071  0.35758848  0.16217993  1.0
  F  F203  1  0.85278216  0.17257287  0.66819795  1.0
  F  F204  1  0.20578604  0.65801430  0.74659554  1.0
  F  F205  1  0.07914161  0.59304109  0.14712508  1.0
  F  F206  1  0.71501680  0.18204475  0.22062986  1.0
  F  F207  1  0.49976982  0.11373014  0.66829757  1.0
  F  F208  1  0.96279426  0.32662351  0.66620979  1.0
  F  F209  1  0.12474039  0.24099203  0.43092128  1.0
  F  F210  1  0.47943735  0.85074519  0.16695524  1.0
  F  F211  1  0.24297322  0.53871255  0.20101149  1.0
  F  F212  1  0.63684779  0.74802677  0.92916310  1.0
  F  F213  1  0.17126469  0.44357735  0.79900869  1.0
  F  F214  1  0.41595283  0.31241890  0.36831486  1.0
  F  F215  1  0.70947401  0.94771374  0.29236289  1.0
  F  F216  1  0.91650903  0.80859332  0.83630823  1.0
  F  F217  1  0.90335663  0.22630966  0.54151529  1.0
  F  F218  1  0.04974761  0.36585944  0.32523424  1.0
  F  F219  1  0.42948164  0.72290629  0.04310540  1.0
  F  F220  1  0.54018728  0.85473265  0.82124828  1.0
  F  F221  1  0.38875946  0.75604630  0.59388440  1.0
  F  F222  1  0.90355237  0.18413263  0.16891989  1.0
  F  F223  1  0.31896816  0.61009281  0.27275926  1.0
  F  F224  1  0.93418681  0.25964871  0.08097475  1.0
  F  F225  1  0.78348458  0.07252141  0.73660999  1.0
  F  F226  1  0.67548044  0.04735362  0.65749786  1.0
  F  F227  1  0.99097800  0.27012540  0.24177761  1.0
  F  F228  1  0.77973526  0.12319282  0.57844845  1.0
  F  F229  1  0.46285356  0.75024567  0.75472436  1.0
  F  F230  1  0.28432161  0.61550045  0.09374489  1.0
  F  F231  1  0.45549728  0.84237244  0.67998495  1.0
