# generated using pymatgen
data_Zn4H10C22N4O13
_symmetry_space_group_name_H-M   'P 1'
_cell_length_a   15.94850694
_cell_length_b   16.01817415
_cell_length_c   17.04806719
_cell_angle_alpha   117.34628144
_cell_angle_beta   117.57102452
_cell_angle_gamma   90.12099216
_symmetry_Int_Tables_number   1
_chemical_formula_structural   Zn4H10C22N4O13
_chemical_formula_sum   'Zn8 H20 C44 N8 O26'
_cell_volume   3299.19403860
_cell_formula_units_Z   2
loop_
 _symmetry_equiv_pos_site_id
 _symmetry_equiv_pos_as_xyz
  1  'x, y, z'
loop_
 _atom_site_type_symbol
 _atom_site_label
 _atom_site_symmetry_multiplicity
 _atom_site_fract_x
 _atom_site_fract_y
 _atom_site_fract_z
 _atom_site_occupancy
  Zn  Zn0  1  0.29482742  0.89407627  0.59077451  1.0
  Zn  Zn1  1  0.89451120  0.29349027  0.58962711  1.0
  Zn  Zn2  1  0.29368451  0.69251137  0.58713337  1.0
  Zn  Zn3  1  0.70631561  0.30748997  0.41286643  1.0
  Zn  Zn4  1  0.10548525  0.70650725  0.41037474  1.0
  Zn  Zn5  1  0.70517050  0.10592024  0.40922461  1.0
  Zn  Zn6  1  0.30800418  0.70775238  0.41258247  1.0
  Zn  Zn7  1  0.69199595  0.29224684  0.58741760  1.0
  H  H8  1  0.66446472  0.97516521  0.07232625  1.0
  H  H9  1  0.49291231  0.30371713  0.02438944  1.0
  H  H10  1  0.38988331  0.20124074  0.95421666  1.0
  H  H11  1  0.48306761  0.19151185  0.92261554  1.0
  H  H12  1  0.45713406  0.76021789  0.86479902  1.0
  H  H13  1  0.50708856  0.69627948  0.97561041  1.0
  H  H14  1  0.51693105  0.80848768  0.07738226  1.0
  H  H15  1  0.61011535  0.79875879  0.04578114  1.0
  H  H16  1  0.98253373  0.26655180  0.86350891  1.0
  H  H17  1  0.12867917  0.23193017  0.95826210  1.0
  H  H18  1  0.08468034  0.29028585  0.04403387  1.0
  H  H19  1  0.33553395  0.02482940  0.92766884  1.0
  H  H20  1  0.18154965  0.35806657  0.05321995  1.0
  H  H21  1  0.01746933  0.73344963  0.13649514  1.0
  H  H22  1  0.87132536  0.76807237  0.04173896  1.0
  H  H23  1  0.81845635  0.64193637  0.94678133  1.0
  H  H24  1  0.91532860  0.70971789  0.95597138  1.0
  H  H25  1  0.54286535  0.23977622  0.13519735  1.0
  H  H26  1  0.03942052  0.58447390  0.92745360  1.0
  H  H27  1  0.96058107  0.41552713  0.07254613  1.0
  C  C28  1  0.11245598  0.61188739  0.22052983  1.0
  C  C29  1  0.52821871  0.47466894  0.50157812  1.0
  C  C30  1  0.02672801  0.97309648  0.49992869  1.0
  C  C31  1  0.97327505  0.02690707  0.50006807  1.0
  C  C32  1  0.47177995  0.52532777  0.49842668  1.0
  C  C33  1  0.02660668  0.52776884  0.50069530  1.0
  C  C34  1  0.97339638  0.47223048  0.49931254  1.0
  C  C35  1  0.88754562  0.38811013  0.77947248  1.0
  C  C36  1  0.09093392  0.90933322  0.50017165  1.0
  C  C37  1  0.90906767  0.09066922  0.49982575  1.0
  C  C38  1  0.40564138  0.58694457  0.49639603  1.0
  C  C39  1  0.59435801  0.41305586  0.50360600  1.0
  C  C40  1  0.09049942  0.59336559  0.50207570  1.0
  C  C41  1  0.39061729  0.88334298  0.78033639  1.0
  C  C42  1  0.90950364  0.40663513  0.49793039  1.0
  C  C43  1  0.41161704  0.91143979  0.50471004  1.0
  C  C44  1  0.58837867  0.08856385  0.49529295  1.0
  C  C45  1  0.47416043  0.97463175  0.50245222  1.0
  C  C46  1  0.52583086  0.02537420  0.49754868  1.0
  C  C47  1  0.60938358  0.11665504  0.21966172  1.0
  C  C48  1  0.54917279  0.02021829  0.95980887  1.0
  C  C49  1  0.45082440  0.97977803  0.04018808  1.0
  C  C50  1  0.09873511  0.51579771  0.03282349  1.0
  C  C51  1  0.90126648  0.48420543  0.96717891  1.0
  C  C52  1  0.59066666  0.98488887  0.03913884  1.0
  C  C53  1  0.40933347  0.01510895  0.96085945  1.0
  C  C54  1  0.02173487  0.54773219  0.96051829  1.0
  C  C55  1  0.97826598  0.45227005  0.03948222  1.0
  C  C56  1  0.55280694  0.05933858  0.10480487  1.0
  C  C57  1  0.44719319  0.94065643  0.89519162  1.0
  C  C58  1  0.94427695  0.44646281  0.89453847  1.0
  C  C59  1  0.05572391  0.55354013  0.10546234  1.0
  C  C60  1  0.51062292  0.09754151  0.02874459  1.0
  C  C61  1  0.48937501  0.90245361  0.97125041  1.0
  C  C62  1  0.02064953  0.41157297  0.96469577  1.0
  C  C63  1  0.97935354  0.58842987  0.03530655  1.0
  C  C64  1  0.59889227  0.03911992  0.91633060  1.0
  C  C65  1  0.40110565  0.96087659  0.08366559  1.0
  C  C66  1  0.19985329  0.53045828  0.06379372  1.0
  C  C67  1  0.80014757  0.46954466  0.93620768  1.0
  C  C68  1  0.46981839  0.22413191  0.98692744  1.0
  C  C69  1  0.53018247  0.77586612  0.01307008  1.0
  C  C70  1  0.11232216  0.29959414  0.99906037  1.0
  C  C71  1  0.88768311  0.70040860  0.00094168  1.0
  N  N72  1  0.63984235  0.05522166  0.88078878  1.0
  N  N73  1  0.47218094  0.80399998  0.93832006  1.0
  N  N74  1  0.04344762  0.32317839  0.92379355  1.0
  N  N75  1  0.95655544  0.67682515  0.07620965  1.0
  N  N76  1  0.52781772  0.19599674  0.06167594  1.0
  N  N77  1  0.36015851  0.94478128  0.11921087  1.0
  N  N78  1  0.28189639  0.53942744  0.08602508  1.0
  N  N79  1  0.71810520  0.46057500  0.91397818  1.0
  O  O80  1  0.24995358  0.75049924  0.50021712  1.0
  O  O81  1  0.79435979  0.36071902  0.73442732  1.0
  O  O82  1  0.35926475  0.93291808  0.73706628  1.0
  O  O83  1  0.64073391  0.06708004  0.26293209  1.0
  O  O84  1  0.04891859  0.81847680  0.43470830  1.0
  O  O85  1  0.95108227  0.18152544  0.56528986  1.0
  O  O86  1  0.37269778  0.60282280  0.55582238  1.0
  O  O87  1  0.62729940  0.39717983  0.44417848  1.0
  O  O88  1  0.75004434  0.24949868  0.49978025  1.0
  O  O89  1  0.04868299  0.61957374  0.43628806  1.0
  O  O90  1  0.95131714  0.38042408  0.56371492  1.0
  O  O91  1  0.18173075  0.61761182  0.56901232  1.0
  O  O92  1  0.81827231  0.38239382  0.43099414  1.0
  O  O93  1  0.39354971  0.82029429  0.44383478  1.0
  O  O94  1  0.60644452  0.17971106  0.55616597  1.0
  O  O95  1  0.38105116  0.95332863  0.56650418  1.0
  O  O96  1  0.61894675  0.04667350  0.43350029  1.0
  O  O97  1  0.18225344  0.95104887  0.56566742  1.0
  O  O98  1  0.81774889  0.04895236  0.43433095  1.0
  O  O99  1  0.38767717  0.61869634  0.43575500  1.0
  O  O100  1  0.61232516  0.38130419  0.56424776  1.0
  O  O101  1  0.06141612  0.62961578  0.26305285  1.0
  O  O102  1  0.93858547  0.37039017  0.73695075  1.0
  O  O103  1  0.37910284  0.79106394  0.73513813  1.0
  O  O104  1  0.62090170  0.20893508  0.26486024  1.0
  O  O105  1  0.20564184  0.63926515  0.26557334  1.0
