# generated using pymatgen
data_Zn4H2C24S4O13F6
_symmetry_space_group_name_H-M   'P 1'
_cell_length_a   19.68814001
_cell_length_b   19.75579008
_cell_length_c   33.40571778
_cell_angle_alpha   78.97990629
_cell_angle_beta   79.17188931
_cell_angle_gamma   63.91566456
_symmetry_Int_Tables_number   1
_chemical_formula_structural   Zn4H2C24S4O13F6
_chemical_formula_sum   'Zn16 H8 C96 S16 O52 F24'
_cell_volume   11375.02577772
_cell_formula_units_Z   4
loop_
 _symmetry_equiv_pos_site_id
 _symmetry_equiv_pos_as_xyz
  1  'x, y, z'
loop_
 _atom_site_type_symbol
 _atom_site_label
 _atom_site_symmetry_multiplicity
 _atom_site_fract_x
 _atom_site_fract_y
 _atom_site_fract_z
 _atom_site_occupancy
  Zn  Zn0  1  0.05507847  0.40113669  0.47813954  1.0
  Zn  Zn1  1  0.98442333  0.48359301  0.56050870  1.0
  Zn  Zn2  1  0.05950563  0.56052179  0.48260535  1.0
  Zn  Zn3  1  0.90076886  0.55530181  0.47900221  1.0
  Zn  Zn4  1  0.69480128  0.34876920  0.27198109  1.0
  Zn  Zn5  1  0.69008502  0.18907031  0.26639256  1.0
  Zn  Zn6  1  0.76786953  0.26677136  0.18990042  1.0
  Zn  Zn7  1  0.84848617  0.19453064  0.27174030  1.0
  Zn  Zn8  1  0.26576427  0.76618773  0.68955994  1.0
  Zn  Zn9  1  0.34916463  0.69612574  0.77170745  1.0
  Zn  Zn10  1  0.19341120  0.84876898  0.77122945  1.0
  Zn  Zn11  1  0.19054862  0.68929140  0.76743728  1.0
  Zn  Zn12  1  0.55960790  0.06119349  0.98364126  1.0
  Zn  Zn13  1  0.40151311  0.05407225  0.97750589  1.0
  Zn  Zn14  1  0.55643827  0.90122453  0.97878329  1.0
  Zn  Zn15  1  0.48211637  0.98327459  0.06011851  1.0
  H  H16  1  0.74879799  0.45173746  0.35010755  1.0
  H  H17  1  0.00106903  0.29858550  0.39989423  1.0
  H  H18  1  0.20050700  0.70043044  0.59924194  1.0
  H  H19  1  0.04957844  0.54966428  0.65070928  1.0
  H  H20  1  0.65075203  0.15092378  0.04947120  1.0
  H  H21  1  0.59936995  0.09897085  0.20053140  1.0
  H  H22  1  0.29888438  0.00051534  0.89970079  1.0
  H  H23  1  0.45125032  0.74927420  0.85011309  1.0
  C  C24  1  0.06145653  0.31670889  0.56159285  1.0
  C  C25  1  0.06968024  0.56981089  0.56863931  1.0
  C  C26  1  0.18343191  0.43933974  0.43853463  1.0
  C  C27  1  0.93747494  0.68368829  0.43870128  1.0
  C  C28  1  0.93034830  0.43114877  0.43105128  1.0
  C  C29  1  0.81692744  0.56112134  0.56204525  1.0
  C  C30  1  0.56644423  0.31039621  0.31117962  1.0
  C  C31  1  0.68170284  0.18068738  0.18051345  1.0
  C  C32  1  0.68937037  0.43331368  0.18857009  1.0
  C  C33  1  0.93439053  0.18843679  0.18912815  1.0
  C  C34  1  0.81929935  0.31902675  0.31918001  1.0
  C  C35  1  0.81175272  0.06603757  0.31119912  1.0
  C  C36  1  0.43304158  0.68931856  0.68829607  1.0
  C  C37  1  0.31816138  0.82027000  0.81895872  1.0
  C  C38  1  0.18845651  0.93308679  0.68812245  1.0
  C  C39  1  0.06601251  0.81039999  0.81130135  1.0
  C  C40  1  0.18037503  0.68022763  0.68133990  1.0
  C  C41  1  0.31283236  0.56675086  0.81155526  1.0
  C  C42  1  0.43787120  0.18363010  0.93859796  1.0
  C  C43  1  0.43211141  0.92954754  0.93078254  1.0
  C  C44  1  0.68373053  0.94012094  0.93902706  1.0
  C  C45  1  0.56110469  0.81658765  0.06176370  1.0
  C  C46  1  0.56847158  0.06914832  0.06948453  1.0
  C  C47  1  0.31564359  0.06118811  0.06051898  1.0
  C  C48  1  0.90051183  0.40390616  0.40230963  1.0
  C  C49  1  0.84930061  0.34642645  0.34774739  1.0
  C  C50  1  0.82923703  0.44577974  0.38750718  1.0
  C  C51  1  0.92064952  0.30457917  0.36249312  1.0
  C  C52  1  0.80425421  0.41787806  0.36095072  1.0
  C  C53  1  0.94562152  0.33248537  0.38904876  1.0
  C  C54  1  0.09878253  0.59893376  0.59676930  1.0
  C  C55  1  0.15128412  0.65115328  0.65318840  1.0
  C  C56  1  0.14174469  0.64189364  0.58325325  1.0
  C  C57  1  0.10832879  0.60819882  0.66666667  1.0
  C  C58  1  0.16736717  0.66734854  0.61069277  1.0
  C  C59  1  0.08270346  0.58274562  0.63926282  1.0
  C  C60  1  0.30455026  0.45259513  0.40065499  1.0
  C  C61  1  0.44533003  0.29715589  0.34917781  1.0
  C  C62  1  0.25815944  0.41434710  0.41378460  1.0
  C  C63  1  0.49178302  0.33532242  0.33603961  1.0
  C  C64  1  0.37698568  0.33931419  0.37276344  1.0
  C  C65  1  0.37296341  0.41039900  0.37710256  1.0
  C  C66  1  0.72496238  0.57673587  0.62913918  1.0
  C  C67  1  0.52496706  0.67321780  0.62115433  1.0
  C  C68  1  0.74222024  0.58582999  0.58678768  1.0
  C  C69  1  0.50773511  0.66426975  0.66352594  1.0
  C  C70  1  0.60397152  0.64154126  0.60825383  1.0
  C  C71  1  0.64595583  0.60836884  0.64200307  1.0
  C  C72  1  0.07720985  0.22455084  0.62876038  1.0
  C  C73  1  0.17324692  0.02521073  0.62099261  1.0
  C  C74  1  0.08622154  0.24204438  0.58639092  1.0
  C  C75  1  0.16410208  0.00775388  0.66334735  1.0
  C  C76  1  0.14178863  0.10406041  0.60803436  1.0
  C  C77  1  0.10868516  0.14569694  0.64173820  1.0
  C  C78  1  0.84459762  0.80120938  0.39728819  1.0
  C  C79  1  0.90457023  0.94872191  0.35278468  1.0
  C  C80  1  0.91273461  0.75825053  0.41388151  1.0
  C  C81  1  0.83642783  0.99158516  0.33614045  1.0
  C  C82  1  0.90820918  0.87915330  0.37511513  1.0
  C  C83  1  0.84102370  0.87070728  0.37493538  1.0
  C  C84  1  0.65343468  0.15280613  0.15131313  1.0
  C  C85  1  0.59673404  0.09705005  0.09867843  1.0
  C  C86  1  0.66687410  0.16645444  0.10827549  1.0
  C  C87  1  0.58325018  0.08344605  0.14171514  1.0
  C  C88  1  0.63930959  0.13934714  0.08262282  1.0
  C  C89  1  0.61083803  0.11052291  0.16737640  1.0
  C  C90  1  0.67326764  0.52523614  0.12133033  1.0
  C  C91  1  0.57667848  0.72461261  0.12894053  1.0
  C  C92  1  0.66421985  0.50790021  0.16371429  1.0
  C  C93  1  0.58588891  0.74198088  0.08657761  1.0
  C  C94  1  0.60833289  0.64579128  0.14194985  1.0
  C  C95  1  0.64161787  0.60406718  0.10829131  1.0
  C  C96  1  0.08095280  0.12463104  0.17684076  1.0
  C  C97  1  0.16907100  0.12509634  0.07289675  1.0
  C  C98  1  0.00884119  0.16350877  0.16419500  1.0
  C  C99  1  0.24120658  0.08628591  0.08548794  1.0
  C  C100  1  0.11023871  0.13938860  0.10593126  1.0
  C  C101  1  0.13983515  0.11033172  0.14381267  1.0
  C  C102  1  0.34583367  0.84977806  0.84764396  1.0
  C  C103  1  0.40434963  0.90000201  0.90216020  1.0
  C  C104  1  0.30418716  0.92076927  0.86236124  1.0
  C  C105  1  0.44597734  0.82902169  0.88744766  1.0
  C  C106  1  0.33259013  0.94528604  0.88889505  1.0
  C  C107  1  0.41757893  0.80450871  0.86091114  1.0
  C  C108  1  0.40557069  0.44885791  0.85299662  1.0
  C  C109  1  0.34520051  0.30141198  0.89704678  1.0
  C  C110  1  0.33759880  0.49201895  0.83628602  1.0
  C  C111  1  0.41318474  0.25829847  0.91379305  1.0
  C  C112  1  0.34175517  0.37101542  0.87483910  1.0
  C  C113  1  0.40896585  0.37929946  0.87522067  1.0
  C  C114  1  0.94491568  0.79735388  0.84937346  1.0
  C  C115  1  0.80470480  0.95318277  0.90072502  1.0
  C  C116  1  0.99143685  0.83542037  0.83613376  1.0
  C  C117  1  0.75815436  0.91519135  0.91401416  1.0
  C  C118  1  0.87289472  0.91082494  0.87711543  1.0
  C  C119  1  0.87662970  0.83976531  0.87292383  1.0
  S  S120  1  0.29841043  0.32487369  0.39717343  1.0
  S  S121  1  0.45158424  0.42477655  0.35270621  1.0
  S  S122  1  0.66058377  0.63389593  0.56181335  1.0
  S  S123  1  0.58940597  0.61615398  0.68844452  1.0
  S  S124  1  0.13413252  0.16078841  0.56154502  1.0
  S  S125  1  0.11622920  0.08895705  0.68822394  1.0
  S  S126  1  0.97419877  0.80317536  0.40212721  1.0
  S  S127  1  0.77508516  0.94656476  0.34784894  1.0
  S  S128  1  0.61595453  0.58921535  0.18847446  1.0
  S  S129  1  0.63413726  0.66069442  0.06177033  1.0
  S  S130  1  0.01231245  0.18327084  0.11091910  1.0
  S  S131  1  0.23778755  0.06655796  0.13878527  1.0
  S  S132  1  0.27604950  0.44718572  0.84775033  1.0
  S  S133  1  0.47465938  0.30320659  0.90233521  1.0
  S  S134  1  0.95152933  0.92499668  0.85258865  1.0
  S  S135  1  0.79795223  0.82566216  0.89747857  1.0
  O  O136  1  0.00032343  0.49930262  0.50009743  1.0
  O  O137  1  0.07700543  0.31581588  0.52262434  1.0
  O  O138  1  0.03216026  0.53108581  0.58594385  1.0
  O  O139  1  0.15570264  0.50532933  0.44975572  1.0
  O  O140  1  0.02724539  0.37481662  0.58083420  1.0
  O  O141  1  0.15327962  0.39174682  0.44640664  1.0
  O  O142  1  0.08443117  0.58575592  0.53025053  1.0
  O  O143  1  0.00438884  0.65686334  0.44959334  1.0
  O  O144  1  0.88769036  0.49570251  0.44289422  1.0
  O  O145  1  0.89088797  0.65274911  0.44708165  1.0
  O  O146  1  0.99659676  0.38662885  0.44122676  1.0
  O  O147  1  0.87554065  0.52657886  0.58118861  1.0
  O  O148  1  0.81556256  0.57711844  0.52310703  1.0
  O  O149  1  0.74927545  0.25039499  0.25022076  1.0
  O  O150  1  0.59677186  0.35781532  0.30372256  1.0
  O  O151  1  0.66450971  0.16342570  0.21872298  1.0
  O  O152  1  0.72500899  0.37525437  0.16938363  1.0
  O  O153  1  0.59387352  0.24478686  0.29945636  1.0
  O  O154  1  0.67283146  0.43416432  0.22751944  1.0
  O  O155  1  0.72014063  0.21888156  0.16509514  1.0
  O  O156  1  0.87654932  0.22392734  0.16907609  1.0
  O  O157  1  0.86141785  0.25387373  0.30796652  1.0
  O  O158  1  0.93393545  0.17279929  0.22795992  1.0
  O  O159  1  0.75347002  0.36391044  0.30856151  1.0
  O  O160  1  0.74541855  0.09244826  0.29954921  1.0
  O  O161  1  0.85803224  0.09726422  0.30347048  1.0
  O  O162  1  0.25016669  0.75008330  0.74995734  1.0
  O  O163  1  0.37455909  0.72340689  0.66903982  1.0
  O  O164  1  0.36351314  0.75505345  0.80814141  1.0
  O  O165  1  0.17206764  0.93412385  0.72704588  1.0
  O  O166  1  0.43427487  0.67413361  0.72728201  1.0
  O  O167  1  0.22308572  0.87487973  0.66898137  1.0
  O  O168  1  0.25250187  0.86200662  0.80784426  1.0
  O  O169  1  0.09563788  0.85841711  0.80305622  1.0
  O  O170  1  0.16550510  0.66433641  0.71972761  1.0
  O  O171  1  0.09424433  0.74411630  0.80036276  1.0
  O  O172  1  0.21802029  0.71883059  0.66406240  1.0
  O  O173  1  0.35884551  0.59836121  0.80367606  1.0
  O  O174  1  0.24629249  0.59296456  0.80026116  1.0
  O  O175  1  0.50006313  0.00020244  0.99978708  1.0
  O  O176  1  0.50387135  0.15771606  0.95057243  1.0
  O  O177  1  0.38733616  0.99539203  0.94093690  1.0
  O  O178  1  0.65390065  0.89229455  0.94689688  1.0
  O  O179  1  0.39212553  0.15177602  0.94584861  1.0
  O  O180  1  0.65594756  0.00597232  0.95049852  1.0
  O  O181  1  0.49715571  0.88724212  0.94253790  1.0
  O  O182  1  0.57856479  0.81565106  0.02287778  1.0
  O  O183  1  0.53013405  0.03086176  0.08490779  1.0
  O  O184  1  0.52496037  0.87476493  0.08084147  1.0
  O  O185  1  0.58559174  0.08650332  0.03127358  1.0
  O  O186  1  0.31620764  0.07591060  0.02164003  1.0
  O  O187  1  0.37339358  0.02642279  0.08066881  1.0
  F  F188  1  0.78188105  0.51531727  0.39860658  1.0
  F  F189  1  0.96804140  0.23511993  0.35133994  1.0
  F  F190  1  0.15992115  0.66014512  0.54277630  1.0
  F  F191  1  0.09016205  0.58992375  0.70717501  1.0
  F  F192  1  0.70738500  0.20677899  0.09006588  1.0
  F  F193  1  0.54262929  0.04324160  0.15992412  1.0
  F  F194  1  0.23445250  0.96829517  0.85112222  1.0
  F  F195  1  0.51579183  0.78156480  0.89860310  1.0
  F  F196  1  0.28776733  0.52240018  0.40899862  1.0
  F  F197  1  0.46206692  0.22733200  0.34082776  1.0
  F  F198  1  0.77677230  0.54178159  0.65586679  1.0
  F  F199  1  0.47316675  0.70820456  0.59443440  1.0
  F  F200  1  0.04234447  0.27599470  0.65544484  1.0
  F  F201  1  0.20808514  0.97370608  0.59435059  1.0
  F  F202  1  0.78705275  0.78037640  0.40152286  1.0
  F  F203  1  0.96202030  0.96964994  0.34861453  1.0
  F  F204  1  0.70822112  0.47370686  0.09471723  1.0
  F  F205  1  0.54167547  0.77612997  0.15556839  1.0
  F  F206  1  0.09498598  0.10230512  0.21611004  1.0
  F  F207  1  0.15493475  0.14747405  0.03362639  1.0
  F  F208  1  0.46312348  0.46966225  0.84897018  1.0
  F  F209  1  0.28760085  0.28069231  0.90110375  1.0
  F  F210  1  0.96155960  0.72754240  0.84108661  1.0
  F  F211  1  0.78818360  0.02299256  0.90901383  1.0
