# generated using pymatgen
data_ZnH21C29NCl6O11
_symmetry_space_group_name_H-M   'P 1'
_cell_length_a   13.68288665
_cell_length_b   18.66404079
_cell_length_c   19.55193586
_cell_angle_alpha   89.27902405
_cell_angle_beta   89.69850847
_cell_angle_gamma   81.26186793
_symmetry_Int_Tables_number   1
_chemical_formula_structural   ZnH21C29NCl6O11
_chemical_formula_sum   'Zn2 H42 C58 N2 Cl12 O22'
_cell_volume   4934.75901102
_cell_formula_units_Z   2
loop_
 _symmetry_equiv_pos_site_id
 _symmetry_equiv_pos_as_xyz
  1  'x, y, z'
loop_
 _atom_site_type_symbol
 _atom_site_label
 _atom_site_symmetry_multiplicity
 _atom_site_fract_x
 _atom_site_fract_y
 _atom_site_fract_z
 _atom_site_occupancy
  Zn  Zn0  1  0.50073072  0.41967375  0.50034004  1.0
  Zn  Zn1  1  0.50010399  0.58045395  0.50444970  1.0
  H  H2  1  0.97671918  0.32307424  0.45659641  1.0
  H  H3  1  0.97094952  0.31618753  0.54809840  1.0
  H  H4  1  0.08458234  0.28403939  0.50381401  1.0
  H  H5  1  0.02125062  0.65021677  0.45343713  1.0
  H  H6  1  0.03505556  0.66025510  0.54374565  1.0
  H  H7  1  0.91731613  0.69026084  0.50374531  1.0
  H  H8  1  0.49333743  0.15788618  0.67258586  1.0
  H  H9  1  0.57390188  0.22550843  0.67309480  1.0
  H  H10  1  0.62054745  0.13330083  0.69682515  1.0
  H  H11  1  0.50872583  0.91047147  0.64157455  1.0
  H  H12  1  0.51169186  0.82632079  0.68829335  1.0
  H  H13  1  0.41061195  0.89864453  0.69980675  1.0
  H  H14  1  0.73535316  0.31270310  0.61717992  1.0
  H  H15  1  0.73404093  0.30021861  0.52658091  1.0
  H  H16  1  0.73238699  0.22325794  0.58408918  1.0
  H  H17  1  0.45795042  0.70197608  0.68433644  1.0
  H  H18  1  0.35770899  0.65205303  0.67694553  1.0
  H  H19  1  0.33297391  0.74990224  0.67509625  1.0
  H  H20  1  0.73736075  0.95692587  0.58613753  1.0
  H  H21  1  0.68341911  0.87746816  0.60858878  1.0
  H  H22  1  0.79795863  0.86869635  0.56204282  1.0
  H  H23  1  0.32693112  0.12332638  0.60918427  1.0
  H  H24  1  0.26283482  0.04757305  0.59345890  1.0
  H  H25  1  0.20852793  0.13747760  0.56791092  1.0
  H  H26  1  0.46516918  0.33097233  0.14744196  1.0
  H  H27  1  0.56698284  0.30898983  0.08892344  1.0
  H  H28  1  0.47730274  0.38783518  0.07407105  1.0
  H  H29  1  0.67299929  0.68885968  0.79515370  1.0
  H  H30  1  0.74494686  0.60326511  0.81768903  1.0
  H  H31  1  0.70913393  0.66882344  0.88263881  1.0
  H  H32  1  0.47811344  0.32814057  0.28866098  1.0
  H  H33  1  0.58885430  0.29441316  0.33430181  1.0
  H  H34  1  0.59112243  0.29752788  0.24236900  1.0
  H  H35  1  0.69521978  0.64492033  0.63249337  1.0
  H  H36  1  0.68472922  0.55157878  0.62794969  1.0
  H  H37  1  0.76165464  0.58221690  0.69262113  1.0
  H  H38  1  0.50997386  0.09880769  0.35722381  1.0
  H  H39  1  0.47796665  0.18297099  0.31090223  1.0
  H  H40  1  0.39923526  0.11428907  0.30687877  1.0
  H  H41  1  0.46407878  0.86671822  0.34319441  1.0
  H  H42  1  0.53331542  0.78014644  0.32125386  1.0
  H  H43  1  0.58043977  0.86206257  0.29882620  1.0
  C  C44  1  0.52934234  0.49981935  0.63314076  1.0
  C  C45  1  0.48766093  0.50855784  0.37186192  1.0
  C  C46  1  0.53588824  0.45150838  0.25820855  1.0
  C  C47  1  0.57828603  0.55513252  0.74350036  1.0
  C  C48  1  0.49052085  0.51251214  0.29450747  1.0
  C  C49  1  0.54189335  0.49782357  0.71015286  1.0
  C  C50  1  0.60374759  0.51133385  0.04340882  1.0
  C  C51  1  0.43573279  0.52457082  0.96072550  1.0
  C  C52  1  0.61351945  0.50539553  0.97203700  1.0
  C  C53  1  0.42599206  0.52382742  0.03220814  1.0
  C  C54  1  0.52983524  0.51227140  0.92984953  1.0
  C  C55  1  0.50979163  0.51812814  0.07442933  1.0
  C  C56  1  0.43010007  0.27459340  0.45213216  1.0
  C  C57  1  0.56043557  0.72675468  0.45752171  1.0
  C  C58  1  0.43945871  0.19882559  0.44594388  1.0
  C  C59  1  0.55264010  0.80250384  0.45335361  1.0
  C  C60  1  0.49662894  0.15476372  0.49465139  1.0
  C  C61  1  0.50342142  0.84375945  0.50645043  1.0
  C  C62  1  0.54829636  0.18852068  0.54360189  1.0
  C  C63  1  0.45740125  0.80799835  0.55828017  1.0
  C  C64  1  0.54764095  0.26388811  0.53822364  1.0
  C  C65  1  0.45463560  0.73306082  0.55177268  1.0
  C  C66  1  0.68883286  0.46959710  0.49167545  1.0
  C  C67  1  0.31521505  0.51765054  0.51598771  1.0
  C  C68  1  0.58788524  0.02695303  0.49408640  1.0
  C  C69  1  0.40989418  0.97148377  0.50270728  1.0
  C  C70  1  0.58921282  0.95202092  0.50221361  1.0
  C  C71  1  0.40902411  0.04697297  0.50304020  1.0
  C  C72  1  0.49957361  0.92344141  0.50488502  1.0
  C  C73  1  0.49846622  0.07534887  0.49689172  1.0
  C  C74  1  0.20923013  0.52339615  0.51786633  1.0
  C  C75  1  0.79505634  0.45684240  0.49445340  1.0
  C  C76  1  0.01879267  0.52055039  0.51360445  1.0
  C  C77  1  0.98545180  0.45425491  0.50842947  1.0
  C  C78  1  0.88473702  0.45134516  0.50100742  1.0
  C  C79  1  0.11973620  0.52457269  0.51649528  1.0
  C  C80  1  0.45181830  0.57589656  0.25812878  1.0
  C  C81  1  0.50880183  0.44266149  0.74979432  1.0
  C  C82  1  0.45975807  0.57845600  0.18651556  1.0
  C  C83  1  0.50968494  0.44584002  0.82147767  1.0
  C  C84  1  0.50012275  0.51652917  0.15001602  1.0
  C  C85  1  0.53860925  0.50544685  0.85450921  1.0
  C  C86  1  0.53616273  0.45239549  0.18620413  1.0
  C  C87  1  0.57420924  0.55981380  0.81543020  1.0
  C  C88  1  0.01856756  0.32541842  0.50423121  1.0
  C  C89  1  0.98382659  0.64932891  0.50331107  1.0
  C  C90  1  0.56941700  0.16828141  0.66336980  1.0
  C  C91  1  0.46359582  0.87138723  0.66275884  1.0
  C  C92  1  0.70833844  0.28164115  0.57609660  1.0
  C  C93  1  0.38515858  0.70180098  0.66103043  1.0
  C  C94  1  0.72616088  0.90263008  0.56954525  1.0
  C  C95  1  0.27808065  0.10022973  0.57365201  1.0
  C  C96  1  0.51809852  0.35324746  0.11359625  1.0
  C  C97  1  0.68634937  0.64635077  0.83473543  1.0
  C  C98  1  0.55909247  0.32471505  0.28866202  1.0
  C  C99  1  0.69275422  0.59559593  0.66305690  1.0
  C  C100  1  0.44844808  0.13979412  0.33964025  1.0
  C  C101  1  0.53875576  0.83573556  0.33710870  1.0
  N  N102  1  0.48659739  0.30592623  0.49531135  1.0
  N  N103  1  0.50929025  0.69344616  0.50380622  1.0
  Cl  Cl104  1  0.69807863  0.05790161  0.47709589  1.0
  Cl  Cl105  1  0.29863160  0.93967902  0.49553734  1.0
  Cl  Cl106  1  0.39151936  0.65092214  0.29971927  1.0
  Cl  Cl107  1  0.45900557  0.37315254  0.71256486  1.0
  Cl  Cl108  1  0.42327678  0.65880043  0.14265758  1.0
  Cl  Cl109  1  0.47550350  0.37579735  0.87009857  1.0
  Cl  Cl110  1  0.70699199  0.51055515  0.09315041  1.0
  Cl  Cl111  1  0.33173804  0.53941388  0.91042495  1.0
  Cl  Cl112  1  0.72953571  0.48781168  0.93587337  1.0
  Cl  Cl113  1  0.31074740  0.52696277  0.06861112  1.0
  Cl  Cl114  1  0.34248912  0.32807844  0.40482333  1.0
  Cl  Cl115  1  0.64107695  0.67584342  0.40388207  1.0
  O  O116  1  0.55186239  0.44147624  0.60109744  1.0
  O  O117  1  0.51197348  0.56278359  0.40210651  1.0
  O  O118  1  0.49543967  0.56157773  0.60769024  1.0
  O  O119  1  0.46227186  0.45251048  0.39961112  1.0
  O  O120  1  0.64524310  0.41670100  0.47412392  1.0
  O  O121  1  0.35130157  0.57397340  0.49837261  1.0
  O  O122  1  0.64934637  0.53314144  0.50833785  1.0
  O  O123  1  0.36201822  0.45508204  0.53196075  1.0
  O  O124  1  0.05502486  0.39295652  0.50999309  1.0
  O  O125  1  0.94880909  0.58157667  0.51500699  1.0
  O  O126  1  0.59956034  0.14798037  0.59434654  1.0
  O  O127  1  0.40528040  0.84466663  0.61062630  1.0
  O  O128  1  0.60171381  0.29943061  0.57959663  1.0
  O  O129  1  0.39443314  0.69637971  0.58753875  1.0
  O  O130  1  0.67703990  0.90565054  0.50439174  1.0
  O  O131  1  0.32166427  0.09365446  0.50641040  1.0
  O  O132  1  0.58173228  0.39188084  0.15253449  1.0
  O  O133  1  0.59708868  0.61759132  0.85104912  1.0
  O  O134  1  0.58666571  0.39536845  0.29491777  1.0
  O  O135  1  0.60989298  0.61197724  0.70906648  1.0
  O  O136  1  0.38843066  0.16965192  0.39623296  1.0
  O  O137  1  0.59339992  0.83603895  0.40022844  1.0
