# generated using pymatgen
data_Zn4H34C36N4O13
_symmetry_space_group_name_H-M   'P 1'
_cell_length_a   18.05809405
_cell_length_b   18.16854983
_cell_length_c   18.18983960
_cell_angle_alpha   60.76679864
_cell_angle_beta   60.61052530
_cell_angle_gamma   60.71038231
_symmetry_Int_Tables_number   1
_chemical_formula_structural   Zn4H34C36N4O13
_chemical_formula_sum   'Zn8 H68 C72 N8 O26'
_cell_volume   4286.20456791
_cell_formula_units_Z   2
loop_
 _symmetry_equiv_pos_site_id
 _symmetry_equiv_pos_as_xyz
  1  'x, y, z'
loop_
 _atom_site_type_symbol
 _atom_site_label
 _atom_site_symmetry_multiplicity
 _atom_site_fract_x
 _atom_site_fract_y
 _atom_site_fract_z
 _atom_site_occupancy
  Zn  Zn0  1  0.61801016  0.79460246  0.79476018  1.0
  Zn  Zn1  1  0.38198692  0.20540097  0.20523730  1.0
  Zn  Zn2  1  0.79430180  0.79362632  0.61784835  1.0
  Zn  Zn3  1  0.20569469  0.20637512  0.38215260  1.0
  Zn  Zn4  1  0.79359658  0.61876965  0.79421972  1.0
  Zn  Zn5  1  0.20640013  0.38123112  0.20578146  1.0
  Zn  Zn6  1  0.79372217  0.79320651  0.79483724  1.0
  Zn  Zn7  1  0.20627648  0.20679226  0.20516342  1.0
  H  H8  1  0.54358244  0.92772443  0.13407532  1.0
  H  H9  1  0.59401385  0.85906092  0.46807804  1.0
  H  H10  1  0.59798464  0.07309535  0.47474161  1.0
  H  H11  1  0.40201504  0.92690407  0.52525547  1.0
  H  H12  1  0.59738379  0.03162745  0.34278244  1.0
  H  H13  1  0.40261462  0.96837197  0.65721362  1.0
  H  H14  1  0.65744213  0.98528532  0.95650721  1.0
  H  H15  1  0.34255943  0.01471611  0.04348905  1.0
  H  H16  1  0.39380392  0.54079546  0.13525988  1.0
  H  H17  1  0.60619254  0.45920798  0.86474011  1.0
  H  H18  1  0.40385259  0.65650563  0.95777611  1.0
  H  H19  1  0.45641871  0.07227633  0.86592147  1.0
  H  H20  1  0.59614428  0.34349848  0.04222389  1.0
  H  H21  1  0.14735567  0.52057815  0.92462182  1.0
  H  H22  1  0.85264510  0.47941995  0.07537703  1.0
  H  H23  1  0.97899651  0.65755467  0.96361724  1.0
  H  H24  1  0.02100426  0.34244342  0.03638106  1.0
  H  H25  1  0.89860653  0.03278275  0.82805862  1.0
  H  H26  1  0.00160429  0.94349421  0.82812285  1.0
  H  H27  1  0.99698776  0.05338107  0.80124300  1.0
  H  H28  1  0.06757901  0.01388285  0.66130224  1.0
  H  H29  1  0.96555909  0.10262330  0.66095305  1.0
  H  H30  1  0.92299361  0.14663917  0.51964788  1.0
  H  H31  1  0.88533654  0.99494430  0.71654354  1.0
  H  H32  1  0.98598934  0.90541803  0.71888969  1.0
  H  H33  1  0.99845238  0.05648864  0.17185162  1.0
  H  H34  1  0.10142241  0.96716534  0.17196253  1.0
  H  H35  1  0.00302066  0.94661504  0.19875251  1.0
  H  H36  1  0.03440965  0.89738143  0.33906653  1.0
  H  H37  1  0.93241166  0.98614724  0.33867318  1.0
  H  H38  1  0.01402693  0.09457744  0.28110448  1.0
  H  H39  1  0.11466809  0.00503845  0.28346590  1.0
  H  H40  1  0.17191933  0.86288483  0.57724125  1.0
  H  H41  1  0.07700396  0.85336093  0.48035211  1.0
  H  H42  1  0.18271131  0.96366517  0.52935240  1.0
  H  H43  1  0.82807783  0.13711460  0.42276091  1.0
  H  H44  1  0.81728670  0.03633359  0.47064858  1.0
  H  H45  1  0.68935698  0.66044723  0.41315299  1.0
  H  H46  1  0.74336925  0.74159688  0.33435221  1.0
  H  H47  1  0.74764820  0.66246432  0.30064837  1.0
  H  H48  1  0.89455111  0.61966350  0.31886354  1.0
  H  H49  1  0.84159665  0.53831496  0.39531579  1.0
  H  H50  1  0.78050936  0.60498883  0.51537645  1.0
  H  H51  1  0.83301813  0.68698237  0.43880231  1.0
  H  H52  1  0.92020826  0.41025459  0.52180692  1.0
  H  H53  1  0.25665656  0.25840793  0.66562278  1.0
  H  H54  1  0.31064374  0.33957960  0.58683010  1.0
  H  H55  1  0.25235881  0.33753980  0.69934224  1.0
  H  H56  1  0.15838741  0.46168379  0.60469645  1.0
  H  H57  1  0.10545567  0.38031657  0.68114122  1.0
  H  H58  1  0.16698573  0.31301973  0.56118974  1.0
  H  H59  1  0.21948917  0.39501796  0.48462197  1.0
  H  H60  1  0.58427542  0.16445726  0.86807425  1.0
  H  H61  1  0.47374415  0.21694347  0.89319064  1.0
  H  H62  1  0.41572378  0.83554551  0.13192142  1.0
  H  H63  1  0.07979141  0.58974685  0.47819356  1.0
  H  H64  1  0.52625529  0.78305864  0.10680853  1.0
  H  H65  1  0.38818084  0.58557588  0.86177889  1.0
  H  H66  1  0.41484610  0.47588801  0.88948273  1.0
  H  H67  1  0.61181562  0.41442755  0.13822001  1.0
  H  H68  1  0.58514932  0.52411477  0.11051920  1.0
  H  H69  1  0.86213419  0.58296737  0.16785083  1.0
  H  H70  1  0.96286968  0.53126559  0.18023522  1.0
  H  H71  1  0.13786552  0.41703005  0.83214722  1.0
  H  H72  1  0.03712896  0.46873316  0.81976380  1.0
  H  H73  1  0.04061442  0.59400402  0.34251365  1.0
  H  H74  1  0.95938461  0.40599742  0.65748715  1.0
  H  H75  1  0.40598456  0.14093850  0.53191966  1.0
  C  C76  1  0.88994668  0.89013330  0.61202198  1.0
  C  C77  1  0.55074767  0.55504183  0.94625535  1.0
  C  C78  1  0.45200350  0.51136537  0.95408952  1.0
  C  C79  1  0.54799251  0.48863940  0.04590949  1.0
  C  C80  1  0.98877719  0.58759704  0.98013945  1.0
  C  C81  1  0.01122336  0.41240172  0.01985863  1.0
  C  C82  1  0.08088985  0.51274137  0.95748579  1.0
  C  C83  1  0.91911155  0.48725673  0.04251219  1.0
  C  C84  1  0.05122516  0.44441997  0.05340534  1.0
  C  C85  1  0.94877580  0.55557946  0.94659275  1.0
  C  C86  1  0.95859846  0.51938727  0.07741348  1.0
  C  C87  1  0.11004940  0.10986747  0.38798006  1.0
  C  C88  1  0.04140294  0.48061083  0.92258505  1.0
  C  C89  1  0.98058533  0.98934079  0.58802725  1.0
  C  C90  1  0.01941309  0.01065864  0.41197264  1.0
  C  C91  1  0.60871079  0.61187915  0.89099008  1.0
  C  C92  1  0.39128739  0.38812296  0.10901081  1.0
  C  C93  1  0.95682794  0.08027529  0.51242005  1.0
  C  C94  1  0.04317049  0.91972414  0.48758094  1.0
  C  C95  1  0.05313079  0.05182289  0.44341049  1.0
  C  C96  1  0.94686763  0.94817654  0.55658995  1.0
  C  C97  1  0.07849793  0.96023927  0.51764247  1.0
  C  C98  1  0.51000210  0.08218581  0.95704832  1.0
  C  C99  1  0.92149986  0.03976015  0.48235829  1.0
  C  C100  1  0.92363968  0.55584582  0.47801237  1.0
  C  C101  1  0.07635999  0.44415563  0.52198812  1.0
  C  C102  1  0.95501429  0.45076064  0.51290276  1.0
  C  C103  1  0.04498515  0.54924147  0.48709751  1.0
  C  C104  1  0.05289631  0.44891020  0.44588957  1.0
  C  C105  1  0.94710295  0.55109058  0.55411200  1.0
  C  C106  1  0.02217804  0.55274325  0.41275330  1.0
  C  C107  1  0.97782099  0.44725820  0.58724750  1.0
  C  C108  1  0.55392488  0.04131050  0.48514037  1.0
  C  C109  1  0.48999924  0.91781630  0.04294827  1.0
  C  C110  1  0.44607331  0.95868959  0.51485712  1.0
  C  C111  1  0.44845900  0.07760242  0.51855843  1.0
  C  C112  1  0.55154046  0.92239767  0.48143788  1.0
  C  C113  1  0.44980175  0.05384445  0.44511821  1.0
  C  C114  1  0.55019602  0.94615496  0.55487981  1.0
  C  C115  1  0.60853766  0.88671125  0.61148568  1.0
  C  C116  1  0.39145904  0.11328951  0.38851330  1.0
  C  C117  1  0.55481145  0.01715961  0.41290774  1.0
  C  C118  1  0.44518823  0.98283982  0.58708934  1.0
  C  C119  1  0.89135511  0.61170354  0.88936693  1.0
  C  C120  1  0.44625122  0.58672233  0.97699991  1.0
  C  C121  1  0.10864459  0.38829589  0.11063289  1.0
  C  C122  1  0.89012613  0.60939930  0.61055449  1.0
  C  C123  1  0.10987014  0.39060280  0.38944625  1.0
  C  C124  1  0.61235282  0.89612644  0.88431487  1.0
  C  C125  1  0.38764788  0.10387566  0.11568149  1.0
  C  C126  1  0.58722531  0.99200463  0.97621330  1.0
  C  C127  1  0.41277540  0.00799747  0.02378306  1.0
  C  C128  1  0.52488499  0.95940659  0.07393877  1.0
  C  C129  1  0.47511571  0.04059552  0.92605759  1.0
  C  C130  1  0.44471465  0.04819830  0.05709365  1.0
  C  C131  1  0.55374396  0.41328110  0.02300016  1.0
  C  C132  1  0.55528583  0.95180447  0.94290249  1.0
  C  C133  1  0.95894559  0.97715908  0.68334830  1.0
  C  C134  1  0.99420617  0.03092965  0.69498693  1.0
  C  C135  1  0.97177223  0.01446090  0.79331615  1.0
  C  C136  1  0.04105798  0.02283635  0.31665103  1.0
  C  C137  1  0.00578898  0.96907579  0.30501107  1.0
  C  C138  1  0.02825017  0.98552189  0.20668233  1.0
  C  C139  1  0.83908779  0.61759199  0.45538700  1.0
  C  C140  1  0.83551496  0.60778212  0.37819236  1.0
  C  C141  1  0.74939100  0.67150387  0.35523642  1.0
  C  C142  1  0.44136605  0.52325463  0.07469865  1.0
  C  C143  1  0.16091228  0.38241011  0.54461077  1.0
  C  C144  1  0.16448435  0.39221464  0.62180896  1.0
  C  C145  1  0.25061700  0.32850492  0.64475086  1.0
  C  C146  1  0.55863019  0.47674947  0.92530112  1.0
  C  C147  1  0.44924812  0.44496361  0.05374398  1.0
  N  N148  1  0.16601483  0.92048782  0.52430380  1.0
  N  N149  1  0.83398211  0.07951228  0.47569760  1.0
  N  N150  1  0.52353065  0.16558975  0.91738047  1.0
  N  N151  1  0.47647006  0.83441236  0.08261644  1.0
  N  N152  1  0.39526513  0.52609874  0.91226563  1.0
  N  N153  1  0.60472984  0.47390536  0.08773477  1.0
  N  N154  1  0.91841614  0.52801991  0.16347697  1.0
  N  N155  1  0.08158399  0.47197818  0.83652109  1.0
  O  O156  1  0.75009802  0.74981182  0.74895760  1.0
  O  O157  1  0.30671433  0.42874089  0.13568974  1.0
  O  O158  1  0.87497172  0.85871669  0.69605208  1.0
  O  O159  1  0.12502584  0.14128340  0.30394737  1.0
  O  O160  1  0.56948884  0.69604667  0.87647161  1.0
  O  O161  1  0.43050739  0.30395744  0.12352816  1.0
  O  O162  1  0.69337471  0.86683620  0.57014922  1.0
  O  O163  1  0.30662349  0.13316389  0.42984991  1.0
  O  O164  1  0.87600003  0.57038041  0.86053053  1.0
  O  O165  1  0.12399963  0.42962103  0.13946722  1.0
  O  O166  1  0.87203160  0.69373651  0.56972341  1.0
  O  O167  1  0.24989869  0.25018895  0.25104358  1.0
  O  O168  1  0.12796998  0.30626495  0.43027778  1.0
  O  O169  1  0.69714598  0.86628579  0.86986462  1.0
  O  O170  1  0.30285435  0.13371365  0.13013543  1.0
  O  O171  1  0.86422908  0.57049478  0.69475572  1.0
  O  O172  1  0.13576085  0.42950529  0.30524584  1.0
  O  O173  1  0.57170248  0.88088335  0.85491419  1.0
  O  O174  1  0.42829879  0.11912276  0.14507882  1.0
  O  O175  1  0.56921395  0.86051462  0.69570292  1.0
  O  O176  1  0.43078275  0.13948613  0.30429552  1.0
  O  O177  1  0.86153439  0.69557109  0.87436200  1.0
  O  O178  1  0.13846490  0.30442767  0.12563944  1.0
  O  O179  1  0.86096398  0.87586044  0.56999418  1.0
  O  O180  1  0.13903142  0.12414232  0.43000447  1.0
  O  O181  1  0.69328196  0.57126123  0.86431537  1.0
