# generated using pymatgen
data_ZnH6C12(SO5)2
_symmetry_space_group_name_H-M   'P 1'
_cell_length_a   10.47658188
_cell_length_b   18.62188118
_cell_length_c   18.73987235
_cell_angle_alpha   90.32532938
_cell_angle_beta   93.24578884
_cell_angle_gamma   93.15436460
_symmetry_Int_Tables_number   1
_chemical_formula_structural   ZnH6C12(SO5)2
_chemical_formula_sum   'Zn4 H24 C48 S8 O40'
_cell_volume   3644.49332854
_cell_formula_units_Z   4
loop_
 _symmetry_equiv_pos_site_id
 _symmetry_equiv_pos_as_xyz
  1  'x, y, z'
loop_
 _atom_site_type_symbol
 _atom_site_label
 _atom_site_symmetry_multiplicity
 _atom_site_fract_x
 _atom_site_fract_y
 _atom_site_fract_z
 _atom_site_occupancy
  Zn  Zn0  1  0.61744342  0.00910805  0.50659753  1.0
  Zn  Zn1  1  0.37101035  0.99210686  0.49039898  1.0
  Zn  Zn2  1  0.38251783  0.49292074  0.99046712  1.0
  Zn  Zn3  1  0.62891134  0.50923148  0.00748862  1.0
  H  H4  1  0.31957101  0.67253785  0.82746716  1.0
  H  H5  1  0.72515955  0.65609645  0.85931092  1.0
  H  H6  1  0.67833015  0.83448970  0.67479211  1.0
  H  H7  1  0.27372010  0.85942397  0.65162976  1.0
  H  H8  1  0.32109479  0.32398704  0.16439139  1.0
  H  H9  1  0.72553190  0.34664777  0.13932435  1.0
  H  H10  1  0.68060393  0.17168749  0.32691882  1.0
  H  H11  1  0.27513773  0.14044020  0.34369476  1.0
  H  H12  1  0.33549755  0.33206632  0.82491565  1.0
  H  H13  1  0.74440872  0.36153130  0.84783116  1.0
  H  H14  1  0.66522786  0.17489262  0.66748939  1.0
  H  H15  1  0.25628355  0.15203451  0.63812991  1.0
  H  H16  1  0.67133500  0.67387833  0.17331828  1.0
  H  H17  1  0.26390593  0.64702652  0.13688317  1.0
  H  H18  1  0.32869052  0.82627678  0.32565251  1.0
  H  H19  1  0.73613417  0.86238808  0.35288886  1.0
  H  H20  1  0.05989878  0.73269269  0.82232344  1.0
  H  H21  1  0.94857992  0.82490850  0.72974132  1.0
  H  H22  1  0.05100268  0.26867150  0.17420899  1.0
  H  H23  1  0.94023596  0.17607145  0.26657503  1.0
  H  H24  1  0.06448677  0.32252514  0.76973164  1.0
  H  H25  1  0.93609033  0.23044014  0.67738065  1.0
  H  H26  1  0.93192564  0.73094075  0.17852479  1.0
  H  H27  1  0.06789801  0.82129905  0.26893305  1.0
  C  C28  1  0.51117058  0.90255990  0.40161320  1.0
  C  C29  1  0.49426482  0.90646471  0.60019300  1.0
  C  C30  1  0.47316498  0.10167987  0.59215408  1.0
  C  C31  1  0.49660990  0.09600362  0.39767418  1.0
  C  C32  1  0.52749786  0.40747910  0.89809396  1.0
  C  C33  1  0.50367705  0.60252192  0.90405459  1.0
  C  C34  1  0.48895128  0.59800743  0.09691856  1.0
  C  C35  1  0.50465476  0.39834316  0.09221948  1.0
  C  C36  1  0.41595964  0.69067978  0.81461189  1.0
  C  C37  1  0.64522270  0.68162391  0.83238605  1.0
  C  C38  1  0.66628089  0.73197583  0.78041812  1.0
  C  C39  1  0.56336920  0.76679486  0.74408675  1.0
  C  C40  1  0.58235142  0.81950883  0.69076426  1.0
  C  C41  1  0.35374389  0.83357467  0.67809936  1.0
  C  C42  1  0.33266232  0.78137159  0.72825779  1.0
  C  C43  1  0.43541927  0.74547514  0.76342423  1.0
  C  C44  1  0.51910693  0.66009629  0.84923229  1.0
  C  C45  1  0.47944731  0.85239983  0.65848637  1.0
  C  C46  1  0.41714740  0.30794727  0.17938018  1.0
  C  C47  1  0.64562604  0.32035357  0.16525028  1.0
  C  C48  1  0.66697541  0.27038910  0.21763435  1.0
  C  C49  1  0.56443661  0.23544155  0.25368807  1.0
  C  C50  1  0.58413995  0.18455786  0.30875492  1.0
  C  C51  1  0.35492848  0.16712255  0.31800119  1.0
  C  C52  1  0.33365919  0.21873963  0.26727010  1.0
  C  C53  1  0.43641687  0.25479096  0.23228362  1.0
  C  C54  1  0.51983750  0.34002778  0.14635137  1.0
  C  C55  1  0.48110328  0.15032489  0.33964227  1.0
  C  C56  1  0.42866165  0.31790503  0.80824940  1.0
  C  C57  1  0.66002559  0.33470016  0.82099373  1.0
  C  C58  1  0.67186885  0.28207799  0.77034890  1.0
  C  C59  1  0.56258283  0.24561760  0.73433531  1.0
  C  C60  1  0.57206726  0.19156207  0.68170358  1.0
  C  C61  1  0.34068487  0.17883109  0.66498304  1.0
  C  C62  1  0.32885922  0.22940241  0.71765796  1.0
  C  C63  1  0.43815248  0.26535881  0.75413283  1.0
  C  C64  1  0.53725700  0.35242571  0.84045205  1.0
  C  C65  1  0.46345187  0.15938274  0.64719812  1.0
  C  C66  1  0.57698677  0.68990966  0.18590006  1.0
  C  C67  1  0.34615549  0.67459974  0.16518175  1.0
  C  C68  1  0.32988130  0.72568860  0.21681438  1.0
  C  C69  1  0.43668943  0.76230490  0.25514716  1.0
  C  C70  1  0.42303571  0.81363708  0.30969168  1.0
  C  C71  1  0.65387975  0.83419797  0.32520433  1.0
  C  C72  1  0.67012722  0.78265714  0.27400960  1.0
  C  C73  1  0.56329511  0.74443348  0.23728660  1.0
  C  C74  1  0.47105909  0.65595355  0.15045022  1.0
  C  C75  1  0.52899855  0.84898516  0.34375351  1.0
  S  S76  1  0.16973562  0.75152080  0.73329986  1.0
  S  S77  1  0.82454607  0.73628267  0.75109869  1.0
  S  S78  1  0.17525886  0.24819535  0.26254237  1.0
  S  S79  1  0.83000504  0.26549437  0.24742733  1.0
  S  S80  1  0.17195817  0.23356861  0.74802074  1.0
  S  S81  1  0.82880662  0.25155683  0.76598485  1.0
  S  S82  1  0.82977222  0.75546751  0.26900455  1.0
  S  S83  1  0.17024774  0.73047928  0.24383145  1.0
  O  O84  1  0.61364301  0.93183543  0.43238543  1.0
  O  O85  1  0.39694177  0.91483333  0.41577447  1.0
  O  O86  1  0.38830627  0.92219019  0.56797791  1.0
  O  O87  1  0.60515603  0.93212425  0.58647992  1.0
  O  O88  1  0.36829277  0.07270407  0.56516642  1.0
  O  O89  1  0.58598142  0.08573342  0.57700979  1.0
  O  O90  1  0.60772728  0.08405881  0.42425709  1.0
  O  O91  1  0.39088097  0.06553980  0.41611356  1.0
  O  O92  1  0.41467071  0.42197467  0.91458222  1.0
  O  O93  1  0.63234647  0.43515116  0.92646095  1.0
  O  O94  1  0.60927967  0.58497751  0.93541806  1.0
  O  O95  1  0.39271181  0.57542753  0.91549868  1.0
  O  O96  1  0.60318261  0.58320165  0.08531349  1.0
  O  O97  1  0.38652085  0.56778164  0.06702782  1.0
  O  O98  1  0.39356433  0.41261423  0.06722460  1.0
  O  O99  1  0.61057651  0.43007158  0.07575270  1.0
  O  O100  1  0.15112366  0.75236672  0.81684094  1.0
  O  O101  1  0.09196531  0.80668689  0.70066828  1.0
  O  O102  1  0.15351891  0.67941867  0.70540629  1.0
  O  O103  1  0.86078413  0.82016370  0.75012551  1.0
  O  O104  1  0.90639227  0.70438951  0.80678033  1.0
  O  O105  1  0.82094789  0.70642762  0.68014586  1.0
  O  O106  1  0.13887695  0.24823233  0.17913391  1.0
  O  O107  1  0.09373813  0.19249276  0.29478482  1.0
  O  O108  1  0.17854840  0.31991078  0.29139410  1.0
  O  O109  1  0.84894379  0.18141805  0.24695696  1.0
  O  O110  1  0.90757111  0.29810800  0.19251617  1.0
  O  O111  1  0.84621600  0.29384636  0.31898652  1.0
  O  O112  1  0.15105657  0.31731496  0.74900120  1.0
  O  O113  1  0.08295349  0.20013302  0.69309308  1.0
  O  O114  1  0.17187864  0.20523626  0.81917469  1.0
  O  O115  1  0.84952471  0.25127487  0.68275485  1.0
  O  O116  1  0.91778472  0.30653648  0.79967452  1.0
  O  O117  1  0.82904802  0.17972004  0.79355181  1.0
  O  O118  1  0.84802351  0.75403925  0.18524932  1.0
  O  O119  1  0.91673708  0.81266587  0.30036819  1.0
  O  O120  1  0.83562471  0.68425888  0.29753442  1.0
  O  O121  1  0.15178794  0.81475036  0.24593537  1.0
  O  O122  1  0.08327529  0.69937581  0.18673001  1.0
  O  O123  1  0.16452766  0.70118990  0.31436241  1.0
