# generated using pymatgen
data_Zn4H53C89N25O18
_symmetry_space_group_name_H-M   'P 1'
_cell_length_a   18.73625893
_cell_length_b   18.91593915
_cell_length_c   20.46581399
_cell_angle_alpha   105.76635560
_cell_angle_beta   107.35545927
_cell_angle_gamma   111.77875671
_symmetry_Int_Tables_number   1
_chemical_formula_structural   Zn4H53C89N25O18
_chemical_formula_sum   'Zn4 H53 C89 N25 O18'
_cell_volume   5799.90928302
_cell_formula_units_Z   1
loop_
 _symmetry_equiv_pos_site_id
 _symmetry_equiv_pos_as_xyz
  1  'x, y, z'
loop_
 _atom_site_type_symbol
 _atom_site_label
 _atom_site_symmetry_multiplicity
 _atom_site_fract_x
 _atom_site_fract_y
 _atom_site_fract_z
 _atom_site_occupancy
  Zn  Zn0  1  0.89422074  0.89096000  0.50250504  1.0
  Zn  Zn1  1  0.10774845  0.10100194  0.49831652  1.0
  Zn  Zn2  1  0.10708905  0.99979587  0.61043510  1.0
  Zn  Zn3  1  0.89849946  0.00732764  0.39227417  1.0
  H  H4  1  0.83790324  0.80624998  0.61498088  1.0
  H  H5  1  0.85564337  0.13713465  0.48594437  1.0
  H  H6  1  0.07589938  0.25006715  0.59692649  1.0
  H  H7  1  0.86713995  0.00395738  0.62776174  1.0
  H  H8  1  0.89747882  0.16510792  0.34618461  1.0
  H  H9  1  0.11339994  0.91203924  0.72896368  1.0
  H  H10  1  0.67891564  0.71696341  0.38201102  1.0
  H  H11  1  0.30952470  0.17977934  0.53226780  1.0
  H  H12  1  0.16526462  0.90379259  0.50944864  1.0
  H  H13  1  0.87510139  0.85638680  0.25278577  1.0
  H  H14  1  0.15242151  0.98448864  0.38062672  1.0
  H  H15  1  0.89249166  0.72639139  0.39628626  1.0
  H  H16  1  0.31480516  0.04923689  0.67642358  1.0
  H  H17  1  0.45750957  0.22144292  0.56519640  1.0
  H  H18  1  0.44491064  0.07477828  0.69402981  1.0
  H  H19  1  0.79542740  0.06302573  0.68226415  1.0
  H  H20  1  0.80191655  0.20282750  0.54806840  1.0
  H  H21  1  0.58338388  0.27795737  0.54109477  1.0
  H  H22  1  0.92893396  0.63440354  0.32305938  1.0
  H  H23  1  0.26832152  0.56607513  0.51861797  1.0
  H  H24  1  0.18133547  0.41427956  0.48459913  1.0
  H  H25  1  0.92072093  0.27156873  0.30673644  1.0
  H  H26  1  0.85421612  0.34452361  0.24847497  1.0
  H  H27  1  0.85735220  0.47805778  0.25475245  1.0
  H  H28  1  0.53546773  0.79880785  0.21238448  1.0
  H  H29  1  0.33999183  0.58991839  0.98424057  1.0
  H  H30  1  0.43696776  0.49570777  0.14920616  1.0
  H  H31  1  0.15282957  0.38436017  0.94376960  1.0
  H  H32  1  0.58089819  0.60363783  0.25257493  1.0
  H  H33  1  0.30066642  0.45624482  0.04615364  1.0
  H  H34  1  0.39314155  0.69110615  0.10777073  1.0
  H  H35  1  0.30925406  0.51614059  0.85319142  1.0
  H  H36  1  0.05282181  0.75797831  0.73794362  1.0
  H  H37  1  0.13781633  0.96376159  0.24948943  1.0
  H  H38  1  0.99983742  0.85823418  0.98559620  1.0
  H  H39  1  0.87090152  0.78671478  0.86482367  1.0
  H  H40  1  0.87045389  0.83595319  0.76405320  1.0
  H  H41  1  0.97330727  0.67844053  0.93299418  1.0
  H  H42  1  0.22679461  0.31890558  0.45683474  1.0
  H  H43  1  0.22142486  0.34758047  0.54463989  1.0
  H  H44  1  0.22707503  0.25494877  0.50642157  1.0
  H  H45  1  0.22697116  0.77235744  0.58384806  1.0
  H  H46  1  0.24142374  0.83958560  0.53794089  1.0
  H  H47  1  0.16065208  0.81860272  0.57000291  1.0
  H  H48  1  0.24992792  0.33916843  0.69163745  1.0
  H  H49  1  0.19270998  0.39221359  0.66873576  1.0
  H  H50  1  0.30130706  0.45119738  0.73875935  1.0
  H  H51  1  0.10442672  0.69559956  0.81020193  1.0
  H  H52  1  0.11616590  0.73396330  0.90448218  1.0
  H  H53  1  0.03068528  0.63258114  0.83585999  1.0
  H  H54  1  0.16801701  0.89950914  0.08209278  1.0
  H  H55  1  0.12854201  0.97108167  0.08712541  1.0
  H  H56  1  0.20635060  0.98409379  0.17143889  1.0
  C  C57  1  0.90702596  0.83876687  0.63467807  1.0
  C  C58  1  0.10388784  0.24167809  0.44966239  1.0
  C  C59  1  0.11960257  0.15917200  0.70604954  1.0
  C  C60  1  0.86286810  0.09743673  0.51412900  1.0
  C  C61  1  0.08844322  0.21311565  0.62645553  1.0
  C  C62  1  0.86819420  0.02910240  0.58605321  1.0
  C  C63  1  0.96290120  0.18165496  0.38088633  1.0
  C  C64  1  0.04740375  0.89086136  0.69134955  1.0
  C  C65  1  0.97137276  0.84002717  0.69249687  1.0
  C  C66  1  0.04025290  0.25650865  0.40776219  1.0
  C  C67  1  0.11568219  0.23202120  0.70384121  1.0
  C  C68  1  0.84627564  0.09013356  0.57542945  1.0
  C  C69  1  0.70199362  0.76491469  0.36247071  1.0
  C  C70  1  0.29724566  0.14426187  0.56513572  1.0
  C  C71  1  0.09598745  0.87042333  0.48706656  1.0
  C  C72  1  0.94203992  0.89522330  0.29458567  1.0
  C  C73  1  0.08391192  0.96223973  0.35897254  1.0
  C  C74  1  0.95674059  0.78065107  0.42861261  1.0
  C  C75  1  0.72080655  0.84801474  0.30527058  1.0
  C  C76  1  0.29989030  0.07749663  0.63832329  1.0
  C  C77  1  0.65753832  0.77088076  0.29742068  1.0
  C  C78  1  0.35227427  0.12605860  0.61266513  1.0
  C  C79  1  0.03663479  0.78397089  0.44236610  1.0
  C  C80  1  0.01565292  0.89686781  0.28909303  1.0
  C  C81  1  0.48491259  0.19211530  0.59651428  1.0
  C  C82  1  0.43993600  0.14503016  0.62723934  1.0
  C  C83  1  0.47890690  0.11089311  0.66948901  1.0
  C  C84  1  0.55790613  0.11704787  0.67680398  1.0
  C  C85  1  0.60080678  0.15966208  0.64046265  1.0
  C  C86  1  0.56407997  0.19968151  0.60221310  1.0
  C  C87  1  0.59897760  0.08107405  0.71768324  1.0
  C  C88  1  0.67183063  0.08168350  0.71645858  1.0
  C  C89  1  0.70943607  0.11444785  0.67239907  1.0
  C  C90  1  0.67509816  0.15836484  0.63780518  1.0
  C  C91  1  0.71420871  0.19580196  0.59655447  1.0
  C  C92  1  0.67994227  0.24291936  0.56593742  1.0
  C  C93  1  0.60783299  0.24371540  0.56762587  1.0
  C  C94  1  0.77183274  0.09891989  0.65764447  1.0
  C  C95  1  0.80024326  0.12458494  0.60770390  1.0
  C  C96  1  0.77536385  0.17757088  0.58226499  1.0
  C  C97  1  0.98501776  0.63536531  0.36053282  1.0
  C  C98  1  0.05139327  0.71175058  0.42270843  1.0
  C  C99  1  0.12682376  0.71478074  0.46963086  1.0
  C  C100  1  0.13438292  0.64104964  0.45057802  1.0
  C  C101  1  0.06097715  0.56142370  0.39540693  1.0
  C  C102  1  0.98595801  0.55932190  0.34827884  1.0
  C  C103  1  0.21039645  0.63752734  0.48928973  1.0
  C  C104  1  0.20879000  0.56400430  0.48702368  1.0
  C  C105  1  0.13144885  0.48528822  0.44104375  1.0
  C  C106  1  0.05903921  0.48441254  0.39118407  1.0
  C  C107  1  0.98295181  0.40518932  0.34059904  1.0
  C  C108  1  0.91120910  0.40505036  0.28935479  1.0
  C  C109  1  0.91298619  0.47890135  0.29291704  1.0
  C  C110  1  0.12555560  0.41016684  0.44364630  1.0
  C  C111  1  0.04926678  0.33265906  0.39792139  1.0
  C  C112  1  0.97988536  0.33140157  0.34492203  1.0
  C  C113  1  0.57015820  0.70932460  0.23874790  1.0
  C  C114  1  0.51480576  0.73247336  0.19802093  1.0
  C  C115  1  0.43455922  0.67165618  0.13897005  1.0
  C  C116  1  0.40599292  0.58512081  0.11837898  1.0
  C  C117  1  0.45827662  0.56234847  0.16339331  1.0
  C  C118  1  0.53924773  0.62315713  0.22173607  1.0
  C  C119  1  0.17176301  0.38689842  0.89871248  1.0
  C  C120  1  0.12568183  0.31647413  0.82931385  1.0
  C  C121  1  0.21284627  0.38772676  0.77707297  1.0
  C  C122  1  0.25671875  0.45935044  0.84626006  1.0
  C  C123  1  0.24172741  0.45901603  0.90946956  1.0
  C  C124  1  0.33021431  0.51932937  0.04834589  1.0
  C  C125  1  0.30406149  0.52895750  0.98375880  1.0
  C  C126  1  0.14764401  0.31189349  0.76847288  1.0
  C  C127  1  0.96361885  0.80239272  0.74547176  1.0
  C  C128  1  0.01288399  0.76432721  0.76613399  1.0
  C  C129  1  0.01339091  0.73557385  0.82225877  1.0
  C  C130  1  0.96426356  0.74741174  0.86055853  1.0
  C  C131  1  0.91088199  0.78067625  0.83670001  1.0
  C  C132  1  0.90989820  0.80738869  0.77971918  1.0
  C  C133  1  0.94343852  0.75801884  0.08515600  1.0
  C  C134  1  0.95133411  0.77891213  0.15897480  1.0
  C  C135  1  0.08425948  0.90377875  0.20356463  1.0
  C  C136  1  0.07920009  0.88196228  0.13112198  1.0
  C  C137  1  0.00457280  0.80978392  0.06880971  1.0
  C  C138  1  0.97530695  0.73620236  0.93066191  1.0
  C  C139  1  0.99185642  0.80049019  0.99206508  1.0
  C  C140  1  0.01891979  0.85652852  0.21910519  1.0
  C  C141  1  0.19951127  0.29376068  0.49143558  1.0
  C  C142  1  0.19266442  0.79041378  0.54380663  1.0
  C  C143  1  0.24072743  0.39267284  0.71582165  1.0
  C  C144  1  0.06912201  0.69751478  0.84425331  1.0
  C  C145  1  0.14952681  0.93716198  0.11761224  1.0
  N  N146  1  0.94215643  0.88465376  0.60129675  1.0
  N  N147  1  0.06523877  0.16408370  0.44690761  1.0
  N  N148  1  0.09522300  0.10323051  0.63615873  1.0
  N  N149  1  0.89040799  0.04406568  0.49000625  1.0
  N  N150  1  0.07707223  0.13590228  0.58733863  1.0
  N  N151  1  0.89363644  0.00158972  0.53403418  1.0
  N  N152  1  0.97827725  0.12687201  0.40451219  1.0
  N  N153  1  0.02953630  0.91743232  0.63696006  1.0
  N  N154  1  0.78305598  0.83194665  0.40349919  1.0
  N  N155  1  0.21885393  0.10915490  0.56284543  1.0
  N  N156  1  0.05490388  0.91396003  0.50065795  1.0
  N  N157  1  0.96545374  0.95555161  0.36169506  1.0
  N  N158  1  0.05243139  0.99640378  0.40149506  1.0
  N  N159  1  0.96889986  0.85832167  0.46415614  1.0
  N  N160  1  0.79453644  0.88206754  0.36822162  1.0
  N  N161  1  0.22089381  0.06765091  0.60838226  1.0
  N  N162  1  0.72239253  0.89369904  0.26048517  1.0
  N  N163  1  0.56263043  0.04272123  0.76206802  1.0
  N  N164  1  0.71184495  0.04246695  0.75746344  1.0
  N  N165  1  0.72060007  0.29236105  0.53007510  1.0
  N  N166  1  0.29691024  0.71146897  0.52506647  1.0
  N  N167  1  0.15649135  0.14313542  0.76850938  1.0
  N  N168  1  0.05005901  0.24471740  0.82156854  1.0
  N  N169  1  0.88548921  0.72169733  0.17298301  1.0
  N  N170  1  0.86730420  0.68007293  0.02122075  1.0
  O  O171  1  0.66137481  0.86495039  0.19827721  1.0
  O  O172  1  0.78949382  0.96558304  0.28694643  1.0
  O  O173  1  0.48478051  0.99121080  0.73022336  1.0
  O  O174  1  0.61279836  0.06533867  0.82832235  1.0
  O  O175  1  0.67014807  0.96505528  0.73392472  1.0
  O  O176  1  0.78488157  0.09027139  0.80991476  1.0
  O  O177  1  0.79828021  0.31746786  0.54882159  1.0
  O  O178  1  0.67525130  0.30739250  0.48390224  1.0
  O  O179  1  0.30953300  0.75900828  0.49316848  1.0
  O  O180  1  0.35281149  0.71977071  0.58243470  1.0
  O  O181  1  0.17128573  0.18856865  0.83277401  1.0
  O  O182  1  0.17469295  0.08474758  0.75501866  1.0
  O  O183  1  0.04580336  0.24304352  0.88031809  1.0
  O  O184  1  0.99419439  0.19153137  0.75632320  1.0
  O  O185  1  0.80903101  0.69314780  0.12939614  1.0
  O  O186  1  0.91119730  0.70603674  0.22759884  1.0
  O  O187  1  0.86377707  0.61248311  0.01797817  1.0
  O  O188  1  0.81528769  0.68899181  0.97548850  1.0
