# generated using pymatgen
data_Zn8H32C49O44
_symmetry_space_group_name_H-M   'P 1'
_cell_length_a   18.10775196
_cell_length_b   18.28980675
_cell_length_c   18.51990224
_cell_angle_alpha   62.91123187
_cell_angle_beta   61.34551654
_cell_angle_gamma   61.16234743
_symmetry_Int_Tables_number   1
_chemical_formula_structural   Zn8H32C49O44
_chemical_formula_sum   'Zn8 H32 C49 O44'
_cell_volume   4510.12624493
_cell_formula_units_Z   1
loop_
 _symmetry_equiv_pos_site_id
 _symmetry_equiv_pos_as_xyz
  1  'x, y, z'
loop_
 _atom_site_type_symbol
 _atom_site_label
 _atom_site_symmetry_multiplicity
 _atom_site_fract_x
 _atom_site_fract_y
 _atom_site_fract_z
 _atom_site_occupancy
  Zn  Zn0  1  0.54079685  0.86745976  0.54049675  1.0
  Zn  Zn1  1  0.55330144  0.04282546  0.52894230  1.0
  Zn  Zn2  1  0.37261872  0.04117992  0.54120760  1.0
  Zn  Zn3  1  0.54639762  0.02994361  0.36666965  1.0
  Zn  Zn4  1  0.95072138  0.62928367  0.96687427  1.0
  Zn  Zn5  1  0.13158700  0.46514952  0.95820705  1.0
  Zn  Zn6  1  0.95465179  0.46087742  0.95387475  1.0
  Zn  Zn7  1  0.96330690  0.45002075  0.12589229  1.0
  H  H8  1  0.66344311  0.87698888  0.19612777  1.0
  H  H9  1  0.36657011  0.21555937  0.69798462  1.0
  H  H10  1  0.68262601  0.70275171  0.71705171  1.0
  H  H11  1  0.82572528  0.80367750  0.13023458  1.0
  H  H12  1  0.72568540  0.67229199  0.41937073  1.0
  H  H13  1  0.64381959  0.68175993  0.38538733  1.0
  H  H14  1  0.90918212  0.56849319  0.28538348  1.0
  H  H15  1  0.96270821  0.71598964  0.10718579  1.0
  H  H16  1  0.28467082  0.73037090  0.84774383  1.0
  H  H17  1  0.09639332  0.93364639  0.74354491  1.0
  H  H18  1  0.07004625  0.29632037  0.38011482  1.0
  H  H19  1  0.83594854  0.74614922  0.30737031  1.0
  H  H20  1  0.29275503  0.40744164  0.07672208  1.0
  H  H21  1  0.22367547  0.25482920  0.44950641  1.0
  H  H22  1  0.40488124  0.14099693  0.22680786  1.0
  H  H23  1  0.56175538  0.26582132  0.41682711  1.0
  H  H24  1  0.83909285  0.16033428  0.20347959  1.0
  H  H25  1  0.29529178  0.14910798  0.84924887  1.0
  H  H26  1  0.81425165  0.59103433  0.71594868  1.0
  H  H27  1  0.62634980  0.70752079  0.18300868  1.0
  H  H28  1  0.67634856  0.81337632  0.82146287  1.0
  H  H29  1  0.73672825  0.91967188  0.62255017  1.0
  H  H30  1  0.09514920  0.79994245  0.77019416  1.0
  H  H31  1  0.74821333  0.83350194  0.06236669  1.0
  H  H32  1  0.79981985  0.92089841  0.16697010  1.0
  H  H33  1  0.79494302  0.52278832  0.29628913  1.0
  H  H34  1  0.33376348  0.74283316  0.69606852  1.0
  H  H35  1  0.58673710  0.82160603  0.27308600  1.0
  H  H36  1  0.77134301  0.32037139  0.30054652  1.0
  H  H37  1  0.76662168  0.31524300  0.13817082  1.0
  H  H38  1  0.12042314  0.33344068  0.75826512  1.0
  H  H39  1  0.20065259  0.21094808  0.69389829  1.0
  C  C40  1  0.63926362  0.13328565  0.34951481  1.0
  C  C41  1  0.29931353  0.81277662  0.68476689  1.0
  C  C42  1  0.16553625  0.30904515  0.27440905  1.0
  C  C43  1  0.35614884  0.86690386  0.62912279  1.0
  C  C44  1  0.19634556  0.35065459  0.18667113  1.0
  C  C45  1  0.22229689  0.25650903  0.32998533  1.0
  C  C46  1  0.30578451  0.19639675  0.30582891  1.0
  C  C47  1  0.75519684  0.30019219  0.26412928  1.0
  C  C48  1  0.78723241  0.32675212  0.17744869  1.0
  C  C49  1  0.69637671  0.24880643  0.31460839  1.0
  C  C50  1  0.70117692  0.18480585  0.29176859  1.0
  C  C51  1  0.70787649  0.69061410  0.36318547  1.0
  C  C52  1  0.18220268  0.28385553  0.77018455  1.0
  C  C53  1  0.19930527  0.28171355  0.83531723  1.0
  C  C54  1  0.23613414  0.22711545  0.71548013  1.0
  C  C55  1  0.64835689  0.86559698  0.62069016  1.0
  C  C56  1  0.32642496  0.19688363  0.68490145  1.0
  C  C57  1  0.78155029  0.67506409  0.76953711  1.0
  C  C58  1  0.79620824  0.69870018  0.82108710  1.0
  C  C59  1  0.72147039  0.73186922  0.71943151  1.0
  C  C60  1  0.71315751  0.81547393  0.66949509  1.0
  C  C61  1  0.14188666  0.38601298  0.13153342  1.0
  C  C62  1  0.70067736  0.78561470  0.30994824  1.0
  C  C63  1  0.86308893  0.63865428  0.86556537  1.0
  C  C64  1  0.12523676  0.64786477  0.88573110  1.0
  C  C65  1  0.85188024  0.37432812  0.12869058  1.0
  C  C66  1  0.13989624  0.35434681  0.87640786  1.0
  C  C67  1  0.36092394  0.13341318  0.36437179  1.0
  C  C68  1  0.85449238  0.62848665  0.14930696  1.0
  C  C69  1  0.37671666  0.13892610  0.62914321  1.0
  C  C70  1  0.64313917  0.84770121  0.36539359  1.0
  C  C71  1  0.65813726  0.81360447  0.24223942  1.0
  C  C72  1  0.70219494  0.74155260  0.19668953  1.0
  C  C73  1  0.79488237  0.68406441  0.21061666  1.0
  C  C74  1  0.79859819  0.78873368  0.26218009  1.0
  C  C75  1  0.25539923  0.67890805  0.87159998  1.0
  C  C76  1  0.27939216  0.37123743  0.14612320  1.0
  C  C77  1  0.18028019  0.26361009  0.41808397  1.0
  C  C78  1  0.62887148  0.26872758  0.39777413  1.0
  C  C79  1  0.77470229  0.15537868  0.21612344  1.0
  C  C80  1  0.26769625  0.20679200  0.87234637  1.0
  C  C81  1  0.73867703  0.78423393  0.83759393  1.0
  C  C82  1  0.70791820  0.78960377  0.10192897  1.0
  C  C83  1  0.80426004  0.87866943  0.23248912  1.0
  C  C84  1  0.84036152  0.75034971  0.18728875  1.0
  C  C85  1  0.77986973  0.62906834  0.30838636  1.0
  C  C86  1  0.15848298  0.78059518  0.77912373  1.0
  C  C87  1  0.18155793  0.70542787  0.84061134  1.0
  C  C88  1  0.20864434  0.84088672  0.72287355  1.0
  O  O89  1  0.50355670  0.99585599  0.49301769  1.0
  O  O90  1  0.87957089  0.39040088  0.04722894  1.0
  O  O91  1  0.17942848  0.38369909  0.89245503  1.0
  O  O92  1  0.60599360  0.11618137  0.31489521  1.0
  O  O93  1  0.89308041  0.54750656  0.18030253  1.0
  O  O94  1  0.05661744  0.38014165  0.88916951  1.0
  O  O95  1  0.86378778  0.66908171  0.06996782  1.0
  O  O96  1  0.04276106  0.68209278  0.92565300  1.0
  O  O97  1  0.87519492  0.39343727  0.17124447  1.0
  O  O98  1  0.17649998  0.42318265  0.05142557  1.0
  O  O99  1  0.87401212  0.55729624  0.89291700  1.0
  O  O100  1  0.60746769  0.82674916  0.61906167  1.0
  O  O101  1  0.44062979  0.82443794  0.60659477  1.0
  O  O102  1  0.64131126  0.94631026  0.58482933  1.0
  O  O103  1  0.32467157  0.12302028  0.44458334  1.0
  O  O104  1  0.46211441  0.11440118  0.60553521  1.0
  O  O105  1  0.61662953  0.92852417  0.32434044  1.0
  O  O106  1  0.33244348  0.11788968  0.60939855  1.0
  O  O107  1  0.62497094  0.81525653  0.44632594  1.0
  O  O108  1  0.85962359  0.59878194  0.32705873  1.0
  O  O109  1  0.93514278  0.71367421  0.16777850  1.0
  O  O110  1  0.27952682  0.60871067  0.92323386  1.0
  O  O111  1  0.44168047  0.09427175  0.32433830  1.0
  O  O112  1  0.15878271  0.92702301  0.70791405  1.0
  O  O113  1  0.07988939  0.31541343  0.31618567  1.0
  O  O114  1  0.32926078  0.35568044  0.18273202  1.0
  O  O115  1  0.09824361  0.28255498  0.45612241  1.0
  O  O116  1  0.34497002  0.18530601  0.22806296  1.0
  O  O117  1  0.64597064  0.28909107  0.44075034  1.0
  O  O118  1  0.76866222  0.12556895  0.17289768  1.0
  O  O119  1  0.28937361  0.20305999  0.92745173  1.0
  O  O120  1  0.82581121  0.59307868  0.76124465  1.0
  O  O121  1  0.64802931  0.69046236  0.23021511  1.0
  O  O122  1  0.62746854  0.10974611  0.42967613  1.0
  O  O123  1  0.75168870  0.82115298  0.86915169  1.0
  O  O124  1  0.75942479  0.86076546  0.65978896  1.0
  O  O125  1  0.66186659  0.78476512  0.07418456  1.0
  O  O126  1  0.81366320  0.90490481  0.27635611  1.0
  O  O127  1  0.75045494  0.55987077  0.33371007  1.0
  O  O128  1  0.31964675  0.95015341  0.60746265  1.0
  O  O129  1  0.99982422  0.50178028  0.00095986  1.0
  O  O130  1  0.06532792  0.37668047  0.16477405  1.0
  O  O131  1  0.90308449  0.67347896  0.87518620  1.0
  O  O132  1  0.16545762  0.57130515  0.87864697  1.0
