# generated using pymatgen
data_ZnH27C30NO6
_symmetry_space_group_name_H-M   'P 1'
_cell_length_a   10.99179350
_cell_length_b   18.23147257
_cell_length_c   19.23903267
_cell_angle_alpha   88.95928640
_cell_angle_beta   89.77036698
_cell_angle_gamma   89.73362454
_symmetry_Int_Tables_number   1
_chemical_formula_structural   ZnH27C30NO6
_chemical_formula_sum   'Zn2 H54 C60 N2 O12'
_cell_volume   3854.72905592
_cell_formula_units_Z   2
loop_
 _symmetry_equiv_pos_site_id
 _symmetry_equiv_pos_as_xyz
  1  'x, y, z'
loop_
 _atom_site_type_symbol
 _atom_site_label
 _atom_site_symmetry_multiplicity
 _atom_site_fract_x
 _atom_site_fract_y
 _atom_site_fract_z
 _atom_site_occupancy
  Zn  Zn0  1  0.51218904  0.42350308  0.50058855  1.0
  Zn  Zn1  1  0.51189503  0.57597768  0.49731329  1.0
  H  H2  1  0.12166346  0.55703908  0.58834620  1.0
  H  H3  1  0.89356918  0.55863569  0.58504330  1.0
  H  H4  1  0.67081843  0.30348679  0.55531366  1.0
  H  H5  1  0.34901754  0.31122998  0.44480093  1.0
  H  H6  1  0.67289822  0.16622044  0.55769676  1.0
  H  H7  1  0.33529417  0.17431248  0.44291947  1.0
  H  H8  1  0.42093943  0.06956750  0.39864512  1.0
  H  H9  1  0.57875887  0.06497010  0.60355912  1.0
  H  H10  1  0.41965275  0.93421454  0.39892894  1.0
  H  H11  1  0.57906399  0.92965256  0.60328528  1.0
  H  H12  1  0.68059225  0.83008201  0.54800538  1.0
  H  H13  1  0.32491411  0.82900634  0.45281454  1.0
  H  H14  1  0.67902242  0.69269664  0.54333156  1.0
  H  H15  1  0.33737423  0.69164854  0.45450087  1.0
  H  H16  1  0.24403336  0.43560059  0.38057736  1.0
  H  H17  1  0.79056037  0.44363010  0.36976364  1.0
  H  H18  1  0.13692716  0.38915446  0.27826440  1.0
  H  H19  1  0.90906992  0.39468572  0.27260913  1.0
  H  H20  1  0.56642668  0.54550855  0.86813160  1.0
  H  H21  1  0.24650885  0.57793134  0.17373867  1.0
  H  H22  1  0.23186617  0.43760743  0.81775943  1.0
  H  H23  1  0.50799287  0.40483789  0.14174475  1.0
  H  H24  1  0.37290249  0.60772461  0.06343381  1.0
  H  H25  1  0.38573075  0.60822104  0.93430037  1.0
  H  H26  1  0.74583505  0.66297360  0.71158564  1.0
  H  H27  1  0.59013316  0.65600761  0.68650431  1.0
  H  H28  1  0.62858291  0.66868667  0.77530616  1.0
  H  H29  1  0.72902321  0.54404201  0.77836332  1.0
  H  H30  1  0.69403491  0.53249445  0.68981024  1.0
  H  H31  1  0.44221908  0.68242280  0.31120777  1.0
  H  H32  1  0.34194819  0.69830084  0.23998238  1.0
  H  H33  1  0.29629503  0.72304003  0.32512042  1.0
  H  H34  1  0.19507187  0.60594582  0.29395163  1.0
  H  H35  1  0.29851541  0.58994725  0.36246357  1.0
  H  H36  1  0.15681626  0.37081124  0.73724976  1.0
  H  H37  1  0.29201090  0.32719414  0.70650888  1.0
  H  H38  1  0.21549197  0.34665423  0.58274488  1.0
  H  H39  1  0.11613232  0.29033989  0.63471353  1.0
  H  H40  1  0.07827152  0.38384488  0.61612441  1.0
  H  H41  1  0.53957568  0.30251397  0.23320168  1.0
  H  H42  1  0.47422323  0.32978585  0.31429490  1.0
  H  H43  1  0.67822049  0.32015939  0.37111175  1.0
  H  H44  1  0.63722856  0.23480671  0.33390097  1.0
  H  H45  1  0.74542162  0.29272378  0.29131011  1.0
  H  H46  1  0.15769393  0.35562297  0.90492756  1.0
  H  H47  1  0.20484177  0.30138595  0.97843752  1.0
  H  H48  1  0.32687302  0.22027777  0.89973216  1.0
  H  H49  1  0.17058355  0.22182972  0.87508712  1.0
  H  H50  1  0.27954790  0.27402110  0.82639765  1.0
  H  H51  1  0.12969895  0.35632331  0.08548259  1.0
  H  H52  1  0.21332462  0.39862244  0.15311458  1.0
  H  H53  1  0.30638817  0.27743988  0.18675492  1.0
  H  H54  1  0.14454829  0.27298458  0.19042880  1.0
  H  H55  1  0.22448486  0.23393715  0.11923529  1.0
  C  C56  1  0.48535476  0.50156049  0.36353200  1.0
  C  C57  1  0.49440963  0.49572265  0.63393219  1.0
  C  C58  1  0.39520475  0.49188533  0.85104295  1.0
  C  C59  1  0.37250542  0.49115814  0.14900274  1.0
  C  C60  1  0.31848268  0.46124530  0.80153458  1.0
  C  C61  1  0.46291830  0.44390470  0.17552527  1.0
  C  C62  1  0.35161470  0.46304414  0.73140346  1.0
  C  C63  1  0.49916019  0.44888150  0.24443728  1.0
  C  C64  1  0.46248143  0.49464303  0.71002271  1.0
  C  C65  1  0.44675700  0.50107719  0.28873133  1.0
  C  C66  1  0.34071094  0.42569492  0.96334814  1.0
  C  C67  1  0.33124297  0.42569538  0.03654520  1.0
  C  C68  1  0.34794050  0.49109518  0.07332220  1.0
  C  C69  1  0.36521451  0.49144000  0.92619005  1.0
  C  C70  1  0.36131940  0.55692255  0.03517415  1.0
  C  C71  1  0.37050216  0.55700748  0.96312929  1.0
  C  C72  1  0.59855014  0.27206729  0.53130120  1.0
  C  C73  1  0.41872543  0.27632665  0.46866333  1.0
  C  C74  1  0.59831298  0.19593142  0.53267683  1.0
  C  C75  1  0.41241908  0.20032261  0.46771191  1.0
  C  C76  1  0.50358718  0.15807291  0.50039875  1.0
  C  C77  1  0.27445225  0.49882880  0.49696978  1.0
  C  C78  1  0.74749782  0.50088089  0.49305929  1.0
  C  C79  1  0.45385108  0.03910596  0.44417050  1.0
  C  C80  1  0.54587086  0.03653195  0.55798732  1.0
  C  C81  1  0.45321685  0.96283540  0.44425055  1.0
  C  C82  1  0.54590878  0.96031993  0.55793608  1.0
  C  C83  1  0.50008721  0.92223460  0.50093528  1.0
  C  C84  1  0.50070797  0.07726017  0.50088634  1.0
  C  C85  1  0.60211793  0.80174280  0.52711076  1.0
  C  C86  1  0.40561047  0.80125106  0.47311997  1.0
  C  C87  1  0.60232065  0.72568768  0.52479512  1.0
  C  C88  1  0.41150702  0.72516468  0.47367010  1.0
  C  C89  1  0.50237059  0.84142742  0.50043315  1.0
  C  C90  1  0.14486021  0.43724627  0.37879912  1.0
  C  C91  1  0.88942512  0.44178647  0.37297682  1.0
  C  C92  1  0.08475649  0.41109207  0.32163146  1.0
  C  C93  1  0.95626331  0.41394908  0.31854282  1.0
  C  C94  1  0.94823175  0.46912746  0.43287175  1.0
  C  C95  1  0.07890565  0.46774897  0.43519878  1.0
  C  C96  1  0.13870226  0.49963621  0.49282447  1.0
  C  C97  1  0.88335321  0.50123300  0.48935655  1.0
  C  C98  1  0.07326736  0.53264740  0.54520364  1.0
  C  C99  1  0.94542678  0.53329521  0.54334140  1.0
  C  C100  1  0.54045030  0.52515797  0.75917735  1.0
  C  C101  1  0.35474503  0.54824485  0.26298319  1.0
  C  C102  1  0.50520357  0.52360000  0.82916819  1.0
  C  C103  1  0.31886290  0.54203892  0.19351652  1.0
  C  C104  1  0.66152647  0.55788003  0.73796060  1.0
  C  C105  1  0.65621445  0.64150394  0.72717650  1.0
  C  C106  1  0.29248268  0.60507183  0.30713253  1.0
  C  C107  1  0.34646494  0.68181758  0.29517015  1.0
  C  C108  1  0.22026603  0.36746143  0.69282809  1.0
  C  C109  1  0.15357839  0.34579064  0.62760381  1.0
  C  C110  1  0.55834096  0.32974006  0.28287634  1.0
  C  C111  1  0.66104186  0.29220539  0.32208287  1.0
  C  C112  1  0.23091704  0.31976476  0.92562680  1.0
  C  C113  1  0.25330557  0.25510084  0.87883846  1.0
  C  C114  1  0.21379092  0.35272270  0.11669761  1.0
  C  C115  1  0.22309799  0.27987445  0.15541303  1.0
  N  N116  1  0.51026652  0.31149400  0.49986196  1.0
  N  N117  1  0.50846993  0.68813039  0.49862674  1.0
  O  O118  1  0.47604267  0.44033665  0.39615654  1.0
  O  O119  1  0.52575886  0.43549300  0.60650658  1.0
  O  O120  1  0.52050788  0.56149319  0.38940021  1.0
  O  O121  1  0.48717285  0.55785147  0.60300976  1.0
  O  O122  1  0.32567494  0.43766129  0.50975586  1.0
  O  O123  1  0.69430165  0.43973491  0.48475031  1.0
  O  O124  1  0.32704768  0.56028105  0.48715528  1.0
  O  O125  1  0.69543425  0.56173867  0.50607338  1.0
  O  O126  1  0.27738250  0.43739728  0.67978940  1.0
  O  O127  1  0.59320976  0.40489823  0.26910314  1.0
  O  O128  1  0.34243768  0.36079613  0.92781907  1.0
  O  O129  1  0.31718341  0.35864995  0.07021435  1.0
