# generated using pymatgen
data_AlH7C16N2O13
_symmetry_space_group_name_H-M   'P 1'
_cell_length_a   6.62112349
_cell_length_b   23.56920137
_cell_length_c   26.26927626
_cell_angle_alpha   101.62078542
_cell_angle_beta   89.99958968
_cell_angle_gamma   89.99866296
_symmetry_Int_Tables_number   1
_chemical_formula_structural   AlH7C16N2O13
_chemical_formula_sum   'Al4 H28 C64 N8 O52'
_cell_volume   4015.41184439
_cell_formula_units_Z   4
loop_
 _symmetry_equiv_pos_site_id
 _symmetry_equiv_pos_as_xyz
  1  'x, y, z'
loop_
 _atom_site_type_symbol
 _atom_site_label
 _atom_site_symmetry_multiplicity
 _atom_site_fract_x
 _atom_site_fract_y
 _atom_site_fract_z
 _atom_site_occupancy
  Al  Al0  1  0.24496045  0.74945268  0.74906244  1.0
  Al  Al1  1  0.74860690  0.25195109  0.25215209  1.0
  Al  Al2  1  0.74496012  0.75054590  0.75094285  1.0
  Al  Al3  1  0.24861041  0.24804829  0.24784940  1.0
  H  H4  1  0.73236285  0.49114368  0.43351798  1.0
  H  H5  1  0.27183123  0.50700851  0.56786487  1.0
  H  H6  1  0.23227842  0.00885667  0.06647775  1.0
  H  H7  1  0.77171770  0.99301376  0.93211951  1.0
  H  H8  1  0.72071535  0.57074404  0.51193026  1.0
  H  H9  1  0.28398016  0.42752721  0.48938957  1.0
  H  H10  1  0.22066663  0.92925370  0.98806656  1.0
  H  H11  1  0.78384904  0.07248993  0.01059910  1.0
  H  H12  1  0.63325713  0.29212123  0.07473648  1.0
  H  H13  1  0.36783159  0.70895312  0.92877152  1.0
  H  H14  1  0.13324103  0.20785943  0.42524780  1.0
  H  H15  1  0.86785845  0.79105639  0.57124277  1.0
  H  H16  1  0.39401655  0.45856325  0.12542348  1.0
  H  H17  1  0.74865015  0.51116368  0.91668420  1.0
  H  H18  1  0.89405020  0.04141964  0.37456310  1.0
  H  H19  1  0.24864379  0.98884142  0.58332189  1.0
  H  H20  1  0.69700508  0.56220604  0.08552360  1.0
  H  H21  1  0.29690083  0.43471857  0.91184239  1.0
  H  H22  1  0.19705130  0.93778061  0.41448198  1.0
  H  H23  1  0.79691016  0.06528823  0.58815374  1.0
  H  H24  1  0.64590447  0.59969390  0.00784349  1.0
  H  H25  1  0.35269234  0.39987982  0.99159610  1.0
  H  H26  1  0.14592455  0.90031146  0.49216662  1.0
  H  H27  1  0.85271904  0.10011172  0.50839396  1.0
  H  H28  1  0.49713102  0.67357359  0.73682130  1.0
  H  H29  1  0.48848151  0.32492678  0.27253072  1.0
  H  H30  1  0.99711333  0.82642850  0.76312578  1.0
  H  H31  1  0.98849880  0.17507139  0.22747235  1.0
  C  C32  1  0.49298948  0.82851849  0.82506009  1.0
  C  C33  1  0.50430385  0.17349536  0.17325109  1.0
  C  C34  1  0.99301608  0.67147986  0.67494171  1.0
  C  C35  1  0.00431663  0.32650694  0.32674691  1.0
  C  C36  1  0.49559003  0.80832300  0.68401505  1.0
  C  C37  1  0.49928706  0.18770830  0.31269824  1.0
  C  C38  1  0.99558837  0.69168026  0.81599376  1.0
  C  C39  1  0.99926813  0.31228674  0.18730050  1.0
  C  C40  1  0.84264060  0.33883885  0.10812589  1.0
  C  C41  1  0.15283868  0.66482110  0.89593258  1.0
  C  C42  1  0.34265809  0.16114704  0.39186709  1.0
  C  C43  1  0.65285182  0.83518740  0.60407849  1.0
  C  C44  1  0.83027300  0.37687747  0.07197084  1.0
  C  C45  1  0.16963164  0.62453397  0.92990555  1.0
  C  C46  1  0.33028215  0.12310637  0.42801828  1.0
  C  C47  1  0.66965135  0.87547440  0.57010546  1.0
  C  C48  1  0.97732330  0.41957200  0.06971161  1.0
  C  C49  1  0.02520941  0.57994795  0.92938803  1.0
  C  C50  1  0.47735112  0.08041343  0.43028133  1.0
  C  C51  1  0.52522683  0.92006290  0.57062422  1.0
  C  C52  1  0.13869903  0.42528717  0.10523805  1.0
  C  C53  1  0.86802328  0.57478989  0.89330718  1.0
  C  C54  1  0.63873836  0.07469982  0.39475595  1.0
  C  C55  1  0.36804282  0.92522574  0.60670986  1.0
  C  C56  1  0.13463257  0.39301941  0.14533366  1.0
  C  C57  1  0.86170304  0.61176792  0.85737269  1.0
  C  C58  1  0.63467781  0.10697491  0.35466661  1.0
  C  C59  1  0.36171718  0.88824520  0.64264047  1.0
  C  C60  1  0.99191487  0.34979082  0.14715679  1.0
  C  C61  1  0.00096659  0.65560244  0.85708302  1.0
  C  C62  1  0.49194041  0.15019748  0.35283806  1.0
  C  C63  1  0.50097637  0.84441070  0.64292932  1.0
  C  C64  1  0.87166402  0.51076617  0.04226512  1.0
  C  C65  1  0.12540295  0.48676772  0.95547642  1.0
  C  C66  1  0.37171374  0.98922697  0.45773646  1.0
  C  C67  1  0.62540582  0.01323648  0.54452993  1.0
  C  C68  1  0.88727042  0.55032816  0.00902221  1.0
  C  C69  1  0.10999589  0.44755272  0.98897780  1.0
  C  C70  1  0.38729238  0.94967158  0.49098673  1.0
  C  C71  1  0.61002656  0.05244360  0.51101924  1.0
  C  C72  1  0.01748385  0.53916240  0.96574289  1.0
  C  C73  1  0.98089255  0.45876913  0.03206912  1.0
  C  C74  1  0.51749278  0.96084324  0.53426664  1.0
  C  C75  1  0.48093323  0.04122290  0.46792501  1.0
  C  C76  1  0.84310989  0.53918874  0.50675413  1.0
  C  C77  1  0.16144969  0.45904412  0.49455501  1.0
  C  C78  1  0.34305532  0.96081272  0.99324000  1.0
  C  C79  1  0.66133197  0.04097466  0.00543172  1.0
  C  C80  1  0.99561198  0.54398363  0.54495323  1.0
  C  C81  1  0.00888870  0.45424276  0.45638460  1.0
  C  C82  1  0.49553924  0.95602584  0.95503737  1.0
  C  C83  1  0.50876801  0.04576802  0.04360372  1.0
  C  C84  1  0.15472630  0.50324300  0.53822237  1.0
  C  C85  1  0.84961580  0.49494328  0.46312611  1.0
  C  C86  1  0.65463126  0.99677093  0.96176699  1.0
  C  C87  1  0.34952193  0.00506073  0.03686461  1.0
  C  C88  1  0.99038376  0.58884391  0.58967301  1.0
  C  C89  1  0.01357472  0.40931499  0.41171919  1.0
  C  C90  1  0.49032059  0.91116347  0.91032148  1.0
  C  C91  1  0.51344596  0.09069235  0.08826910  1.0
  C  C92  1  0.01323404  0.37098692  0.37293346  1.0
  C  C93  1  0.98955999  0.62699010  0.62858003  1.0
  C  C94  1  0.51320214  0.12901965  0.12706298  1.0
  C  C95  1  0.48950718  0.87301057  0.87141481  1.0
  N  N96  1  0.66105627  0.37010168  0.03694369  1.0
  N  N97  1  0.34101427  0.62942480  0.96339814  1.0
  N  N98  1  0.16106690  0.12988499  0.46304752  1.0
  N  N99  1  0.84103533  0.87058219  0.53661350  1.0
  N  N100  1  0.27943299  0.40943828  0.18790752  1.0
  N  N101  1  0.69865317  0.60079672  0.81802573  1.0
  N  N102  1  0.77948836  0.09055493  0.31209190  1.0
  N  N103  1  0.19866076  0.89921595  0.68199026  1.0
  O  O104  1  0.66422930  0.79740894  0.70228487  1.0
  O  O105  1  0.33190751  0.19673742  0.29268580  1.0
  O  O106  1  0.16422170  0.70259769  0.79772576  1.0
  O  O107  1  0.83187671  0.30324836  0.20730643  1.0
  O  O108  1  0.32315528  0.81083588  0.80537002  1.0
  O  O109  1  0.67142092  0.19237535  0.19406209  1.0
  O  O110  1  0.82317681  0.68916028  0.69463036  1.0
  O  O111  1  0.17142683  0.30761752  0.30593844  1.0
  O  O112  1  0.32219390  0.79392785  0.69762439  1.0
  O  O113  1  0.67129345  0.20669987  0.30321058  1.0
  O  O114  1  0.82219592  0.70607596  0.80238186  1.0
  O  O115  1  0.17127942  0.29330795  0.19679625  1.0
  O  O116  1  0.16666290  0.68873325  0.69231012  1.0
  O  O117  1  0.82852964  0.31014567  0.31034290  1.0
  O  O118  1  0.66666667  0.81126334  0.80769347  1.0
  O  O119  1  0.32852158  0.18986333  0.18965645  1.0
  O  O120  1  0.49558857  0.71540140  0.74775123  1.0
  O  O121  1  0.49620420  0.28511991  0.25361922  1.0
  O  O122  1  0.99558077  0.78459634  0.75224784  1.0
  O  O123  1  0.99621306  0.21487881  0.24638266  1.0
  O  O124  1  0.71961357  0.29373123  0.10645224  1.0
  O  O125  1  0.27222882  0.71061730  0.89915877  1.0
  O  O126  1  0.21961661  0.20624992  0.39353682  1.0
  O  O127  1  0.77224443  0.78938959  0.60085231  1.0
  O  O128  1  0.56065244  0.32337116  0.02955740  1.0
  O  O129  1  0.61263558  0.41043117  0.01520350  1.0
  O  O130  1  0.38838078  0.58854204  0.98486982  1.0
  O  O131  1  0.44800314  0.67508607  0.97021617  1.0
  O  O132  1  0.06063321  0.17661138  0.47042944  1.0
  O  O133  1  0.11267471  0.08955915  0.48479525  1.0
  O  O134  1  0.88839443  0.91146504  0.51514167  1.0
  O  O135  1  0.94802071  0.82491837  0.52979474  1.0
  O  O136  1  0.28435702  0.46388565  0.10091253  1.0
  O  O137  1  0.72076152  0.53420116  0.89023693  1.0
  O  O138  1  0.78439951  0.03610048  0.39907985  1.0
  O  O139  1  0.22076091  0.96580881  0.60977316  1.0
  O  O140  1  0.45187602  0.42529497  0.17598262  1.0
  O  O141  1  0.22555331  0.40921982  0.23263410  1.0
  O  O142  1  0.74881686  0.58010436  0.77282767  1.0
  O  O143  1  0.52533899  0.61198360  0.83407077  1.0
  O  O144  1  0.95192033  0.07468418  0.32401192  1.0
  O  O145  1  0.72563859  0.09078787  0.26736595  1.0
  O  O146  1  0.24882899  0.91991144  0.72718663  1.0
  O  O147  1  0.02535099  0.88802019  0.66594804  1.0
  O  O148  1  0.75002041  0.52313899  0.08498480  1.0
  O  O149  1  0.24758273  0.47425393  0.91292562  1.0
  O  O150  1  0.25008444  0.97684524  0.41501517  1.0
  O  O151  1  0.74758034  0.02575611  0.58708000  1.0
  O  O152  1  0.78356358  0.60192294  0.02324410  1.0
  O  O153  1  0.21655268  0.39623834  0.97559238  1.0
  O  O154  1  0.28359182  0.89807813  0.47676983  1.0
  O  O155  1  0.71658618  0.10375646  0.52440277  1.0
