# generated using pymatgen
data_AlH7C12SNO5
_symmetry_space_group_name_H-M   'P 1'
_cell_length_a   6.65885608
_cell_length_b   12.74103445
_cell_length_c   17.61933462
_cell_angle_alpha   83.43815068
_cell_angle_beta   79.20129264
_cell_angle_gamma   75.29909760
_symmetry_Int_Tables_number   1
_chemical_formula_structural   AlH7C12SNO5
_chemical_formula_sum   'Al2 H14 C24 S2 N2 O10'
_cell_volume   1416.78975018
_cell_formula_units_Z   2
loop_
 _symmetry_equiv_pos_site_id
 _symmetry_equiv_pos_as_xyz
  1  'x, y, z'
loop_
 _atom_site_type_symbol
 _atom_site_label
 _atom_site_symmetry_multiplicity
 _atom_site_fract_x
 _atom_site_fract_y
 _atom_site_fract_z
 _atom_site_occupancy
  Al  Al0  1  0.51811960  0.47583244  0.50083328  1.0
  Al  Al1  1  0.01876659  0.47588090  0.49975900  1.0
  H  H2  1  0.23548882  0.60103049  0.44641400  1.0
  H  H3  1  0.75555011  0.41294525  0.59347917  1.0
  H  H4  1  0.40813636  0.58074969  0.72363022  1.0
  H  H5  1  0.31340579  0.61292763  0.86465504  1.0
  H  H6  1  0.84494123  0.46914780  0.73589861  1.0
  H  H7  1  0.19330088  0.45482274  0.26284960  1.0
  H  H8  1  0.52146064  0.54179717  0.27422616  1.0
  H  H9  1  0.56805644  0.58609776  0.13064072  1.0
  H  H10  1  0.73888732  0.12730692  0.52334738  1.0
  H  H11  1  0.29648232  0.82860294  0.47591941  1.0
  H  H12  1  0.69615529  0.49088111  0.94512350  1.0
  H  H13  1  0.63157207  0.45131180  0.86428834  1.0
  H  H14  1  0.29663557  0.48371636  0.05075923  1.0
  H  H15  1  0.40875780  0.43912683  0.13255103  1.0
  C  C16  1  0.67861372  0.67387301  0.49838348  1.0
  C  C17  1  0.82733161  0.47629175  0.36171219  1.0
  C  C18  1  0.35699718  0.28142348  0.50051113  1.0
  C  C19  1  0.19389571  0.49573171  0.63937919  1.0
  C  C20  1  0.13340378  0.52056000  0.72249280  1.0
  C  C21  1  0.26567348  0.56264910  0.75807244  1.0
  C  C22  1  0.21203638  0.58067278  0.83626946  1.0
  C  C23  1  0.02902055  0.55555106  0.88108705  1.0
  C  C24  1  0.89069495  0.51682118  0.84424908  1.0
  C  C25  1  0.94629169  0.50033436  0.76497854  1.0
  C  C26  1  0.98469105  0.56098566  0.96233862  1.0
  C  C27  1  0.93766349  0.55509209  0.03316308  1.0
  C  C28  1  0.90729957  0.53898281  0.11473642  1.0
  C  C29  1  0.08808430  0.50091250  0.15197197  1.0
  C  C30  1  0.05803513  0.48163912  0.23278561  1.0
  C  C31  1  0.85585399  0.49510863  0.27576991  1.0
  C  C32  1  0.67753940  0.53103103  0.23921061  1.0
  C  C33  1  0.70439786  0.55485576  0.15970096  1.0
  C  C34  1  0.61135269  0.09550405  0.51196162  1.0
  C  C35  1  0.42442607  0.85988524  0.48742844  1.0
  C  C36  1  0.41955821  0.16238848  0.49957092  1.0
  C  C37  1  0.61596149  0.79275783  0.49975367  1.0
  C  C38  1  0.42237814  0.97000102  0.49179746  1.0
  C  C39  1  0.61332625  0.98535207  0.50759592  1.0
  S  S40  1  0.24143121  0.09238772  0.48237446  1.0
  S  S41  1  0.79414403  0.86280529  0.51691984  1.0
  N  N42  1  0.70646387  0.49744365  0.88664913  1.0
  N  N43  1  0.28678014  0.48687892  0.10865723  1.0
  O  O44  1  0.53908964  0.62670555  0.48807158  1.0
  O  O45  1  0.97730809  0.48355052  0.39481479  1.0
  O  O46  1  0.16927737  0.32752260  0.49023608  1.0
  O  O47  1  0.38029900  0.49934076  0.60666336  1.0
  O  O48  1  0.49421507  0.32870331  0.51242501  1.0
  O  O49  1  0.05696704  0.47117659  0.60705388  1.0
  O  O50  1  0.86837385  0.62811350  0.50685721  1.0
  O  O51  1  0.65271247  0.45753973  0.39614270  1.0
  O  O52  1  0.26159107  0.52536109  0.46582027  1.0
  O  O53  1  0.77213825  0.43113090  0.53809453  1.0
