# generated using pymatgen
data_ZnH17C28N3O2
_symmetry_space_group_name_H-M   'P 1'
_cell_length_a   23.71868569
_cell_length_b   23.71866009
_cell_length_c   30.68622612
_cell_angle_alpha   110.56586263
_cell_angle_beta   110.56627599
_cell_angle_gamma   95.16769074
_symmetry_Int_Tables_number   1
_chemical_formula_structural   ZnH17C28N3O2
_chemical_formula_sum   'Zn8 H136 C224 N24 O16'
_cell_volume   14677.39115941
_cell_formula_units_Z   8
loop_
 _symmetry_equiv_pos_site_id
 _symmetry_equiv_pos_as_xyz
  1  'x, y, z'
loop_
 _atom_site_type_symbol
 _atom_site_label
 _atom_site_symmetry_multiplicity
 _atom_site_fract_x
 _atom_site_fract_y
 _atom_site_fract_z
 _atom_site_occupancy
  Zn  Zn0  1  0.38174027  0.63165263  0.26333887  1.0
  Zn  Zn1  1  0.86834533  0.11825773  0.23665668  1.0
  Zn  Zn2  1  0.61826021  0.36834852  0.73665975  1.0
  Zn  Zn3  1  0.13165414  0.88174295  0.76334414  1.0
  Zn  Zn4  1  0.34840354  0.09846522  0.19683311  1.0
  Zn  Zn5  1  0.40153806  0.15160071  0.30317298  1.0
  Zn  Zn6  1  0.65159807  0.90153686  0.80316834  1.0
  Zn  Zn7  1  0.59846276  0.84839812  0.69682738  1.0
  H  H8  1  0.18302510  0.72034201  0.25684483  1.0
  H  H9  1  0.25977954  0.80613548  0.25131891  1.0
  H  H10  1  0.48541509  0.82992626  0.25093750  1.0
  H  H11  1  0.57036330  0.76129725  0.25641653  1.0
  H  H12  1  0.41294013  0.88071299  0.33333333  1.0
  H  H13  1  0.41159711  0.98639184  0.33333333  1.0
  H  H14  1  0.33029312  0.90517657  0.16980231  1.0
  H  H15  1  0.33114123  0.79915492  0.16933265  1.0
  H  H16  1  0.11616926  0.57192212  0.18184959  1.0
  H  H17  1  0.01528471  0.56674234  0.19011370  1.0
  H  H18  1  0.01368140  0.60239946  0.27624173  1.0
  H  H19  1  0.11330498  0.64220303  0.35382011  1.0
  H  H20  1  0.21388048  0.64663248  0.34508794  1.0
  H  H21  1  0.52372789  0.88482350  0.61562086  1.0
  H  H22  1  0.47473701  0.84147455  0.52085756  1.0
  H  H23  1  0.51864511  0.64760253  0.44521524  1.0
  H  H24  1  0.46883483  0.60376193  0.35072773  1.0
  H  H25  1  0.57416723  0.53662667  0.25722900  1.0
  H  H26  1  0.49171249  0.44520508  0.25139084  1.0
  H  H27  1  0.26568471  0.42097941  0.25092464  1.0
  H  H28  1  0.18627570  0.49516715  0.25653502  1.0
  H  H29  1  0.42034805  0.45258524  0.33333333  1.0
  H  H30  1  0.42148692  0.34681622  0.33319963  1.0
  H  H31  1  0.33944379  0.26468630  0.16970902  1.0
  H  H32  1  0.33834560  0.37026892  0.16920701  1.0
  H  H33  1  0.56590285  0.60995846  0.18191896  1.0
  H  H34  1  0.67500826  0.62329687  0.19011389  1.0
  H  H35  1  0.76272182  0.67378832  0.27622900  1.0
  H  H36  1  0.74064051  0.71164710  0.35384659  1.0
  H  H37  1  0.63132827  0.69854230  0.34512020  1.0
  H  H38  1  0.59199387  0.73080657  0.61564190  1.0
  H  H39  1  0.54621614  0.67943464  0.52087189  1.0
  H  H40  1  0.42669416  0.79765222  0.44519843  1.0
  H  H41  1  0.38182821  0.74689990  0.35069537  1.0
  H  H42  1  0.77965775  0.31697615  0.24315470  1.0
  H  H43  1  0.69386375  0.24021866  0.24867850  1.0
  H  H44  1  0.67007448  0.01458456  0.24906192  1.0
  H  H45  1  0.73870284  0.92963521  0.24357957  1.0
  H  H46  1  0.61925038  0.08702098  0.16663093  1.0
  H  H47  1  0.51363188  0.08842894  0.16669101  1.0
  H  H48  1  0.59482265  0.16970589  0.33019198  1.0
  H  H49  1  0.70084362  0.16885434  0.33066278  1.0
  H  H50  1  0.92807937  0.38383231  0.31815267  1.0
  H  H51  1  0.93325956  0.48471607  0.30988950  1.0
  H  H52  1  0.89760347  0.48632430  0.22376200  1.0
  H  H53  1  0.85780107  0.38670106  0.14618256  1.0
  H  H54  1  0.85337048  0.28612704  0.15491378  1.0
  H  H55  1  0.61517611  0.97626680  0.88437806  1.0
  H  H56  1  0.65852226  0.02525803  0.97914068  1.0
  H  H57  1  0.85239757  0.98135696  0.05478558  1.0
  H  H58  1  0.89623550  0.03116646  0.14927377  1.0
  H  H59  1  0.96337377  0.92583127  0.24276945  1.0
  H  H60  1  0.05479494  0.00828839  0.24860817  1.0
  H  H61  1  0.07901993  0.23431568  0.24907186  1.0
  H  H62  1  0.00483047  0.31372416  0.24345962  1.0
  H  H63  1  0.04748004  0.07971923  0.16673164  1.0
  H  H64  1  0.15318295  0.07851629  0.16679985  1.0
  H  H65  1  0.23531423  0.16055262  0.33028802  1.0
  H  H66  1  0.12973360  0.16164863  0.33079424  1.0
  H  H67  1  0.89004115  0.93409610  0.31807949  1.0
  H  H68  1  0.87670198  0.82499118  0.30988573  1.0
  H  H69  1  0.82621142  0.73727747  0.22377157  1.0
  H  H70  1  0.78835321  0.75935791  0.14615439  1.0
  H  H71  1  0.80145663  0.86866701  0.15487734  1.0
  H  H72  1  0.76919533  0.90800605  0.88436096  1.0
  H  H73  1  0.82056765  0.95378312  0.97912979  1.0
  H  H74  1  0.70234411  0.07330151  0.05479880  1.0
  H  H75  1  0.75309374  0.11816850  0.14930161  1.0
  H  H76  1  0.81697617  0.27965681  0.74315402  1.0
  H  H77  1  0.74021960  0.19386381  0.74867819  1.0
  H  H78  1  0.51458527  0.17007627  0.74906080  1.0
  H  H79  1  0.42963751  0.23870528  0.74358124  1.0
  H  H80  1  0.58702426  0.11925330  0.66663278  1.0
  H  H81  1  0.58840784  0.01360957  0.66666667  1.0
  H  H82  1  0.66970949  0.09482596  0.83019530  1.0
  H  H83  1  0.66885553  0.20084575  0.83066418  1.0
  H  H84  1  0.88383168  0.42807903  0.81815241  1.0
  H  H85  1  0.98471557  0.43325790  0.80988853  1.0
  H  H86  1  0.98632237  0.39760217  0.72376149  1.0
  H  H87  1  0.88669866  0.35779813  0.64618197  1.0
  H  H88  1  0.78612473  0.35336961  0.65491416  1.0
  H  H89  1  0.47627158  0.11517719  0.38437899  1.0
  H  H90  1  0.52525942  0.15852473  0.47914239  1.0
  H  H91  1  0.48135459  0.35239722  0.55478377  1.0
  H  H92  1  0.53116757  0.39623968  0.64927218  1.0
  H  H93  1  0.42583371  0.46337634  0.74277187  1.0
  H  H94  1  0.50829048  0.55479700  0.74861033  1.0
  H  H95  1  0.73431701  0.57902127  0.74907418  1.0
  H  H96  1  0.81372511  0.50483167  0.74346110  1.0
  H  H97  1  0.57971433  0.54747714  0.66673112  1.0
  H  H98  1  0.57850727  0.65318121  0.66679889  1.0
  H  H99  1  0.66055253  0.73531438  0.83028835  1.0
  H  H100  1  0.66165342  0.62973361  0.83079354  1.0
  H  H101  1  0.43409515  0.39004175  0.81808004  1.0
  H  H102  1  0.32499030  0.37670195  0.80988423  1.0
  H  H103  1  0.23727821  0.32621096  0.72377029  1.0
  H  H104  1  0.25935919  0.28835266  0.64615340  1.0
  H  H105  1  0.36867065  0.30145792  0.65487970  1.0
  H  H106  1  0.40800526  0.26919457  0.38435700  1.0
  H  H107  1  0.45378389  0.32056650  0.47912758  1.0
  H  H108  1  0.57330206  0.20234614  0.55480024  1.0
  H  H109  1  0.61817115  0.25309846  0.64930284  1.0
  H  H110  1  0.22034420  0.68302548  0.75684705  1.0
  H  H111  1  0.30613854  0.75978250  0.75132419  1.0
  H  H112  1  0.32992251  0.98541333  0.75093325  1.0
  H  H113  1  0.26129416  0.07036268  0.75641625  1.0
  H  H114  1  0.38074819  0.91297784  0.83336850  1.0
  H  H115  1  0.48636659  0.91156572  0.83330955  1.0
  H  H116  1  0.40517909  0.83028738  0.66980876  1.0
  H  H117  1  0.29915822  0.83114495  0.66933668  1.0
  H  H118  1  0.07192394  0.61616932  0.68185140  1.0
  H  H119  1  0.06673959  0.51528509  0.69011365  1.0
  H  H120  1  0.10239342  0.51367686  0.77624054  1.0
  H  H121  1  0.14219684  0.61330057  0.85382038  1.0
  H  H122  1  0.14662991  0.71387552  0.84508975  1.0
  H  H123  1  0.38482213  0.02372878  0.11562073  1.0
  H  H124  1  0.34147598  0.97473941  0.02085796  1.0
  H  H125  1  0.14760057  0.01864189  0.94521667  1.0
  H  H126  1  0.10376061  0.96883515  0.85072835  1.0
  H  H127  1  0.03662570  0.07416941  0.75723007  1.0
  H  H128  1  0.94520420  0.99171090  0.75138991  1.0
  H  H129  1  0.92098034  0.76568454  0.75092873  1.0
  H  H130  1  0.99516968  0.68627560  0.75653951  1.0
  H  H131  1  0.95252068  0.92028285  0.83326957  1.0
  H  H132  1  0.84681843  0.92148857  0.83320164  1.0
  H  H133  1  0.76468773  0.83944900  0.66971373  1.0
  H  H134  1  0.87026847  0.83834975  0.66920829  1.0
  H  H135  1  0.10996181  0.06590598  0.68192167  1.0
  H  H136  1  0.12330042  0.17501044  0.69011614  1.0
  H  H137  1  0.17379009  0.26272229  0.77622988  1.0
  H  H138  1  0.21164717  0.24064093  0.85384716  1.0
  H  H139  1  0.19854297  0.13133044  0.84512167  1.0
  H  H140  1  0.23080416  0.09198723  0.11564178  1.0
  H  H141  1  0.17943027  0.04621294  0.02087230  1.0
  H  H142  1  0.29765402  0.92669733  0.94520149  1.0
  H  H143  1  0.24690035  0.88182848  0.85069807  1.0
  C  C144  1  0.25787401  0.66807802  0.25622374  1.0
  C  C145  1  0.22809532  0.71869659  0.25569391  1.0
  C  C146  1  0.26708951  0.76226303  0.25298644  1.0
  C  C147  1  0.32128017  0.73878139  0.25238720  1.0
  C  C148  1  0.37365054  0.77075559  0.25159915  1.0
  C  C149  1  0.42767187  0.75004550  0.25244616  1.0
  C  C150  1  0.48139831  0.78491967  0.25277214  1.0
  C  C151  1  0.52441055  0.75010606  0.25546614  1.0
  C  C152  1  0.49697262  0.69355531  0.25631413  1.0
  C  C153  1  0.23244603  0.61354053  0.25829614  1.0
  C  C154  1  0.37235869  0.83338598  0.25132300  1.0
  C  C155  1  0.39482931  0.88626846  0.29751946  1.0
  C  C156  1  0.39425339  0.94494593  0.29766839  1.0
  C  C157  1  0.37121652  0.95180553  0.25157446  1.0
  C  C158  1  0.34827700  0.89908950  0.20534102  1.0
  C  C159  1  0.34885355  0.84036913  0.20524293  1.0
  C  C160  1  0.37207416  0.01509459  0.25185443  1.0
  C  C161  1  0.17163056  0.60961493  0.26291622  1.0
  C  C162  1  0.11531288  0.58717245  0.21949472  1.0
  C  C163  1  0.05876791  0.58446639  0.22423845  1.0
  C  C164  1  0.05781368  0.60434413  0.27250080  1.0
  C  C165  1  0.11367343  0.62667768  0.31599613  1.0
  C  C166  1  0.17016261  0.62919017  0.31119358  1.0
  C  C167  1  0.52694986  0.83932107  0.59248223  1.0
  C  C168  1  0.49988999  0.81437076  0.53950896  1.0
  C  C169  1  0.48854672  0.67185159  0.42660116  1.0
  C  C170  1  0.46097504  0.64679642  0.37357129  1.0
  C  C171  1  0.49867129  0.58826009  0.25650468  1.0
  C  C172  1  0.52793134  0.53712816  0.25603011  1.0
  C  C173  1  0.48613197  0.49078856  0.25314446  1.0
  C  C174  1  0.43130032  0.51362688  0.25241978  1.0
  C  C175  1  0.37808687  0.48082695  0.25151977  1.0
  C  C176  1  0.32487822  0.50233764  0.25234127  1.0
  C  C177  1  0.27152094  0.46781536  0.25275052  1.0
  C  C178  1  0.23123781  0.50536261  0.25551515  1.0
  C  C179  1  0.25948123  0.56271497  0.25628071  1.0
  C  C180  1  0.52608874  0.64481079  0.25843190  1.0
  C  C181  1  0.37905842  0.41792415  0.25121591  1.0
  C  C182  1  0.40262673  0.41119049  0.29741946  1.0
  C  C183  1  0.40325192  0.35265941  0.29757329  1.0
  C  C184  1  0.38019279  0.29976444  0.25146980  1.0
  C  C185  1  0.35701990  0.30629655  0.20523155  1.0
  C  C186  1  0.35650025  0.36492709  0.20512197  1.0
  C  C187  1  0.37961653  0.23676891  0.25175822  1.0
  C  C188  1  0.59148919  0.65335319  0.26297046  1.0
  C  C189  1  0.60440134  0.63234636  0.21954506  1.0
  C  C190  1  0.66567480  0.63976979  0.22426438  1.0
  C  C191  1  0.71485407  0.66817231  0.27252656  1.0
  C  C192  1  0.70246669  0.68938795  0.31603229  1.0
  C  C193  1  0.64117700  0.68209442  0.31122730  1.0
  C  C194  1  0.56557793  0.75315093  0.59249684  1.0
  C  C195  1  0.53965704  0.72514719  0.53952034  1.0
  C  C196  1  0.43815279  0.75478062  0.42657949  1.0
  C  C197  1  0.41257674  0.72673713  0.37354602  1.0
  C  C198  1  0.83191916  0.24212407  0.24377151  1.0
  C  C199  1  0.78130147  0.27190390  0.24430376  1.0
  C  C200  1  0.73773527  0.23290930  0.24701005  1.0
  C  C201  1  0.76121468  0.17871781  0.24760705  1.0
  C  C202  1  0.72923928  0.12634538  0.24839297  1.0
  C  C203  1  0.74995109  0.07232372  0.24754589  1.0
  C  C204  1  0.71507841  0.01859730  0.24722200  1.0
  C  C205  1  0.74989268  0.97558585  0.24452763  1.0
  C  C206  1  0.80644225  0.00302406  0.24367915  1.0
  C  C207  1  0.88645740  0.26755301  0.24170110  1.0
  C  C208  1  0.66660923  0.12763700  0.24866995  1.0
  C  C209  1  0.61372548  0.10516795  0.20247414  1.0
  C  C210  1  0.55505062  0.10574359  0.20232861  1.0
  C  C211  1  0.54819254  0.12878316  0.24842164  1.0
  C  C212  1  0.60091057  0.15172186  0.29465483  1.0
  C  C213  1  0.65963000  0.15114326  0.29475065  1.0
  C  C214  1  0.48490350  0.12792853  0.24814069  1.0
  C  C215  1  0.89038694  0.32837225  0.23708588  1.0
  C  C216  1  0.91283150  0.38468792  0.28050828  1.0
  C  C217  1  0.91553677  0.44123411  0.27576452  1.0
  C  C218  1  0.89565896  0.44218915  0.22750166  1.0
  C  C219  1  0.87332711  0.38633125  0.18400640  1.0
  C  C220  1  0.87081390  0.32984198  0.18880921  1.0
  C  C221  1  0.66067860  0.97304419  0.90751699  1.0
  C  C222  1  0.68562878  0.00010567  0.96049033  1.0
  C  C223  1  0.82814639  0.01145205  0.07339870  1.0
  C  C224  1  0.85320096  0.03902468  0.12642768  1.0
  C  C225  1  0.91173776  0.00132657  0.24349157  1.0
  C  C226  1  0.96287013  0.97206641  0.24396678  1.0
  C  C227  1  0.00921020  0.01386633  0.24685402  1.0
  C  C228  1  0.98637063  0.06869833  0.24757824  1.0
  C  C229  1  0.01917267  0.12191225  0.24847824  1.0
  C  C230  1  0.99766124  0.17512033  0.24765618  1.0
  C  C231  1  0.03218561  0.22847866  0.24724773  1.0
  C  C232  1  0.99463623  0.26876183  0.24448084  1.0
  C  C233  1  0.93728221  0.24051663  0.24371477  1.0
  C  C234  1  0.85518918  0.97391020  0.24156742  1.0
  C  C235  1  0.08207624  0.12093982  0.24878258  1.0
  C  C236  1  0.08881095  0.09737450  0.20257922  1.0
  C  C237  1  0.14734133  0.09674839  0.20242544  1.0
  C  C238  1  0.20023442  0.11980671  0.24852894  1.0
  C  C239  1  0.19370308  0.14297550  0.29476816  1.0
  C  C240  1  0.13507302  0.14350030  0.29487747  1.0
  C  C241  1  0.26322979  0.12038375  0.24824006  1.0
  C  C242  1  0.84664604  0.90851033  0.23702832  1.0
  C  C243  1  0.86765346  0.89559764  0.28045350  1.0
  C  C244  1  0.86022950  0.83432436  0.27573521  1.0
  C  C245  1  0.83182591  0.78514465  0.22747334  1.0
  C  C246  1  0.81061280  0.79753305  0.18396847  1.0
  C  C247  1  0.81790456  0.85882236  0.18877240  1.0
  C  C248  1  0.74685031  0.93442193  0.90750472  1.0
  C  C249  1  0.77485318  0.96034110  0.96048168  1.0
  C  C250  1  0.74521692  0.06184674  0.07341944  1.0
  C  C251  1  0.77326059  0.08742511  0.12645163  1.0
  C  C252  1  0.74212433  0.33191987  0.74377212  1.0
  C  C253  1  0.77190403  0.28130175  0.74430299  1.0
  C  C254  1  0.73290940  0.23773533  0.74700970  1.0
  C  C255  1  0.67871850  0.26121602  0.74760796  1.0
  C  C256  1  0.62634746  0.22924275  0.74839543  1.0
  C  C257  1  0.57232747  0.24995469  0.74754863  1.0
  C  C258  1  0.51860136  0.21508192  0.74722442  1.0
  C  C259  1  0.47558948  0.24989508  0.74453007  1.0
  C  C260  1  0.50302741  0.30644583  0.74368306  1.0
  C  C261  1  0.76755422  0.38645782  0.74170198  1.0
  C  C262  1  0.62763863  0.16661330  0.74867263  1.0
  C  C263  1  0.60516870  0.11372804  0.70247756  1.0
  C  C264  1  0.60574689  0.05505245  0.70233236  1.0
  C  C265  1  0.62878735  0.04819469  0.74842580  1.0
  C  C266  1  0.65172314  0.10091211  0.79465698  1.0
  C  C267  1  0.65114388  0.15963246  0.79475205  1.0
  C  C268  1  0.62792836  0.98490750  0.74814695  1.0
  C  C269  1  0.82837240  0.39038716  0.73708495  1.0
  C  C270  1  0.88468693  0.41282962  0.78050722  1.0
  C  C271  1  0.94123292  0.41553616  0.77576357  1.0
  C  C272  1  0.94218771  0.39565703  0.72750067  1.0
  C  C273  1  0.88633009  0.37332673  0.68400614  1.0
  C  C274  1  0.82984047  0.37081238  0.68880807  1.0
  C  C275  1  0.47304815  0.16067915  0.40751710  1.0
  C  C276  1  0.50010836  0.18562900  0.46049001  1.0
  C  C277  1  0.51145119  0.32814817  0.57339802  1.0
  C  C278  1  0.53902431  0.35320379  0.62642677  1.0
  C  C279  1  0.50132831  0.41174107  0.74349598  1.0
  C  C280  1  0.47206993  0.46287438  0.74397170  1.0
  C  C281  1  0.51386908  0.50921305  0.74685639  1.0
  C  C282  1  0.56870029  0.48637288  0.74758143  1.0
  C  C283  1  0.62191498  0.51917421  0.74848215  1.0
  C  C284  1  0.67512328  0.49766398  0.74765905  1.0
  C  C285  1  0.72848067  0.53218672  0.74725028  1.0
  C  C286  1  0.76876323  0.49463713  0.74448291  1.0
  C  C287  1  0.74051914  0.43728385  0.74371757  1.0
  C  C288  1  0.47391073  0.35518990  0.74156795  1.0
  C  C289  1  0.62094095  0.58207608  0.74878477  1.0
  C  C290  1  0.59737061  0.58880881  0.70258074  1.0
  C  C291  1  0.59674126  0.64733941  0.70242566  1.0
  C  C292  1  0.61980365  0.70023485  0.74852853  1.0
  C  C293  1  0.64297304  0.69370319  0.79476693  1.0
  C  C294  1  0.64349890  0.63507407  0.79487792  1.0
  C  C295  1  0.62038451  0.76323083  0.74823919  1.0
  C  C296  1  0.40851028  0.34664563  0.73702888  1.0
  C  C297  1  0.39559893  0.36765386  0.78045423  1.0
  C  C298  1  0.33432513  0.36022904  0.77573476  1.0
  C  C299  1  0.28514586  0.33182652  0.72747389  1.0
  C  C300  1  0.29753313  0.31061227  0.68396818  1.0
  C  C301  1  0.35882282  0.31790395  0.68877267  1.0
  C  C302  1  0.43442222  0.24685068  0.40750279  1.0
  C  C303  1  0.46034086  0.27485257  0.46047916  1.0
  C  C304  1  0.56184545  0.24521867  0.57341965  1.0
  C  C305  1  0.58742127  0.27326123  0.62645248  1.0
  C  C306  1  0.16808304  0.75787849  0.75623219  1.0
  C  C307  1  0.21870105  0.72809819  0.75570022  1.0
  C  C308  1  0.26226545  0.76709093  0.75299131  1.0
  C  C309  1  0.23878706  0.82128288  0.75239537  1.0
  C  C310  1  0.27075987  0.87365392  0.75160707  1.0
  C  C311  1  0.25004737  0.92767464  0.75245306  1.0
  C  C312  1  0.28491949  0.98140060  0.75277537  1.0
  C  C313  1  0.25010509  0.02441156  0.75546892  1.0
  C  C314  1  0.19355553  0.99697336  0.75631838  1.0
  C  C315  1  0.11354388  0.73244768  0.75830087  1.0
  C  C316  1  0.33339036  0.87236229  0.75133053  1.0
  C  C317  1  0.38627579  0.89483087  0.79752569  1.0
  C  C318  1  0.44495043  0.89425245  0.79767041  1.0
  C  C319  1  0.45180895  0.87121288  0.75157717  1.0
  C  C320  1  0.39909015  0.84827280  0.70534503  1.0
  C  C321  1  0.34037061  0.84885465  0.70525006  1.0
  C  C322  1  0.51509812  0.87207169  0.75186059  1.0
  C  C323  1  0.10961604  0.67162984  0.76291855  1.0
  C  C324  1  0.08717159  0.61531464  0.71949598  1.0
  C  C325  1  0.08446474  0.55876753  0.72423907  1.0
  C  C326  1  0.10434130  0.55781294  0.77250171  1.0
  C  C327  1  0.12667395  0.61367038  0.81599739  1.0
  C  C328  1  0.12919009  0.67016058  0.81119530  1.0
  C  C329  1  0.33932223  0.02695278  0.09248287  1.0
  C  C330  1  0.31437092  0.99989037  0.03950963  1.0
  C  C331  1  0.17185252  0.98854817  0.92660315  1.0
  C  C332  1  0.14679526  0.96097554  0.87357312  1.0
  C  C333  1  0.08826126  0.99867410  0.75650750  1.0
  C  C334  1  0.03712866  0.02793334  0.75603133  1.0
  C  C335  1  0.99078803  0.98613295  0.75314446  1.0
  C  C336  1  0.01362815  0.93130141  0.75241986  1.0
  C  C337  1  0.98082861  0.87808844  0.75152242  1.0
  C  C338  1  0.00233970  0.82487897  0.75234467  1.0
  C  C339  1  0.96781634  0.77152111  0.75275352  1.0
  C  C340  1  0.00536561  0.73123932  0.75552108  1.0
  C  C341  1  0.06271897  0.75948361  0.75628705  1.0
  C  C342  1  0.14481042  0.02608909  0.75843209  1.0
  C  C343  1  0.91792550  0.87906088  0.75121919  1.0
  C  C344  1  0.91119056  0.90262898  0.79742226  1.0
  C  C345  1  0.85265950  0.90325416  0.79757560  1.0
  C  C346  1  0.79976641  0.88019583  0.75147308  1.0
  C  C347  1  0.80629866  0.85702705  0.70523443  1.0
  C  C348  1  0.86492882  0.85650271  0.70512527  1.0
  C  C349  1  0.73677239  0.87961880  0.75176200  1.0
  C  C350  1  0.15335547  0.09148944  0.76297216  1.0
  C  C351  1  0.13234861  0.10440259  0.71954725  1.0
  C  C352  1  0.13977358  0.16567633  0.72426594  1.0
  C  C353  1  0.16817481  0.21485558  0.77252738  1.0
  C  C354  1  0.18938780  0.20246671  0.81603208  1.0
  C  C355  1  0.18209740  0.14117741  0.81122787  1.0
  C  C356  1  0.25314963  0.06557505  0.09249686  1.0
  C  C357  1  0.22514619  0.03965728  0.03952013  1.0
  C  C358  1  0.25478120  0.93815394  0.92658200  1.0
  C  C359  1  0.22673719  0.91257789  0.87354871  1.0
  C  C360  1  0.50568303  0.75567403  0.51135460  1.0
  C  C361  1  0.47743312  0.72740488  0.45476456  1.0
  C  C362  1  0.74432509  0.99431472  0.98864597  1.0
  C  C363  1  0.77259389  0.02256665  0.04523625  1.0
  C  C364  1  0.49431475  0.24432525  0.48864441  1.0
  C  C365  1  0.52256613  0.27259488  0.54523465  1.0
  C  C366  1  0.25567440  0.00568412  0.01135567  1.0
  C  C367  1  0.22740390  0.97743265  0.95476538  1.0
  N  N368  1  0.31431816  0.68157657  0.25421871  1.0
  N  N369  1  0.43826025  0.69476637  0.25425279  1.0
  N  N370  1  0.44015280  0.57270420  0.25435520  1.0
  N  N371  1  0.31608730  0.55941530  0.25414147  1.0
  N  N372  1  0.81841924  0.18567896  0.24577440  1.0
  N  N373  1  0.80522918  0.06173412  0.24573851  1.0
  N  N374  1  0.92729352  0.05984569  0.24564270  1.0
  N  N375  1  0.94058286  0.18391091  0.24585388  1.0
  N  N376  1  0.68567882  0.31841945  0.74577465  1.0
  N  N377  1  0.56173797  0.30523290  0.74574145  1.0
  N  N378  1  0.55984758  0.42729649  0.74564750  1.0
  N  N379  1  0.68391306  0.44058537  0.74585633  1.0
  N  N380  1  0.18158385  0.81432360  0.75422954  1.0
  N  N381  1  0.19476917  0.93826378  0.75426126  1.0
  N  N382  1  0.07270549  0.94015499  0.75435572  1.0
  N  N383  1  0.05941842  0.81608978  0.75414776  1.0
  N  N384  1  0.55927702  0.80925278  0.61853869  1.0
  N  N385  1  0.42360883  0.67360784  0.34728963  1.0
  N  N386  1  0.69074845  0.94072022  0.88146003  1.0
  N  N387  1  0.82638888  0.07639148  0.15270882  1.0
  N  N388  1  0.44072268  0.19074883  0.38146017  1.0
  N  N389  1  0.57639176  0.32639191  0.65270864  1.0
  N  N390  1  0.30925160  0.05927537  0.11854023  1.0
  N  N391  1  0.17360756  0.92360967  0.84729164  1.0
  O  O392  1  0.35013914  0.01824016  0.20872824  1.0
  O  O393  1  0.39514510  0.06109291  0.29535169  1.0
  O  O394  1  0.35840086  0.19052759  0.20863219  1.0
  O  O395  1  0.40009909  0.23424380  0.29526113  1.0
  O  O396  1  0.48176177  0.14986358  0.29127014  1.0
  O  O397  1  0.43890550  0.10485843  0.20464726  1.0
  O  O398  1  0.30947399  0.14159637  0.29136872  1.0
  O  O399  1  0.26575906  0.09990099  0.20474154  1.0
  O  O400  1  0.64986506  0.98176331  0.79127331  1.0
  O  O401  1  0.60485619  0.93890779  0.70465126  1.0
  O  O402  1  0.64159928  0.80947216  0.79136433  1.0
  O  O403  1  0.59990341  0.76575455  0.70473500  1.0
  O  O404  1  0.51824267  0.85013527  0.70873284  1.0
  O  O405  1  0.56109566  0.89514366  0.79535440  1.0
  O  O406  1  0.69052876  0.85840666  0.70863460  1.0
  O  O407  1  0.73424257  0.90009739  0.79526087  1.0
