# generated using pymatgen
data_YPH24(C13O2)3
_symmetry_space_group_name_H-M   'P 1'
_cell_length_a   6.93686399
_cell_length_b   17.82479136
_cell_length_c   17.82521667
_cell_angle_alpha   100.60150316
_cell_angle_beta   99.85832367
_cell_angle_gamma   99.85963541
_symmetry_Int_Tables_number   1
_chemical_formula_structural   YPH24(C13O2)3
_chemical_formula_sum   'Y2 P2 H48 C78 O12'
_cell_volume   2087.14794267
_cell_formula_units_Z   2
loop_
 _symmetry_equiv_pos_site_id
 _symmetry_equiv_pos_as_xyz
  1  'x, y, z'
loop_
 _atom_site_type_symbol
 _atom_site_label
 _atom_site_symmetry_multiplicity
 _atom_site_fract_x
 _atom_site_fract_y
 _atom_site_fract_z
 _atom_site_occupancy
  Y  Y0  1  0.78793438  0.50493932  0.47604857  1.0
  Y  Y1  1  0.28793496  0.47604539  0.50494421  1.0
  P  P2  1  0.28137436  0.07848979  0.92962970  1.0
  P  P3  1  0.78137116  0.92962815  0.07848309  1.0
  H  H4  1  0.64157595  0.08510215  0.85293018  1.0
  H  H5  1  0.14157306  0.85292504  0.08509882  1.0
  H  H6  1  0.11503055  0.91876731  0.85746781  1.0
  H  H7  1  0.61503981  0.85746829  0.91877070  1.0
  H  H8  1  0.42718794  0.25344186  0.96724015  1.0
  H  H9  1  0.92716603  0.96723349  0.25342598  1.0
  H  H10  1  0.64532545  0.05078268  0.01645932  1.0
  H  H11  1  0.14533182  0.01646404  0.05077957  1.0
  H  H12  1  0.00448991  0.17730401  0.95553356  1.0
  H  H13  1  0.50448412  0.95553479  0.17729312  1.0
  H  H14  1  0.30231132  0.10834502  0.76839379  1.0
  H  H15  1  0.80230249  0.76838867  0.10833897  1.0
  H  H16  1  0.73103330  0.98729920  0.75583536  1.0
  H  H17  1  0.23104116  0.75583544  0.98729424  1.0
  H  H18  1  0.20626776  0.82017855  0.76073044  1.0
  H  H19  1  0.70627903  0.76073210  0.82018097  1.0
  H  H20  1  0.72316396  0.33867674  0.05911605  1.0
  H  H21  1  0.22314757  0.05910421  0.33866337  1.0
  H  H22  1  0.94084963  0.13598754  0.10645538  1.0
  H  H23  1  0.44085737  0.10645675  0.13598726  1.0
  H  H24  1  0.83681979  0.25828627  0.87947720  1.0
  H  H25  1  0.33681804  0.87947845  0.25827796  1.0
  H  H26  1  0.12578673  0.18600899  0.69034536  1.0
  H  H27  1  0.62578993  0.69034246  0.18600875  1.0
  H  H28  1  0.85051143  0.37556037  0.19383205  1.0
  H  H29  1  0.35049434  0.19382013  0.37555518  1.0
  H  H30  1  0.23990825  0.22366457  0.12212748  1.0
  H  H31  1  0.73990895  0.12212988  0.22366083  1.0
  H  H32  1  0.12634376  0.45359704  0.30053475  1.0
  H  H33  1  0.62632542  0.30052320  0.45359809  1.0
  H  H34  1  0.51684996  0.30346660  0.22942070  1.0
  H  H35  1  0.01684487  0.22942431  0.30347027  1.0
  H  H36  1  0.22416420  0.78204231  0.63384667  1.0
  H  H37  1  0.72415752  0.63384769  0.78204295  1.0
  H  H38  1  0.84889162  0.87628927  0.73778934  1.0
  H  H39  1  0.34888631  0.73779084  0.87628661  1.0
  H  H40  1  0.31444664  0.67344641  0.54996266  1.0
  H  H41  1  0.81443502  0.54996033  0.67344882  1.0
  H  H42  1  0.93691844  0.76627354  0.65210149  1.0
  H  H43  1  0.43691424  0.65209931  0.76627199  1.0
  H  H44  1  0.59304330  0.25348960  0.78248861  1.0
  H  H45  1  0.09304041  0.78248918  0.25349052  1.0
  H  H46  1  0.08611577  0.30225108  0.66725254  1.0
  H  H47  1  0.58611606  0.66725281  0.30224596  1.0
  H  H48  1  0.40333751  0.32706563  0.70225600  1.0
  H  H49  1  0.90334535  0.70225821  0.32707187  1.0
  H  H50  1  0.89453015  0.37403600  0.58772339  1.0
  H  H51  1  0.39453627  0.58772322  0.37403603  1.0
  C  C52  1  0.36872132  0.00963554  0.86070018  1.0
  C  C53  1  0.86872114  0.86069655  0.00963352  1.0
  C  C54  1  0.51302120  0.14569601  0.98463814  1.0
  C  C55  1  0.01301202  0.98463835  0.14568551  1.0
  C  C56  1  0.16720039  0.13731262  0.86787651  1.0
  C  C57  1  0.66718436  0.86787343  0.13730388  1.0
  C  C58  1  0.54411196  0.02733771  0.83235250  1.0
  C  C59  1  0.04411293  0.83234849  0.02733486  1.0
  C  C60  1  0.24812349  0.93432825  0.83388361  1.0
  C  C61  1  0.74812989  0.83388097  0.93432970  1.0
  C  C62  1  0.53912487  0.22726292  0.99774792  1.0
  C  C63  1  0.03910883  0.99774282  0.22725015  1.0
  C  C64  1  0.66182716  0.11397778  0.02424117  1.0
  C  C65  1  0.16182447  0.02424202  0.11397001  1.0
  C  C66  1  0.03386494  0.17986531  0.89774723  1.0
  C  C67  1  0.53386055  0.89774464  0.17985547  1.0
  C  C68  1  0.20039403  0.14118295  0.79306009  1.0
  C  C69  1  0.70038539  0.79305409  0.14117565  1.0
  C  C70  1  0.59579364  0.97167940  0.77798178  1.0
  C  C71  1  0.09579932  0.77797888  0.97167569  1.0
  C  C72  1  0.29898715  0.87889657  0.77900686  1.0
  C  C73  1  0.79899016  0.77900471  0.87889707  1.0
  C  C74  1  0.70627838  0.27547687  0.05008210  1.0
  C  C75  1  0.20626386  0.05007353  0.27546640  1.0
  C  C76  1  0.82963283  0.16221647  0.07552553  1.0
  C  C77  1  0.32962598  0.07552554  0.16221075  1.0
  C  C78  1  0.93675562  0.22484271  0.85417077  1.0
  C  C79  1  0.43674618  0.85417108  0.22483201  1.0
  C  C80  1  0.10120097  0.18551612  0.74910609  1.0
  C  C81  1  0.60118854  0.74910310  0.18551056  1.0
  C  C82  1  0.47365119  0.89653539  0.74987946  1.0
  C  C83  1  0.97365598  0.74987640  0.89653429  1.0
  C  C84  1  0.85398582  0.24400412  0.09051931  1.0
  C  C85  1  0.35397764  0.09051351  0.24399553  1.0
  C  C86  1  0.96621574  0.22768843  0.77852314  1.0
  C  C87  1  0.46620993  0.77851931  0.22767944  1.0
  C  C88  1  0.02479438  0.29397098  0.14978540  1.0
  C  C89  1  0.52478786  0.14978151  0.29396601  1.0
  C  C90  1  0.99721623  0.36033485  0.19988381  1.0
  C  C91  1  0.49721214  0.19987746  0.36033448  1.0
  C  C92  1  0.21452641  0.27441275  0.16074669  1.0
  C  C93  1  0.71452556  0.16074730  0.27441193  1.0
  C  C94  1  0.15152141  0.40400851  0.26048067  1.0
  C  C95  1  0.65150709  0.26047405  0.40400710  1.0
  C  C96  1  0.37066449  0.31907831  0.22039576  1.0
  C  C97  1  0.87065507  0.22039453  0.31907820  1.0
  C  C98  1  0.33892890  0.38343403  0.27160204  1.0
  C  C99  1  0.83892214  0.27160063  0.38343690  1.0
  C  C100  1  0.49838047  0.42625992  0.33952215  1.0
  C  C101  1  0.99836850  0.33951647  0.42626619  1.0
  C  C102  1  0.52906867  0.83627355  0.69382092  1.0
  C  C103  1  0.02906349  0.69382039  0.83627375  1.0
  C  C104  1  0.38109454  0.77888092  0.63907508  1.0
  C  C105  1  0.88108806  0.63907268  0.77888022  1.0
  C  C106  1  0.73108264  0.83257813  0.69604227  1.0
  C  C107  1  0.23107832  0.69603833  0.83257514  1.0
  C  C108  1  0.43150286  0.71771723  0.59124477  1.0
  C  C109  1  0.93148918  0.59124372  0.71771757  1.0
  C  C110  1  0.78160235  0.77133699  0.64834955  1.0
  C  C111  1  0.28159038  0.64834694  0.77133566  1.0
  C  C112  1  0.63251318  0.71242516  0.59684968  1.0
  C  C113  1  0.13250690  0.59684657  0.71242527  1.0
  C  C114  1  0.68937668  0.64342906  0.55341302  1.0
  C  C115  1  0.18936863  0.55340912  0.64343045  1.0
  C  C116  1  0.85452661  0.27209411  0.73107542  1.0
  C  C117  1  0.35451735  0.73107396  0.27209000  1.0
  C  C118  1  0.66123981  0.28051818  0.74058922  1.0
  C  C119  1  0.16124420  0.74058660  0.28051897  1.0
  C  C120  1  0.93596779  0.30651122  0.67535364  1.0
  C  C121  1  0.43596466  0.67535202  0.30650818  1.0
  C  C122  1  0.55306425  0.32079470  0.69528507  1.0
  C  C123  1  0.05306485  0.69528576  0.32079535  1.0
  C  C124  1  0.82874046  0.34751878  0.63028571  1.0
  C  C125  1  0.32874514  0.63028657  0.34751658  1.0
  C  C126  1  0.63533908  0.35426005  0.63946869  1.0
  C  C127  1  0.13534508  0.63946863  0.35426343  1.0
  C  C128  1  0.51347296  0.39431129  0.59053261  1.0
  C  C129  1  0.01346980  0.59053091  0.39431578  1.0
  O  O130  1  0.68040205  0.42368547  0.34271770  1.0
  O  O131  1  0.18038972  0.34271043  0.42369070  1.0
  O  O132  1  0.44910040  0.46782871  0.39864209  1.0
  O  O133  1  0.94909873  0.39863780  0.46783566  1.0
  O  O134  1  0.87000954  0.64108861  0.55223630  1.0
  O  O135  1  0.37000596  0.55223399  0.64109180  1.0
  O  O136  1  0.55052025  0.58281814  0.51709805  1.0
  O  O137  1  0.05051755  0.51709720  0.58282073  1.0
  O  O138  1  0.59539258  0.43534007  0.54603166  1.0
  O  O139  1  0.09540049  0.54602981  0.43534353  1.0
  O  O140  1  0.32958346  0.38958370  0.59065330  1.0
  O  O141  1  0.82959828  0.59065176  0.38958874  1.0
