# generated using pymatgen
data_ZnH7C12N3O4
_symmetry_space_group_name_H-M   'P 1'
_cell_length_a   7.99591513
_cell_length_b   12.64748626
_cell_length_c   17.28727027
_cell_angle_alpha   111.46053584
_cell_angle_beta   101.07259537
_cell_angle_gamma   89.97483038
_symmetry_Int_Tables_number   1
_chemical_formula_structural   ZnH7C12N3O4
_chemical_formula_sum   'Zn4 H28 C48 N12 O16'
_cell_volume   1592.06510705
_cell_formula_units_Z   4
loop_
 _symmetry_equiv_pos_site_id
 _symmetry_equiv_pos_as_xyz
  1  'x, y, z'
loop_
 _atom_site_type_symbol
 _atom_site_label
 _atom_site_symmetry_multiplicity
 _atom_site_fract_x
 _atom_site_fract_y
 _atom_site_fract_z
 _atom_site_occupancy
  Zn  Zn0  1  0.01564256  0.85134690  0.60453591  1.0
  Zn  Zn1  1  0.48475753  0.24697969  0.39548714  1.0
  Zn  Zn2  1  0.98434970  0.14865360  0.39546551  1.0
  Zn  Zn3  1  0.51524166  0.75302379  0.60451292  1.0
  H  H4  1  0.81524049  0.42313662  0.71519553  1.0
  H  H5  1  0.68499426  0.70797495  0.28500757  1.0
  H  H6  1  0.18476435  0.57686079  0.28480434  1.0
  H  H7  1  0.31501170  0.29202298  0.71499368  1.0
  H  H8  1  0.60874298  0.27792705  0.59264592  1.0
  H  H9  1  0.89170804  0.68532575  0.40753289  1.0
  H  H10  1  0.39126123  0.72207410  0.40735431  1.0
  H  H11  1  0.10829664  0.31467292  0.59246826  1.0
  H  H12  1  0.11883093  0.70808772  0.72014472  1.0
  H  H13  1  0.38130155  0.98832232  0.27994478  1.0
  H  H14  1  0.88115999  0.29190917  0.27985217  1.0
  H  H15  1  0.61868967  0.01168007  0.72005340  1.0
  H  H16  1  0.31280690  0.74480223  0.85983657  1.0
  H  H17  1  0.18718585  0.88535034  0.14030240  1.0
  H  H18  1  0.68718711  0.25519376  0.14016110  1.0
  H  H19  1  0.81280492  0.11465824  0.85969604  1.0
  H  H20  1  0.34405992  0.10235289  0.89636807  1.0
  H  H21  1  0.15601168  0.20621957  0.10350325  1.0
  H  H22  1  0.65594583  0.89764196  0.10363003  1.0
  H  H23  1  0.84400884  0.79379040  0.89649540  1.0
  H  H24  1  0.14529202  0.05033799  0.75630753  1.0
  H  H25  1  0.35482215  0.29430293  0.24359278  1.0
  H  H26  1  0.85470347  0.94966035  0.24369338  1.0
  H  H27  1  0.64519529  0.70570183  0.75640752  1.0
  H  H28  1  0.48625425  0.87348590  0.98865171  1.0
  H  H29  1  0.01369049  0.88504151  0.01166226  1.0
  H  H30  1  0.51373644  0.12650982  0.01134832  1.0
  H  H31  1  0.98630958  0.11497047  0.98833782  1.0
  C  C32  1  0.69528370  0.45401952  0.50257626  1.0
  C  C33  1  0.80517496  0.95158497  0.49755259  1.0
  C  C34  1  0.30471235  0.54598245  0.49742489  1.0
  C  C35  1  0.19482085  0.04841455  0.50244693  1.0
  C  C36  1  0.79852320  0.53841593  0.57280222  1.0
  C  C37  1  0.70181498  0.96573001  0.42731568  1.0
  C  C38  1  0.20147743  0.46158315  0.42720026  1.0
  C  C39  1  0.29818393  0.03426797  0.57268309  1.0
  C  C40  1  0.77705255  0.43406665  0.65463688  1.0
  C  C41  1  0.72324371  0.77947800  0.34553901  1.0
  C  C42  1  0.22295096  0.56593214  0.34536440  1.0
  C  C43  1  0.27675995  0.22051952  0.65446098  1.0
  C  C44  1  0.66430634  0.35273123  0.58727484  1.0
  C  C45  1  0.83608894  0.76551147  0.41289793  1.0
  C  C46  1  0.33569397  0.64726908  0.41272543  1.0
  C  C47  1  0.16391368  0.23448924  0.58710360  1.0
  C  C48  1  0.65589381  0.45753800  0.41415990  1.0
  C  C49  1  0.84487833  0.04353115  0.58595728  1.0
  C  C50  1  0.34409745  0.54246505  0.58584154  1.0
  C  C51  1  0.15511791  0.95647261  0.41404224  1.0
  C  C52  1  0.86163635  0.65041423  0.57271062  1.0
  C  C53  1  0.63826698  0.07771251  0.42731113  1.0
  C  C54  1  0.13837580  0.34958495  0.42729184  1.0
  C  C55  1  0.36172664  0.92228598  0.57268736  1.0
  C  C56  1  0.16932521  0.79443410  0.76191392  1.0
  C  C57  1  0.33078790  0.03288093  0.23815166  1.0
  C  C58  1  0.83067342  0.20556206  0.23808473  1.0
  C  C59  1  0.66921281  0.96712298  0.76184536  1.0
  C  C60  1  0.27817595  0.81586427  0.84004815  1.0
  C  C61  1  0.22188421  0.97617080  0.16004141  1.0
  C  C62  1  0.72181703  0.18413058  0.15994836  1.0
  C  C63  1  0.77811674  0.02383556  0.83995724  1.0
  C  C64  1  0.34602201  0.92743171  0.89163649  1.0
  C  C65  1  0.15405046  0.03610662  0.10840230  1.0
  C  C66  1  0.65397284  0.07256298  0.10836244  1.0
  C  C67  1  0.84595443  0.96390364  0.89159596  1.0
  C  C68  1  0.29663771  0.01369731  0.86054012  1.0
  C  C69  1  0.20343695  0.15343327  0.13938589  1.0
  C  C70  1  0.70336056  0.98629702  0.13945667  1.0
  C  C71  1  0.79657818  0.84657542  0.86061586  1.0
  C  C72  1  0.18647397  0.98604064  0.78257923  1.0
  C  C73  1  0.31363003  0.20376684  0.21736854  1.0
  C  C74  1  0.81352746  0.01395650  0.21742125  1.0
  C  C75  1  0.68637943  0.79623684  0.78262988  1.0
  C  C76  1  0.46181938  0.94884979  0.97263843  1.0
  C  C77  1  0.03819367  0.97634990  0.02745617  1.0
  C  C78  1  0.53817093  0.05114474  0.02736126  1.0
  C  C79  1  0.96180691  0.02366265  0.97254448  1.0
  N  N80  1  0.62705788  0.36368108  0.51199207  1.0
  N  N81  1  0.87334283  0.85177229  0.48814875  1.0
  N  N82  1  0.37293933  0.63632076  0.48800895  1.0
  N  N83  1  0.12665659  0.14822626  0.51185060  1.0
  N  N84  1  0.84201745  0.52745786  0.64845768  1.0
  N  N85  1  0.65823511  0.87906030  0.35170463  1.0
  N  N86  1  0.15798773  0.47254138  0.35154404  1.0
  N  N87  1  0.34176314  0.12093836  0.64829485  1.0
  N  N88  1  0.12356236  0.87810690  0.73345936  1.0
  N  N89  1  0.37652970  0.14498068  0.26652682  1.0
  N  N90  1  0.87643553  0.12188993  0.26653826  1.0
  N  N91  1  0.62347624  0.85502399  0.73347352  1.0
  O  O92  1  0.56459588  0.37055099  0.35617584  1.0
  O  O93  1  0.93593017  0.01434464  0.64391958  1.0
  O  O94  1  0.43539065  0.62945989  0.64382672  1.0
  O  O95  1  0.06406915  0.98565822  0.35608072  1.0
  O  O96  1  0.71235080  0.54264261  0.40459495  1.0
  O  O97  1  0.78896287  0.13839847  0.59554256  1.0
  O  O98  1  0.28765017  0.45736504  0.59540848  1.0
  O  O99  1  0.21103391  0.86160153  0.40445485  1.0
  O  O100  1  0.01318177  0.66688073  0.56637683  1.0
  O  O101  1  0.48675327  0.10046860  0.43378310  1.0
  O  O102  1  0.98681651  0.33311681  0.43363104  1.0
  O  O103  1  0.51324308  0.89953213  0.56622025  1.0
  O  O104  1  0.76451263  0.73279421  0.59080318  1.0
  O  O105  1  0.73492302  0.14197256  0.40897430  1.0
  O  O106  1  0.23548859  0.26720786  0.40919802  1.0
  O  O107  1  0.26506845  0.85802427  0.59102165  1.0
