# generated using pymatgen
data_ZnH19C17(NO4)2
_symmetry_space_group_name_H-M   'P 1'
_cell_length_a   9.48853119
_cell_length_b   10.85659025
_cell_length_c   16.06683147
_cell_angle_alpha   89.16652367
_cell_angle_beta   89.53432787
_cell_angle_gamma   89.30364564
_symmetry_Int_Tables_number   1
_chemical_formula_structural   ZnH19C17(NO4)2
_chemical_formula_sum   'Zn2 H38 C34 N4 O16'
_cell_volume   1654.74437798
_cell_formula_units_Z   2
loop_
 _symmetry_equiv_pos_site_id
 _symmetry_equiv_pos_as_xyz
  1  'x, y, z'
loop_
 _atom_site_type_symbol
 _atom_site_label
 _atom_site_symmetry_multiplicity
 _atom_site_fract_x
 _atom_site_fract_y
 _atom_site_fract_z
 _atom_site_occupancy
  Zn  Zn0  1  0.35181633  0.50204464  0.50170938  1.0
  Zn  Zn1  1  0.64624065  0.49569798  0.49742543  1.0
  H  H2  1  0.32728453  0.63842211  0.07068995  1.0
  H  H3  1  0.11496222  0.68435354  0.46552172  1.0
  H  H4  1  0.86814272  0.43434651  0.62549363  1.0
  H  H5  1  0.11780204  0.45084216  0.62933430  1.0
  H  H6  1  0.87663752  0.36872768  0.40421191  1.0
  H  H7  1  0.12629669  0.36014271  0.41386920  1.0
  H  H8  1  0.88147321  0.52470418  0.37219467  1.0
  H  H9  1  0.13168799  0.51158559  0.37214941  1.0
  H  H10  1  0.88139169  0.31662970  0.55040056  1.0
  H  H11  1  0.13105829  0.32475275  0.56075917  1.0
  H  H12  1  0.33465140  0.64196589  0.92743453  1.0
  H  H13  1  0.60175598  0.68494247  0.07879852  1.0
  H  H14  1  0.55342486  0.70085967  0.93708237  1.0
  H  H15  1  0.71811784  0.55792459  0.06570090  1.0
  H  H16  1  0.27520144  0.48257870  0.07279053  1.0
  H  H17  1  0.49111302  0.31019705  0.92186892  1.0
  H  H18  1  0.66297434  0.36789286  0.93320650  1.0
  H  H19  1  0.45000353  0.31293589  0.06572449  1.0
  H  H20  1  0.63213906  0.34092830  0.07677807  1.0
  H  H21  1  0.27080827  0.88910383  0.47688755  1.0
  H  H22  1  0.71519216  0.92036820  0.49544365  1.0
  H  H23  1  0.32530081  0.12299491  0.40226657  1.0
  H  H24  1  0.26904100  0.09417063  0.50656576  1.0
  H  H25  1  0.57660019  0.08872343  0.36759738  1.0
  H  H26  1  0.32873669  0.81548652  0.62156215  1.0
  H  H27  1  0.34174437  0.94531029  0.67323355  1.0
  H  H28  1  0.68608931  0.84095911  0.60309552  1.0
  H  H29  1  0.59999122  0.88061177  0.68809628  1.0
  H  H30  1  0.92863815  0.53763092  0.90263641  1.0
  H  H31  1  0.15562921  0.31650196  0.90942413  1.0
  H  H32  1  0.32050293  0.76797436  0.28321094  1.0
  H  H33  1  0.85908949  0.83034524  0.31811357  1.0
  H  H34  1  0.70881479  0.12071644  0.44207785  1.0
  H  H35  1  0.45539168  0.11078902  0.62594625  1.0
  H  H36  1  0.63215455  0.07903836  0.59596585  1.0
  H  H37  1  0.87262449  0.64442331  0.58256804  1.0
  H  H38  1  0.12139125  0.65920566  0.57441418  1.0
  H  H39  1  0.86634181  0.68681004  0.47562113  1.0
  C  C40  1  0.49511180  0.73780828  0.49094009  1.0
  C  C41  1  0.60998717  0.07184599  0.43220201  1.0
  C  C42  1  0.48888890  0.92372781  0.58122042  1.0
  C  C43  1  0.49364758  0.87869870  0.48718049  1.0
  C  C44  1  0.49393745  0.11950820  0.49174784  1.0
  C  C45  1  0.50388884  0.50506514  0.66184104  1.0
  C  C46  1  0.52169425  0.06385061  0.57929441  1.0
  C  C47  1  0.91390418  0.62207450  0.52046367  1.0
  C  C48  1  0.07625941  0.62529126  0.51655799  1.0
  C  C49  1  0.91810089  0.40874443  0.56629285  1.0
  C  C50  1  0.08078577  0.41518699  0.56992840  1.0
  C  C51  1  0.53522793  0.37551065  0.04720200  1.0
  C  C52  1  0.92158541  0.45849710  0.41871603  1.0
  C  C53  1  0.08399023  0.45396777  0.42107569  1.0
  C  C54  1  0.49734396  0.25949714  0.49760688  1.0
  C  C55  1  0.50017460  0.49712280  0.33681825  1.0
  C  C56  1  0.35473422  0.54787071  0.95058579  1.0
  C  C57  1  0.60384859  0.61197996  0.95256097  1.0
  C  C58  1  0.61438776  0.59551519  0.04836128  1.0
  C  C59  1  0.35440752  0.54633141  0.04767138  1.0
  C  C60  1  0.49897371  0.50048189  0.24676686  1.0
  C  C61  1  0.50502072  0.50968202  0.91755983  1.0
  C  C62  1  0.55256341  0.38166490  0.95169536  1.0
  C  C63  1  0.50050061  0.50549996  0.08086317  1.0
  C  C64  1  0.74717568  0.61963813  0.90918294  1.0
  C  C65  1  0.23149508  0.47600467  0.91822507  1.0
  C  C66  1  0.34317227  0.90526289  0.35322265  1.0
  C  C67  1  0.68639896  0.86940018  0.37181076  1.0
  C  C68  1  0.49876813  0.50303783  0.17114203  1.0
  C  C69  1  0.50661682  0.51033995  0.82733005  1.0
  C  C70  1  0.50692502  0.50897477  0.75177251  1.0
  C  C71  1  0.35919772  0.93453815  0.44500360  1.0
  C  C72  1  0.63122874  0.93175267  0.44928213  1.0
  C  C73  1  0.35165752  0.07425902  0.46043734  1.0
  N  N74  1  0.86433897  0.49602454  0.50119045  1.0
  N  N75  1  0.13379493  0.49901211  0.50277446  1.0
  N  N76  1  0.34692717  0.90788534  0.61533996  1.0
  N  N77  1  0.58814129  0.84671887  0.62964535  1.0
  O  O78  1  0.38108946  0.68646430  0.51320973  1.0
  O  O79  1  0.83559744  0.52505808  0.92980516  1.0
  O  O80  1  0.12629982  0.52436159  0.88738489  1.0
  O  O81  1  0.24266101  0.35233855  0.93025365  1.0
  O  O82  1  0.34710435  0.97905272  0.29519363  1.0
  O  O83  1  0.31346792  0.78405350  0.34292230  1.0
  O  O84  1  0.61897740  0.83450079  0.31264482  1.0
  O  O85  1  0.83121390  0.86366324  0.37225640  1.0
  O  O86  1  0.61069718  0.68264845  0.47486277  1.0
  O  O87  1  0.38412996  0.48612305  0.62962916  1.0
  O  O88  1  0.62067141  0.51951372  0.62374873  1.0
  O  O89  1  0.38065631  0.31711125  0.48975174  1.0
  O  O90  1  0.61583837  0.30847412  0.51189886  1.0
  O  O91  1  0.38345578  0.51848435  0.37345297  1.0
  O  O92  1  0.61820404  0.47293190  0.37089420  1.0
  O  O93  1  0.77988949  0.70388413  0.86203041  1.0
