# generated using pymatgen
data_AlH8C15NClO6
_symmetry_space_group_name_H-M   'P 1'
_cell_length_a   6.65636384
_cell_length_b   16.95505699
_cell_length_c   17.74003642
_cell_angle_alpha   90.05616545
_cell_angle_beta   100.72030776
_cell_angle_gamma   97.45248129
_symmetry_Int_Tables_number   1
_chemical_formula_structural   AlH8C15NClO6
_chemical_formula_sum   'Al2 H16 C30 N2 Cl2 O12'
_cell_volume   1949.91502848
_cell_formula_units_Z   2
loop_
 _symmetry_equiv_pos_site_id
 _symmetry_equiv_pos_as_xyz
  1  'x, y, z'
loop_
 _atom_site_type_symbol
 _atom_site_label
 _atom_site_symmetry_multiplicity
 _atom_site_fract_x
 _atom_site_fract_y
 _atom_site_fract_z
 _atom_site_occupancy
  Al  Al0  1  0.00723527  0.50059533  0.49875324  1.0
  Al  Al1  1  0.50822716  0.50090999  0.50100206  1.0
  H  H2  1  0.82367007  0.55571723  0.58746374  1.0
  H  H3  1  0.19949051  0.44583705  0.41219544  1.0
  H  H4  1  0.35349563  0.26232859  0.47634162  1.0
  H  H5  1  0.28857738  0.11389567  0.47696196  1.0
  H  H6  1  0.94473332  0.10639799  0.53440158  1.0
  H  H7  1  0.06647057  0.89425382  0.46630079  1.0
  H  H8  1  0.72322539  0.88836788  0.52393531  1.0
  H  H9  1  0.66102718  0.73988033  0.52401523  1.0
  H  H10  1  0.07371626  0.53196917  0.72720682  1.0
  H  H11  1  0.13179487  0.53576519  0.87023902  1.0
  H  H12  1  0.64303904  0.43454216  0.73535592  1.0
  H  H13  1  0.36367952  0.57097336  0.27283870  1.0
  H  H14  1  0.90478798  0.45952014  0.26386334  1.0
  H  H15  1  0.81327941  0.45348426  0.12075166  1.0
  H  H16  1  0.04591281  0.31746398  0.53002783  1.0
  H  H17  1  0.96905085  0.68308744  0.46833235  1.0
  C  C18  1  0.32798853  0.48928401  0.63754470  1.0
  C  C19  1  0.30036866  0.64568449  0.49919359  1.0
  C  C20  1  0.68224431  0.51177501  0.36228682  1.0
  C  C21  1  0.71475082  0.35567334  0.50063238  1.0
  C  C22  1  0.68383995  0.26841970  0.50307230  1.0
  C  C23  1  0.48142096  0.22742070  0.48798769  1.0
  C  C24  1  0.44441314  0.14553709  0.48875124  1.0
  C  C25  1  0.61409717  0.10214409  0.50547778  1.0
  C  C26  1  0.81609139  0.14101826  0.52126055  1.0
  C  C27  1  0.85353263  0.22426072  0.52009128  1.0
  C  C28  1  0.19592156  0.86004594  0.47944907  1.0
  C  C29  1  0.39740224  0.89934093  0.49548725  1.0
  C  C30  1  0.56785354  0.85631940  0.51206809  1.0
  C  C31  1  0.53224987  0.77439116  0.51247706  1.0
  C  C32  1  0.33032892  0.73294659  0.49702168  1.0
  C  C33  1  0.15979564  0.77673764  0.47992364  1.0
  C  C34  1  0.35700341  0.48505133  0.72265812  1.0
  C  C35  1  0.21058050  0.51164461  0.76081458  1.0
  C  C36  1  0.24248724  0.51361904  0.84021312  1.0
  C  C37  1  0.41966037  0.48731480  0.88430969  1.0
  C  C38  1  0.56032112  0.45655804  0.84465744  1.0
  C  C39  1  0.53131954  0.45663568  0.76495300  1.0
  C  C40  1  0.45581257  0.49364642  0.96502795  1.0
  C  C41  1  0.48874964  0.50241142  0.03473497  1.0
  C  C42  1  0.53819855  0.50901912  0.11543810  1.0
  C  C43  1  0.41428244  0.54385259  0.15966088  1.0
  C  C44  1  0.46203126  0.54539805  0.23941100  1.0
  C  C45  1  0.63797193  0.51420552  0.27698411  1.0
  C  C46  1  0.76717875  0.48262560  0.23411102  1.0
  C  C47  1  0.71670100  0.47933991  0.15472458  1.0
  N  N48  1  0.59718384  0.01819665  0.50770331  1.0
  N  N49  1  0.41357126  0.98330735  0.49339963  1.0
  Cl  Cl50  1  0.77268835  0.41955452  0.89623535  1.0
  Cl  Cl51  1  0.19967199  0.58386981  0.11408590  1.0
  O  O52  1  0.15207743  0.50430991  0.60254570  1.0
  O  O53  1  0.45681165  0.60861340  0.51435599  1.0
  O  O54  1  0.53642466  0.52263177  0.39701031  1.0
  O  O55  1  0.90359236  0.39060435  0.51105327  1.0
  O  O56  1  0.86107328  0.49706009  0.39468079  1.0
  O  O57  1  0.55848353  0.39298860  0.48759804  1.0
  O  O58  1  0.47967299  0.47955516  0.60546619  1.0
  O  O59  1  0.11159036  0.61043904  0.48639391  1.0
  O  O60  1  0.78781888  0.53519063  0.53504381  1.0
  O  O61  1  0.22918211  0.46617141  0.46468384  1.0
  O  O62  1  0.05145943  0.25899227  0.53545550  1.0
  O  O63  1  0.96236624  0.74161020  0.46390233  1.0
