# generated using pymatgen
data_Zn4H28C28N8O5
_symmetry_space_group_name_H-M   'P 1'
_cell_length_a   11.56560628
_cell_length_b   11.56560804
_cell_length_c   26.00997872
_cell_angle_alpha   90.00007298
_cell_angle_beta   90.00004093
_cell_angle_gamma   89.99999304
_symmetry_Int_Tables_number   1
_chemical_formula_structural   Zn4H28C28N8O5
_chemical_formula_sum   'Zn8 H56 C56 N16 O10'
_cell_volume   3479.17977967
_cell_formula_units_Z   2
loop_
 _symmetry_equiv_pos_site_id
 _symmetry_equiv_pos_as_xyz
  1  'x, y, z'
loop_
 _atom_site_type_symbol
 _atom_site_label
 _atom_site_symmetry_multiplicity
 _atom_site_fract_x
 _atom_site_fract_y
 _atom_site_fract_z
 _atom_site_occupancy
  Zn  Zn0  1  0.40083583  0.40083629  0.20795064  1.0
  Zn  Zn1  1  0.59916351  0.59916394  0.20795073  1.0
  Zn  Zn2  1  0.40083622  0.59916380  0.70795072  1.0
  Zn  Zn3  1  0.59916392  0.40083612  0.70795070  1.0
  Zn  Zn4  1  0.40083675  0.59916407  0.29204919  1.0
  Zn  Zn5  1  0.59916445  0.40083639  0.29204955  1.0
  Zn  Zn6  1  0.40083630  0.40083712  0.79204916  1.0
  Zn  Zn7  1  0.59916397  0.59916391  0.79204963  1.0
  H  H8  1  0.27167961  0.08807796  0.18787593  1.0
  H  H9  1  0.35229359  0.18006182  0.14630193  1.0
  H  H10  1  0.38964832  0.03144015  0.15275134  1.0
  H  H11  1  0.72831969  0.91192307  0.18787585  1.0
  H  H12  1  0.64770651  0.81993996  0.14630177  1.0
  H  H13  1  0.61035178  0.96855991  0.15275164  1.0
  H  H14  1  0.08807784  0.72831999  0.68787572  1.0
  H  H15  1  0.18006088  0.64770678  0.64630206  1.0
  H  H16  1  0.03144006  0.61035208  0.65275147  1.0
  H  H17  1  0.91192227  0.27168074  0.68787573  1.0
  H  H18  1  0.81993829  0.35229469  0.64630169  1.0
  H  H19  1  0.96855999  0.38964854  0.65275117  1.0
  H  H20  1  0.27167966  0.91192241  0.31212386  1.0
  H  H21  1  0.35229285  0.81993941  0.35369789  1.0
  H  H22  1  0.38964842  0.96856020  0.34724850  1.0
  H  H23  1  0.72831984  0.08807897  0.31212409  1.0
  H  H24  1  0.64770585  0.18006123  0.35369814  1.0
  H  H25  1  0.61035200  0.03144042  0.34724865  1.0
  H  H26  1  0.08807796  0.27167924  0.81212291  1.0
  H  H27  1  0.18006020  0.35229243  0.85369776  1.0
  H  H28  1  0.03144023  0.38964715  0.84724791  1.0
  H  H29  1  0.91192147  0.72832012  0.81212432  1.0
  H  H30  1  0.81993930  0.64770618  0.85369833  1.0
  H  H31  1  0.96856013  0.61035231  0.84724851  1.0
  H  H32  1  0.72832192  0.91192310  0.81212281  1.0
  H  H33  1  0.64770794  0.81994010  0.85369720  1.0
  H  H34  1  0.61035234  0.96856090  0.84724779  1.0
  H  H35  1  0.27167924  0.08807798  0.81212365  1.0
  H  H36  1  0.35229243  0.18006196  0.85369812  1.0
  H  H37  1  0.38964802  0.03144028  0.84724864  1.0
  H  H38  1  0.91192196  0.27168020  0.31212417  1.0
  H  H39  1  0.81993892  0.35229427  0.35369822  1.0
  H  H40  1  0.96856061  0.38964811  0.34724881  1.0
  H  H41  1  0.08807753  0.72832032  0.31212417  1.0
  H  H42  1  0.18006151  0.64770723  0.35369820  1.0
  H  H43  1  0.03143981  0.61035251  0.34724872  1.0
  H  H44  1  0.72831928  0.08807864  0.68787603  1.0
  H  H45  1  0.64770695  0.18006165  0.64630200  1.0
  H  H46  1  0.61035138  0.03144085  0.65275101  1.0
  H  H47  1  0.27167909  0.91192295  0.68787581  1.0
  H  H48  1  0.35229309  0.81993896  0.64630213  1.0
  H  H49  1  0.38964780  0.96855978  0.65275124  1.0
  H  H50  1  0.91192184  0.72832095  0.18787660  1.0
  H  H51  1  0.81993874  0.64770776  0.14630213  1.0
  H  H52  1  0.96856044  0.61035218  0.15275159  1.0
  H  H53  1  0.08807833  0.27168094  0.18787595  1.0
  H  H54  1  0.18006050  0.35229402  0.14630195  1.0
  H  H55  1  0.03143967  0.38964789  0.15275138  1.0
  H  H56  1  0.36886245  0.36886282  0.04837803  1.0
  H  H57  1  0.63113576  0.63113695  0.04837853  1.0
  H  H58  1  0.36886284  0.63113681  0.54837813  1.0
  H  H59  1  0.63113791  0.36886092  0.54837848  1.0
  H  H60  1  0.36886189  0.63113841  0.45162141  1.0
  H  H61  1  0.63113696  0.36886338  0.45162177  1.0
  H  H62  1  0.36886145  0.36886151  0.95162098  1.0
  H  H63  1  0.63113648  0.63113738  0.95162225  1.0
  C  C64  1  0.35913632  0.10804489  0.17369562  1.0
  C  C65  1  0.43938376  0.13752891  0.21662494  1.0
  C  C66  1  0.64086469  0.89195264  0.17369435  1.0
  C  C67  1  0.56061212  0.86247047  0.21662439  1.0
  C  C68  1  0.10804652  0.64086412  0.67369538  1.0
  C  C69  1  0.13752707  0.56061505  0.71662542  1.0
  C  C70  1  0.89195529  0.35913743  0.67369542  1.0
  C  C71  1  0.86247308  0.43938662  0.71662512  1.0
  C  C72  1  0.35913466  0.89195201  0.32630574  1.0
  C  C73  1  0.43938723  0.86246971  0.28337568  1.0
  C  C74  1  0.64086313  0.10804682  0.32630441  1.0
  C  C75  1  0.56061482  0.13752986  0.28337511  1.0
  C  C76  1  0.10804752  0.35913424  0.82630519  1.0
  C  C77  1  0.13753146  0.43938936  0.78337707  1.0
  C  C78  1  0.89195194  0.64086430  0.82630539  1.0
  C  C79  1  0.86246794  0.56061337  0.78337607  1.0
  C  C80  1  0.64086694  0.89195357  0.82630504  1.0
  C  C81  1  0.56061085  0.86246869  0.78337726  1.0
  C  C82  1  0.35913511  0.10804582  0.82630477  1.0
  C  C83  1  0.43938595  0.13753145  0.78337588  1.0
  C  C84  1  0.89195328  0.35913693  0.32630490  1.0
  C  C85  1  0.86247273  0.43938600  0.28337447  1.0
  C  C86  1  0.10804451  0.64086363  0.32630447  1.0
  C  C87  1  0.13752759  0.56061530  0.28337439  1.0
  C  C88  1  0.64086255  0.10804559  0.67369569  1.0
  C  C89  1  0.56061430  0.13752702  0.71662537  1.0
  C  C90  1  0.35913667  0.89195510  0.67369587  1.0
  C  C91  1  0.43938585  0.86247292  0.71662517  1.0
  C  C92  1  0.89195228  0.64086596  0.17369471  1.0
  C  C93  1  0.86246748  0.56061084  0.21662282  1.0
  C  C94  1  0.10804786  0.35913590  0.17369450  1.0
  C  C95  1  0.13753186  0.43938682  0.21662382  1.0
  C  C96  1  0.42587112  0.42586368  0.02673021  1.0
  C  C97  1  0.57413398  0.57412565  0.02673143  1.0
  C  C98  1  0.42587324  0.57413502  0.52673066  1.0
  C  C99  1  0.57413093  0.42586870  0.52673102  1.0
  C  C100  1  0.42586974  0.57413149  0.47326887  1.0
  C  C101  1  0.57413521  0.42587295  0.47326923  1.0
  C  C102  1  0.42586928  0.42586935  0.97326847  1.0
  C  C103  1  0.57413474  0.57412700  0.97326930  1.0
  C  C104  1  0.49999973  0.06326308  0.24999981  1.0
  C  C105  1  0.49999967  0.93672688  0.25000006  1.0
  C  C106  1  0.06326900  0.49999832  0.75000181  1.0
  C  C107  1  0.93673207  0.50000259  0.75000157  1.0
  C  C108  1  0.50000180  0.93673106  0.75000162  1.0
  C  C109  1  0.49999753  0.06326812  0.75000137  1.0
  C  C110  1  0.93673080  0.50000274  0.24999847  1.0
  C  C111  1  0.06326773  0.49999847  0.24999833  1.0
  C  C112  1  0.49999699  0.49999911  0.11146541  1.0
  C  C113  1  0.49999954  0.49999989  0.05383907  1.0
  C  C114  1  0.49999913  0.50000069  0.61146544  1.0
  C  C115  1  0.50000167  0.49999888  0.55383909  1.0
  C  C116  1  0.50000068  0.49999950  0.38853446  1.0
  C  C117  1  0.49999899  0.50000132  0.44616080  1.0
  C  C118  1  0.50000108  0.50000195  0.88853448  1.0
  C  C119  1  0.49999853  0.49999857  0.94616083  1.0
  N  N120  1  0.46272885  0.24806613  0.22947273  1.0
  N  N121  1  0.53727138  0.75192982  0.22947251  1.0
  N  N122  1  0.24806690  0.53727172  0.72947242  1.0
  N  N123  1  0.75193327  0.46272913  0.72947248  1.0
  N  N124  1  0.46272885  0.75192902  0.27052751  1.0
  N  N125  1  0.53727145  0.24806619  0.27052776  1.0
  N  N126  1  0.24807213  0.46272922  0.77052741  1.0
  N  N127  1  0.75192984  0.53727175  0.77052752  1.0
  N  N128  1  0.53727095  0.75192887  0.77052716  1.0
  N  N129  1  0.46272842  0.24807123  0.77052739  1.0
  N  N130  1  0.75193377  0.46272934  0.27052785  1.0
  N  N131  1  0.24806653  0.53727193  0.27052741  1.0
  N  N132  1  0.53727095  0.24806598  0.72947239  1.0
  N  N133  1  0.46272835  0.75193400  0.72947213  1.0
  N  N134  1  0.75192768  0.53727097  0.22947248  1.0
  N  N135  1  0.24807083  0.46272845  0.22947238  1.0
  O  O136  1  0.43018745  0.43018786  0.13342118  1.0
  O  O137  1  0.56981090  0.56981129  0.13342163  1.0
  O  O138  1  0.43018957  0.56981115  0.63342125  1.0
  O  O139  1  0.56981218  0.43018856  0.63342123  1.0
  O  O140  1  0.43018935  0.56981163  0.36657828  1.0
  O  O141  1  0.56981110  0.43018904  0.36657864  1.0
  O  O142  1  0.43018804  0.43018804  0.86657865  1.0
  O  O143  1  0.56981149  0.56981234  0.86657871  1.0
  O  O144  1  0.49999970  0.50000104  0.25000032  1.0
  O  O145  1  0.49999924  0.50000002  0.74999996  1.0
