# generated using pymatgen
data_CdH44C52(N5O3)2
_symmetry_space_group_name_H-M   'P 1'
_cell_length_a   14.33349566
_cell_length_b   14.33354496
_cell_length_c   15.78967127
_cell_angle_alpha   106.88234954
_cell_angle_beta   112.23827591
_cell_angle_gamma   105.24755329
_symmetry_Int_Tables_number   1
_chemical_formula_structural   CdH44C52(N5O3)2
_chemical_formula_sum   'Cd2 H88 C104 N20 O12'
_cell_volume   2606.23310817
_cell_formula_units_Z   2
loop_
 _symmetry_equiv_pos_site_id
 _symmetry_equiv_pos_as_xyz
  1  'x, y, z'
loop_
 _atom_site_type_symbol
 _atom_site_label
 _atom_site_symmetry_multiplicity
 _atom_site_fract_x
 _atom_site_fract_y
 _atom_site_fract_z
 _atom_site_occupancy
  Cd  Cd0  1  0.00000075  0.99999961  0.00000093  1.0
  Cd  Cd1  1  0.50000002  0.99999999  0.50000030  1.0
  H  H2  1  0.13209763  0.87135214  0.93343114  1.0
  H  H3  1  0.43785377  0.19846872  0.56637425  1.0
  H  H4  1  0.86790046  0.12864596  0.06656814  1.0
  H  H5  1  0.56214642  0.80153180  0.43362631  1.0
  H  H6  1  0.14429422  0.77166138  0.78294318  1.0
  H  H7  1  0.48841927  0.36107576  0.71678617  1.0
  H  H8  1  0.85570360  0.22833721  0.21705584  1.0
  H  H9  1  0.51158185  0.63892478  0.28321372  1.0
  H  H10  1  0.04767812  0.78923709  0.61991360  1.0
  H  H11  1  0.66887226  0.42757474  0.87991062  1.0
  H  H12  1  0.95231987  0.21076212  0.38008638  1.0
  H  H13  1  0.33112996  0.57242646  0.12008955  1.0
  H  H14  1  0.94097705  0.99967136  0.77673395  1.0
  H  H15  1  0.72291584  0.16428901  0.72324603  1.0
  H  H16  1  0.05902094  0.00032785  0.22326603  1.0
  H  H17  1  0.27708465  0.83571090  0.27675322  1.0
  H  H18  1  0.89389608  0.96870079  0.60605881  1.0
  H  H19  1  0.86253230  0.28782701  0.89373658  1.0
  H  H20  1  0.10610164  0.03129891  0.39394091  1.0
  H  H21  1  0.13746929  0.71217355  0.10626296  1.0
  H  H22  1  0.84420670  0.83256096  0.19604137  1.0
  H  H23  1  0.13634200  0.64802086  0.30411370  1.0
  H  H24  1  0.15579376  0.16743907  0.80395945  1.0
  H  H25  1  0.86365785  0.35197841  0.69588492  1.0
  H  H26  1  0.62691658  0.90407536  0.30653864  1.0
  H  H27  1  0.09797721  0.32048788  0.19335836  1.0
  H  H28  1  0.37308454  0.09592519  0.69346124  1.0
  H  H29  1  0.90202415  0.67951230  0.80664336  1.0
  H  H30  1  0.74070227  0.90028134  0.46630654  1.0
  H  H31  1  0.93440192  0.27443629  0.03353555  1.0
  H  H32  1  0.25929685  0.09971841  0.53369216  1.0
  H  H33  1  0.06559761  0.72556371  0.96646595  1.0
  H  H34  1  0.78579431  0.91068961  0.10348327  1.0
  H  H35  1  0.30712584  0.68219056  0.39622370  1.0
  H  H36  1  0.21420525  0.08931027  0.89651666  1.0
  H  H37  1  0.69287665  0.31781288  0.60377754  1.0
  H  H38  1  0.66774055  0.90613793  0.94152271  1.0
  H  H39  1  0.46461019  0.72623686  0.55823286  1.0
  H  H40  1  0.33225864  0.09386082  0.05847685  1.0
  H  H41  1  0.53539266  0.27376498  0.44176793  1.0
  H  H42  1  0.50403413  0.81849191  0.14956857  1.0
  H  H43  1  0.16906719  0.35443918  0.35038899  1.0
  H  H44  1  0.49596680  0.18150814  0.85043191  1.0
  H  H45  1  0.83093530  0.64556426  0.64961225  1.0
  H  H46  1  0.00787585  0.82569507  0.30137930  1.0
  H  H47  1  0.02414909  0.70637026  0.19871743  1.0
  H  H48  1  0.99212287  0.17430366  0.69862060  1.0
  H  H49  1  0.97584857  0.29362770  0.80128062  1.0
  H  H50  1  0.97634106  0.74716314  0.36443625  1.0
  H  H51  1  0.88261794  0.61165913  0.13561518  1.0
  H  H52  1  0.02365769  0.25283548  0.63556209  1.0
  H  H53  1  0.11738055  0.38833998  0.86438290  1.0
  H  H54  1  0.06098104  0.88649475  0.43511609  1.0
  H  H55  1  0.95130198  0.62580606  0.06496779  1.0
  H  H56  1  0.93901842  0.11350351  0.56488374  1.0
  H  H57  1  0.04869731  0.37419159  0.93503108  1.0
  H  H58  1  0.30741607  0.80358172  0.90385616  1.0
  H  H59  1  0.39968462  0.40381260  0.59629998  1.0
  H  H60  1  0.69258386  0.19641928  0.09614413  1.0
  H  H61  1  0.60031376  0.59618762  0.40369880  1.0
  H  H62  1  0.33804863  0.86342813  0.03254808  1.0
  H  H63  1  0.33095317  0.30557589  0.46769611  1.0
  H  H64  1  0.66195220  0.13657303  0.96745311  1.0
  H  H65  1  0.66904705  0.69442724  0.53230369  1.0
  H  H66  1  0.31046702  0.72671586  0.97526411  1.0
  H  H67  1  0.25142247  0.33550538  0.52478772  1.0
  H  H68  1  0.68953253  0.27328402  0.02473582  1.0
  H  H69  1  0.74857648  0.66449647  0.47521082  1.0
  H  H70  1  0.56895523  0.96386034  0.85144747  1.0
  H  H71  1  0.61253045  0.71751830  0.64862539  1.0
  H  H72  1  0.43104432  0.03613954  0.14855246  1.0
  H  H73  1  0.38747147  0.28248079  0.35137528  1.0
  H  H74  1  0.25728260  0.78234193  0.69326573  1.0
  H  H75  1  0.58902989  0.56395031  0.80689735  1.0
  H  H76  1  0.74271796  0.21765699  0.30673439  1.0
  H  H77  1  0.41097296  0.43604880  0.19310264  1.0
  H  H78  1  0.14254530  0.76396018  0.51642751  1.0
  H  H79  1  0.74759421  0.62613732  0.98373681  1.0
  H  H80  1  0.85745479  0.23603873  0.48357295  1.0
  H  H81  1  0.25240671  0.37386272  0.01626367  1.0
  H  H82  1  0.23902743  0.86288389  0.44501648  1.0
  H  H83  1  0.91781534  0.79404644  0.05498756  1.0
  H  H84  1  0.76097163  0.13711881  0.55498617  1.0
  H  H85  1  0.08218459  0.20595457  0.94501274  1.0
  H  H86  1  0.54230354  0.99760787  0.70871548  1.0
  H  H87  1  0.78863267  0.83344593  0.79117970  1.0
  H  H88  1  0.45769555  0.00239472  0.29128560  1.0
  H  H89  1  0.21136918  0.16655415  0.20882011  1.0
  C  C90  1  0.09070320  0.87557585  0.86193400  1.0
  C  C91  1  0.51348659  0.22856023  0.63793710  1.0
  C  C92  1  0.90929552  0.12442289  0.13806591  1.0
  C  C93  1  0.48651427  0.77144080  0.36206252  1.0
  C  C94  1  0.09807240  0.82103519  0.77752117  1.0
  C  C95  1  0.54323136  0.32029800  0.72230879  1.0
  C  C96  1  0.90192516  0.17896389  0.22247758  1.0
  C  C97  1  0.45676913  0.67970191  0.27769046  1.0
  C  C98  1  0.04566858  0.83068559  0.68854394  1.0
  C  C99  1  0.64181348  0.35689530  0.81136228  1.0
  C  C100  1  0.95432925  0.16931300  0.31145507  1.0
  C  C101  1  0.35818810  0.64310527  0.18863726  1.0
  C  C102  1  0.98829198  0.89630478  0.68668097  1.0
  C  C103  1  0.70943086  0.30150116  0.81331776  1.0
  C  C104  1  0.01170611  0.10369331  0.31331831  1.0
  C  C105  1  0.29056963  0.69849876  0.18668150  1.0
  C  C106  1  0.98557139  0.94869912  0.77526593  1.0
  C  C107  1  0.67331698  0.21022908  0.72471796  1.0
  C  C108  1  0.01442617  0.05129996  0.22473282  1.0
  C  C109  1  0.32668414  0.78977147  0.27528192  1.0
  C  C110  1  0.93009154  0.91027189  0.59615585  1.0
  C  C111  1  0.81400867  0.33388652  0.90380314  1.0
  C  C112  1  0.06990608  0.08972620  0.40384377  1.0
  C  C113  1  0.18599199  0.66611401  0.09619708  1.0
  C  C114  1  0.85781354  0.86470699  0.42317203  1.0
  C  C115  1  0.94167474  0.43459928  0.07675931  1.0
  C  C116  1  0.14218584  0.13529227  0.57682693  1.0
  C  C117  1  0.05832562  0.56539914  0.92324141  1.0
  C  C118  1  0.88713039  0.84595456  0.34561462  1.0
  C  C119  1  0.00033237  0.54141173  0.15438099  1.0
  C  C120  1  0.11286880  0.15404419  0.65438495  1.0
  C  C121  1  0.99966872  0.45858894  0.84562046  1.0
  C  C122  1  0.82118034  0.84829157  0.25546096  1.0
  C  C123  1  0.09279936  0.56562844  0.24453616  1.0
  C  C124  1  0.17881905  0.15170769  0.74453800  1.0
  C  C125  1  0.90720183  0.43437385  0.75546540  1.0
  C  C126  1  0.72555483  0.86751438  0.23770976  1.0
  C  C127  1  0.12992841  0.48780247  0.26221226  1.0
  C  C128  1  0.27444609  0.13248566  0.76229073  1.0
  C  C129  1  0.87007280  0.51219969  0.73778772  1.0
  C  C130  1  0.69897332  0.88702644  0.31635081  1.0
  C  C131  1  0.07097479  0.38264988  0.18350808  1.0
  C  C132  1  0.30102797  0.11297473  0.68365004  1.0
  C  C133  1  0.92902603  0.61735127  0.81649311  1.0
  C  C134  1  0.76361266  0.88584350  0.40695445  1.0
  C  C135  1  0.97917483  0.35667868  0.09290382  1.0
  C  C136  1  0.23638726  0.11415751  0.59304584  1.0
  C  C137  1  0.02082600  0.64332247  0.90709737  1.0
  C  C138  1  0.65479968  0.86624934  0.14051122  1.0
  C  C139  1  0.22583534  0.51424387  0.35936643  1.0
  C  C140  1  0.34520034  0.13375056  0.85948838  1.0
  C  C141  1  0.77416605  0.48575892  0.64063452  1.0
  C  C142  1  0.69816186  0.88993319  0.07891818  1.0
  C  C143  1  0.31104605  0.61919437  0.42088406  1.0
  C  C144  1  0.30183843  0.11006621  0.92108168  1.0
  C  C145  1  0.68895670  0.38080858  0.57911744  1.0
  C  C146  1  0.63140045  0.88831965  0.98758614  1.0
  C  C147  1  0.40079207  0.64382385  0.51222556  1.0
  C  C148  1  0.36860030  0.11167977  0.01241338  1.0
  C  C149  1  0.59921132  0.35617974  0.48777657  1.0
  C  C150  1  0.51728267  0.86195471  0.95283928  1.0
  C  C151  1  0.40919490  0.56448062  0.54702633  1.0
  C  C152  1  0.48271652  0.13804405  0.04716028  1.0
  C  C153  1  0.59080758  0.43552283  0.45297490  1.0
  C  C154  1  0.47128690  0.83631480  0.01276320  1.0
  C  C155  1  0.32363764  0.45854579  0.48714315  1.0
  C  C156  1  0.52871309  0.16368521  0.98723797  1.0
  C  C157  1  0.67636375  0.54145700  0.51285780  1.0
  C  C158  1  0.54108253  0.83992862  0.10508591  1.0
  C  C159  1  0.23495964  0.43597170  0.39480169  1.0
  C  C160  1  0.45891640  0.16007063  0.89491339  1.0
  C  C161  1  0.76504239  0.56403173  0.60519989  1.0
  C  C162  1  0.98849925  0.82527776  0.36206167  1.0
  C  C163  1  0.96311740  0.62630705  0.13800289  1.0
  C  C164  1  0.01150003  0.17471988  0.63793719  1.0
  C  C165  1  0.03688218  0.37369271  0.86199547  1.0
  C  C166  1  0.35001703  0.80576175  0.97883680  1.0
  C  C167  1  0.32695311  0.37133231  0.52124678  1.0
  C  C168  1  0.64998363  0.19423879  0.02116342  1.0
  C  C169  1  0.67304975  0.62866953  0.47875402  1.0
  C  C170  1  0.48168115  0.90650940  0.81591005  1.0
  C  C171  1  0.59059830  0.66574464  0.68410449  1.0
  C  C172  1  0.51832014  0.09349177  0.18409080  1.0
  C  C173  1  0.40940284  0.33425579  0.31589382  1.0
  C  C174  1  0.40824630  0.89191335  0.71423712  1.0
  C  C175  1  0.67755301  0.69391646  0.78578565  1.0
  C  C176  1  0.59175389  0.10808716  0.28576344  1.0
  C  C177  1  0.32244818  0.30608310  0.21421510  1.0
  C  C178  1  0.29393177  0.82479295  0.65868460  1.0
  C  C179  1  0.66602111  0.63519477  0.84139549  1.0
  C  C180  1  0.70606932  0.17520772  0.34131685  1.0
  C  C181  1  0.33397964  0.36480465  0.15860402  1.0
  C  C182  1  0.23163653  0.81426527  0.56167388  1.0
  C  C183  1  0.75254873  0.66994869  0.93841243  1.0
  C  C184  1  0.76836393  0.18573476  0.43832695  1.0
  C  C185  1  0.24745193  0.33005184  0.06158779  1.0
  C  C186  1  0.28447694  0.86873533  0.52081043  1.0
  C  C187  1  0.84783015  0.76368359  0.97920859  1.0
  C  C188  1  0.71552242  0.13126677  0.47919090  1.0
  C  C189  1  0.15217067  0.23631756  0.02079260  1.0
  C  C190  1  0.45377066  0.94512483  0.66799313  1.0
  C  C191  1  0.77695031  0.78570991  0.83200325  1.0
  C  C192  1  0.54622916  0.05487728  0.33200787  1.0
  C  C193  1  0.22305088  0.21428964  0.16799750  1.0
  N  N194  1  0.03440604  0.93752165  0.86075776  1.0
  N  N195  1  0.57670629  0.17354005  0.63920135  1.0
  N  N196  1  0.96559242  0.06247758  0.13924188  1.0
  N  N197  1  0.42329483  0.82646050  0.36079853  1.0
  N  N198  1  0.92131946  0.85591587  0.51052813  1.0
  N  N199  1  0.84540725  0.41071550  0.98949413  1.0
  N  N200  1  0.07867880  0.14408286  0.48947212  1.0
  N  N201  1  0.15459101  0.58928322  0.01050612  1.0
  N  N202  1  0.44538838  0.85390170  0.85884089  1.0
  N  N203  1  0.49503692  0.58656039  0.64105038  1.0
  N  N204  1  0.55461165  0.14609819  0.14115870  1.0
  N  N205  1  0.50496437  0.41344078  0.35895047  1.0
  N  N206  1  0.39396658  0.93282806  0.57300524  1.0
  N  N207  1  0.85965220  0.82095108  0.92697315  1.0
  N  N208  1  0.60603231  0.06717402  0.42699644  1.0
  N  N209  1  0.14034889  0.17904958  0.07302830  1.0
  N  N210  1  0.18246767  0.92321776  0.12685729  1.0
  N  N211  1  0.29663808  0.05585148  0.37330973  1.0
  N  N212  1  0.81753291  0.07678104  0.87314125  1.0
  N  N213  1  0.70335615  0.94414575  0.62668972  1.0
  O  O214  1  0.17081720  0.99076064  0.08899793  1.0
  O  O215  1  0.40198338  0.08192603  0.41097635  1.0
  O  O216  1  0.82918456  0.00924055  0.91100258  1.0
  O  O217  1  0.59801138  0.91807023  0.58902363  1.0
  O  O218  1  0.27228178  0.91322390  0.15362434  1.0
  O  O219  1  0.25993196  0.11903372  0.34676273  1.0
  O  O220  1  0.72771941  0.08677566  0.84637640  1.0
  O  O221  1  0.74006310  0.88096466  0.65323675  1.0
  O  O222  1  0.10412388  0.86870893  0.13471414  1.0
  O  O223  1  0.23427326  0.96963012  0.36540955  1.0
  O  O224  1  0.89587383  0.13128880  0.86528077  1.0
  O  O225  1  0.76571841  0.03036740  0.63458976  1.0
