# generated using pymatgen
data_CuH6C8N3
_symmetry_space_group_name_H-M   'P 1'
_cell_length_a   33.47966523
_cell_length_b   33.99464097
_cell_length_c   34.27408240
_cell_angle_alpha   89.61819895
_cell_angle_beta   90.15837943
_cell_angle_gamma   89.75277523
_symmetry_Int_Tables_number   1
_chemical_formula_structural   CuH6C8N3
_chemical_formula_sum   'Cu12 H72 C96 N36'
_cell_volume   39006.95260681
_cell_formula_units_Z   12
loop_
 _symmetry_equiv_pos_site_id
 _symmetry_equiv_pos_as_xyz
  1  'x, y, z'
loop_
 _atom_site_type_symbol
 _atom_site_label
 _atom_site_symmetry_multiplicity
 _atom_site_fract_x
 _atom_site_fract_y
 _atom_site_fract_z
 _atom_site_occupancy
  Cu  Cu0  1  0.37810730  0.58699077  0.67251000  1.0
  Cu  Cu1  1  0.34126589  0.62238999  0.59437647  1.0
  Cu  Cu2  1  0.41956308  0.65960206  0.63112115  1.0
  Cu  Cu3  1  0.62161008  0.91270701  0.17050002  1.0
  Cu  Cu4  1  0.65931001  0.87674365  0.09385495  1.0
  Cu  Cu5  1  0.57592131  0.84535562  0.12510222  1.0
  Cu  Cu6  1  0.87541119  0.41126714  0.84669512  1.0
  Cu  Cu7  1  0.83233891  0.36876396  0.91803271  1.0
  Cu  Cu8  1  0.90694394  0.32888329  0.87817897  1.0
  Cu  Cu9  1  0.12582403  0.09090390  0.34636065  1.0
  Cu  Cu10  1  0.16367886  0.12647741  0.42317849  1.0
  Cu  Cu11  1  0.09498863  0.17309897  0.37776422  1.0
  H  H12  1  0.30608241  0.53219543  0.69962409  1.0
  H  H13  1  0.26569217  0.56722012  0.58423044  1.0
  H  H14  1  0.49303085  0.67296327  0.68825762  1.0
  H  H15  1  0.44798306  0.56154615  0.73128086  1.0
  H  H16  1  0.33068956  0.67613586  0.51888090  1.0
  H  H17  1  0.44144708  0.72215067  0.56534268  1.0
  H  H18  1  0.69311669  0.96751761  0.19817260  1.0
  H  H19  1  0.73707231  0.92944710  0.08568651  1.0
  H  H20  1  0.50175903  0.83232206  0.18151653  1.0
  H  H21  1  0.55509384  0.93599089  0.23251535  1.0
  H  H22  1  0.67174582  0.82119584  0.02091011  1.0
  H  H23  1  0.55164608  0.78895753  0.05512215  1.0
  H  H24  1  0.82493031  0.49024980  0.84155793  1.0
  H  H25  1  0.77460380  0.43759927  0.94578436  1.0
  H  H26  1  0.96622362  0.30579246  0.80979712  1.0
  H  H27  1  0.93225931  0.42368532  0.77352198  1.0
  H  H28  1  0.80443757  0.29775927  0.97322447  1.0
  H  H29  1  0.92074007  0.25618789  0.93602089  1.0
  H  H30  1  0.17767307  0.01312120  0.33793012  1.0
  H  H31  1  0.21859407  0.05430887  0.45050349  1.0
  H  H32  1  0.03698053  0.19849334  0.30787188  1.0
  H  H33  1  0.06918448  0.08027066  0.27287647  1.0
  H  H34  1  0.18852063  0.19126267  0.48514323  1.0
  H  H35  1  0.08310311  0.24579134  0.43443710  1.0
  H  H36  1  0.77605460  0.99740360  0.08949100  1.0
  H  H37  1  0.83247650  0.02713175  0.15561011  1.0
  H  H38  1  0.77325198  0.99090831  0.17910668  1.0
  H  H39  1  0.82388692  0.05012346  0.06873861  1.0
  H  H40  1  0.22695943  0.49903694  0.58913899  1.0
  H  H41  1  0.16777329  0.47183186  0.65406846  1.0
  H  H42  1  0.22656319  0.50812105  0.67848851  1.0
  H  H43  1  0.17954314  0.44560859  0.56882702  1.0
  H  H44  1  0.24587311  0.97366416  0.34089510  1.0
  H  H45  1  0.27494026  0.91498648  0.40550894  1.0
  H  H46  1  0.24024251  0.97431287  0.43056341  1.0
  H  H47  1  0.29796297  0.92551074  0.31895800  1.0
  H  H48  1  0.75607052  0.52895524  0.84215261  1.0
  H  H49  1  0.72263588  0.58224839  0.90840478  1.0
  H  H50  1  0.75515574  0.51994795  0.93160223  1.0
  H  H51  1  0.70451615  0.57770126  0.82022947  1.0
  H  H52  1  0.00062765  0.08443460  0.23589290  1.0
  H  H53  1  0.97116337  0.14775441  0.17593805  1.0
  H  H54  1  0.00918990  0.17456979  0.23189840  1.0
  H  H55  1  0.94673553  0.06138866  0.18998408  1.0
  H  H56  1  0.52852604  0.67213428  0.75916162  1.0
  H  H57  1  0.58784754  0.60746301  0.78903365  1.0
  H  H58  1  0.52922360  0.58174668  0.75373766  1.0
  H  H59  1  0.57573851  0.69418988  0.81242137  1.0
  H  H60  1  0.99942291  0.41955514  0.73353243  1.0
  H  H61  1  0.02854326  0.35432642  0.67644722  1.0
  H  H62  1  0.99265043  0.32921106  0.73401660  1.0
  H  H63  1  0.05268947  0.44124749  0.68600432  1.0
  H  H64  1  0.46909069  0.82840295  0.25500275  1.0
  H  H65  1  0.41366325  0.89380465  0.28885163  1.0
  H  H66  1  0.47300286  0.91889231  0.25454071  1.0
  H  H67  1  0.42284464  0.80577925  0.30959737  1.0
  H  H68  1  0.91822374  0.22253274  0.00807587  1.0
  H  H69  1  0.85384940  0.16238683  0.03575826  1.0
  H  H70  1  0.82697479  0.21833552  0.99738662  1.0
  H  H71  1  0.94014860  0.17772688  0.06340353  1.0
  H  H72  1  0.32944569  0.74556288  0.48235912  1.0
  H  H73  1  0.39512898  0.77917321  0.42715974  1.0
  H  H74  1  0.42135627  0.74571992  0.48643574  1.0
  H  H75  1  0.30536913  0.79829980  0.43524646  1.0
  H  H76  1  0.66860533  0.75294641  0.98485525  1.0
  H  H77  1  0.60536341  0.72489925  0.92412635  1.0
  H  H78  1  0.57722063  0.76245627  0.97913090  1.0
  H  H79  1  0.69239114  0.69889105  0.93991063  1.0
  H  H80  1  0.08007829  0.27782066  0.50732341  1.0
  H  H81  1  0.14705060  0.33116398  0.54151807  1.0
  H  H82  1  0.17189875  0.27217197  0.50762596  1.0
  H  H83  1  0.05747795  0.32418390  0.56116600  1.0
  C  C84  1  0.30177518  0.54494986  0.67079213  1.0
  C  C85  1  0.27086739  0.53849621  0.64369040  1.0
  C  C86  1  0.28153100  0.56213042  0.61148523  1.0
  C  C87  1  0.47610344  0.64666612  0.69512210  1.0
  C  C88  1  0.48525025  0.61584283  0.72134043  1.0
  C  C89  1  0.45354377  0.58927241  0.71640490  1.0
  C  C90  1  0.35686742  0.68366147  0.53598057  1.0
  C  C91  1  0.38727312  0.71096397  0.52772265  1.0
  C  C92  1  0.41392346  0.70652981  0.55929294  1.0
  C  C93  1  0.69829943  0.95404047  0.17000016  1.0
  C  C94  1  0.73014486  0.95961568  0.14385411  1.0
  C  C95  1  0.72037865  0.93529546  0.11213926  1.0
  C  C96  1  0.52055518  0.85673135  0.19012422  1.0
  C  C97  1  0.51414487  0.88525941  0.21906459  1.0
  C  C98  1  0.54732943  0.91028251  0.21551297  1.0
  C  C99  1  0.64311471  0.81691295  0.03506423  1.0
  C  C100  1  0.61054610  0.79357089  0.02354597  1.0
  C  C101  1  0.58141715  0.80113011  0.05209460  1.0
  C  C102  1  0.81608625  0.47149682  0.86575201  1.0
  C  C103  1  0.78867294  0.47894043  0.89592800  1.0
  C  C104  1  0.79104424  0.44495089  0.91949332  1.0
  C  C105  1  0.95365253  0.33510340  0.80633576  1.0
  C  C106  1  0.96087208  0.36340849  0.77706468  1.0
  C  C107  1  0.93694910  0.39562850  0.78816052  1.0
  C  C108  1  0.83336184  0.29297931  0.95977298  1.0
  C  C109  1  0.86120029  0.26247031  0.96622446  1.0
  C  C110  1  0.89322038  0.27220852  0.94146903  1.0
  C  C111  1  0.18425507  0.02917322  0.36442813  1.0
  C  C112  1  0.20913669  0.01856960  0.39601220  1.0
  C  C113  1  0.20445085  0.04983070  0.42234482  1.0
  C  C114  1  0.04922968  0.16906980  0.30469218  1.0
  C  C115  1  0.04130337  0.14082272  0.27587074  1.0
  C  C116  1  0.06500184  0.10835081  0.28722593  1.0
  C  C117  1  0.16228398  0.19944076  0.46819913  1.0
  C  C118  1  0.13716296  0.23249498  0.47187631  1.0
  C  C119  1  0.10784700  0.22683322  0.44294088  1.0
  C  C120  1  0.86976958  0.07549389  0.10520967  1.0
  C  C121  1  0.92275605  0.09564850  0.14175772  1.0
  C  C122  1  0.90493102  0.12981853  0.08691817  1.0
  C  C123  1  0.13154160  0.42263312  0.60439134  1.0
  C  C124  1  0.07671713  0.40520255  0.63969365  1.0
  C  C125  1  0.09487159  0.36927723  0.58664940  1.0
  C  C126  1  0.32242861  0.87803245  0.35411227  1.0
  C  C127  1  0.34142661  0.82396483  0.38928088  1.0
  C  C128  1  0.37670664  0.84219547  0.33538696  1.0
  C  C129  1  0.67773280  0.62261872  0.85630906  1.0
  C  C130  1  0.65792607  0.67573458  0.89166660  1.0
  C  C131  1  0.62343614  0.65848179  0.83699400  1.0
  C  C132  1  0.76452251  0.98455507  0.14901064  1.0
  C  C133  1  0.78587439  0.00136065  0.11970692  1.0
  C  C134  1  0.81992711  0.02592180  0.12612383  1.0
  C  C135  1  0.83661996  0.04885699  0.09809135  1.0
  C  C136  1  0.23638078  0.51359318  0.64850642  1.0
  C  C137  1  0.21605505  0.49596435  0.61909341  1.0
  C  C138  1  0.18156747  0.47186094  0.62515249  1.0
  C  C139  1  0.16566682  0.44816195  0.59750699  1.0
  C  C140  1  0.23373540  0.98384930  0.40064543  1.0
  C  C141  1  0.24992453  0.96301220  0.37087400  1.0
  C  C142  1  0.27388582  0.92835801  0.37638803  1.0
  C  C143  1  0.29642647  0.91197344  0.34789691  1.0
  C  C144  1  0.76382846  0.51327330  0.90159259  1.0
  C  C145  1  0.74986014  0.53690652  0.87245529  1.0
  C  C146  1  0.72543028  0.57105317  0.87866397  1.0
  C  C147  1  0.70439503  0.58931098  0.84986774  1.0
  C  C148  1  0.01511205  0.14466527  0.24252394  1.0
  C  C149  1  0.99697496  0.11425502  0.22410619  1.0
  C  C150  1  0.97196694  0.11895845  0.19039709  1.0
  C  C151  1  0.94856282  0.09010678  0.17564705  1.0
  C  C152  1  0.51941661  0.61177960  0.74692305  1.0
  C  C153  1  0.53955460  0.64203742  0.76346770  1.0
  C  C154  1  0.57396995  0.63666573  0.78796539  1.0
  C  C155  1  0.58968259  0.66514962  0.81081785  1.0
  C  C156  1  0.98633206  0.35930986  0.74342256  1.0
  C  C157  1  0.00335617  0.38937227  0.72321053  1.0
  C  C158  1  0.02772145  0.38366938  0.68938571  1.0
  C  C159  1  0.05076806  0.41205185  0.67304658  1.0
  C  C160  1  0.48102184  0.88897891  0.24576557  1.0
  C  C161  1  0.45983180  0.85866121  0.26115630  1.0
  C  C162  1  0.42633238  0.86417039  0.28661098  1.0
  C  C163  1  0.41000080  0.83536050  0.30891380  1.0
  C  C164  1  0.85730222  0.22901197  0.99214232  1.0
  C  C165  1  0.88801690  0.21064157  0.01088915  1.0
  C  C166  1  0.88287375  0.17708182  0.03590825  1.0
  C  C167  1  0.91133924  0.16304405  0.06063610  1.0
  C  C168  1  0.39101525  0.73702178  0.49448758  1.0
  C  C169  1  0.36007900  0.75181142  0.47316524  1.0
  C  C170  1  0.36513690  0.77661028  0.43952998  1.0
  C  C171  1  0.33531571  0.79792883  0.42269098  1.0
  C  C172  1  0.60734203  0.76795407  0.99028010  1.0
  C  C173  1  0.63857736  0.74977789  0.97255857  1.0
  C  C174  1  0.63430004  0.72515062  0.93906814  1.0
  C  C175  1  0.66353425  0.70133146  0.92513168  1.0
  C  C176  1  0.14141916  0.26490612  0.49863303  1.0
  C  C177  1  0.11089435  0.28633160  0.51375874  1.0
  C  C178  1  0.11681710  0.31929123  0.53903238  1.0
  C  C179  1  0.08767658  0.33619633  0.56072009  1.0
  N  N180  1  0.31589433  0.58107579  0.61903398  1.0
  N  N181  1  0.32879325  0.56998270  0.65569706  1.0
  N  N182  1  0.42745974  0.60345456  0.68977595  1.0
  N  N183  1  0.44181806  0.63885223  0.67611985  1.0
  N  N184  1  0.40018706  0.67915554  0.58442088  1.0
  N  N185  1  0.36498982  0.66459784  0.56965306  1.0
  N  N186  1  0.68560870  0.91681683  0.11908555  1.0
  N  N187  1  0.67159184  0.92885626  0.15481343  1.0
  N  N188  1  0.57166209  0.89736368  0.18706969  1.0
  N  N189  1  0.55470525  0.86442443  0.17090153  1.0
  N  N190  1  0.59576541  0.82648677  0.07865750  1.0
  N  N191  1  0.63390548  0.83669798  0.06773113  1.0
  N  N192  1  0.81733951  0.41923707  0.90422139  1.0
  N  N193  1  0.83328005  0.43599459  0.87110838  1.0
  N  N194  1  0.91714809  0.38695126  0.82122505  1.0
  N  N195  1  0.92791338  0.34950970  0.83281170  1.0
  N  N196  1  0.88487932  0.30572462  0.92187338  1.0
  N  N197  1  0.84794035  0.31898549  0.93370354  1.0
  N  N198  1  0.17922451  0.07699349  0.40735124  1.0
  N  N199  1  0.16628435  0.06386149  0.37158876  1.0
  N  N200  1  0.08530226  0.11679523  0.32004030  1.0
  N  N201  1  0.07512168  0.15434837  0.33122140  1.0
  N  N202  1  0.11515634  0.19318949  0.42364020  1.0
  N  N203  1  0.14866476  0.17586287  0.43972142  1.0
  N  N204  1  0.89315626  0.06933235  0.13694083  1.0
  N  N205  1  0.93005667  0.12637315  0.11753704  1.0
  N  N206  1  0.87457386  0.10492050  0.07911668  1.0
  N  N207  1  0.10719431  0.43054083  0.63480173  1.0
  N  N208  1  0.06887403  0.37435096  0.61616672  1.0
  N  N209  1  0.12670313  0.39254715  0.57940307  1.0
  N  N210  1  0.31519981  0.85387270  0.38477587  1.0
  N  N211  1  0.37256421  0.81660484  0.36530770  1.0
  N  N212  1  0.35240783  0.87332083  0.32834601  1.0
  N  N213  1  0.68396543  0.64562788  0.88776522  1.0
  N  N214  1  0.62730461  0.68363496  0.86695755  1.0
  N  N215  1  0.64824552  0.62787183  0.82989445  1.0
