# generated using pymatgen
data_La2Ni3H30C24(NO4)6
_symmetry_space_group_name_H-M   'P 1'
_cell_length_a   7.46910017
_cell_length_b   13.34821672
_cell_length_c   13.34798780
_cell_angle_alpha   59.99838528
_cell_angle_beta   89.99806375
_cell_angle_gamma   89.99815746
_symmetry_Int_Tables_number   1
_chemical_formula_structural   La2Ni3H30C24(NO4)6
_chemical_formula_sum   'La2 Ni3 H30 C24 N6 O24'
_cell_volume   1152.47336974
_cell_formula_units_Z   1
loop_
 _symmetry_equiv_pos_site_id
 _symmetry_equiv_pos_as_xyz
  1  'x, y, z'
loop_
 _atom_site_type_symbol
 _atom_site_label
 _atom_site_symmetry_multiplicity
 _atom_site_fract_x
 _atom_site_fract_y
 _atom_site_fract_z
 _atom_site_occupancy
  La  La0  1  0.66167923  0.33333333  0.33333333  1.0
  La  La1  1  0.33832273  0.66666667  0.66666667  1.0
  Ni  Ni2  1  0.00000096  0.49999958  0.99999937  1.0
  Ni  Ni3  1  0.99999934  0.49999948  0.49999977  1.0
  Ni  Ni4  1  0.00000166  0.00000118  0.50000071  1.0
  H  H5  1  0.29308947  0.55900176  0.17966764  1.0
  H  H6  1  0.29310534  0.26132064  0.55901604  1.0
  H  H7  1  0.29310325  0.17965720  0.26131909  1.0
  H  H8  1  0.70691516  0.44100297  0.82032772  1.0
  H  H9  1  0.70688992  0.73867885  0.44098456  1.0
  H  H10  1  0.70689335  0.82034328  0.73868399  1.0
  H  H11  1  0.40765863  0.61215159  0.04648083  1.0
  H  H12  1  0.40763733  0.34136825  0.61215498  1.0
  H  H13  1  0.40763653  0.04646362  0.34138999  1.0
  H  H14  1  0.59234333  0.38785066  0.95351355  1.0
  H  H15  1  0.59235793  0.65863037  0.38784476  1.0
  H  H16  1  0.59236275  0.95353716  0.65861191  1.0
  H  H17  1  0.15810326  0.68272117  0.95049117  1.0
  H  H18  1  0.15807754  0.36677724  0.68272652  1.0
  H  H19  1  0.15807968  0.95049495  0.36678737  1.0
  H  H20  1  0.84189467  0.31728056  0.04950719  1.0
  H  H21  1  0.84192039  0.63322225  0.31727408  1.0
  H  H22  1  0.84192094  0.04950615  0.63321335  1.0
  H  H23  1  0.91171418  0.72015847  0.02617372  1.0
  H  H24  1  0.91168928  0.25366720  0.72016428  1.0
  H  H25  1  0.91172189  0.02617816  0.25363927  1.0
  H  H26  1  0.08828242  0.27983673  0.97382858  1.0
  H  H27  1  0.08830866  0.74633379  0.27983482  1.0
  H  H28  1  0.08827738  0.97382026  0.74636326  1.0
  H  H29  1  0.06813355  0.68664048  0.13930406  1.0
  H  H30  1  0.06811036  0.17404958  0.68664010  1.0
  H  H31  1  0.06815624  0.13931176  0.17403952  1.0
  H  H32  1  0.93186707  0.31336082  0.86069387  1.0
  H  H33  1  0.93188623  0.82594991  0.31336050  1.0
  H  H34  1  0.93184304  0.86068686  0.82596022  1.0
  C  C35  1  0.31525136  0.43854138  0.11937896  1.0
  C  C36  1  0.31524701  0.44206643  0.43854564  1.0
  C  C37  1  0.31520528  0.11938621  0.44207157  1.0
  C  C38  1  0.68475194  0.56146035  0.88061940  1.0
  C  C39  1  0.68474692  0.55793423  0.56145465  1.0
  C  C40  1  0.68479400  0.88061620  0.55793044  1.0
  C  C41  1  0.29081454  0.56121518  0.09613205  1.0
  C  C42  1  0.29080012  0.34264271  0.56122375  1.0
  C  C43  1  0.29079101  0.09612713  0.34264941  1.0
  C  C44  1  0.70919010  0.43878720  0.90386394  1.0
  C  C45  1  0.70919648  0.65735741  0.43877449  1.0
  C  C46  1  0.70920827  0.90387290  0.65735324  1.0
  C  C47  1  0.99780623  0.65159780  0.09083959  1.0
  C  C48  1  0.99778460  0.25756059  0.65160098  1.0
  C  C49  1  0.99780660  0.09084270  0.25753972  1.0
  C  C50  1  0.00219438  0.34840008  0.90916089  1.0
  C  C51  1  0.00221468  0.74244040  0.34839813  1.0
  C  C52  1  0.00219268  0.90915797  0.74246056  1.0
  C  C53  1  0.87397768  0.55422106  0.17411754  1.0
  C  C54  1  0.87396364  0.27166590  0.55421375  1.0
  C  C55  1  0.87397227  0.17413392  0.27161821  1.0
  C  C56  1  0.12602963  0.44577327  0.82588389  1.0
  C  C57  1  0.12603296  0.72833477  0.44578653  1.0
  C  C58  1  0.12602567  0.82586782  0.72838014  1.0
  N  N59  1  0.12390329  0.61428566  0.03130419  1.0
  N  N60  1  0.12388919  0.35440124  0.61429080  1.0
  N  N61  1  0.12388352  0.03130918  0.35439928  1.0
  N  N62  1  0.87609866  0.38571490  0.96869448  1.0
  N  N63  1  0.87611009  0.64559857  0.38570862  1.0
  N  N64  1  0.87611710  0.96869235  0.64560187  1.0
  O  O65  1  0.44916964  0.38142650  0.17794615  1.0
  O  O66  1  0.44917119  0.44059164  0.38144697  1.0
  O  O67  1  0.44911134  0.17796135  0.44060311  1.0
  O  O68  1  0.55083499  0.61857741  0.82205436  1.0
  O  O69  1  0.55082675  0.55941021  0.61855300  1.0
  O  O70  1  0.55088927  0.82203912  0.55939997  1.0
  O  O71  1  0.20036978  0.39794616  0.07789090  1.0
  O  O72  1  0.20038599  0.52416137  0.39794230  1.0
  O  O73  1  0.20032939  0.07789636  0.52415217  1.0
  O  O74  1  0.79963351  0.60205258  0.92211045  1.0
  O  O75  1  0.79961195  0.47583887  0.60205755  1.0
  O  O76  1  0.79967123  0.92210604  0.47584985  1.0
  O  O77  1  0.88813063  0.45581712  0.17990164  1.0
  O  O78  1  0.88811960  0.36428006  0.45581021  1.0
  O  O79  1  0.88813702  0.17995444  0.36421591  1.0
  O  O80  1  0.11188070  0.54418020  0.82009680  1.0
  O  O81  1  0.11187700  0.63571900  0.54418996  1.0
  O  O82  1  0.11185557  0.82004418  0.63578383  1.0
  O  O83  1  0.76022539  0.57410435  0.23204457  1.0
  O  O84  1  0.76021396  0.19384754  0.57410965  1.0
  O  O85  1  0.76021359  0.23204093  0.19379901  1.0
  O  O86  1  0.23978058  0.42588580  0.76796018  1.0
  O  O87  1  0.23978398  0.80615045  0.42589245  1.0
  O  O88  1  0.23979104  0.76796144  0.80619698  1.0
