# generated using pymatgen
data_Zn2H33C32N2O11
_symmetry_space_group_name_H-M   'P 1'
_cell_length_a   9.88223789
_cell_length_b   11.00796426
_cell_length_c   23.94690127
_cell_angle_alpha   89.91244095
_cell_angle_beta   90.62276224
_cell_angle_gamma   89.96933147
_symmetry_Int_Tables_number   1
_chemical_formula_structural   Zn2H33C32N2O11
_chemical_formula_sum   'Zn4 H66 C64 N4 O22'
_cell_volume   2604.86614339
_cell_formula_units_Z   2
loop_
 _symmetry_equiv_pos_site_id
 _symmetry_equiv_pos_as_xyz
  1  'x, y, z'
loop_
 _atom_site_type_symbol
 _atom_site_label
 _atom_site_symmetry_multiplicity
 _atom_site_fract_x
 _atom_site_fract_y
 _atom_site_fract_z
 _atom_site_occupancy
  Zn  Zn0  1  0.37412208  0.49835493  0.50305456  1.0
  Zn  Zn1  1  0.66408225  0.51742466  0.48973178  1.0
  Zn  Zn2  1  0.62586272  0.49687411  0.04427707  1.0
  Zn  Zn3  1  0.33596028  0.51588519  0.05771696  1.0
  H  H4  1  0.13548893  0.72123429  0.40794775  1.0
  H  H5  1  0.28124888  0.63221570  0.42265684  1.0
  H  H6  1  0.16064331  0.58298799  0.37214296  1.0
  H  H7  1  0.85893369  0.46300060  0.61637056  1.0
  H  H8  1  0.75966395  0.37731451  0.56980006  1.0
  H  H9  1  0.91110941  0.31361189  0.59802857  1.0
  H  H10  1  0.93497722  0.62320093  0.36881497  1.0
  H  H11  1  0.77702956  0.61049690  0.40322458  1.0
  H  H12  1  0.88562442  0.73482315  0.41771924  1.0
  H  H13  1  0.10829691  0.27303723  0.58049271  1.0
  H  H14  1  0.26175126  0.35339162  0.57241188  1.0
  H  H15  1  0.13930209  0.40305241  0.62157101  1.0
  H  H16  1  0.79282320  0.91488812  0.58464431  1.0
  H  H17  1  0.71567452  0.77588030  0.56523034  1.0
  H  H18  1  0.83272165  0.84517674  0.52032359  1.0
  H  H19  1  0.21997641  0.16748345  0.49649461  1.0
  H  H20  1  0.32805083  0.24480149  0.45007101  1.0
  H  H21  1  0.24839975  0.10828936  0.42908914  1.0
  H  H22  1  0.86734093  0.06040447  0.52251291  1.0
  H  H23  1  0.79568385  0.20787811  0.52077047  1.0
  H  H24  1  0.79577762  0.12133466  0.58367028  1.0
  H  H25  1  0.25291364  0.90171448  0.42401326  1.0
  H  H26  1  0.25903730  0.80755877  0.48440436  1.0
  H  H27  1  0.18666792  0.95521435  0.48758912  1.0
  H  H28  1  0.19835917  0.27614849  0.31885442  1.0
  H  H29  1  0.23689311  0.38653530  0.37017770  1.0
  H  H30  1  0.16013989  0.42937228  0.30479262  1.0
  H  H31  1  0.80286680  0.27448385  0.22899060  1.0
  H  H32  1  0.76456650  0.38450300  0.17726076  1.0
  H  H33  1  0.84171591  0.42774371  0.24246798  1.0
  H  H34  1  0.18305382  0.42957003  0.20787661  1.0
  H  H35  1  0.27586457  0.32951798  0.16470684  1.0
  H  H36  1  0.20167103  0.27582690  0.22740834  1.0
  H  H37  1  0.81846698  0.43049772  0.33965559  1.0
  H  H38  1  0.72585763  0.33049257  0.38302249  1.0
  H  H39  1  0.80039436  0.27660422  0.32049952  1.0
  H  H40  1  0.86487607  0.71987549  0.13926080  1.0
  H  H41  1  0.71865953  0.63204858  0.12412378  1.0
  H  H42  1  0.83812116  0.58146407  0.17494544  1.0
  H  H43  1  0.14241244  0.46140065  0.93136059  1.0
  H  H44  1  0.24011560  0.37440158  0.97815160  1.0
  H  H45  1  0.08848327  0.31230277  0.94948828  1.0
  H  H46  1  0.06514901  0.62045155  0.17855959  1.0
  H  H47  1  0.22293640  0.60867852  0.14396553  1.0
  H  H48  1  0.11376240  0.73293495  0.12980404  1.0
  H  H49  1  0.89146994  0.27187598  0.96709202  1.0
  H  H50  1  0.73808671  0.35241275  0.97521212  1.0
  H  H51  1  0.86037740  0.40210292  0.92599978  1.0
  H  H52  1  0.20255932  0.91597557  0.96463576  1.0
  H  H53  1  0.28078440  0.77630236  0.98268501  1.0
  H  H54  1  0.16586687  0.84425207  0.02891434  1.0
  H  H55  1  0.77941702  0.16609886  0.04916762  1.0
  H  H56  1  0.67331868  0.24177345  0.09682960  1.0
  H  H57  1  0.75414421  0.10465546  0.11645620  1.0
  H  H58  1  0.13135642  0.05969453  0.02859704  1.0
  H  H59  1  0.20286166  0.20721145  0.02929988  1.0
  H  H60  1  0.19845434  0.12065963  0.96652613  1.0
  H  H61  1  0.75047406  0.89799303  0.12056421  1.0
  H  H62  1  0.74158219  0.80585906  0.05971121  1.0
  H  H63  1  0.81304191  0.95384474  0.05669190  1.0
  H  H64  1  0.85300305  0.62343536  0.69076181  1.0
  H  H65  1  0.80755608  0.59796308  0.81151522  1.0
  H  H66  1  0.68949682  0.56121796  0.90986804  1.0
  H  H67  1  0.14656697  0.62111972  0.85649295  1.0
  H  H68  1  0.19215471  0.59655543  0.73577291  1.0
  H  H69  1  0.31042628  0.56137250  0.63743513  1.0
  C  C70  1  0.54399599  0.27297915  0.50669305  1.0
  C  C71  1  0.51769609  0.55721793  0.60654500  1.0
  C  C72  1  0.51970982  0.74462022  0.49213487  1.0
  C  C73  1  0.49455482  0.44492764  0.39135113  1.0
  C  C74  1  0.45556593  0.27160940  0.04122314  1.0
  C  C75  1  0.48206871  0.55579766  0.94080530  1.0
  C  C76  1  0.47961582  0.74304750  0.05482851  1.0
  C  C77  1  0.50710770  0.44345586  0.15599075  1.0
  C  C78  1  0.09500240  0.56255695  0.45647867  1.0
  C  C79  1  0.94252096  0.44996413  0.53544188  1.0
  C  C80  1  0.95240536  0.56747867  0.45436791  1.0
  C  C81  1  0.08508409  0.44009442  0.53595056  1.0
  C  C82  1  0.51669708  0.88042384  0.50137238  1.0
  C  C83  1  0.53842219  0.13591504  0.50370624  1.0
  C  C84  1  0.63632475  0.93577189  0.52230110  1.0
  C  C85  1  0.41589954  0.08105807  0.48619104  1.0
  C  C86  1  0.64936303  0.06322713  0.52091996  1.0
  C  C87  1  0.40419827  0.95329059  0.48594035  1.0
  C  C88  1  0.57796723  0.58102329  0.84528047  1.0
  C  C89  1  0.33399738  0.59441974  0.85421268  1.0
  C  C90  1  0.31962288  0.59446396  0.79649199  1.0
  C  C91  1  0.43368790  0.58840585  0.76113433  1.0
  C  C92  1  0.42175567  0.58119404  0.70205294  1.0
  C  C93  1  0.66567053  0.59603172  0.69308112  1.0
  C  C94  1  0.68004336  0.59575677  0.75082039  1.0
  C  C95  1  0.56604348  0.58871162  0.78618304  1.0
  C  C96  1  0.46369883  0.57962905  0.88018459  1.0
  C  C97  1  0.53605054  0.58071327  0.66714559  1.0
  C  C98  1  0.49355211  0.39847432  0.33214320  1.0
  C  C99  1  0.50821861  0.39746695  0.21531980  1.0
  C  C100  1  0.37332562  0.38346259  0.30003810  1.0
  C  C101  1  0.62841625  0.38275473  0.24748443  1.0
  C  C102  1  0.38160756  0.37994538  0.24134607  1.0
  C  C103  1  0.62017989  0.38034625  0.30620412  1.0
  C  C104  1  0.90485127  0.56141362  0.09076976  1.0
  C  C105  1  0.05750277  0.44835232  0.01207781  1.0
  C  C106  1  0.04744983  0.56595874  0.09292995  1.0
  C  C107  1  0.91493971  0.43874970  0.01154133  1.0
  C  C108  1  0.48250279  0.87892050  0.04560663  1.0
  C  C109  1  0.46091504  0.13453040  0.04410959  1.0
  C  C110  1  0.36204162  0.93487220  0.02573326  1.0
  C  C111  1  0.58413245  0.07913773  0.06052635  1.0
  C  C112  1  0.34914679  0.06231995  0.02760672  1.0
  C  C113  1  0.59579890  0.95135631  0.06027975  1.0
  C  C114  1  0.17342674  0.62808629  0.41277083  1.0
  C  C115  1  0.86390284  0.39668333  0.58206330  1.0
  C  C116  1  0.88297137  0.63678858  0.40858119  1.0
  C  C117  1  0.15360460  0.36423726  0.57973047  1.0
  C  C118  1  0.74966424  0.86372232  0.54940183  1.0
  C  C119  1  0.29768833  0.15475420  0.46436244  1.0
  C  C120  1  0.78396949  0.11681208  0.53790010  1.0
  C  C121  1  0.26856745  0.90072194  0.46966894  1.0
  C  C122  1  0.23500271  0.36968552  0.32536042  1.0
  C  C123  1  0.76656803  0.36812411  0.22214866  1.0
  C  C124  1  0.25460187  0.35288016  0.20809781  1.0
  C  C125  1  0.74720932  0.35368856  0.33958273  1.0
  C  C126  1  0.82629656  0.62704852  0.13432578  1.0
  C  C127  1  0.13626512  0.39483649  0.96560849  1.0
  C  C128  1  0.11685015  0.63477371  0.13875381  1.0
  C  C129  1  0.84623749  0.36312789  0.96787058  1.0
  C  C130  1  0.24747091  0.86365822  0.99923085  1.0
  C  C131  1  0.70321317  0.15220787  0.08181665  1.0
  C  C132  1  0.21349766  0.11616345  0.01214758  1.0
  C  C133  1  0.73240657  0.89852326  0.07505279  1.0
  N  N134  1  0.15911234  0.49851178  0.49717499  1.0
  N  N135  1  0.87854504  0.51194470  0.49408424  1.0
  N  N136  1  0.84085575  0.49742129  0.05015053  1.0
  N  N137  1  0.12141036  0.51027587  0.05335138  1.0
  O  O138  1  0.44358884  0.32685187  0.52868600  1.0
  O  O139  1  0.64669201  0.32917508  0.48736812  1.0
  O  O140  1  0.61853090  0.54743852  0.57489213  1.0
  O  O141  1  0.39340991  0.54420396  0.58862912  1.0
  O  O142  1  0.63491766  0.69955109  0.48088676  1.0
  O  O143  1  0.41114977  0.68167304  0.49508963  1.0
  O  O144  1  0.39262903  0.42910566  0.42316215  1.0
  O  O145  1  0.59868980  0.50484627  0.40641017  1.0
  O  O146  1  0.55567436  0.32542412  0.01895729  1.0
  O  O147  1  0.35317828  0.32791701  0.06075392  1.0
  O  O148  1  0.38124438  0.54556422  0.97242503  1.0
  O  O149  1  0.60643516  0.54301571  0.95871604  1.0
  O  O150  1  0.36445375  0.69788450  0.06607321  1.0
  O  O151  1  0.58826377  0.68008757  0.05206076  1.0
  O  O152  1  0.60871948  0.42688840  0.12409643  1.0
  O  O153  1  0.40322847  0.50396667  0.14094856  1.0
  O  O154  1  0.78107299  0.61199341  0.66259540  1.0
  O  O155  1  0.81098926  0.60636512  0.77033574  1.0
  O  O156  1  0.70552621  0.57227067  0.86727355  1.0
  O  O157  1  0.21849985  0.60980086  0.88469260  1.0
  O  O158  1  0.18859689  0.60443710  0.77696897  1.0
  O  O159  1  0.29429123  0.57191513  0.68005856  1.0
