# generated using pymatgen
data_CoH12C19N2O5
_symmetry_space_group_name_H-M   'P 1'
_cell_length_a   5.84880095
_cell_length_b   15.64833679
_cell_length_c   22.57111557
_cell_angle_alpha   96.18910687
_cell_angle_beta   89.99920133
_cell_angle_gamma   89.99814335
_symmetry_Int_Tables_number   1
_chemical_formula_structural   CoH12C19N2O5
_chemical_formula_sum   'Co4 H48 C76 N8 O20'
_cell_volume   2053.75838729
_cell_formula_units_Z   4
loop_
 _symmetry_equiv_pos_site_id
 _symmetry_equiv_pos_as_xyz
  1  'x, y, z'
loop_
 _atom_site_type_symbol
 _atom_site_label
 _atom_site_symmetry_multiplicity
 _atom_site_fract_x
 _atom_site_fract_y
 _atom_site_fract_z
 _atom_site_occupancy
  Co  Co0  1  0.37118766  0.23851196  0.15346779  1.0
  Co  Co1  1  0.87117344  0.26147732  0.34653396  1.0
  Co  Co2  1  0.62883187  0.76148285  0.84652684  1.0
  Co  Co3  1  0.12884267  0.73851418  0.65347148  1.0
  H  H4  1  0.40232393  0.03626755  0.31203014  1.0
  H  H5  1  0.90229096  0.46371934  0.18797794  1.0
  H  H6  1  0.59765970  0.96373942  0.68797165  1.0
  H  H7  1  0.09775422  0.53627404  0.81203297  1.0
  H  H8  1  0.05554029  0.94441690  0.28096404  1.0
  H  H9  1  0.55546297  0.55556169  0.21903340  1.0
  H  H10  1  0.94446385  0.05558244  0.71902784  1.0
  H  H11  1  0.44457195  0.44443623  0.78097388  1.0
  H  H12  1  0.95215403  0.10369565  0.13828854  1.0
  H  H13  1  0.45209837  0.39629453  0.36171252  1.0
  H  H14  1  0.04788260  0.89631587  0.86170741  1.0
  H  H15  1  0.54791090  0.60368930  0.63828833  1.0
  H  H16  1  0.09867681  0.88649461  0.12189054  1.0
  H  H17  1  0.59853728  0.61351849  0.37807003  1.0
  H  H18  1  0.90138717  0.11353063  0.87808257  1.0
  H  H19  1  0.40149593  0.38647753  0.62193356  1.0
  H  H20  1  0.41694581  0.99069246  0.13097971  1.0
  H  H21  1  0.91683807  0.50930069  0.36903074  1.0
  H  H22  1  0.58307714  0.00930942  0.86901592  1.0
  H  H23  1  0.08319343  0.49068955  0.63097106  1.0
  H  H24  1  0.29300686  0.42357252  0.12833523  1.0
  H  H25  1  0.79296150  0.07643063  0.37166616  1.0
  H  H26  1  0.70701951  0.57642473  0.87167510  1.0
  H  H27  1  0.20697938  0.92357000  0.62832494  1.0
  H  H28  1  0.49265302  0.52994045  0.07115804  1.0
  H  H29  1  0.99259097  0.97005438  0.42884471  1.0
  H  H30  1  0.50732547  0.47007159  0.92885346  1.0
  H  H31  1  0.00725075  0.02992439  0.57114644  1.0
  H  H32  1  0.81809022  0.57011878  0.01592875  1.0
  H  H33  1  0.31803606  0.92986985  0.48408129  1.0
  H  H34  1  0.18187973  0.42990235  0.98407151  1.0
  H  H35  1  0.68178343  0.07008742  0.51594050  1.0
  H  H36  1  0.04048379  0.34307855  0.04029561  1.0
  H  H37  1  0.54042036  0.15690014  0.45970972  1.0
  H  H38  1  0.95951864  0.65694338  0.95968831  1.0
  H  H39  1  0.45944871  0.84305630  0.54033327  1.0
  H  H40  1  0.82235110  0.24847794  0.09784334  1.0
  H  H41  1  0.32231134  0.25150492  0.40215455  1.0
  H  H42  1  0.17768040  0.75152986  0.90213681  1.0
  H  H43  1  0.67765519  0.74846898  0.59787697  1.0
  H  H44  1  0.35288648  0.93273170  0.02402007  1.0
  H  H45  1  0.85283355  0.56728227  0.47598430  1.0
  H  H46  1  0.64714502  0.06728700  0.97596537  1.0
  H  H47  1  0.14719624  0.43271377  0.52401796  1.0
  H  H48  1  0.03471143  0.83027706  0.01506984  1.0
  H  H49  1  0.53462688  0.66975296  0.48488965  1.0
  H  H50  1  0.96534058  0.16976689  0.98489721  1.0
  H  H51  1  0.46540975  0.33024627  0.51511507  1.0
  C  C52  1  0.55569771  0.17341827  0.25498551  1.0
  C  C53  1  0.05568790  0.32656540  0.24501617  1.0
  C  C54  1  0.44430472  0.82658032  0.74501872  1.0
  C  C55  1  0.94432308  0.67342160  0.75498847  1.0
  C  C56  1  0.35597590  0.11520695  0.24092330  1.0
  C  C57  1  0.85594306  0.38477735  0.25908211  1.0
  C  C58  1  0.64403337  0.88480390  0.75907703  1.0
  C  C59  1  0.14408331  0.61520706  0.74092499  1.0
  C  C60  1  0.29819699  0.04809419  0.27376893  1.0
  C  C61  1  0.79815127  0.45189859  0.22623339  1.0
  C  C62  1  0.70180202  0.95191988  0.72622988  1.0
  C  C63  1  0.20187851  0.54808775  0.77377386  1.0
  C  C64  1  0.10800568  0.99782109  0.25685335  1.0
  C  C65  1  0.60794045  0.50216517  0.24314714  1.0
  C  C66  1  0.89200188  0.00218851  0.74314200  1.0
  C  C67  1  0.39209618  0.49782053  0.75686050  1.0
  C  C68  1  0.98254531  0.01717769  0.20744936  1.0
  C  C69  1  0.48245971  0.48280828  0.29254725  1.0
  C  C70  1  0.01746567  0.98283006  0.79253743  1.0
  C  C71  1  0.51755127  0.51717867  0.70746359  1.0
  C  C72  1  0.04912265  0.08620137  0.17649554  1.0
  C  C73  1  0.54906539  0.41378687  0.32350830  1.0
  C  C74  1  0.95090543  0.91381339  0.82349801  1.0
  C  C75  1  0.45094730  0.58620012  0.67649812  1.0
  C  C76  1  0.75924206  0.94098513  0.13188018  1.0
  C  C77  1  0.25910794  0.55901726  0.36811345  1.0
  C  C78  1  0.24081338  0.05903229  0.86810427  1.0
  C  C79  1  0.74092185  0.44097553  0.63189165  1.0
  C  C80  1  0.93578522  0.89640740  0.10020424  1.0
  C  C81  1  0.43565766  0.60360191  0.39977018  1.0
  C  C82  1  0.06426508  0.10361779  0.89977329  1.0
  C  C83  1  0.56437555  0.39639410  0.60023473  1.0
  C  C84  1  0.54829803  0.95375495  0.10552225  1.0
  C  C85  1  0.04820311  0.54625851  0.39447132  1.0
  C  C86  1  0.45175569  0.04626503  0.89446373  1.0
  C  C87  1  0.95184036  0.45373880  0.60553192  1.0
  C  C88  1  0.45859577  0.40925382  0.10739919  1.0
  C  C89  1  0.95853278  0.09073824  0.39259845  1.0
  C  C90  1  0.54142547  0.59075055  0.89260638  1.0
  C  C91  1  0.04136194  0.90924628  0.60739670  1.0
  C  C92  1  0.57137775  0.46779912  0.07578133  1.0
  C  C93  1  0.07131000  0.03219466  0.42421842  1.0
  C  C94  1  0.42864349  0.53221554  0.92422373  1.0
  C  C95  1  0.92855736  0.96778212  0.57577921  1.0
  C  C96  1  0.78554799  0.44666246  0.04932793  1.0
  C  C97  1  0.28548910  0.05332535  0.45067360  1.0
  C  C98  1  0.21444589  0.55336125  0.95067252  1.0
  C  C99  1  0.71438168  0.94663132  0.54934283  1.0
  C  C100  1  0.90148784  0.50756408  0.01558114  1.0
  C  C101  1  0.40141450  0.99242546  0.48442377  1.0
  C  C102  1  0.09848040  0.49246155  0.98442080  1.0
  C  C103  1  0.59838447  0.00754154  0.51558816  1.0
  C  C104  1  0.87512014  0.36534224  0.05798415  1.0
  C  C105  1  0.37505624  0.13463800  0.44201598  1.0
  C  C106  1  0.12488401  0.63467897  0.94200813  1.0
  C  C107  1  0.62481796  0.86532247  0.55800650  1.0
  C  C108  1  0.75360965  0.31102309  0.09082841  1.0
  C  C109  1  0.25357162  0.18896388  0.40916920  1.0
  C  C110  1  0.24642185  0.68898593  0.90916025  1.0
  C  C111  1  0.74638807  0.81101847  0.59085280  1.0
  C  C112  1  0.51430754  0.92199424  0.04615232  1.0
  C  C113  1  0.01421385  0.57802993  0.45384268  1.0
  C  C114  1  0.48575131  0.07803669  0.95383231  1.0
  C  C115  1  0.98582107  0.42196609  0.54616090  1.0
  C  C116  1  0.68919055  0.87760749  0.01339358  1.0
  C  C117  1  0.18911707  0.62241708  0.48659323  1.0
  C  C118  1  0.31084778  0.12242732  0.98658782  1.0
  C  C119  1  0.81091272  0.37757765  0.51341114  1.0
  C  C120  1  0.89979431  0.86495725  0.04092219  1.0
  C  C121  1  0.39971418  0.63506157  0.45904693  1.0
  C  C122  1  0.10024916  0.13507441  0.95905187  1.0
  C  C123  1  0.60030193  0.36493254  0.54095429  1.0
  C  C124  1  0.65222378  0.84335149  0.95006087  1.0
  C  C125  1  0.15221419  0.65665752  0.54993077  1.0
  C  C126  1  0.34777010  0.15667042  0.04992393  1.0
  C  C127  1  0.84780534  0.34333271  0.45007324  1.0
  N  N128  1  0.54645120  0.33139229  0.11496031  1.0
  N  N129  1  0.04642122  0.16859796  0.38503794  1.0
  N  N130  1  0.45357517  0.66860763  0.88503827  1.0
  N  N131  1  0.95354188  0.83139224  0.61496873  1.0
  N  N132  1  0.23294247  0.13355548  0.19320255  1.0
  N  N133  1  0.73290042  0.36643490  0.30680205  1.0
  N  N134  1  0.76706852  0.86644958  0.80679687  1.0
  N  N135  1  0.26711740  0.63355725  0.69320344  1.0
  O  O136  1  0.61372558  0.22080499  0.21488363  1.0
  O  O137  1  0.11369750  0.27917990  0.28511349  1.0
  O  O138  1  0.38630592  0.77919557  0.78511500  1.0
  O  O139  1  0.88631861  0.72081099  0.71488836  1.0
  O  O140  1  0.78746392  0.97062013  0.19203532  1.0
  O  O141  1  0.28735065  0.52934464  0.30795257  1.0
  O  O142  1  0.21259152  0.02937991  0.80795041  1.0
  O  O143  1  0.71268940  0.47064301  0.69205124  1.0
  O  O144  1  0.81474002  0.79930102  0.92263337  1.0
  O  O145  1  0.31473552  0.70070725  0.57735225  1.0
  O  O146  1  0.18523335  0.20071571  0.07735635  1.0
  O  O147  1  0.68526178  0.29929199  0.42265026  1.0
  O  O148  1  0.46583869  0.85512302  0.92346769  1.0
  O  O149  1  0.96586632  0.64487028  0.57653830  1.0
  O  O150  1  0.53414494  0.14488855  0.07652383  1.0
  O  O151  1  0.03416518  0.35511092  0.42346854  1.0
  O  O152  1  0.65552731  0.17192455  0.30487160  1.0
  O  O153  1  0.15552145  0.32806937  0.19513580  1.0
  O  O154  1  0.34445631  0.82808305  0.69513245  1.0
  O  O155  1  0.84447244  0.67191506  0.80486864  1.0
