# generated using pymatgen
data_ZnH11C30NO22
_symmetry_space_group_name_H-M   'P 1'
_cell_length_a   10.61997620
_cell_length_b   14.50955658
_cell_length_c   14.86012983
_cell_angle_alpha   91.78511943
_cell_angle_beta   93.27491386
_cell_angle_gamma   91.01941530
_symmetry_Int_Tables_number   1
_chemical_formula_structural   ZnH11C30NO22
_chemical_formula_sum   'Zn2 H22 C60 N2 O44'
_cell_volume   2284.52603092
_cell_formula_units_Z   2
loop_
 _symmetry_equiv_pos_site_id
 _symmetry_equiv_pos_as_xyz
  1  'x, y, z'
loop_
 _atom_site_type_symbol
 _atom_site_label
 _atom_site_symmetry_multiplicity
 _atom_site_fract_x
 _atom_site_fract_y
 _atom_site_fract_z
 _atom_site_occupancy
  Zn  Zn0  1  0.48924058  0.61259743  0.50739953  1.0
  Zn  Zn1  1  0.49360058  0.40070073  0.49924569  1.0
  H  H2  1  0.10589288  0.52353655  0.39835694  1.0
  H  H3  1  0.06123251  0.51719722  0.17364858  1.0
  H  H4  1  0.15637658  0.28868144  0.77482026  1.0
  H  H5  1  0.91759608  0.38486779  0.20803995  1.0
  H  H6  1  0.17805265  0.25266773  0.14465790  1.0
  H  H7  1  0.96185299  0.42602264  0.85825827  1.0
  H  H8  1  0.74035941  0.67768285  0.66154157  1.0
  H  H9  1  0.37166890  0.29714752  0.22822004  1.0
  H  H10  1  0.24228750  0.63363741  0.35283372  1.0
  H  H11  1  0.64102547  0.29671239  0.73111111  1.0
  H  H12  1  0.08900436  0.88635858  0.22946860  1.0
  H  H13  1  0.88798546  0.44651073  0.66532966  1.0
  H  H14  1  0.94347531  0.15820212  0.50705028  1.0
  H  H15  1  0.89326542  0.87296575  0.71891715  1.0
  H  H16  1  0.04676848  0.13986983  0.31620719  1.0
  H  H17  1  0.34149587  0.45484548  0.75559942  1.0
  H  H18  1  0.67105537  0.52009230  0.25248986  1.0
  H  H19  1  0.95925780  0.76613065  0.41091212  1.0
  H  H20  1  0.00052439  0.20866146  0.66119165  1.0
  H  H21  1  0.23704241  0.65600891  0.73922992  1.0
  H  H22  1  0.81708928  0.27228306  0.33112536  1.0
  H  H23  1  0.89946877  0.63782862  0.81095111  1.0
  C  C24  1  0.46076190  0.51451135  0.33595543  1.0
  C  C25  1  0.74462608  0.49865601  0.98428281  1.0
  C  C26  1  0.55277658  0.81965253  0.55975594  1.0
  C  C27  1  0.42716090  0.20197529  0.41812863  1.0
  C  C28  1  0.39705232  0.81008957  0.44209437  1.0
  C  C29  1  0.58310556  0.20412545  0.53500907  1.0
  C  C30  1  0.39351259  0.90743294  0.43589077  1.0
  C  C31  1  0.59244567  0.10758384  0.53052789  1.0
  C  C32  1  0.57366998  0.91454008  0.54785573  1.0
  C  C33  1  0.41036645  0.10472919  0.42039032  1.0
  C  C34  1  0.48758670  0.95976146  0.48747392  1.0
  C  C35  1  0.52973207  0.52056570  0.67270952  1.0
  C  C36  1  0.49588326  0.05728119  0.47936566  1.0
  C  C37  1  0.30310823  0.95610035  0.37929698  1.0
  C  C38  1  0.69408865  0.05838269  0.57427149  1.0
  C  C39  1  0.68321040  0.96534168  0.58621556  1.0
  C  C40  1  0.31260256  0.05040902  0.37024233  1.0
  C  C41  1  0.73139771  0.50531169  0.49662419  1.0
  C  C42  1  0.26489909  0.46605182  0.54068794  1.0
  C  C43  1  0.97835754  0.57588747  0.51435643  1.0
  C  C44  1  0.01926587  0.39507233  0.55263763  1.0
  C  C45  1  0.04373811  0.54031896  0.60442700  1.0
  C  C46  1  0.51593669  0.47832349  0.95688959  1.0
  C  C47  1  0.95671295  0.42921572  0.46060661  1.0
  C  C48  1  0.05734207  0.50690733  0.45852752  1.0
  C  C49  1  0.93819053  0.46392050  0.60613945  1.0
  C  C50  1  0.12538147  0.47282450  0.54686814  1.0
  C  C51  1  0.87166531  0.49787507  0.51536625  1.0
  C  C52  1  0.63696741  0.52778862  0.83153617  1.0
  C  C53  1  0.36368276  0.48226847  0.17663567  1.0
  C  C54  1  0.53026462  0.50888402  0.77293151  1.0
  C  C55  1  0.46992257  0.50331615  0.23550531  1.0
  C  C56  1  0.41991177  0.47186787  0.80409603  1.0
  C  C57  1  0.50241027  0.47572715  0.05135381  1.0
  C  C58  1  0.59097719  0.50584429  0.20451082  1.0
  C  C59  1  0.40905557  0.45920424  0.89624958  1.0
  C  C60  1  0.60868121  0.49596295  0.11206018  1.0
  C  C61  1  0.98219064  0.67718830  0.49927074  1.0
  C  C62  1  0.03537966  0.29644088  0.57200517  1.0
  C  C63  1  0.08788928  0.60181478  0.68301158  1.0
  C  C64  1  0.92398978  0.36894976  0.37977897  1.0
  C  C65  1  0.74335299  0.57618061  0.79157117  1.0
  C  C66  1  0.23793768  0.50557555  0.21012299  1.0
  C  C67  1  0.19911623  0.38320918  0.86172934  1.0
  C  C68  1  0.63442924  0.50366687  0.92311686  1.0
  C  C69  1  0.84216622  0.48344495  0.14100756  1.0
  C  C70  1  0.19549689  0.34219281  0.05258523  1.0
  C  C71  1  0.87381844  0.48170321  0.95251874  1.0
  C  C72  1  0.61406089  0.77246556  0.64013598  1.0
  C  C73  1  0.35648936  0.25803814  0.34797333  1.0
  C  C74  1  0.32921045  0.74945857  0.36991878  1.0
  C  C75  1  0.65713584  0.25894357  0.60945674  1.0
  C  C76  1  0.18727030  0.90562009  0.33865705  1.0
  C  C77  1  0.82358408  0.10378066  0.58413100  1.0
  C  C78  1  0.80347090  0.91865519  0.61748436  1.0
  C  C79  1  0.38195566  0.45668414  0.08522358  1.0
  C  C80  1  0.21321609  0.09681650  0.31117845  1.0
  C  C81  1  0.29879549  0.41796571  0.93141882  1.0
  C  C82  1  0.73110896  0.49741272  0.07564289  1.0
  C  C83  1  0.28822094  0.41176547  0.02300543  1.0
  N  N84  1  0.47135910  0.76817684  0.50478595  1.0
  N  N85  1  0.50453601  0.24976771  0.47885773  1.0
  O  O86  1  0.48859716  0.59295307  0.37238441  1.0
  O  O87  1  0.93463648  0.70094965  0.41732427  1.0
  O  O88  1  0.04367870  0.23739392  0.51097841  1.0
  O  O89  1  0.03209228  0.27464333  0.65944805  1.0
  O  O90  1  0.02076322  0.63730431  0.73875415  1.0
  O  O91  1  0.21406949  0.61306164  0.68842991  1.0
  O  O92  1  0.97875281  0.37652355  0.30909003  1.0
  O  O93  1  0.83286455  0.30531534  0.38933193  1.0
  O  O94  1  0.75075210  0.57734477  0.70865206  1.0
  O  O95  1  0.82621435  0.62199145  0.84785260  1.0
  O  O96  1  0.22630461  0.54148263  0.28572395  1.0
  O  O97  1  0.54894037  0.44606164  0.62929155  1.0
  O  O98  1  0.14149186  0.49213826  0.15034712  1.0
  O  O99  1  0.11546470  0.43383414  0.83285177  1.0
  O  O100  1  0.21975668  0.29955478  0.82578210  1.0
  O  O101  1  0.90404392  0.54576143  0.18175668  1.0
  O  O102  1  0.85789641  0.39356459  0.15362973  1.0
  O  O103  1  0.10312071  0.31324017  0.00723107  1.0
  O  O104  1  0.23454001  0.30472154  0.13275624  1.0
  O  O105  1  0.97010521  0.50601920  0.99625786  1.0
  O  O106  1  0.87206017  0.43160954  0.87425552  1.0
  O  O107  1  0.56644685  0.77919762  0.71274805  1.0
  O  O108  1  0.49974897  0.59823627  0.64251008  1.0
  O  O109  1  0.71690712  0.72853547  0.61899575  1.0
  O  O110  1  0.25140334  0.28735287  0.35795771  1.0
  O  O111  1  0.42390067  0.26594829  0.27509437  1.0
  O  O112  1  0.34135970  0.76565077  0.29034855  1.0
  O  O113  1  0.26352406  0.68120386  0.40223332  1.0
  O  O114  1  0.75835987  0.29735281  0.60191308  1.0
  O  O115  1  0.59520840  0.25589818  0.68588769  1.0
  O  O116  1  0.11858514  0.85887919  0.38294477  1.0
  O  O117  1  0.16565204  0.92133635  0.25022109  1.0
  O  O118  1  0.88560793  0.11911693  0.65598887  1.0
  O  O119  1  0.43666489  0.44021408  0.37455326  1.0
  O  O120  1  0.86003038  0.12162714  0.50271370  1.0
  O  O121  1  0.88413753  0.90226986  0.56470622  1.0
  O  O122  1  0.81278927  0.90385143  0.70649490  1.0
  O  O123  1  0.22915086  0.12471111  0.23606258  1.0
  O  O124  1  0.10463155  0.10304083  0.35354021  1.0
  O  O125  1  0.68350192  0.58350823  0.50726321  1.0
  O  O126  1  0.31625809  0.38755849  0.54753770  1.0
  O  O127  1  0.31716253  0.54062824  0.51977957  1.0
  O  O128  1  0.67465073  0.42992886  0.47146235  1.0
  O  O129  1  0.03458558  0.73111390  0.55472035  1.0
