# generated using pymatgen
data_NiH8(C3N)4
_symmetry_space_group_name_H-M   'P 1'
_cell_length_a   6.72310259
_cell_length_b   13.23637763
_cell_length_c   13.63522266
_cell_angle_alpha   60.96236225
_cell_angle_beta   75.75563292
_cell_angle_gamma   90.01188135
_symmetry_Int_Tables_number   1
_chemical_formula_structural   NiH8(C3N)4
_chemical_formula_sum   'Ni2 H16 C24 N8'
_cell_volume   1017.95430476
_cell_formula_units_Z   2
loop_
 _symmetry_equiv_pos_site_id
 _symmetry_equiv_pos_as_xyz
  1  'x, y, z'
loop_
 _atom_site_type_symbol
 _atom_site_label
 _atom_site_symmetry_multiplicity
 _atom_site_fract_x
 _atom_site_fract_y
 _atom_site_fract_z
 _atom_site_occupancy
  Ni  Ni0  1  0.99999872  0.99999920  0.49999979  1.0
  Ni  Ni1  1  0.49999805  0.00000007  0.49999954  1.0
  H  H2  1  0.86779499  0.00372394  0.90594556  1.0
  H  H3  1  0.77358972  0.99611896  0.09431384  1.0
  H  H4  1  0.72645383  0.59040916  0.90562480  1.0
  H  H5  1  0.63217297  0.40959356  0.09402869  1.0
  H  H6  1  0.13220288  0.99627376  0.09405508  1.0
  H  H7  1  0.22641120  0.00388059  0.90568497  1.0
  H  H8  1  0.27354841  0.40959026  0.09437500  1.0
  H  H9  1  0.36783278  0.59040464  0.90597058  1.0
  H  H10  1  0.31352465  0.00526307  0.72925286  1.0
  H  H11  1  0.04202687  0.99405741  0.27076686  1.0
  H  H12  1  0.45787592  0.76483313  0.72928238  1.0
  H  H13  1  0.18654156  0.23471580  0.27066257  1.0
  H  H14  1  0.68647605  0.99473691  0.27074639  1.0
  H  H15  1  0.95797559  0.00594306  0.72923104  1.0
  H  H16  1  0.54211994  0.23516915  0.27072154  1.0
  H  H17  1  0.81345805  0.76528313  0.72933598  1.0
  C  C18  1  0.47994095  0.00712740  0.71209093  1.0
  C  C19  1  0.19129406  0.99248280  0.28795029  1.0
  C  C20  1  0.30870369  0.78040423  0.71199847  1.0
  C  C21  1  0.02008526  0.21937852  0.28792910  1.0
  C  C22  1  0.52005975  0.99287331  0.28790760  1.0
  C  C23  1  0.80870839  0.00751767  0.71204761  1.0
  C  C24  1  0.69129567  0.21959905  0.28800273  1.0
  C  C25  1  0.97991148  0.78062279  0.71207231  1.0
  C  C26  1  0.61139709  0.00753704  0.77777394  1.0
  C  C27  1  0.38860361  0.99246293  0.22222532  1.0
  C  C28  1  0.11142949  0.71459293  0.77772088  1.0
  C  C29  1  0.88856943  0.28540973  0.22228267  1.0
  C  C30  1  0.55517150  0.00457032  0.88974774  1.0
  C  C31  1  0.44482789  0.99542831  0.11025198  1.0
  C  C32  1  0.05523370  0.60558981  0.88970104  1.0
  C  C33  1  0.94476873  0.39441310  0.11030052  1.0
  C  C34  1  0.70541920  0.00217658  0.94645540  1.0
  C  C35  1  0.65177914  0.99769838  0.05372425  1.0
  C  C36  1  0.84822634  0.55138545  0.94623940  1.0
  C  C37  1  0.79451614  0.44865421  0.05356969  1.0
  C  C38  1  0.29458020  0.99782204  0.05354432  1.0
  C  C39  1  0.34822026  0.00229949  0.94627621  1.0
  C  C40  1  0.15177500  0.44861642  0.05376145  1.0
  C  C41  1  0.20548675  0.55134711  0.94643170  1.0
  N  N42  1  0.59177373  0.00708184  0.61531885  1.0
  N  N43  1  0.20625050  0.99268952  0.38470590  1.0
  N  N44  1  0.29368951  0.87737601  0.61527848  1.0
  N  N45  1  0.90830200  0.12248917  0.38468564  1.0
  N  N46  1  0.40822544  0.99291794  0.38468059  1.0
  N  N47  1  0.79374866  0.00731099  0.61529282  1.0
  N  N48  1  0.70630943  0.12262494  0.38472068  1.0
  N  N49  1  0.09169564  0.87750968  0.61531472  1.0
