# generated using pymatgen
data_Zn2H9C44N4Cl6(O4F3)3
_symmetry_space_group_name_H-M   'P 1'
_cell_length_a   9.85351683
_cell_length_b   10.99585823
_cell_length_c   23.23244190
_cell_angle_alpha   90.73370843
_cell_angle_beta   91.05701572
_cell_angle_gamma   90.23189862
_symmetry_Int_Tables_number   1
_chemical_formula_structural   Zn2H9C44N4Cl6(O4F3)3
_chemical_formula_sum   'Zn2 H9 C44 N4 Cl6 O12 F9'
_cell_volume   2516.52789730
_cell_formula_units_Z   1
loop_
 _symmetry_equiv_pos_site_id
 _symmetry_equiv_pos_as_xyz
  1  'x, y, z'
loop_
 _atom_site_type_symbol
 _atom_site_label
 _atom_site_symmetry_multiplicity
 _atom_site_fract_x
 _atom_site_fract_y
 _atom_site_fract_z
 _atom_site_occupancy
  Zn  Zn0  1  0.36569001  0.52673141  0.49902350  1.0
  Zn  Zn1  1  0.64556163  0.52331928  0.50023745  1.0
  H  H2  1  0.80069130  0.23205206  0.94310710  1.0
  H  H3  1  0.38479193  0.30650976  0.65326773  1.0
  H  H4  1  0.61410946  0.55337754  0.80763189  1.0
  H  H5  1  0.26145431  0.89439673  0.42138800  1.0
  H  H6  1  0.26445153  0.12275145  0.41460324  1.0
  H  H7  1  0.85190168  0.48431918  0.36284472  1.0
  H  H8  1  0.15916504  0.43916191  0.94347945  1.0
  H  H9  1  0.66474448  0.60370406  0.30227777  1.0
  H  H10  1  0.36570403  0.32582250  0.33707459  1.0
  C  C11  1  0.49472350  0.29152092  0.50404901  1.0
  C  C12  1  0.71296543  0.26244074  0.96716439  1.0
  C  C13  1  0.71756733  0.26320645  0.02789243  1.0
  C  C14  1  0.60745097  0.30597426  0.05990132  1.0
  C  C15  1  0.48766238  0.34378420  0.02950134  1.0
  C  C16  1  0.37166245  0.38673151  0.05941433  1.0
  C  C17  1  0.25538366  0.41612772  0.02721114  1.0
  C  C18  1  0.25054870  0.41206495  0.96700403  1.0
  C  C19  1  0.61308836  0.31540030  0.12374047  1.0
  C  C20  1  0.37760995  0.40744329  0.12227046  1.0
  C  C21  1  0.59380694  0.49439372  0.23027104  1.0
  C  C22  1  0.51489498  0.50444835  0.38863179  1.0
  C  C23  1  0.59980343  0.52850826  0.28791507  1.0
  C  C24  1  0.51595402  0.46784073  0.32628851  1.0
  C  C25  1  0.43167576  0.37216531  0.30735134  1.0
  C  C26  1  0.43277355  0.33829886  0.24975298  1.0
  C  C27  1  0.51115692  0.39918710  0.20966049  1.0
  C  C28  1  0.43337059  0.32393858  0.74361544  1.0
  C  C29  1  0.43700650  0.36031072  0.68669377  1.0
  C  C30  1  0.50791374  0.46604665  0.67272058  1.0
  C  C31  1  0.57266446  0.53483153  0.71642988  1.0
  C  C32  1  0.56607637  0.49862345  0.77354029  1.0
  C  C33  1  0.50657469  0.75820887  0.50865859  1.0
  C  C34  1  0.49668432  0.39254468  0.78733517  1.0
  C  C35  1  0.39021407  0.08457773  0.49326776  1.0
  C  C36  1  0.49739455  0.15717314  0.51343050  1.0
  C  C37  1  0.60386997  0.09496406  0.54165724  1.0
  C  C38  1  0.60732672  0.96552750  0.54326797  1.0
  C  C39  1  0.50345560  0.89336730  0.51684692  1.0
  C  C40  1  0.39264876  0.95840219  0.49513849  1.0
  C  C41  1  0.25889773  0.94375803  0.46262525  1.0
  C  C42  1  0.25855694  0.08824527  0.45874274  1.0
  C  C43  1  0.93063457  0.48128916  0.45361683  1.0
  C  C44  1  0.51332675  0.50107141  0.61049321  1.0
  C  C45  1  0.93602630  0.57122436  0.54043889  1.0
  C  C46  1  0.08049304  0.57616100  0.53813287  1.0
  C  C47  1  0.07003737  0.48720363  0.45119743  1.0
  C  C48  1  0.07246195  0.43978846  0.38919374  1.0
  C  C49  1  0.90986909  0.42889269  0.39343746  1.0
  C  C50  1  0.36393101  0.38710231  0.87398364  1.0
  C  C51  1  0.60309093  0.30975367  0.87376975  1.0
  C  C52  1  0.59910203  0.30220376  0.93762905  1.0
  C  C53  1  0.48351437  0.34060322  0.96804884  1.0
  C  C54  1  0.36519829  0.37747460  0.93768903  1.0
  N  N55  1  0.48717031  0.35997976  0.84677425  1.0
  N  N56  1  0.50033707  0.37197170  0.14955530  1.0
  N  N57  1  0.85944939  0.52356544  0.49848640  1.0
  N  N58  1  0.14973514  0.53407978  0.49381664  1.0
  Cl  Cl59  1  0.65625897  0.66845157  0.70051366  1.0
  Cl  Cl60  1  0.72988847  0.17651244  0.57676357  1.0
  Cl  Cl61  1  0.74010979  0.89997899  0.58002157  1.0
  Cl  Cl62  1  0.11931173  0.88346630  0.50136380  1.0
  Cl  Cl63  1  0.86596728  0.21194438  0.05846637  1.0
  Cl  Cl64  1  0.12508729  0.54675202  0.33831943  1.0
  O  O65  1  0.38053728  0.34222627  0.51174172  1.0
  O  O66  1  0.70181784  0.27932746  0.84577154  1.0
  O  O67  1  0.70748933  0.28060561  0.15430513  1.0
  O  O68  1  0.28755770  0.45504344  0.15030148  1.0
  O  O69  1  0.60319202  0.34197336  0.48762172  1.0
  O  O70  1  0.40239439  0.49248363  0.41405465  1.0
  O  O71  1  0.62575916  0.54274991  0.41162917  1.0
  O  O72  1  0.39284629  0.70900788  0.49493856  1.0
  O  O73  1  0.61938210  0.70375218  0.51343184  1.0
  O  O74  1  0.40300152  0.53554659  0.58710189  1.0
  O  O75  1  0.62709645  0.48878913  0.58638995  1.0
  O  O76  1  0.26479355  0.42184661  0.84623332  1.0
  F  F77  1  0.14966578  0.14590181  0.48478357  1.0
  F  F78  1  0.87775393  0.61731546  0.58646853  1.0
  F  F79  1  0.14638348  0.62466784  0.58271627  1.0
  F  F80  1  0.13504537  0.33059787  0.38014482  1.0
  F  F81  1  0.86348111  0.31060934  0.39079149  1.0
  F  F82  1  0.14163264  0.45264583  0.05330733  1.0
  F  F83  1  0.66821566  0.55637209  0.19169094  1.0
  F  F84  1  0.35399076  0.24417913  0.23079453  1.0
  F  F85  1  0.36621772  0.22064552  0.75724420  1.0
