# generated using pymatgen
data_ZnH14C20(NO4)2
_symmetry_space_group_name_H-M   'P 1'
_cell_length_a   9.89404745
_cell_length_b   10.88985809
_cell_length_c   23.62897147
_cell_angle_alpha   88.55096401
_cell_angle_beta   88.74664776
_cell_angle_gamma   88.15665694
_symmetry_Int_Tables_number   1
_chemical_formula_structural   ZnH14C20(NO4)2
_chemical_formula_sum   'Zn2 H28 C40 N4 O16'
_cell_volume   2543.20185133
_cell_formula_units_Z   2
loop_
 _symmetry_equiv_pos_site_id
 _symmetry_equiv_pos_as_xyz
  1  'x, y, z'
loop_
 _atom_site_type_symbol
 _atom_site_label
 _atom_site_symmetry_multiplicity
 _atom_site_fract_x
 _atom_site_fract_y
 _atom_site_fract_z
 _atom_site_occupancy
  Zn  Zn0  1  0.35036533  0.48273362  0.50756252  1.0
  Zn  Zn1  1  0.63067158  0.48535386  0.48734433  1.0
  H  H2  1  0.28453155  0.73402863  0.05125726  1.0
  H  H3  1  0.24521435  0.40662620  0.32077710  1.0
  H  H4  1  0.66834205  0.48154527  0.31658422  1.0
  H  H5  1  0.66736828  0.49041121  0.21035368  1.0
  H  H6  1  0.44580050  0.06410473  0.53898327  1.0
  H  H7  1  0.68211921  0.86878258  0.45960265  1.0
  H  H8  1  0.37787331  0.89748650  0.48798588  1.0
  H  H9  1  0.14312180  0.41312240  0.43369431  1.0
  H  H10  1  0.08286204  0.51329825  0.54501186  1.0
  H  H11  1  0.31790739  0.75784891  0.94526596  1.0
  H  H12  1  0.43030005  0.35694843  0.78408996  1.0
  H  H13  1  0.42566078  0.36749018  0.67838086  1.0
  H  H14  1  0.66194896  0.68456772  0.78173166  1.0
  H  H15  1  0.24453705  0.40920689  0.21470332  1.0
  H  H16  1  0.60839934  0.02296066  0.35727025  1.0
  H  H17  1  0.53232270  0.16909309  0.37151130  1.0
  H  H18  1  0.69675311  0.15953038  0.34032405  1.0
  H  H19  1  0.71088058  0.20627189  0.44324444  1.0
  H  H20  1  0.78597227  0.05952523  0.42993354  1.0
  H  H21  1  0.96584803  0.38209841  0.38810293  1.0
  H  H22  1  0.79018438  0.53515025  0.57016893  1.0
  H  H23  1  0.72912468  0.25245175  0.89876092  1.0
  H  H24  1  0.66628741  0.20689013  0.09554237  1.0
  H  H25  1  0.50985108  0.78285215  0.61430019  1.0
  H  H26  1  0.50703415  0.85793936  0.68024802  1.0
  H  H27  1  0.62449588  0.90137771  0.62563316  1.0
  H  H28  1  0.74272314  0.77251475  0.69940292  1.0
  H  H29  1  0.74414321  0.69652456  0.63432104  1.0
  C  C30  1  0.48150875  0.71800006  0.48029157  1.0
  C  C31  1  0.34651518  0.66807456  0.02737734  1.0
  C  C32  1  0.36513277  0.68135539  0.96890950  1.0
  C  C33  1  0.44546138  0.59561378  0.93910547  1.0
  C  C34  1  0.50825726  0.49526635  0.96803749  1.0
  C  C35  1  0.59036921  0.40752214  0.93850565  1.0
  C  C36  1  0.65322764  0.30732501  0.96699971  1.0
  C  C37  1  0.63340408  0.29314434  0.02764335  1.0
  C  C38  1  0.46159664  0.60970147  0.87698875  1.0
  C  C39  1  0.60912732  0.41933985  0.87740594  1.0
  C  C40  1  0.48061610  0.42994304  0.76026552  1.0
  C  C41  1  0.53050409  0.52594895  0.60782350  1.0
  C  C42  1  0.47880434  0.43568823  0.70157487  1.0
  C  C43  1  0.54401707  0.52930325  0.67082092  1.0
  C  C44  1  0.61298602  0.62027985  0.69923575  1.0
  C  C45  1  0.61239779  0.61384912  0.75859821  1.0
  C  C46  1  0.54717913  0.52038734  0.78842805  1.0
  C  C47  1  0.33692984  0.42517515  0.23728428  1.0
  C  C48  1  0.33771094  0.42368789  0.29631610  1.0
  C  C49  1  0.45720524  0.44387627  0.32488800  1.0
  C  C50  1  0.57634291  0.46623988  0.29365121  1.0
  C  C51  1  0.57564461  0.47074321  0.23488307  1.0
  C  C52  1  0.50402622  0.25041287  0.51468229  1.0
  C  C53  1  0.45602604  0.44960530  0.20701167  1.0
  C  C54  1  0.59551356  0.05300782  0.47369980  1.0
  C  C55  1  0.51553855  0.11476434  0.51136229  1.0
  C  C56  1  0.58846866  0.91956480  0.47085704  1.0
  C  C57  1  0.47673043  0.85373193  0.47965265  1.0
  C  C58  1  0.08062481  0.44582347  0.46969937  1.0
  C  C59  1  0.93439349  0.44682259  0.46214828  1.0
  C  C60  1  0.46208320  0.44569955  0.38834960  1.0
  C  C61  1  0.53617691  0.36628641  0.11766731  1.0
  C  C62  1  0.38893711  0.55709417  0.11888070  1.0
  C  C63  1  0.40794201  0.56876906  0.05684225  1.0
  C  C64  1  0.48921186  0.48164064  0.02752767  1.0
  C  C65  1  0.55244558  0.38023761  0.05660372  1.0
  C  C66  1  0.68932497  0.11288548  0.43083392  1.0
  C  C67  1  0.62847966  0.11581808  0.37148475  1.0
  C  C68  1  0.67788211  0.72827177  0.66922152  1.0
  C  C69  1  0.57361583  0.82313671  0.64601107  1.0
  N  N70  1  0.45855331  0.45554730  0.14590427  1.0
  N  N71  1  0.54283468  0.51724403  0.84958475  1.0
  N  N72  1  0.14430707  0.48210841  0.51257744  1.0
  N  N73  1  0.84000434  0.48210690  0.49767683  1.0
  O  O74  1  0.37178900  0.66583378  0.49498831  1.0
  O  O75  1  0.31977875  0.62937947  0.14714402  1.0
  O  O76  1  0.40812992  0.69377383  0.84914433  1.0
  O  O77  1  0.68148225  0.34354150  0.85014269  1.0
  O  O78  1  0.59346273  0.66266656  0.46739491  1.0
  O  O79  1  0.41517747  0.50034164  0.59017324  1.0
  O  O80  1  0.63355446  0.54587715  0.57524368  1.0
  O  O81  1  0.38401328  0.29688154  0.51434779  1.0
  O  O82  1  0.61190697  0.31114406  0.51715490  1.0
  O  O83  1  0.35190557  0.45975651  0.41658998  1.0
  O  O84  1  0.57996559  0.43441580  0.40895866  1.0
  O  O85  1  0.59064591  0.27776843  0.14469901  1.0
  O  O86  1  0.88921274  0.40863922  0.41181523  1.0
  O  O87  1  0.88114061  0.52005140  0.54923527  1.0
  O  O88  1  0.73042372  0.22395674  0.94060758  1.0
  O  O89  1  0.69386094  0.19765275  0.05365055  1.0
