# generated using pymatgen
data_Zn4H19C50S2Br(O8F3)2
_symmetry_space_group_name_H-M   'P 1'
_cell_length_a   7.29111815
_cell_length_b   27.73575289
_cell_length_c   30.29861919
_cell_angle_alpha   90.13868159
_cell_angle_beta   90.08257804
_cell_angle_gamma   89.95389713
_symmetry_Int_Tables_number   1
_chemical_formula_structural   Zn4H19C50S2Br(O8F3)2
_chemical_formula_sum   'Zn8 H38 C100 S4 Br2 O32 F12'
_cell_volume   6127.10142238
_cell_formula_units_Z   2
loop_
 _symmetry_equiv_pos_site_id
 _symmetry_equiv_pos_as_xyz
  1  'x, y, z'
loop_
 _atom_site_type_symbol
 _atom_site_label
 _atom_site_symmetry_multiplicity
 _atom_site_fract_x
 _atom_site_fract_y
 _atom_site_fract_z
 _atom_site_occupancy
  Zn  Zn0  1  0.29445636  0.49561863  0.49979804  1.0
  Zn  Zn1  1  0.66567739  0.49878359  0.49993228  1.0
  Zn  Zn2  1  0.70284070  0.49745794  0.99994409  1.0
  Zn  Zn3  1  0.33147896  0.50065891  0.99978713  1.0
  Zn  Zn4  1  0.71336375  0.04672969  0.49971713  1.0
  Zn  Zn5  1  0.34205053  0.04570101  0.49974886  1.0
  Zn  Zn6  1  0.28922294  0.04872570  0.99957846  1.0
  Zn  Zn7  1  0.65978628  0.04739431  0.99991503  1.0
  H  H8  1  0.18545433  0.50489489  0.72814823  1.0
  H  H9  1  0.81253949  0.50465068  0.77160618  1.0
  H  H10  1  0.27872272  0.49404278  0.87148186  1.0
  H  H11  1  0.22526979  0.49362375  0.79190128  1.0
  H  H12  1  0.71903858  0.49284887  0.62825012  1.0
  H  H13  1  0.77262045  0.49320695  0.70782520  1.0
  H  H14  1  0.18479027  0.50393432  0.27137957  1.0
  H  H15  1  0.81299632  0.50338327  0.22841293  1.0
  H  H16  1  0.27849937  0.49681509  0.12807068  1.0
  H  H17  1  0.22476136  0.49690618  0.20752904  1.0
  H  H18  1  0.71882191  0.49470922  0.37166642  1.0
  H  H19  1  0.77272145  0.49561355  0.29221340  1.0
  H  H20  1  0.18931203  0.21608500  0.49926265  1.0
  H  H21  1  0.20975536  0.73257581  0.49992740  1.0
  H  H22  1  0.78785739  0.81101856  0.49985381  1.0
  H  H23  1  0.18160935  0.89155092  0.49999816  1.0
  H  H24  1  0.19417204  0.80305754  0.50002527  1.0
  H  H25  1  0.81692119  0.65251456  0.49993562  1.0
  H  H26  1  0.80334905  0.74094685  0.49989816  1.0
  H  H27  1  0.81012374  0.21829336  0.99957140  1.0
  H  H28  1  0.78598585  0.73422661  0.00670597  1.0
  H  H29  1  0.21164660  0.81307126  0.00774805  1.0
  H  H30  1  0.81608140  0.89284945  0.99360768  1.0
  H  H31  1  0.80164164  0.80423237  0.99264234  1.0
  H  H32  1  0.17990800  0.65464632  0.99509537  1.0
  H  H33  1  0.19497187  0.74320372  0.99389844  1.0
  H  H34  1  0.82074920  0.04479207  0.72852406  1.0
  H  H35  1  0.19032991  0.04495983  0.77051441  1.0
  H  H36  1  0.72129354  0.04840789  0.87197916  1.0
  H  H37  1  0.77826503  0.04722051  0.79267879  1.0
  H  H38  1  0.28765099  0.04683046  0.62759903  1.0
  H  H39  1  0.23235470  0.04667223  0.70693924  1.0
  H  H40  1  0.81589075  0.03822899  0.27091460  1.0
  H  H41  1  0.18626005  0.03797102  0.22848981  1.0
  H  H42  1  0.71702428  0.04860411  0.12772711  1.0
  H  H43  1  0.77332873  0.04718929  0.20710157  1.0
  H  H44  1  0.28452186  0.04769081  0.37169493  1.0
  H  H45  1  0.22861031  0.04689332  0.29227934  1.0
  C  C46  1  0.53897143  0.58855146  0.49998731  1.0
  C  C47  1  0.41118972  0.49715043  0.58305308  1.0
  C  C48  1  0.55794644  0.40667594  0.49977549  1.0
  C  C49  1  0.41075652  0.49724461  0.41663521  1.0
  C  C50  1  0.45686571  0.59040531  0.00003689  1.0
  C  C51  1  0.58634790  0.49851156  0.91670440  1.0
  C  C52  1  0.43871286  0.40854557  0.99980196  1.0
  C  C53  1  0.58651109  0.49890267  0.08309663  1.0
  C  C54  1  0.46115014  0.95528010  0.49993562  1.0
  C  C55  1  0.59684664  0.04642355  0.58295847  1.0
  C  C56  1  0.45904738  0.13714313  0.49974544  1.0
  C  C57  1  0.59377608  0.04539499  0.41642996  1.0
  C  C58  1  0.53915411  0.95697103  0.99946837  1.0
  C  C59  1  0.41075178  0.04835062  0.91630338  1.0
  C  C60  1  0.54162717  0.13905894  0.00038916  1.0
  C  C61  1  0.40733267  0.04656365  0.08301094  1.0
  C  C62  1  0.42622051  0.49774551  0.63217271  1.0
  C  C63  1  0.57156236  0.49859285  0.86757465  1.0
  C  C64  1  0.28028977  0.50089842  0.66210064  1.0
  C  C65  1  0.30685120  0.50172171  0.70750715  1.0
  C  C66  1  0.71757209  0.50126423  0.83764861  1.0
  C  C67  1  0.69105958  0.50177172  0.79223952  1.0
  C  C68  1  0.39464894  0.49614079  0.84897357  1.0
  C  C69  1  0.36577678  0.49618779  0.80380375  1.0
  C  C70  1  0.60315610  0.49529485  0.65075747  1.0
  C  C71  1  0.63208981  0.49573747  0.69592497  1.0
  C  C72  1  0.48422197  0.49894739  0.72566494  1.0
  C  C73  1  0.51367552  0.49907149  0.77406707  1.0
  C  C74  1  0.42573440  0.49816323  0.36753164  1.0
  C  C75  1  0.57167817  0.49937931  0.13221769  1.0
  C  C76  1  0.27972952  0.50063939  0.33748566  1.0
  C  C77  1  0.30640773  0.50159041  0.29211149  1.0
  C  C78  1  0.71780649  0.50111935  0.16227827  1.0
  C  C79  1  0.69125815  0.50162813  0.20767382  1.0
  C  C80  1  0.39457383  0.49814727  0.15067042  1.0
  C  C81  1  0.36558362  0.49838051  0.19581387  1.0
  C  C82  1  0.60283965  0.49663780  0.34907646  1.0
  C  C83  1  0.63193931  0.49733329  0.30394334  1.0
  C  C84  1  0.48400926  0.49980438  0.27408047  1.0
  C  C85  1  0.51363576  0.50007838  0.22569842  1.0
  C  C86  1  0.68244738  0.31801074  0.50002939  1.0
  C  C87  1  0.33482248  0.22474176  0.49949656  1.0
  C  C88  1  0.54997617  0.35374789  0.49972138  1.0
  C  C89  1  0.47117606  0.19005928  0.49977129  1.0
  C  C90  1  0.41256738  0.27147911  0.49953662  1.0
  C  C91  1  0.60590925  0.27121384  0.49991078  1.0
  C  C92  1  0.52576352  0.64213365  0.49999423  1.0
  C  C93  1  0.47288643  0.90169347  0.49994324  1.0
  C  C94  1  0.35733378  0.66692773  0.49999327  1.0
  C  C95  1  0.34638457  0.71681359  0.49996703  1.0
  C  C96  1  0.64106508  0.87674236  0.49988576  1.0
  C  C97  1  0.65139291  0.82687579  0.49988423  1.0
  C  C98  1  0.31375715  0.87310969  0.49998458  1.0
  C  C99  1  0.32243098  0.82309199  0.49998904  1.0
  C  C100  1  0.68455811  0.67082817  0.49995525  1.0
  C  C101  1  0.67528900  0.72083052  0.49993411  1.0
  C  C102  1  0.50538366  0.74524375  0.49994783  1.0
  C  C103  1  0.49214563  0.79856566  0.49993984  1.0
  C  C104  1  0.31518294  0.31978730  0.00035892  1.0
  C  C105  1  0.66444406  0.22678884  0.99976225  1.0
  C  C106  1  0.44707234  0.35562251  0.99985743  1.0
  C  C107  1  0.52872347  0.19199574  0.00020245  1.0
  C  C108  1  0.58584632  0.27345949  0.99968510  1.0
  C  C109  1  0.39254165  0.27304814  0.00021211  1.0
  C  C110  1  0.47019639  0.64398546  0.00035972  1.0
  C  C111  1  0.52634032  0.90338595  0.00000196  1.0
  C  C112  1  0.63851695  0.66861562  0.00331808  1.0
  C  C113  1  0.64995848  0.71850157  0.00347622  1.0
  C  C114  1  0.35837382  0.87873225  0.00365182  1.0
  C  C115  1  0.34726806  0.82884565  0.00393534  1.0
  C  C116  1  0.68430270  0.87457783  0.99643653  1.0
  C  C117  1  0.67477848  0.82456797  0.99622349  1.0
  C  C118  1  0.31212064  0.67284171  0.99736687  1.0
  C  C119  1  0.32197401  0.72284944  0.99702912  1.0
  C  C120  1  0.49173562  0.74703507  0.00013833  1.0
  C  C121  1  0.50536434  0.80033373  0.00004720  1.0
  C  C122  1  0.58098533  0.04600987  0.63206125  1.0
  C  C123  1  0.42802484  0.04752337  0.86721044  1.0
  C  C124  1  0.72656079  0.04542335  0.66230877  1.0
  C  C125  1  0.69915129  0.04523829  0.70767695  1.0
  C  C126  1  0.28312563  0.04650208  0.83678763  1.0
  C  C127  1  0.31151624  0.04574651  0.79147892  1.0
  C  C128  1  0.60595618  0.04765331  0.84914260  1.0
  C  C129  1  0.63681612  0.04693465  0.80406557  1.0
  C  C130  1  0.40343557  0.04634421  0.65031024  1.0
  C  C131  1  0.37357856  0.04621859  0.69540951  1.0
  C  C132  1  0.52104216  0.04572295  0.72548648  1.0
  C  C133  1  0.48991079  0.04603701  0.77382966  1.0
  C  C134  1  0.57754401  0.04425606  0.36731385  1.0
  C  C135  1  0.42399902  0.04497821  0.13211523  1.0
  C  C136  1  0.72267978  0.04165948  0.33711735  1.0
  C  C137  1  0.69478810  0.04070008  0.29174666  1.0
  C  C138  1  0.27910241  0.04197613  0.16231807  1.0
  C  C139  1  0.30721972  0.04070951  0.20766868  1.0
  C  C140  1  0.60168140  0.04644579  0.15039865  1.0
  C  C141  1  0.63224067  0.04543957  0.19549368  1.0
  C  C142  1  0.39995523  0.04578575  0.34901241  1.0
  C  C143  1  0.36965293  0.04511830  0.30389456  1.0
  C  C144  1  0.51667498  0.04264356  0.27388178  1.0
  C  C145  1  0.48533289  0.04272161  0.22553058  1.0
  S  S146  1  0.33065835  0.32959842  0.49917757  1.0
  S  S147  1  0.69305965  0.21369243  0.50009968  1.0
  S  S148  1  0.66678704  0.33162982  0.99912105  1.0
  S  S149  1  0.30642542  0.21546583  0.00056954  1.0
  Br  Br150  1  0.93439535  0.32955875  0.50054152  1.0
  Br  Br151  1  0.06303201  0.33112975  0.00125464  1.0
  O  O152  1  0.38961381  0.56520078  0.49997400  1.0
  O  O153  1  0.70028381  0.56927187  0.49998581  1.0
  O  O154  1  0.56368827  0.49769425  0.56267771  1.0
  O  O155  1  0.25298291  0.49602837  0.56419276  1.0
  O  O156  1  0.71325861  0.42867177  0.49990108  1.0
  O  O157  1  0.40070830  0.42703695  0.49969269  1.0
  O  O158  1  0.25257321  0.49608445  0.43539006  1.0
  O  O159  1  0.56325527  0.49759342  0.43712470  1.0
  O  O160  1  0.60621028  0.56700767  0.99972223  1.0
  O  O161  1  0.29562594  0.57114429  0.99995750  1.0
  O  O162  1  0.43375691  0.49931161  0.93703925  1.0
  O  O163  1  0.74451435  0.49754634  0.93559794  1.0
  O  O164  1  0.28332871  0.43057971  0.99980776  1.0
  O  O165  1  0.59582039  0.42889704  0.99971669  1.0
  O  O166  1  0.74465803  0.49778028  0.06430226  1.0
  O  O167  1  0.43397913  0.49956986  0.06262605  1.0
  O  O168  1  0.61165562  0.97813216  0.49983858  1.0
  O  O169  1  0.30103645  0.97518306  0.50000785  1.0
  O  O170  1  0.44445039  0.04680710  0.56242111  1.0
  O  O171  1  0.75520194  0.04642978  0.56426669  1.0
  O  O172  1  0.30116921  0.11636093  0.49983773  1.0
  O  O173  1  0.61401409  0.11566241  0.49961569  1.0
  O  O174  1  0.75233517  0.04571516  0.43510330  1.0
  O  O175  1  0.44152023  0.04608391  0.43694398  1.0
  O  O176  1  0.38894063  0.98003379  0.99852218  1.0
  O  O177  1  0.69954499  0.97662262  0.99979715  1.0
  O  O178  1  0.56276975  0.04864779  0.93703746  1.0
  O  O179  1  0.25192521  0.04872113  0.93471273  1.0
  O  O180  1  0.69955266  0.11827516  0.00050538  1.0
  O  O181  1  0.38673628  0.11759089  0.00042452  1.0
  O  O182  1  0.24889247  0.04721451  0.06429397  1.0
  O  O183  1  0.55961826  0.04726281  0.06251072  1.0
  F  F184  1  0.10410754  0.50374056  0.64753363  1.0
  F  F185  1  0.89377716  0.50395974  0.85221898  1.0
  F  F186  1  0.10328877  0.50251295  0.35190753  1.0
  F  F187  1  0.89428866  0.50264032  0.14787330  1.0
  F  F188  1  0.19448317  0.64329002  0.49999689  1.0
  F  F189  1  0.80438197  0.90020268  0.49983994  1.0
  F  F190  1  0.80054017  0.64475986  0.00667282  1.0
  F  F191  1  0.19648992  0.90251346  0.00767769  1.0
  F  F192  1  0.90341712  0.04504773  0.64808937  1.0
  F  F193  1  0.10590955  0.04616515  0.85075129  1.0
  F  F194  1  0.89950827  0.03974413  0.35137268  1.0
  F  F195  1  0.10228485  0.03994923  0.14806809  1.0
