# generated using pymatgen
data_Al6H70C85O28
_symmetry_space_group_name_H-M   'P 1'
_cell_length_a   12.72868618
_cell_length_b   12.92476491
_cell_length_c   28.42471726
_cell_angle_alpha   89.65201784
_cell_angle_beta   89.98721564
_cell_angle_gamma   119.32065660
_symmetry_Int_Tables_number   1
_chemical_formula_structural   Al6H70C85O28
_chemical_formula_sum   'Al6 H70 C85 O28'
_cell_volume   4077.12979152
_cell_formula_units_Z   1
loop_
 _symmetry_equiv_pos_site_id
 _symmetry_equiv_pos_as_xyz
  1  'x, y, z'
loop_
 _atom_site_type_symbol
 _atom_site_label
 _atom_site_symmetry_multiplicity
 _atom_site_fract_x
 _atom_site_fract_y
 _atom_site_fract_z
 _atom_site_occupancy
  Al  Al0  1  0.40670758  0.58706084  0.50062919  1.0
  Al  Al1  1  0.41991899  0.34499615  0.50012457  1.0
  Al  Al2  1  0.65256704  0.57506873  0.50132881  1.0
  Al  Al3  1  0.93005329  0.08175948  0.99808355  1.0
  Al  Al4  1  0.67975171  0.08662877  0.00018461  1.0
  Al  Al5  1  0.90965052  0.31993077  0.99923127  1.0
  H  H6  1  0.46449748  0.23620642  0.21658100  1.0
  H  H7  1  0.86469028  0.89650307  0.29256086  1.0
  H  H8  1  0.87291109  0.93229079  0.21130806  1.0
  H  H9  1  0.82096607  0.03446953  0.22066877  1.0
  H  H10  1  0.48390302  0.77530429  0.29181784  1.0
  H  H11  1  0.58671226  0.92631899  0.30175555  1.0
  H  H12  1  0.49253566  0.81346965  0.21068528  1.0
  H  H13  1  0.55998697  0.63006523  0.27826300  1.0
  H  H14  1  0.56733216  0.66624380  0.19722784  1.0
  H  H15  1  0.59660812  0.96421083  0.22060049  1.0
  H  H16  1  0.27764933  0.52169119  0.20453051  1.0
  H  H17  1  0.54027860  0.12911352  0.28603466  1.0
  H  H18  1  0.31906341  0.52499851  0.28513954  1.0
  H  H19  1  0.99845412  0.28795299  0.30393430  1.0
  H  H20  1  0.09524041  0.44252905  0.29855441  1.0
  H  H21  1  0.05197931  0.42870589  0.21784181  1.0
  H  H22  1  0.96346201  0.27305253  0.22263449  1.0
  H  H23  1  0.23885096  0.20460587  0.28335005  1.0
  H  H24  1  0.08288360  0.14729219  0.29209091  1.0
  H  H25  1  0.21384442  0.20645775  0.20153486  1.0
  H  H26  1  0.37613724  0.42663015  0.27623082  1.0
  H  H27  1  0.34343341  0.43075240  0.19535485  1.0
  H  H28  1  0.57497912  0.45142073  0.26760048  1.0
  H  H29  1  0.05718241  0.14176825  0.21028807  1.0
  H  H30  1  0.75394712  0.50140593  0.79261185  1.0
  H  H31  1  0.71036778  0.51255977  0.71305723  1.0
  H  H32  1  0.78407525  0.26622047  0.69609250  1.0
  H  H33  1  0.84739249  0.42027626  0.70566882  1.0
  H  H34  1  0.86134627  0.38168171  0.78554155  1.0
  H  H35  1  0.77497328  0.22702994  0.77689354  1.0
  H  H36  1  0.46222120  0.19575549  0.70969353  1.0
  H  H37  1  0.55823749  0.13343071  0.70698779  1.0
  H  H38  1  0.47393734  0.20704442  0.79201713  1.0
  H  H39  1  0.79202412  0.52475190  0.21699601  1.0
  H  H40  1  0.55499718  0.41692215  0.72238851  1.0
  H  H41  1  0.59699788  0.43066413  0.80297470  1.0
  H  H42  1  0.54563249  0.12016096  0.78951415  1.0
  H  H43  1  0.48418173  0.79407116  0.78761828  1.0
  H  H44  1  0.47469582  0.74326850  0.70898254  1.0
  H  H45  1  0.75367876  0.02345631  0.68863161  1.0
  H  H46  1  0.59575142  0.95422417  0.69598966  1.0
  H  H47  1  0.63026921  0.01214149  0.77504273  1.0
  H  H48  1  0.78559920  0.06009256  0.76935782  1.0
  H  H49  1  0.78163464  0.75365901  0.71315456  1.0
  H  H50  1  0.86786787  0.41749916  0.28636833  1.0
  H  H51  1  0.85993782  0.90882425  0.70693922  1.0
  H  H52  1  0.76117958  0.76522102  0.79498736  1.0
  H  H53  1  0.53812966  0.69502016  0.80128669  1.0
  H  H54  1  0.86561157  0.91771711  0.78955238  1.0
  H  H55  1  0.23166778  0.22329091  0.80049791  1.0
  H  H56  1  0.24186743  0.20843988  0.71858934  1.0
  H  H57  1  0.97698861  0.25099529  0.69853461  1.0
  H  H58  1  0.02457414  0.14383759  0.70319863  1.0
  H  H59  1  0.00928071  0.14270199  0.78556071  1.0
  H  H60  1  0.75733087  0.20222799  0.23543547  1.0
  H  H61  1  0.95019320  0.24041936  0.78028592  1.0
  H  H62  1  0.27969446  0.51722996  0.70779030  1.0
  H  H63  1  0.12576601  0.46714512  0.69848575  1.0
  H  H64  1  0.24900568  0.51967655  0.78916765  1.0
  H  H65  1  0.35204632  0.35979592  0.71684111  1.0
  H  H66  1  0.33074869  0.37794618  0.79786339  1.0
  H  H67  1  0.09381846  0.46477538  0.77980944  1.0
  H  H68  1  0.72338046  0.71525936  0.19705914  1.0
  H  H69  1  0.71626931  0.67960084  0.27825883  1.0
  H  H70  1  0.81198214  0.99823665  0.30185737  1.0
  H  H71  1  0.52329292  0.58616206  0.68423649  1.0
  H  H72  1  0.60440015  0.60603346  0.73754587  1.0
  H  H73  1  0.44722136  0.54991654  0.73959037  1.0
  H  H74  1  0.28297856  0.66103824  0.47313644  1.0
  H  H75  1  0.01824425  0.97117468  0.02563148  1.0
  C  C76  1  0.28317144  0.37937791  0.43306532  1.0
  C  C77  1  0.63815112  0.36612159  0.39015390  1.0
  C  C78  1  0.71672738  0.25782083  0.24308134  1.0
  C  C79  1  0.67484505  0.31745109  0.20348072  1.0
  C  C80  1  0.77831705  0.37729007  0.27055189  1.0
  C  C81  1  0.65763954  0.33656669  0.29951983  1.0
  C  C82  1  0.73612382  0.43690494  0.23263603  1.0
  C  C83  1  0.61552879  0.39591219  0.25993335  1.0
  C  C84  1  0.68588450  0.30536013  0.15452292  1.0
  C  C85  1  0.64774195  0.35078072  0.34839017  1.0
  C  C86  1  0.64810026  0.70389154  0.26771151  1.0
  C  C87  1  0.61296172  0.39252728  0.43644920  1.0
  C  C88  1  0.79566542  0.91937435  0.28175803  1.0
  C  C89  1  0.80122235  0.94311921  0.22815119  1.0
  C  C90  1  0.69445852  0.90343949  0.11295653  1.0
  C  C91  1  0.67024915  0.81578649  0.29547614  1.0
  C  C92  1  0.65296408  0.72768245  0.21416567  1.0
  C  C93  1  0.67927968  0.85644248  0.20488390  1.0
  C  C94  1  0.57836158  0.87324857  0.22786977  1.0
  C  C95  1  0.57252862  0.84854809  0.28137615  1.0
  C  C96  1  0.68614939  0.88024751  0.15474605  1.0
  C  C97  1  0.66245184  0.78914621  0.34538712  1.0
  C  C98  1  0.61647093  0.70900563  0.43302595  1.0
  C  C99  1  0.64945018  0.76099401  0.38673273  1.0
  C  C100  1  0.29854295  0.43982166  0.26930869  1.0
  C  C101  1  0.07666656  0.35617957  0.28450257  1.0
  C  C102  1  0.05206477  0.34866165  0.23102179  1.0
  C  C103  1  0.09975130  0.31708336  0.11249103  1.0
  C  C104  1  0.18676518  0.33907731  0.29461400  1.0
  C  C105  1  0.27477258  0.43894448  0.21590759  1.0
  C  C106  1  0.14943995  0.33345477  0.20399233  1.0
  C  C107  1  0.14436116  0.21663369  0.22060214  1.0
  C  C108  1  0.16261531  0.21845534  0.27442762  1.0
  C  C109  1  0.27880510  0.37782382  0.56593343  1.0
  C  C110  1  0.12563100  0.32810743  0.15397228  1.0
  C  C111  1  0.21038708  0.34546661  0.34465686  1.0
  C  C112  1  0.23434639  0.35454926  0.38630918  1.0
  C  C113  1  0.64463375  0.42761514  0.72902986  1.0
  C  C114  1  0.77378358  0.33279443  0.71641981  1.0
  C  C115  1  0.77780523  0.31189377  0.76993791  1.0
  C  C116  1  0.69215398  0.29158148  0.88784252  1.0
  C  C117  1  0.65224436  0.32554629  0.70367254  1.0
  C  C118  1  0.66729222  0.42549927  0.78236685  1.0
  C  C119  1  0.66855145  0.30960957  0.79527006  1.0
  C  C120  1  0.60394682  0.38524134  0.56617002  1.0
  C  C121  1  0.55112460  0.20297899  0.77670457  1.0
  C  C122  1  0.54839936  0.20614332  0.72227921  1.0
  C  C123  1  0.68017181  0.30032286  0.84576839  1.0
  C  C124  1  0.64184802  0.33954704  0.65340323  1.0
  C  C125  1  0.63065044  0.35679372  0.61202198  1.0
  C  C126  1  0.54956565  0.73834199  0.72625124  1.0
  C  C127  1  0.67771036  0.95618133  0.70933495  1.0
  C  C128  1  0.69529493  0.98594097  0.76237206  1.0
  C  C129  1  0.69547632  0.92112096  0.88320772  1.0
  C  C130  1  0.66728103  0.83323613  0.70103126  1.0
  C  C131  1  0.61857823  0.71546874  0.56573367  1.0
  C  C132  1  0.55438435  0.77117617  0.77889182  1.0
  C  C133  1  0.67864228  0.87692276  0.79127293  1.0
  C  C134  1  0.77837203  0.84739822  0.77680171  1.0
  C  C135  1  0.77943593  0.83459066  0.72290585  1.0
  C  C136  1  0.68601431  0.90126681  0.84124411  1.0
  C  C137  1  0.65900438  0.80558028  0.65131811  1.0
  C  C138  1  0.64804051  0.77378033  0.61059943  1.0
  C  C139  1  0.26035200  0.29760652  0.72892153  1.0
  C  C140  1  0.04124636  0.23035290  0.71631787  1.0
  C  C141  1  0.02659036  0.22806912  0.77043252  1.0
  C  C142  1  0.59623011  0.21698322  0.27044069  1.0
  C  C143  1  0.09910213  0.31907754  0.88559278  1.0
  C  C144  1  0.17045872  0.32595949  0.70259926  1.0
  C  C145  1  0.24807778  0.30557730  0.78268472  1.0
  C  C146  1  0.14196065  0.32824205  0.79355179  1.0
  C  C147  1  0.16917416  0.44887142  0.77180041  1.0
  C  C148  1  0.18893070  0.44855044  0.71821714  1.0
  C  C149  1  0.12147724  0.32569689  0.84378070  1.0
  C  C150  1  0.19274629  0.32942925  0.65250495  1.0
  C  C151  1  0.22170089  0.34268262  0.61126237  1.0
  C  C152  1  0.71951408  0.95202377  0.06600784  1.0
  C  C153  1  0.55407181  0.27653040  0.23244193  1.0
  C  C154  1  0.72330805  0.27097661  0.06576873  1.0
  C  C155  1  0.04891244  0.28644752  0.06611654  1.0
  C  C156  1  0.72281934  0.96270490  0.93084233  1.0
  C  C157  1  0.71769348  0.26930287  0.93491513  1.0
  C  C158  1  0.05058932  0.29201598  0.93250979  1.0
  C  C159  1  0.69785497  0.29422738  0.11257030  1.0
  C  C160  1  0.53012855  0.61305281  0.72118212  1.0
  O  O161  1  0.51139666  0.67979500  0.44698275  1.0
  O  O162  1  0.50155693  0.31209042  0.54867275  1.0
  O  O163  1  0.68096719  0.48362289  0.54729207  1.0
  O  O164  1  0.69470630  0.68639415  0.54879089  1.0
  O  O165  1  0.49396628  0.50125607  0.50040583  1.0
  O  O166  1  0.02420098  0.18537720  0.05110967  1.0
  O  O167  1  0.81895524  0.97453987  0.04778608  1.0
  O  O168  1  0.63957533  0.97340530  0.04735614  1.0
  O  O169  1  0.64778744  0.17229992  0.04731007  1.0
  O  O170  1  0.82271958  0.34844062  0.04705703  1.0
  O  O171  1  0.02825464  0.36309389  0.04477518  1.0
  O  O172  1  0.29924870  0.47409559  0.45203378  1.0
  O  O173  1  0.03339018  0.19543512  0.95042924  1.0
  O  O174  1  0.82600787  0.98888235  0.94593206  1.0
  O  O175  1  0.64101694  0.97380708  0.95355816  1.0
  O  O176  1  0.64274922  0.17014895  0.95391969  1.0
  O  O177  1  0.81639879  0.34705442  0.95344029  1.0
  O  O178  1  0.02354238  0.36657407  0.95145799  1.0
  O  O179  1  0.83855989  0.16369832  0.99946619  1.0
  O  O180  1  0.31146764  0.30415573  0.45073200  1.0
  O  O181  1  0.51445023  0.31587943  0.45585171  1.0
  O  O182  1  0.68787474  0.49316542  0.45383668  1.0
  O  O183  1  0.69526989  0.69252198  0.45549903  1.0
  O  O184  1  0.51917602  0.69296924  0.54767237  1.0
  O  O185  1  0.31109012  0.48253092  0.55268476  1.0
  O  O186  1  0.29684861  0.30104189  0.54365345  1.0
  O  O187  1  0.32800641  0.66642793  0.50124900  1.0
  O  O188  1  0.01320712  0.00695104  0.99638191  1.0
