# generated using pymatgen
data_Zn6H40C79Br7(NO8)3
_symmetry_space_group_name_H-M   'P 1'
_cell_length_a   18.36417094
_cell_length_b   18.58427633
_cell_length_c   18.65014854
_cell_angle_alpha   109.39355276
_cell_angle_beta   108.58510082
_cell_angle_gamma   108.79647576
_symmetry_Int_Tables_number   1
_chemical_formula_structural   Zn6H40C79Br7(NO8)3
_chemical_formula_sum   'Zn6 H40 C79 Br7 N3 O24'
_cell_volume   4996.21226757
_cell_formula_units_Z   1
loop_
 _symmetry_equiv_pos_site_id
 _symmetry_equiv_pos_as_xyz
  1  'x, y, z'
loop_
 _atom_site_type_symbol
 _atom_site_label
 _atom_site_symmetry_multiplicity
 _atom_site_fract_x
 _atom_site_fract_y
 _atom_site_fract_z
 _atom_site_occupancy
  Zn  Zn0  1  0.93785724  0.48619599  0.93499439  1.0
  Zn  Zn1  1  0.06508637  0.47900189  0.05023006  1.0
  Zn  Zn2  1  0.50000578  0.05457830  0.07376954  1.0
  Zn  Zn3  1  0.50507988  0.93742997  0.94518614  1.0
  Zn  Zn4  1  0.94360114  0.92750123  0.48502068  1.0
  Zn  Zn5  1  0.07476649  0.06121158  0.49997226  1.0
  H  H6  1  0.62987646  0.46953008  0.99671262  1.0
  H  H7  1  0.12324848  0.32076294  0.87065355  1.0
  H  H8  1  0.83246095  0.22742409  0.82940403  1.0
  H  H9  1  0.66701940  0.02830485  0.56335196  1.0
  H  H10  1  0.10987675  0.20837870  0.74044777  1.0
  H  H11  1  0.37389360  0.95453330  0.72248694  1.0
  H  H12  1  0.28664925  0.01388697  0.94596945  1.0
  H  H13  1  0.17675683  0.05445011  0.96424896  1.0
  H  H14  1  0.95095188  0.17447810  0.02180797  1.0
  H  H15  1  0.08545212  0.08106141  0.85423476  1.0
  H  H16  1  0.10089314  0.05977324  0.72396769  1.0
  H  H17  1  0.18499954  0.72961020  0.19896345  1.0
  H  H18  1  0.69049959  0.87355146  0.09120946  1.0
  H  H19  1  0.72694176  0.16388185  0.20065810  1.0
  H  H20  1  0.95809820  0.17482434  0.43966093  1.0
  H  H21  1  0.85031504  0.07867178  0.05540360  1.0
  H  H22  1  0.72326063  0.09357316  0.05528107  1.0
  H  H23  1  0.53999067  0.24068828  0.02389158  1.0
  H  H24  1  0.51868586  0.35978908  0.00827070  1.0
  H  H25  1  0.75711017  0.45530639  0.99321923  1.0
  H  H26  1  0.91186174  0.57964725  0.18482531  1.0
  H  H27  1  0.20081637  0.83160206  0.73457620  1.0
  H  H28  1  0.30195161  0.88189370  0.27589052  1.0
  H  H29  1  0.09682558  0.76391742  0.59386972  1.0
  H  H30  1  0.02098881  0.69752389  0.61432398  1.0
  H  H31  1  0.09552620  0.66596358  0.58858350  1.0
  H  H32  1  0.61127168  0.04847449  0.66121402  1.0
  H  H33  1  0.60513162  0.10466089  0.78734966  1.0
  H  H34  1  0.68842473  0.20743003  0.81692272  1.0
  H  H35  1  0.71716371  0.13397150  0.84505767  1.0
  H  H36  1  0.89050395  0.37624316  0.38862919  1.0
  H  H37  1  0.80376360  0.39774379  0.28631955  1.0
  H  H38  1  0.71869070  0.28941566  0.23570594  1.0
  H  H39  1  0.16273084  0.96151820  0.40549754  1.0
  H  H40  1  0.80658378  0.31077793  0.21079315  1.0
  H  H41  1  0.90168372  0.69223170  0.29411472  1.0
  H  H42  1  0.23779160  0.69815515  0.09789608  1.0
  H  H43  1  0.05249326  0.61030306  0.67903104  1.0
  H  H44  1  0.27431317  0.85811655  0.87726439  1.0
  H  H45  1  0.92830939  0.28859605  0.99959522  1.0
  C  C46  1  0.03817678  0.60423259  0.13786856  1.0
  C  C47  1  0.71051316  0.40843968  0.00051327  1.0
  C  C48  1  0.17974452  0.78040219  0.24381795  1.0
  C  C49  1  0.86114679  0.38909748  0.99172287  1.0
  C  C50  1  0.24540999  0.86489416  0.28683605  1.0
  C  C51  1  0.23735396  0.92902421  0.34534540  1.0
  C  C52  1  0.16653612  0.91015575  0.36041711  1.0
  C  C53  1  0.09763071  0.82327609  0.31678372  1.0
  C  C54  1  0.10539335  0.75724818  0.25713747  1.0
  C  C55  1  0.03684862  0.66996691  0.20961668  1.0
  C  C56  1  0.96457444  0.64666580  0.22267473  1.0
  C  C57  1  0.81171886  0.26161035  0.01611689  1.0
  C  C58  1  0.95831200  0.71005467  0.28334848  1.0
  C  C59  1  0.02142767  0.79706210  0.32873102  1.0
  C  C60  1  0.10291227  0.62718238  0.80672462  1.0
  C  C61  1  0.99738433  0.34299398  0.89574406  1.0
  C  C62  1  0.09894897  0.65594302  0.74696132  1.0
  C  C63  1  0.15778250  0.74251780  0.77245769  1.0
  C  C64  1  0.22432223  0.79445089  0.85815453  1.0
  C  C65  1  0.22933936  0.76603728  0.91970129  1.0
  C  C66  1  0.16260209  0.68242650  0.89698236  1.0
  C  C67  1  0.16561030  0.66198238  0.96488385  1.0
  C  C68  1  0.67667997  0.21126616  0.02848695  1.0
  C  C69  1  0.23605690  0.71609979  0.04775963  1.0
  C  C70  1  0.30489938  0.79303308  0.06717158  1.0
  C  C71  1  0.30273108  0.81915935  0.00581140  1.0
  C  C72  1  0.82458344  0.18457545  0.76799168  1.0
  C  C73  1  0.09380657  0.58908196  0.95912512  1.0
  C  C74  1  0.74156995  0.11793461  0.70208815  1.0
  C  C75  1  0.73232633  0.07163588  0.61874908  1.0
  C  C76  1  0.80424704  0.08336665  0.60665567  1.0
  C  C77  1  0.89170295  0.13887332  0.67696996  1.0
  C  C78  1  0.89920437  0.19685882  0.75653730  1.0
  C  C79  1  0.66252234  0.27836907  0.01856418  1.0
  C  C80  1  0.98491984  0.26568970  0.82383060  1.0
  C  C81  1  0.05899657  0.26853162  0.81812278  1.0
  C  C82  1  0.05137819  0.20662152  0.74417875  1.0
  C  C83  1  0.96957150  0.14313466  0.67420074  1.0
  C  C84  1  0.38625534  0.97967242  0.87327325  1.0
  C  C85  1  0.88266996  0.24714230  0.01195916  1.0
  C  C86  1  0.60949524  0.14235553  0.03137306  1.0
  C  C87  1  0.63705046  0.98966257  0.09805625  1.0
  C  C88  1  0.38070898  0.89485325  0.02253896  1.0
  C  C89  1  0.14863838  0.01695214  0.61281223  1.0
  C  C90  1  0.72451843  0.33897621  0.00714014  1.0
  C  C91  1  0.00421110  0.85943087  0.38604475  1.0
  C  C92  1  0.92483251  0.01718019  0.37017404  1.0
  C  C93  1  0.97257573  0.07848406  0.60296718  1.0
  C  C94  1  0.24689424  0.02407653  0.89715604  1.0
  C  C95  1  0.18529639  0.04735657  0.90748917  1.0
  C  C96  1  0.13351787  0.06190532  0.84540423  1.0
  C  C97  1  0.89581651  0.18295066  0.02505128  1.0
  C  C98  1  0.14284363  0.05085401  0.77269547  1.0
  C  C99  1  0.20489845  0.02589210  0.75926280  1.0
  C  C100  1  0.25977758  0.01378476  0.82386493  1.0
  C  C101  1  0.79673836  0.32834293  0.00448651  1.0
  C  C102  1  0.32182105  0.98836959  0.80847251  1.0
  C  C103  1  0.32697906  0.97457187  0.73295839  1.0
  C  C104  1  0.27317177  0.98710656  0.67070597  1.0
  C  C105  1  0.21291589  0.01232383  0.68253335  1.0
  C  C106  1  0.77772498  0.16557832  0.25192865  1.0
  C  C107  1  0.83852580  0.24556547  0.32637587  1.0
  C  C108  1  0.90142366  0.24490858  0.39506933  1.0
  C  C109  1  0.83872442  0.12839378  0.04307935  1.0
  C  C110  1  0.90731426  0.17125836  0.38659494  1.0
  C  C111  1  0.84974508  0.09107580  0.30818609  1.0
  C  C112  1  0.58760840  0.28724507  0.01712651  1.0
  C  C113  1  0.78058676  0.08784831  0.24097643  1.0
  C  C114  1  0.72029745  0.00520291  0.16404073  1.0
  C  C115  1  0.73516325  0.93445398  0.15144982  1.0
  C  C116  1  0.80431309  0.93962219  0.21689438  1.0
  C  C117  1  0.85934652  0.01540237  0.29590067  1.0
  C  C118  1  0.76786415  0.13755008  0.04402696  1.0
  C  C119  1  0.75069967  0.20254229  0.02931461  1.0
  C  C120  1  0.08825156  0.72195826  0.62351666  1.0
  C  C121  1  0.67027777  0.13829741  0.79450641  1.0
  C  C122  1  0.78952364  0.32986847  0.26326215  1.0
  C  C123  1  0.57605878  0.35397200  0.00886164  1.0
  C  C124  1  0.63888733  0.41588179  0.00178133  1.0
  Br  Br125  1  0.32875025  0.04617889  0.40601895  1.0
  Br  Br126  1  0.03313690  0.50464763  0.75811011  1.0
  Br  Br127  1  0.40348986  0.85703670  0.17979518  1.0
  Br  Br128  1  0.78093840  0.03169209  0.48914793  1.0
  Br  Br129  1  0.28319508  0.96334013  0.56799822  1.0
  Br  Br130  1  0.98136130  0.35093889  0.50127412  1.0
  Br  Br131  1  0.82000392  0.83931335  0.19276925  1.0
  N  N132  1  0.15197818  0.77250902  0.71425963  1.0
  N  N133  1  0.66866601  0.09788634  0.71266007  1.0
  N  N134  1  0.83898206  0.32156992  0.33511094  1.0
  O  O135  1  0.98457613  0.58282659  0.06246295  1.0
  O  O136  1  0.17670776  0.07642138  0.59289478  1.0
  O  O137  1  0.94341842  0.82833503  0.40504869  1.0
  O  O138  1  0.09256197  0.57531840  0.15708364  1.0
  O  O139  1  0.04860706  0.94009799  0.41306499  1.0
  O  O140  1  0.89403318  0.96553941  0.39601952  1.0
  O  O141  1  0.00601952  0.07200249  0.40361736  1.0
  O  O142  1  0.92757700  0.99699490  0.57687637  1.0
  O  O143  1  0.02574154  0.10937682  0.57762290  1.0
  O  O144  1  0.83337527  0.41016204  0.93301321  1.0
  O  O145  1  0.94141491  0.41646786  0.03998219  1.0
  O  O146  1  0.41402180  0.92642451  0.84490114  1.0
  O  O147  1  0.95200329  0.37892523  0.87507728  1.0
  O  O148  1  0.05617906  0.37147192  0.97355212  1.0
  O  O149  1  0.01437934  0.57319555  0.91910952  1.0
  O  O150  1  0.11777544  0.55168115  0.00089920  1.0
  O  O151  1  0.41066586  0.02596536  0.95250510  1.0
  O  O152  1  0.58462567  0.16357889  0.08898962  1.0
  O  O153  1  0.58124956  0.06507797  0.97505817  1.0
  O  O154  1  0.59838655  0.02936208  0.12508928  1.0
  O  O155  1  0.60767150  0.93592845  0.01777213  1.0
  O  O156  1  0.40346364  0.97235782  0.07699404  1.0
  O  O157  1  0.41916655  0.87518780  0.97942797  1.0
  O  O158  1  0.06979894  0.96059952  0.57935401  1.0
