# generated using pymatgen
data_AlH6C11NO5F
_symmetry_space_group_name_H-M   'P 1'
_cell_length_a   6.66111907
_cell_length_b   11.14014198
_cell_length_c   16.93009940
_cell_angle_alpha   83.86206214
_cell_angle_beta   83.07013659
_cell_angle_gamma   72.94297647
_symmetry_Int_Tables_number   1
_chemical_formula_structural   AlH6C11NO5F
_chemical_formula_sum   'Al2 H12 C22 N2 O10 F2'
_cell_volume   1188.88500791
_cell_formula_units_Z   2
loop_
 _symmetry_equiv_pos_site_id
 _symmetry_equiv_pos_as_xyz
  1  'x, y, z'
loop_
 _atom_site_type_symbol
 _atom_site_label
 _atom_site_symmetry_multiplicity
 _atom_site_fract_x
 _atom_site_fract_y
 _atom_site_fract_z
 _atom_site_occupancy
  Al  Al0  1  0.50000409  0.50000418  0.49999880  1.0
  Al  Al1  1  0.00000788  0.49999269  0.49999608  1.0
  H  H2  1  0.19158065  0.65023303  0.45060777  1.0
  H  H3  1  0.80843310  0.34976393  0.54939254  1.0
  H  H4  1  0.85375735  0.49434455  0.73627120  1.0
  H  H5  1  0.78959833  0.49857437  0.88601017  1.0
  H  H6  1  0.42858909  0.50230829  0.89631107  1.0
  H  H7  1  0.49230099  0.49906444  0.74593287  1.0
  H  H8  1  0.57135507  0.49768558  0.10369230  1.0
  H  H9  1  0.21033833  0.50144674  0.11397320  1.0
  H  H10  1  0.14621181  0.50566896  0.26371509  1.0
  H  H11  1  0.50766888  0.50092949  0.25407039  1.0
  H  H12  1  0.24897255  0.87340670  0.54126203  1.0
  H  H13  1  0.75107736  0.12659089  0.45874647  1.0
  C  C14  1  0.64239405  0.72592665  0.50701808  1.0
  C  C15  1  0.78765353  0.50731613  0.35543527  1.0
  C  C16  1  0.35765144  0.27407337  0.49297810  1.0
  C  C17  1  0.21234867  0.49267636  0.64455936  1.0
  C  C18  1  0.17653342  0.49629457  0.73307181  1.0
  C  C19  1  0.97771089  0.49624195  0.77227729  1.0
  C  C20  1  0.94207561  0.49850645  0.85447867  1.0
  C  C21  1  0.10671622  0.50027625  0.89895390  1.0
  C  C22  1  0.30493429  0.50083766  0.85997159  1.0
  C  C23  1  0.33965493  0.49900018  0.77738539  1.0
  C  C24  1  0.69500729  0.49915828  0.14002766  1.0
  C  C25  1  0.89321895  0.49972647  0.10104058  1.0
  C  C26  1  0.05787866  0.50149738  0.14551302  1.0
  C  C27  1  0.02225776  0.50376657  0.22771520  1.0
  C  C28  1  0.82344445  0.50370443  0.26692369  1.0
  C  C29  1  0.66030727  0.50099683  0.22261159  1.0
  C  C30  1  0.42695202  0.13342747  0.49638600  1.0
  C  C31  1  0.57311372  0.86656551  0.50362078  1.0
  C  C32  1  0.28985573  0.05867867  0.51965358  1.0
  C  C33  1  0.71020516  0.94131508  0.48035694  1.0
  C  C34  1  0.35980640  0.92844038  0.52316866  1.0
  C  C35  1  0.64025012  0.07155914  0.47683882  1.0
  N  N36  1  0.08930501  0.50150467  0.98284279  1.0
  N  N37  1  0.91062927  0.49849992  0.01715223  1.0
  O  O38  1  0.49994979  0.67268982  0.50196760  1.0
  O  O39  1  0.93854653  0.51943060  0.39072777  1.0
  O  O40  1  0.16438617  0.32930565  0.48569213  1.0
  O  O41  1  0.39063421  0.50035609  0.61104831  1.0
  O  O42  1  0.50010108  0.32730542  0.49803034  1.0
  O  O43  1  0.06146251  0.48056017  0.60926365  1.0
  O  O44  1  0.83566920  0.67068964  0.51430500  1.0
  O  O45  1  0.60937298  0.49964186  0.38895050  1.0
  O  O46  1  0.23036234  0.56105472  0.46731053  1.0
  O  O47  1  0.76967830  0.43893968  0.53268502  1.0
  F  F48  1  0.08179139  0.11217999  0.54173582  1.0
  F  F49  1  0.91826299  0.88781511  0.45828619  1.0
