# generated using pymatgen
data_TmH8C12O7
_symmetry_space_group_name_H-M   'P 1'
_cell_length_a   10.77306422
_cell_length_b   10.77317129
_cell_length_c   18.75290771
_cell_angle_alpha   73.38147809
_cell_angle_beta   73.38197820
_cell_angle_gamma   69.23084061
_symmetry_Int_Tables_number   1
_chemical_formula_structural   TmH8C12O7
_chemical_formula_sum   'Tm4 H32 C48 O28'
_cell_volume   1908.20019023
_cell_formula_units_Z   4
loop_
 _symmetry_equiv_pos_site_id
 _symmetry_equiv_pos_as_xyz
  1  'x, y, z'
loop_
 _atom_site_type_symbol
 _atom_site_label
 _atom_site_symmetry_multiplicity
 _atom_site_fract_x
 _atom_site_fract_y
 _atom_site_fract_z
 _atom_site_occupancy
  Tm  Tm0  1  0.45624607  0.55523303  0.39455287  1.0
  Tm  Tm1  1  0.44475244  0.54378942  0.10545771  1.0
  Tm  Tm2  1  0.54377947  0.44477054  0.60546416  1.0
  Tm  Tm3  1  0.55523589  0.45622694  0.89455110  1.0
  H  H4  1  0.19723916  0.69426657  0.33017280  1.0
  H  H5  1  0.30563896  0.80272763  0.16988240  1.0
  H  H6  1  0.80275055  0.30568266  0.66984475  1.0
  H  H7  1  0.69431403  0.19726343  0.83013643  1.0
  H  H8  1  0.20099626  0.73637617  0.40171787  1.0
  H  H9  1  0.26372868  0.79901692  0.09826136  1.0
  H  H10  1  0.79903606  0.26367701  0.59825730  1.0
  H  H11  1  0.73633422  0.20099574  0.90171759  1.0
  H  H12  1  0.21415549  0.37303074  0.44371482  1.0
  H  H13  1  0.62699604  0.78584068  0.05628563  1.0
  H  H14  1  0.78588218  0.62698220  0.55628425  1.0
  H  H15  1  0.37302870  0.21413885  0.94371791  1.0
  H  H16  1  0.97625334  0.37028613  0.50529787  1.0
  H  H17  1  0.62973989  0.02374408  0.99469595  1.0
  H  H18  1  0.02378886  0.62971659  0.49470428  1.0
  H  H19  1  0.37027027  0.97624314  0.00529967  1.0
  H  H20  1  0.86471889  0.51489409  0.28722581  1.0
  H  H21  1  0.48514254  0.13528886  0.21276528  1.0
  H  H22  1  0.13525972  0.48519183  0.71278108  1.0
  H  H23  1  0.51481537  0.86472092  0.78722938  1.0
  H  H24  1  0.10704454  0.51015548  0.22417078  1.0
  H  H25  1  0.48987701  0.89298407  0.27583323  1.0
  H  H26  1  0.89296015  0.48992318  0.77583674  1.0
  H  H27  1  0.51011411  0.10702113  0.72417163  1.0
  H  H28  1  0.57433333  0.99662743  0.61466931  1.0
  H  H29  1  0.00339146  0.42560383  0.88533605  1.0
  H  H30  1  0.42558612  0.00338129  0.38535002  1.0
  H  H31  1  0.99661558  0.57432651  0.11467376  1.0
  H  H32  1  0.44634641  0.21595982  0.40469031  1.0
  H  H33  1  0.78406158  0.55357110  0.09533278  1.0
  H  H34  1  0.55355085  0.78406000  0.59533193  1.0
  H  H35  1  0.21597271  0.44631291  0.90469512  1.0
  C  C36  1  0.31533014  0.44821853  0.29395116  1.0
  C  C37  1  0.55180437  0.68467110  0.20604918  1.0
  C  C38  1  0.68468749  0.55180836  0.70603665  1.0
  C  C39  1  0.44822753  0.31530307  0.79395087  1.0
  C  C40  1  0.17379667  0.44191372  0.33043827  1.0
  C  C41  1  0.55809622  0.82620604  0.16955767  1.0
  C  C42  1  0.82620310  0.55811108  0.66956405  1.0
  C  C43  1  0.44191317  0.17378421  0.83043437  1.0
  C  C44  1  0.13790056  0.40138449  0.40965259  1.0
  C  C45  1  0.59864874  0.86210042  0.09033712  1.0
  C  C46  1  0.86210482  0.59864505  0.59035068  1.0
  C  C47  1  0.40136584  0.13788860  0.90966226  1.0
  C  C48  1  0.00562639  0.39984082  0.44382475  1.0
  C  C49  1  0.60017218  0.99438462  0.05616623  1.0
  C  C50  1  0.99438572  0.60017737  0.55617875  1.0
  C  C51  1  0.39982003  0.00560851  0.94383618  1.0
  C  C52  1  0.90709825  0.44165189  0.39976479  1.0
  C  C53  1  0.55839739  0.09290826  0.10023066  1.0
  C  C54  1  0.09291423  0.55840737  0.60024412  1.0
  C  C55  1  0.44159052  0.90709405  0.89976081  1.0
  C  C56  1  0.76247588  0.45002596  0.43747786  1.0
  C  C57  1  0.55000015  0.23752151  0.06251124  1.0
  C  C58  1  0.23754338  0.54998686  0.56251948  1.0
  C  C59  1  0.44998519  0.76246790  0.93747906  1.0
  C  C60  1  0.94318702  0.48174075  0.32041655  1.0
  C  C61  1  0.51829932  0.05683705  0.17958070  1.0
  C  C62  1  0.05682498  0.51831651  0.67958797  1.0
  C  C63  1  0.48168161  0.94317761  0.82041094  1.0
  C  C64  1  0.07632936  0.48034628  0.28572547  1.0
  C  C65  1  0.51969235  0.92369007  0.21427584  1.0
  C  C66  1  0.92368258  0.51971901  0.71428306  1.0
  C  C67  1  0.48028924  0.07630654  0.78571762  1.0
  C  C68  1  0.51982588  0.24569875  0.52400486  1.0
  C  C69  1  0.75429183  0.48016764  0.97598213  1.0
  C  C70  1  0.48015250  0.75429900  0.47598467  1.0
  C  C71  1  0.24569319  0.51980782  0.02402386  1.0
  C  C72  1  0.51077838  0.11865523  0.51109947  1.0
  C  C73  1  0.88134515  0.48921025  0.98889028  1.0
  C  C74  1  0.48920932  0.88134409  0.48889093  1.0
  C  C75  1  0.11865261  0.51079160  0.01110923  1.0
  C  C76  1  0.54157934  0.99690420  0.56475158  1.0
  C  C77  1  0.00309504  0.45838575  0.93524537  1.0
  C  C78  1  0.45839584  0.00309472  0.43524042  1.0
  C  C79  1  0.99691012  0.54155968  0.06475799  1.0
  C  C80  1  0.46928000  0.12099719  0.44613007  1.0
  C  C81  1  0.87899984  0.53070243  0.05386163  1.0
  C  C82  1  0.53067773  0.87900559  0.55386471  1.0
  C  C83  1  0.12099257  0.46929367  0.94613546  1.0
  O  O84  1  0.38986434  0.44404710  0.33721576  1.0
  O  O85  1  0.55592927  0.61014879  0.16278897  1.0
  O  O86  1  0.61016306  0.55593328  0.66277814  1.0
  O  O87  1  0.44407326  0.38984182  0.83720895  1.0
  O  O88  1  0.35272404  0.45818763  0.22291293  1.0
  O  O89  1  0.54179763  0.64729927  0.27708474  1.0
  O  O90  1  0.64728042  0.54180285  0.77707562  1.0
  O  O91  1  0.45824641  0.35268831  0.72291054  1.0
  O  O92  1  0.73473367  0.40980936  0.50972335  1.0
  O  O93  1  0.59023028  0.26527430  0.99026289  1.0
  O  O94  1  0.26529263  0.59021011  0.49026692  1.0
  O  O95  1  0.40978698  0.73471154  0.00971952  1.0
  O  O96  1  0.67600671  0.49970986  0.39525426  1.0
  O  O97  1  0.50033412  0.32397826  0.10473189  1.0
  O  O98  1  0.32398802  0.50030418  0.60475174  1.0
  O  O99  1  0.49966339  0.67599353  0.89525611  1.0
  O  O100  1  0.49086796  0.35534984  0.47451781  1.0
  O  O101  1  0.64463691  0.50913464  0.02548329  1.0
  O  O102  1  0.50913287  0.64463986  0.52548480  1.0
  O  O103  1  0.35535519  0.49084751  0.97453108  1.0
  O  O104  1  0.55411960  0.24092388  0.58451039  1.0
  O  O105  1  0.75905104  0.44587393  0.91548518  1.0
  O  O106  1  0.44587312  0.75904017  0.41548981  1.0
  O  O107  1  0.24093788  0.55407832  0.08452507  1.0
  O  O108  1  0.24989814  0.72998495  0.34937227  1.0
  O  O109  1  0.26999669  0.75009086  0.15061820  1.0
  O  O110  1  0.75011471  0.26999910  0.65061223  1.0
  O  O111  1  0.73000081  0.24990795  0.84936426  1.0
