# generated using pymatgen
data_Zn4H11C28S2Cl3O13
_symmetry_space_group_name_H-M   'P 1'
_cell_length_a   18.54843015
_cell_length_b   19.71322708
_cell_length_c   32.75989092
_cell_angle_alpha   85.98556150
_cell_angle_beta   73.63702431
_cell_angle_gamma   62.07767327
_symmetry_Int_Tables_number   1
_chemical_formula_structural   Zn4H11C28S2Cl3O13
_chemical_formula_sum   'Zn16 H44 C112 S8 Cl12 O52'
_cell_volume   10128.30591233
_cell_formula_units_Z   4
loop_
 _symmetry_equiv_pos_site_id
 _symmetry_equiv_pos_as_xyz
  1  'x, y, z'
loop_
 _atom_site_type_symbol
 _atom_site_label
 _atom_site_symmetry_multiplicity
 _atom_site_fract_x
 _atom_site_fract_y
 _atom_site_fract_z
 _atom_site_occupancy
  Zn  Zn0  1  0.87307739  0.55458008  0.51861678  1.0
  Zn  Zn1  1  0.03848363  0.48412790  0.43874287  1.0
  Zn  Zn2  1  0.04359894  0.39844220  0.52375116  1.0
  Zn  Zn3  1  0.04496307  0.56208110  0.51795973  1.0
  Zn  Zn4  1  0.62587541  0.19092601  0.73254689  1.0
  Zn  Zn5  1  0.46415606  0.34975947  0.72538174  1.0
  Zn  Zn6  1  0.45636072  0.26593139  0.81265399  1.0
  Zn  Zn7  1  0.45446507  0.19226003  0.72884324  1.0
  Zn  Zn8  1  0.46205305  0.76432130  0.31282780  1.0
  Zn  Zn9  1  0.45350185  0.69141044  0.23170762  1.0
  Zn  Zn10  1  0.62567921  0.69372464  0.22935636  1.0
  Zn  Zn11  1  0.45689423  0.85141440  0.22618615  1.0
  Zn  Zn12  1  0.03752806  0.89899029  0.02408094  1.0
  Zn  Zn13  1  0.04920997  0.05776612  0.01904168  1.0
  Zn  Zn14  1  0.87616879  0.05837738  0.01965144  1.0
  Zn  Zn15  1  0.03780662  0.98521382  0.93740264  1.0
  H  H16  1  0.80567024  0.96410226  0.65501578  1.0
  H  H17  1  0.31194165  0.97494834  0.40204243  1.0
  H  H18  1  0.81148352  0.24256788  0.65387197  1.0
  H  H19  1  0.54525589  0.48508742  0.62011003  1.0
  H  H20  1  0.55086582  0.52535264  0.66544872  1.0
  H  H21  1  0.65182205  0.56871214  0.61712195  1.0
  H  H22  1  0.64611055  0.52855069  0.57183525  1.0
  H  H23  1  0.29322104  0.60324355  0.29610151  1.0
  H  H24  1  0.34981036  0.67315918  0.43519255  1.0
  H  H25  1  0.25950594  0.76153385  0.43242767  1.0
  H  H26  1  0.16236872  0.71154315  0.47777677  1.0
  H  H27  1  0.25247943  0.62317909  0.48052352  1.0
  H  H28  1  0.80930013  0.60259965  0.29529448  1.0
  H  H29  1  0.54814768  0.76163948  0.43081519  1.0
  H  H30  1  0.54263630  0.67354608  0.43330434  1.0
  H  H31  1  0.64308695  0.62319190  0.47938889  1.0
  H  H32  1  0.64869885  0.71122474  0.47684910  1.0
  H  H33  1  0.30795439  0.45660809  0.64652231  1.0
  H  H34  1  0.32859509  0.17970862  0.62947285  1.0
  H  H35  1  0.23794400  0.22020002  0.67485734  1.0
  H  H36  1  0.14241011  0.27371531  0.62621435  1.0
  H  H37  1  0.23317432  0.23319525  0.58095715  1.0
  H  H38  1  0.18848097  0.65907839  0.96284589  1.0
  H  H39  1  0.69042836  0.14759541  0.95538357  1.0
  H  H40  1  0.95482304  0.07785893  0.81633776  1.0
  H  H41  1  0.94986571  0.98948450  0.81895839  1.0
  H  H42  1  0.84805395  0.03974344  0.77361989  1.0
  H  H43  1  0.85295000  0.12811450  0.77107210  1.0
  H  H44  1  0.19275352  0.05192622  0.84505646  1.0
  H  H45  1  0.17116681  0.21608810  0.97535415  1.0
  H  H46  1  0.26208262  0.12799424  0.97773256  1.0
  H  H47  1  0.35723378  0.17446734  0.92672645  1.0
  H  H48  1  0.26632949  0.26245439  0.92441768  1.0
  H  H49  1  0.92778989  0.28358274  0.09456919  1.0
  H  H50  1  0.19306059  0.79430789  0.10302927  1.0
  H  H51  1  0.26123370  0.03191677  0.07483155  1.0
  H  H52  1  0.17031615  0.07205848  0.12014727  1.0
  H  H53  1  0.26554028  0.01921654  0.16876989  1.0
  H  H54  1  0.35646847  0.97913214  0.12355048  1.0
  H  H55  1  0.69057183  0.00650098  0.09643972  1.0
  H  H56  1  0.95025637  0.72288010  0.08522927  1.0
  H  H57  1  0.95505821  0.76321260  0.13080160  1.0
  H  H58  1  0.85322783  0.72046679  0.17854516  1.0
  H  H59  1  0.84863774  0.67979405  0.13307407  1.0
  C  C60  1  0.86272114  0.56744180  0.43049252  1.0
  C  C61  1  0.12471318  0.31509205  0.43891358  1.0
  C  C62  1  0.86566338  0.42735760  0.56847146  1.0
  C  C63  1  0.13901788  0.43506232  0.56816053  1.0
  C  C64  1  0.87221404  0.68426129  0.56053165  1.0
  C  C65  1  0.13737123  0.56916624  0.43067320  1.0
  C  C66  1  0.63947379  0.31759450  0.68141854  1.0
  C  C67  1  0.37655833  0.43489815  0.81045578  1.0
  C  C68  1  0.63401123  0.18195580  0.82079098  1.0
  C  C69  1  0.36125750  0.18041205  0.81711993  1.0
  C  C70  1  0.62599289  0.06531105  0.68848056  1.0
  C  C71  1  0.36296844  0.31871247  0.68057914  1.0
  C  C72  1  0.36277207  0.68147825  0.32016673  1.0
  C  C73  1  0.62350694  0.56598006  0.18859790  1.0
  C  C74  1  0.63746308  0.68177548  0.31881157  1.0
  C  C75  1  0.63438264  0.82134957  0.18038956  1.0
  C  C76  1  0.37531466  0.93345149  0.31213001  1.0
  C  C77  1  0.36123750  0.81713040  0.18119800  1.0
  C  C78  1  0.13821097  0.93163526  0.06857368  1.0
  C  C79  1  0.88007131  0.18435729  0.06146814  1.0
  C  C80  1  0.86239031  0.93097382  0.06911111  1.0
  C  C81  1  0.86230594  0.06915260  0.93115125  1.0
  C  C82  1  0.12216166  0.81520820  0.93912899  1.0
  C  C83  1  0.13830683  0.06873884  0.93111271  1.0
  C  C84  1  0.73403956  0.80375152  0.60106029  1.0
  C  C85  1  0.76189065  0.94642145  0.64908312  1.0
  C  C86  1  0.82182083  0.75874970  0.58574831  1.0
  C  C87  1  0.67445171  0.99035819  0.66372699  1.0
  C  C88  1  0.78387821  0.87824205  0.62608656  1.0
  C  C89  1  0.71233037  0.87199441  0.62399936  1.0
  C  C90  1  0.20217139  0.22647463  0.36926253  1.0
  C  C91  1  0.29889026  0.02144994  0.38079687  1.0
  C  C92  1  0.17399110  0.24112404  0.41345746  1.0
  C  C93  1  0.32614229  0.00836973  0.33682879  1.0
  C  C94  1  0.25359603  0.10111598  0.39280542  1.0
  C  C95  1  0.24759565  0.14658358  0.35752168  1.0
  C  C96  1  0.69670763  0.34552149  0.65295608  1.0
  C  C97  1  0.81148216  0.39652893  0.59742432  1.0
  C  C98  1  0.66698650  0.41744895  0.63628193  1.0
  C  C99  1  0.84134044  0.32331007  0.61482604  1.0
  C  C100  1  0.72290016  0.44126366  0.60957662  1.0
  C  C101  1  0.78543802  0.29919408  0.64151726  1.0
  C  C102  1  0.58846507  0.49147667  0.63472981  1.0
  C  C103  1  0.65159007  0.51867547  0.60449453  1.0
  C  C104  1  0.30584566  0.65310369  0.34838650  1.0
  C  C105  1  0.19401971  0.59663447  0.40113218  1.0
  C  C106  1  0.27988088  0.66427506  0.39271707  1.0
  C  C107  1  0.22067591  0.58554996  0.35576487  1.0
  C  C108  1  0.22598905  0.63682314  0.41771299  1.0
  C  C109  1  0.27473969  0.61299867  0.33063912  1.0
  C  C110  1  0.28589799  0.69862189  0.43079735  1.0
  C  C111  1  0.22498214  0.66739109  0.45920241  1.0
  C  C112  1  0.69439846  0.65299524  0.34716915  1.0
  C  C113  1  0.80869591  0.59548462  0.40063770  1.0
  C  C114  1  0.66446056  0.66406096  0.39150354  1.0
  C  C115  1  0.83891199  0.58462555  0.35525980  1.0
  C  C116  1  0.72012254  0.63607692  0.41686720  1.0
  C  C117  1  0.78311118  0.61252954  0.32981061  1.0
  C  C118  1  0.58577627  0.69871857  0.42927012  1.0
  C  C119  1  0.64868050  0.66714891  0.45811336  1.0
  C  C120  1  0.30553151  0.34821496  0.65251322  1.0
  C  C121  1  0.19566049  0.40880912  0.59681682  1.0
  C  C122  1  0.27164923  0.30627163  0.63965545  1.0
  C  C123  1  0.23031649  0.45139994  0.61025066  1.0
  C  C124  1  0.21888994  0.33605548  0.61283183  1.0
  C  C125  1  0.28315304  0.42171844  0.63714454  1.0
  C  C126  1  0.26757258  0.23108195  0.64274695  1.0
  C  C127  1  0.20781855  0.26456255  0.61235921  1.0
  C  C128  1  0.29833184  0.58386715  0.82037140  1.0
  C  C129  1  0.20105908  0.66814331  0.92899930  1.0
  C  C130  1  0.32730434  0.51011593  0.83482957  1.0
  C  C131  1  0.17245973  0.74079823  0.91383405  1.0
  C  C132  1  0.24703598  0.61061608  0.89492574  1.0
  C  C133  1  0.25240442  0.64115682  0.85463325  1.0
  C  C134  1  0.80474864  0.09753697  0.90308086  1.0
  C  C135  1  0.68871831  0.15450209  0.85040693  1.0
  C  C136  1  0.83377886  0.08659211  0.85874489  1.0
  C  C137  1  0.65955290  0.16517476  0.89576708  1.0
  C  C138  1  0.77729305  0.11437455  0.83377308  1.0
  C  C139  1  0.71603725  0.13764970  0.92085832  1.0
  C  C140  1  0.91188285  0.05239948  0.82067246  1.0
  C  C141  1  0.84815050  0.08383753  0.79229200  1.0
  C  C142  1  0.19505589  0.09688695  0.90239468  1.0
  C  C143  1  0.30435367  0.15084484  0.84444235  1.0
  C  C144  1  0.22839472  0.13754270  0.91707460  1.0
  C  C145  1  0.26992554  0.10935555  0.82967817  1.0
  C  C146  1  0.28089296  0.16320411  0.88883920  1.0
  C  C147  1  0.21740426  0.08347524  0.85791389  1.0
  C  C148  1  0.23227443  0.17062956  0.95628237  1.0
  C  C149  1  0.29184651  0.19969330  0.92438275  1.0
  C  C150  1  0.64359831  0.44681601  0.14873438  1.0
  C  C151  1  0.86025639  0.30225602  0.10072729  1.0
  C  C152  1  0.67243211  0.49144039  0.16358112  1.0
  C  C153  1  0.82986231  0.25908995  0.08637075  1.0
  C  C154  1  0.79236676  0.37101658  0.12352867  1.0
  C  C155  1  0.71202178  0.37820813  0.12590662  1.0
  C  C156  1  0.19505480  0.90284848  0.09691134  1.0
  C  C157  1  0.30455739  0.84323149  0.15267362  1.0
  C  C158  1  0.22820120  0.94539076  0.10985956  1.0
  C  C159  1  0.27045746  0.80007418  0.13925412  1.0
  C  C160  1  0.28080109  0.91603782  0.13675801  1.0
  C  C161  1  0.21769410  0.82942274  0.11232819  1.0
  C  C162  1  0.23157543  0.02090901  0.10688802  1.0
  C  C163  1  0.29121297  0.98785233  0.13735113  1.0
  C  C164  1  0.80494739  0.90299189  0.09732234  1.0
  C  C165  1  0.68909980  0.85218549  0.15200695  1.0
  C  C166  1  0.83407542  0.83097631  0.11391900  1.0
  C  C167  1  0.65984729  0.92566191  0.13483698  1.0
  C  C168  1  0.77766772  0.80730095  0.14024464  1.0
  C  C169  1  0.71624252  0.94966359  0.10859261  1.0
  C  C170  1  0.91221364  0.75690714  0.11586245  1.0
  C  C171  1  0.84853800  0.72996984  0.14574682  1.0
  S  S172  1  0.87738346  0.80016615  0.59959774  1.0
  S  S173  1  0.61834857  0.94958113  0.64992992  1.0
  S  S174  1  0.20336175  0.15710894  0.44031754  1.0
  S  S175  1  0.29727058  0.09200565  0.30976610  1.0
  S  S176  1  0.29834488  0.51140448  0.89032684  1.0
  S  S177  1  0.20109197  0.74004755  0.85842456  1.0
  S  S178  1  0.78310223  0.44914329  0.14938864  1.0
  S  S179  1  0.71941053  0.30114494  0.10031393  1.0
  Cl  Cl180  1  0.65822504  0.78310089  0.59421175  1.0
  Cl  Cl181  1  0.18690984  0.29291736  0.33198259  1.0
  Cl  Cl182  1  0.31320644  0.60698811  0.76850789  1.0
  Cl  Cl183  1  0.54034206  0.46817045  0.15560429  1.0
  Cl  Cl184  1  0.94831373  0.25778097  0.60480798  1.0
  Cl  Cl185  1  0.18814130  0.53899961  0.32776738  1.0
  Cl  Cl186  1  0.94579234  0.53676942  0.32756510  1.0
  Cl  Cl187  1  0.21099890  0.54275690  0.59457073  1.0
  Cl  Cl188  1  0.55275992  0.21236352  0.92387021  1.0
  Cl  Cl189  1  0.28863356  0.08800470  0.77609825  1.0
  Cl  Cl190  1  0.28994345  0.70886482  0.15504978  1.0
  Cl  Cl191  1  0.55309467  0.99151443  0.14459127  1.0
  O  O192  1  0.99822831  0.50063639  0.50113016  1.0
  O  O193  1  0.82299174  0.58204547  0.47032927  1.0
  O  O194  1  0.10123598  0.37553500  0.41855480  1.0
  O  O195  1  0.94588182  0.38599557  0.55841065  1.0
  O  O196  1  0.94287864  0.53159362  0.41453211  1.0
  O  O197  1  0.82516810  0.49439963  0.55609869  1.0
  O  O198  1  0.10961959  0.31199626  0.47950656  1.0
  O  O199  1  0.11804478  0.38585802  0.55907330  1.0
  O  O200  1  0.95303611  0.65813467  0.55059252  1.0
  O  O201  1  0.11609974  0.50234932  0.55517624  1.0
  O  O202  1  0.83221211  0.65282290  0.55095222  1.0
  O  O203  1  0.11688986  0.52586799  0.41497294  1.0
  O  O204  1  0.11431926  0.59142978  0.47019067  1.0
  O  O205  1  0.50101844  0.24946226  0.75004704  1.0
  O  O206  1  0.67425163  0.25094926  0.69506024  1.0
  O  O207  1  0.39971748  0.43475642  0.76994880  1.0
  O  O208  1  0.55390270  0.22007769  0.83643272  1.0
  O  O209  1  0.55984655  0.36358632  0.68962398  1.0
  O  O210  1  0.67411566  0.16417622  0.78108137  1.0
  O  O211  1  0.39166069  0.37595563  0.83255054  1.0
  O  O212  1  0.38062562  0.22046490  0.83691589  1.0
  O  O213  1  0.54504974  0.09565637  0.69669138  1.0
  O  O214  1  0.38631273  0.16386498  0.77712458  1.0
  O  O215  1  0.66821894  0.09316715  0.69938254  1.0
  O  O216  1  0.38859113  0.36345606  0.69046850  1.0
  O  O217  1  0.38184291  0.25063661  0.69223412  1.0
  O  O218  1  0.50077073  0.75048802  0.25030380  1.0
  O  O219  1  0.38723664  0.71850229  0.33864932  1.0
  O  O220  1  0.54280956  0.59443671  0.19988824  1.0
  O  O221  1  0.67249794  0.66798428  0.27868941  1.0
  O  O222  1  0.38212818  0.66657143  0.28009817  1.0
  O  O223  1  0.55783150  0.71806991  0.33763010  1.0
  O  O224  1  0.66693393  0.59553056  0.19685050  1.0
  O  O225  1  0.67421309  0.75333438  0.19182585  1.0
  O  O226  1  0.39228163  0.93537546  0.27153122  1.0
  O  O227  1  0.55422795  0.86361015  0.19097397  1.0
  O  O228  1  0.39643797  0.87373017  0.33333333  1.0
  O  O229  1  0.38588913  0.74909831  0.19314795  1.0
  O  O230  1  0.38087361  0.86667918  0.19125356  1.0
  O  O231  1  0.00083723  0.99997073  0.99998988  1.0
  O  O232  1  0.11228797  0.88679757  0.05912759  1.0
  O  O233  1  0.96090246  0.15542683  0.05164128  1.0
  O  O234  1  0.82759851  0.99881739  0.05688009  1.0
  O  O235  1  0.12035242  0.99914578  0.05625592  1.0
  O  O236  1  0.94199284  0.88416811  0.05957150  1.0
  O  O237  1  0.83748820  0.15524352  0.05192385  1.0
  O  O238  1  0.82753444  0.08471274  0.97123057  1.0
  O  O239  1  0.10248217  0.87523972  0.91791929  1.0
  O  O240  1  0.94190997  0.03147748  0.91244449  1.0
  O  O241  1  0.10269929  0.81322404  0.97965130  1.0
  O  O242  1  0.12009048  0.08461073  0.97103172  1.0
  O  O243  1  0.11275925  0.03159870  0.91356112  1.0
