# generated using pymatgen
data_Mg2H10C16O9
_symmetry_space_group_name_H-M   'P 1'
_cell_length_a   6.84299667
_cell_length_b   28.24675843
_cell_length_c   28.24909656
_cell_angle_alpha   119.36069828
_cell_angle_beta   94.64551448
_cell_angle_gamma   94.63041863
_symmetry_Int_Tables_number   1
_chemical_formula_structural   Mg2H10C16O9
_chemical_formula_sum   'Mg6 H30 C48 O27'
_cell_volume   4697.51560883
_cell_formula_units_Z   3
loop_
 _symmetry_equiv_pos_site_id
 _symmetry_equiv_pos_as_xyz
  1  'x, y, z'
loop_
 _atom_site_type_symbol
 _atom_site_label
 _atom_site_symmetry_multiplicity
 _atom_site_fract_x
 _atom_site_fract_y
 _atom_site_fract_z
 _atom_site_occupancy
  Mg  Mg0  1  0.50268144  0.32603724  0.69968912  1.0
  Mg  Mg1  1  0.79336386  0.67335475  0.37347650  1.0
  Mg  Mg2  1  0.17658835  0.37365996  0.67396798  1.0
  Mg  Mg3  1  0.12005018  0.70014814  0.32661121  1.0
  Mg  Mg4  1  0.80292134  0.30030552  0.62634928  1.0
  Mg  Mg5  1  0.41984579  0.62647443  0.29983837  1.0
  H  H6  1  0.18191225  0.83392271  0.43740601  1.0
  H  H7  1  0.49958170  0.85147903  0.37993057  1.0
  H  H8  1  0.75966963  0.93438798  0.42477472  1.0
  H  H9  1  0.38858768  0.91296068  0.46889832  1.0
  H  H10  1  0.24634258  0.92378964  0.52412956  1.0
  H  H11  1  0.38095135  0.01223376  0.46631377  1.0
  H  H12  1  0.60055924  0.98794044  0.48235752  1.0
  H  H13  1  0.73157284  0.16474112  0.59863213  1.0
  H  H14  1  0.00998521  0.14498323  0.54420329  1.0
  H  H15  1  0.17382409  0.06166158  0.51247448  1.0
  H  H16  1  0.34772028  0.60330557  0.16601057  1.0
  H  H17  1  0.64761409  0.52854440  0.14854878  1.0
  H  H18  1  0.82433637  0.49045942  0.06557222  1.0
  H  H19  1  0.47498589  0.55581756  0.08704471  1.0
  H  H20  1  0.32189071  0.60019360  0.07618815  1.0
  H  H21  1  0.36878907  0.45394036  0.98774838  1.0
  H  H22  1  0.61247628  0.49441656  0.01217798  1.0
  H  H23  1  0.56715798  0.43390544  0.83536290  1.0
  H  H24  1  0.86518904  0.39919734  0.85497667  1.0
  H  H25  1  0.11233885  0.45073284  0.93834511  1.0
  H  H26  1  0.74475187  0.56279779  0.39671480  1.0
  H  H27  1  0.11971993  0.62017936  0.47153652  1.0
  H  H28  1  0.33469244  0.57534638  0.50964682  1.0
  H  H29  1  0.91957208  0.53123378  0.44415468  1.0
  H  H30  1  0.72220723  0.47597692  0.39969574  1.0
  H  H31  1  0.91427031  0.53377147  0.54597735  1.0
  H  H32  1  0.11810098  0.51780079  0.50573870  1.0
  H  H33  1  0.13275219  0.40137657  0.56601887  1.0
  H  H34  1  0.46538601  0.45560726  0.60066889  1.0
  H  H35  1  0.66096679  0.48753204  0.54922438  1.0
  C  C36  1  0.98351904  0.89010252  0.43647469  1.0
  C  C37  1  0.03288677  0.83920520  0.42600547  1.0
  C  C38  1  0.89185539  0.79154259  0.39815352  1.0
  C  C39  1  0.69250955  0.79689076  0.38348988  1.0
  C  C40  1  0.65043581  0.84883724  0.39320395  1.0
  C  C41  1  0.79173168  0.89464692  0.41815801  1.0
  C  C42  1  0.52923569  0.75142480  0.35884547  1.0
  C  C43  1  0.28856551  0.93888216  0.49663161  1.0
  C  C44  1  0.48249468  0.01315190  0.49925858  1.0
  C  C45  1  0.46575554  0.10884380  0.55269251  1.0
  C  C46  1  0.57290955  0.16057939  0.58687038  1.0
  C  C47  1  0.48010171  0.20801790  0.60709207  1.0
  C  C48  1  0.27128619  0.20183690  0.59045696  1.0
  C  C49  1  0.16863217  0.14871317  0.55583377  1.0
  C  C50  1  0.26057769  0.10202136  0.53710573  1.0
  C  C51  1  0.15821581  0.24834646  0.60809780  1.0
  C  C52  1  0.09286316  0.54630899  0.10985747  1.0
  C  C53  1  0.19333143  0.58670204  0.16075355  1.0
  C  C54  1  0.10008889  0.60656833  0.20842905  1.0
  C  C55  1  0.89540351  0.58659617  0.20309079  1.0
  C  C56  1  0.80111444  0.54441856  0.15114327  1.0
  C  C57  1  0.89642614  0.52352327  0.10532106  1.0
  C  C58  1  0.77774972  0.60743665  0.24857094  1.0
  C  C59  1  0.34906999  0.55761069  0.06110634  1.0
  C  C60  1  0.46922937  0.48602331  0.98689315  1.0
  C  C61  1  0.35712071  0.44381548  0.89119601  1.0
  C  C62  1  0.41259541  0.42629634  0.83947558  1.0
  C  C63  1  0.27231669  0.39910902  0.79201047  1.0
  C  C64  1  0.06967052  0.38864950  0.79817206  1.0
  C  C65  1  0.02011311  0.40712070  0.85128471  1.0
  C  C66  1  0.15873154  0.43505069  0.89799603  1.0
  C  C67  1  0.91008989  0.35979195  0.75165230  1.0
  C  C68  1  0.54706736  0.56364312  0.45370866  1.0
  C  C69  1  0.60702453  0.57416081  0.41332902  1.0
  C  C70  1  0.49377044  0.60192220  0.39342803  1.0
  C  C71  1  0.30906665  0.61656243  0.41340406  1.0
  C  C72  1  0.25729844  0.60688829  0.45565254  1.0
  C  C73  1  0.37358642  0.58196085  0.47654224  1.0
  C  C74  1  0.17038984  0.64111707  0.39250691  1.0
  C  C75  1  0.79184875  0.50347705  0.44231357  1.0
  C  C76  1  0.98307886  0.50085610  0.51398003  1.0
  C  C77  1  0.91278565  0.44730685  0.55614016  1.0
  C  C78  1  0.98580299  0.41309400  0.57362929  1.0
  C  C79  1  0.87286155  0.39281630  0.60082723  1.0
  C  C80  1  0.68061422  0.40941571  0.61125452  1.0
  C  C81  1  0.61245420  0.44403044  0.59276207  1.0
  C  C82  1  0.72312729  0.46284848  0.56487822  1.0
  C  C83  1  0.55007347  0.39182842  0.64017530  1.0
  O  O84  1  0.97652080  0.24164205  0.58899736  1.0
  O  O85  1  0.24715459  0.29673858  0.64439826  1.0
  O  O86  1  0.59133598  0.25655774  0.64074694  1.0
  O  O87  1  0.35374360  0.75837410  0.34698926  1.0
  O  O88  1  0.56510175  0.70355108  0.35011208  1.0
  O  O89  1  0.95395869  0.74364889  0.38667542  1.0
  O  O90  1  0.11102148  0.93779987  0.46412190  1.0
  O  O91  1  0.37527281  0.99291176  0.52892197  1.0
  O  O92  1  0.57680474  0.06602255  0.53612762  1.0
  O  O93  1  0.73511950  0.34740311  0.75835490  1.0
  O  O94  1  0.95057388  0.34771333  0.70326800  1.0
  O  O95  1  0.33496600  0.38422264  0.74347791  1.0
  O  O96  1  0.59531522  0.58864356  0.24163984  1.0
  O  O97  1  0.86165025  0.64658573  0.29642860  1.0
  O  O98  1  0.21024548  0.64299537  0.25630839  1.0
  O  O99  1  0.17257399  0.52619991  0.06216011  1.0
  O  O100  1  0.38186878  0.53587302  0.00709712  1.0
  O  O101  1  0.51090846  0.47007958  0.93406216  1.0
  O  O102  1  0.38752331  0.41093203  0.65259501  1.0
  O  O103  1  0.60286851  0.35558346  0.65232386  1.0
  O  O104  1  0.95065871  0.35921540  0.61574274  1.0
  O  O105  1  0.00655600  0.65286523  0.41121092  1.0
  O  O106  1  0.21512308  0.64985616  0.35338518  1.0
  O  O107  1  0.56724677  0.61331433  0.35695773  1.0
  O  O108  1  0.64673964  0.53593905  0.47371454  1.0
  O  O109  1  0.84630444  0.47117727  0.46402999  1.0
  O  O110  1  0.04047446  0.46397664  0.52997177  1.0
