# generated using pymatgen
data_Zn4H32C37O19
_symmetry_space_group_name_H-M   'P 1'
_cell_length_a   18.05016896
_cell_length_b   18.15323863
_cell_length_c   18.22897065
_cell_angle_alpha   60.95513186
_cell_angle_beta   60.75697722
_cell_angle_gamma   60.71211753
_symmetry_Int_Tables_number   1
_chemical_formula_structural   Zn4H32C37O19
_chemical_formula_sum   'Zn8 H64 C74 O38'
_cell_volume   4300.53112864
_cell_formula_units_Z   2
loop_
 _symmetry_equiv_pos_site_id
 _symmetry_equiv_pos_as_xyz
  1  'x, y, z'
loop_
 _atom_site_type_symbol
 _atom_site_label
 _atom_site_symmetry_multiplicity
 _atom_site_fract_x
 _atom_site_fract_y
 _atom_site_fract_z
 _atom_site_occupancy
  Zn  Zn0  1  0.38131747  0.20379072  0.20702568  1.0
  Zn  Zn1  1  0.61867990  0.79621264  0.79297528  1.0
  Zn  Zn2  1  0.20696481  0.38154827  0.20416487  1.0
  Zn  Zn3  1  0.79303492  0.61845376  0.79583614  1.0
  Zn  Zn4  1  0.20549301  0.20860207  0.38172854  1.0
  Zn  Zn5  1  0.79450362  0.79139594  0.61827541  1.0
  Zn  Zn6  1  0.20556704  0.20460048  0.20776287  1.0
  Zn  Zn7  1  0.79443441  0.79540022  0.79223904  1.0
  H  H8  1  0.07256116  0.47633210  0.85535856  1.0
  H  H9  1  0.97117111  0.96794917  0.65769831  1.0
  H  H10  1  0.41102729  0.83343347  0.15132365  1.0
  H  H11  1  0.44441697  0.82415860  0.04563573  1.0
  H  H12  1  0.52547649  0.77779232  0.09848855  1.0
  H  H13  1  0.58897006  0.16656987  0.84867403  1.0
  H  H14  1  0.47452046  0.22221034  0.90150911  1.0
  H  H15  1  0.55558017  0.17584540  0.95436229  1.0
  H  H16  1  0.99929307  0.32490893  0.99783932  1.0
  H  H17  1  0.00070676  0.67508710  0.00216567  1.0
  H  H18  1  0.15440184  0.60147520  0.41698925  1.0
  H  H19  1  0.92743785  0.52366259  0.14464749  1.0
  H  H20  1  0.04817042  0.68140989  0.45248274  1.0
  H  H21  1  0.10188716  0.59438415  0.53093391  1.0
  H  H22  1  0.84560260  0.39852417  0.58301185  1.0
  H  H23  1  0.89811853  0.40561522  0.46906547  1.0
  H  H24  1  0.95183466  0.31858948  0.54751859  1.0
  H  H25  1  0.99904069  0.68868662  0.31875364  1.0
  H  H26  1  0.10483197  0.60787087  0.28368328  1.0
  H  H27  1  0.00707523  0.60908532  0.28229588  1.0
  H  H28  1  0.00096632  0.31131075  0.68124717  1.0
  H  H29  1  0.99293028  0.39091271  0.71770425  1.0
  H  H30  1  0.85390898  0.47648138  0.07264957  1.0
  H  H31  1  0.89517228  0.39212716  0.71631856  1.0
  H  H32  1  0.83045068  0.60200938  0.41262994  1.0
  H  H33  1  0.77576129  0.59636866  0.52623654  1.0
  H  H34  1  0.82341356  0.68196342  0.44777393  1.0
  H  H35  1  0.16956062  0.39798465  0.58736987  1.0
  H  H36  1  0.17659217  0.31803393  0.55222478  1.0
  H  H37  1  0.22424528  0.40362802  0.47376099  1.0
  H  H38  1  0.60407495  0.42339996  0.83651071  1.0
  H  H39  1  0.39592179  0.57660341  0.16349165  1.0
  H  H40  1  0.39450202  0.57292646  0.86558412  1.0
  H  H41  1  0.14609046  0.52351398  0.92735649  1.0
  H  H42  1  0.60549839  0.42707153  0.13441414  1.0
  H  H43  1  0.32559009  0.67661552  0.99988076  1.0
  H  H44  1  0.67440494  0.32338916  0.00012014  1.0
  H  H45  1  0.41151831  0.15269432  0.83366506  1.0
  H  H46  1  0.52602883  0.09933261  0.77861109  1.0
  H  H47  1  0.44485126  0.04672144  0.82432489  1.0
  H  H48  1  0.58847951  0.84730768  0.16633415  1.0
  H  H49  1  0.55514697  0.95328123  0.17567434  1.0
  H  H50  1  0.47396939  0.90067007  0.22138814  1.0
  H  H51  1  0.60263340  0.83330350  0.40967726  1.0
  H  H52  1  0.34148615  0.02979359  0.02884120  1.0
  H  H53  1  0.68534095  0.82707271  0.44137900  1.0
  H  H54  1  0.60082248  0.77806416  0.52205662  1.0
  H  H55  1  0.39736795  0.16670116  0.59031618  1.0
  H  H56  1  0.39918040  0.22193782  0.47793682  1.0
  H  H57  1  0.31466103  0.17293196  0.55861466  1.0
  H  H58  1  0.61184951  0.13155666  0.41801058  1.0
  H  H59  1  0.38815273  0.86844535  0.58198591  1.0
  H  H60  1  0.83030814  0.15270592  0.41473696  1.0
  H  H61  1  0.82094902  0.04704183  0.44597732  1.0
  H  H62  1  0.77548741  0.09832486  0.52735747  1.0
  H  H63  1  0.65851145  0.97020909  0.97115943  1.0
  H  H64  1  0.16969422  0.84728804  0.58525902  1.0
  H  H65  1  0.22451174  0.90167110  0.47263801  1.0
  H  H66  1  0.17905570  0.95295080  0.55401872  1.0
  H  H67  1  0.13104063  0.84331890  0.41317693  1.0
  H  H68  1  0.86895827  0.15668178  0.58682349  1.0
  H  H69  1  0.59606752  0.03172078  0.34262443  1.0
  H  H70  1  0.40393536  0.96828123  0.65737120  1.0
  H  H71  1  0.02882931  0.03204884  0.34230213  1.0
  C  C72  1  0.11100433  0.38588076  0.10910507  1.0
  C  C73  1  0.44926161  0.05191200  0.44532999  1.0
  C  C74  1  0.55189293  0.04316501  0.48431596  1.0
  C  C75  1  0.44810955  0.95683633  0.51568128  1.0
  C  C76  1  0.01568213  0.01729823  0.41247888  1.0
  C  C77  1  0.98431684  0.98269843  0.58752239  1.0
  C  C78  1  0.92020050  0.04177315  0.48314724  1.0
  C  C79  1  0.07979973  0.95822351  0.51685286  1.0
  C  C80  1  0.94798154  0.94662802  0.55419977  1.0
  C  C81  1  0.05201825  0.05336999  0.44580153  1.0
  C  C82  1  0.04258992  0.92281695  0.48178782  1.0
  C  C83  1  0.88899468  0.61411392  0.89089934  1.0
  C  C84  1  0.95740924  0.07718105  0.51821270  1.0
  C  C85  1  0.01348173  0.41454158  0.01300817  1.0
  C  C86  1  0.98651729  0.58545310  0.98699733  1.0
  C  C87  1  0.39106702  0.10916398  0.38874894  1.0
  C  C88  1  0.60893269  0.89083803  0.61124934  1.0
  C  C89  1  0.04119441  0.48623294  0.92004653  1.0
  C  C90  1  0.95880589  0.51376174  0.07995889  1.0
  C  C91  1  0.94672764  0.55805616  0.94808059  1.0
  C  C92  1  0.05327116  0.44193919  0.05192524  1.0
  C  C93  1  0.91922831  0.48631411  0.04122151  1.0
  C  C94  1  0.48277000  0.04236049  0.92167117  1.0
  C  C95  1  0.08077157  0.51367991  0.95878499  1.0
  C  C96  1  0.01607367  0.55609274  0.41332593  1.0
  C  C97  1  0.98393289  0.44390597  0.58667391  1.0
  C  C98  1  0.04291779  0.55241342  0.48554810  1.0
  C  C99  1  0.95708711  0.44758462  0.51445452  1.0
  C  C100  1  0.94720258  0.54835951  0.55693734  1.0
  C  C101  1  0.05280186  0.45163986  0.44306376  1.0
  C  C102  1  0.92074996  0.55270817  0.48356548  1.0
  C  C103  1  0.07925362  0.44729186  0.51643571  1.0
  C  C104  1  0.44618090  0.51435312  0.95856451  1.0
  C  C105  1  0.51722759  0.95764218  0.07832783  1.0
  C  C106  1  0.55381349  0.48565157  0.04143671  1.0
  C  C107  1  0.55232019  0.48443356  0.92095873  1.0
  C  C108  1  0.44767634  0.51557046  0.07904232  1.0
  C  C109  1  0.54820750  0.55728084  0.94792927  1.0
  C  C110  1  0.45178857  0.44272451  0.05207025  1.0
  C  C111  1  0.39226509  0.38659067  0.11034163  1.0
  C  C112  1  0.60772844  0.61341468  0.88965968  1.0
  C  C113  1  0.44268248  0.58725437  0.98525915  1.0
  C  C114  1  0.55731106  0.41275098  0.01474271  1.0
  C  C115  1  0.10939040  0.11078459  0.38947736  1.0
  C  C116  1  0.55398579  0.01742677  0.41264489  1.0
  C  C117  1  0.89060854  0.88921410  0.61052567  1.0
  C  C118  1  0.11010307  0.39330777  0.38683610  1.0
  C  C119  1  0.88989992  0.60669027  0.61316746  1.0
  C  C120  1  0.38806077  0.10912404  0.11009463  1.0
  C  C121  1  0.61193383  0.89087996  0.88990408  1.0
  C  C122  1  0.41221526  0.01614965  0.01569739  1.0
  C  C123  1  0.58778382  0.98385237  0.98430229  1.0
  C  C124  1  0.48260823  0.92142776  0.04174354  1.0
  C  C125  1  0.51738955  0.07857626  0.95825634  1.0
  C  C126  1  0.55544778  0.94741583  0.94766629  1.0
  C  C127  1  0.44601624  0.98257591  0.58735192  1.0
  C  C128  1  0.44455130  0.05258618  0.05233230  1.0
  C  C129  1  0.46501774  0.83453922  0.08665953  1.0
  C  C130  1  0.53497899  0.16546411  0.91333847  1.0
  C  C131  1  0.08917736  0.61043805  0.47074698  1.0
  C  C132  1  0.91082795  0.38956066  0.52925511  1.0
  C  C133  1  0.03252135  0.61887882  0.31964861  1.0
  C  C134  1  0.96748398  0.38111788  0.68035336  1.0
  C  C135  1  0.83304656  0.61121083  0.46665222  1.0
  C  C136  1  0.16695854  0.38878653  0.53334790  1.0
  C  C137  1  0.46547204  0.08766858  0.83497248  1.0
  C  C138  1  0.55478466  0.92175114  0.48117218  1.0
  C  C139  1  0.53452532  0.91233477  0.16502684  1.0
  C  C140  1  0.61404060  0.83548027  0.46252917  1.0
  C  C141  1  0.38596183  0.16452306  0.53746493  1.0
  C  C142  1  0.83210717  0.08727078  0.46690060  1.0
  C  C143  1  0.16789456  0.91272319  0.53309678  1.0
  C  C144  1  0.44521782  0.07825019  0.51882398  1.0
  C  C145  1  0.55074168  0.94809069  0.55466620  1.0
  O  O146  1  0.24965179  0.25065070  0.25087412  1.0
  O  O147  1  0.69351734  0.86491810  0.57078699  1.0
  O  O148  1  0.13306025  0.30161327  0.13285735  1.0
  O  O149  1  0.86693579  0.69838275  0.86714951  1.0
  O  O150  1  0.43085431  0.12807030  0.30477001  1.0
  O  O151  1  0.56914767  0.87193639  0.69522651  1.0
  O  O152  1  0.30804328  0.42933659  0.12899861  1.0
  O  O153  1  0.69195126  0.57067145  0.87100253  1.0
  O  O154  1  0.13223121  0.13310253  0.43000138  1.0
  O  O155  1  0.86776154  0.86689949  0.57000305  1.0
  O  O156  1  0.13136285  0.43071490  0.30248521  1.0
  O  O157  1  0.75034691  0.74935066  0.74912936  1.0
  O  O158  1  0.86863800  0.56928379  0.69751688  1.0
  O  O159  1  0.30291961  0.12902934  0.13558812  1.0
  O  O160  1  0.69707580  0.87097599  0.86440845  1.0
  O  O161  1  0.13362250  0.30917690  0.42839493  1.0
  O  O162  1  0.86638004  0.69082247  0.57160710  1.0
  O  O163  1  0.43023912  0.13297489  0.12998476  1.0
  O  O164  1  0.56975486  0.86702912  0.87001645  1.0
  O  O165  1  0.02989299  0.32614082  0.02872094  1.0
  O  O166  1  0.97010625  0.67385320  0.97128532  1.0
  O  O167  1  0.60721448  0.47474845  0.83803579  1.0
  O  O168  1  0.43080136  0.30256408  0.13594200  1.0
  O  O169  1  0.39278205  0.52525557  0.16196580  1.0
  O  O170  1  0.39038713  0.52301520  0.92101942  1.0
  O  O171  1  0.60960963  0.47698615  0.07898172  1.0
  O  O172  1  0.38777427  0.67589387  0.96894341  1.0
  O  O173  1  0.61222014  0.32411082  0.03105944  1.0
  O  O174  1  0.60715085  0.08264457  0.47412308  1.0
  O  O175  1  0.39284969  0.91735877  0.52587360  1.0
  O  O176  1  0.08147556  0.84037885  0.46926904  1.0
  O  O177  1  0.91852399  0.15961982  0.53073040  1.0
  O  O178  1  0.56919216  0.69744125  0.86405659  1.0
  O  O179  1  0.13145292  0.13198487  0.30549695  1.0
  O  O180  1  0.86854943  0.86801316  0.69450583  1.0
  O  O181  1  0.13300037  0.42914532  0.12938019  1.0
  O  O182  1  0.86700158  0.57085003  0.87062245  1.0
  O  O183  1  0.30648327  0.13508124  0.42921215  1.0
