# generated using pymatgen
data_Al2H4C19NO12
_symmetry_space_group_name_H-M   'P 1'
_cell_length_a   6.69640698
_cell_length_b   19.41516810
_cell_length_c   21.47689148
_cell_angle_alpha   86.69054494
_cell_angle_beta   88.55134069
_cell_angle_gamma   88.99577065
_symmetry_Int_Tables_number   1
_chemical_formula_structural   Al2H4C19NO12
_chemical_formula_sum   'Al4 H8 C38 N2 O24'
_cell_volume   2786.34202738
_cell_formula_units_Z   2
loop_
 _symmetry_equiv_pos_site_id
 _symmetry_equiv_pos_as_xyz
  1  'x, y, z'
loop_
 _atom_site_type_symbol
 _atom_site_label
 _atom_site_symmetry_multiplicity
 _atom_site_fract_x
 _atom_site_fract_y
 _atom_site_fract_z
 _atom_site_occupancy
  Al  Al0  1  0.76603439  0.26510352  0.26193708  1.0
  Al  Al1  1  0.23397113  0.73489365  0.73805448  1.0
  Al  Al2  1  0.26564440  0.26491920  0.26247983  1.0
  Al  Al3  1  0.73435324  0.73508672  0.73751834  1.0
  H  H4  1  0.16159848  0.10262373  0.95117083  1.0
  H  H5  1  0.83840527  0.89737962  0.04882417  1.0
  H  H6  1  0.78933021  0.04769480  0.91511054  1.0
  H  H7  1  0.21067508  0.95230857  0.08487839  1.0
  H  H8  1  0.52122876  0.17560097  0.25486717  1.0
  H  H9  1  0.47875108  0.82439976  0.74514023  1.0
  H  H10  1  0.01108141  0.35538801  0.26582363  1.0
  H  H11  1  0.98890285  0.64461480  0.73418131  1.0
  C  C12  1  0.51777396  0.34967749  0.17491334  1.0
  C  C13  1  0.48222444  0.65031249  0.82507164  1.0
  C  C14  1  0.50570535  0.34524375  0.34419779  1.0
  C  C15  1  0.49431686  0.65474512  0.65580290  1.0
  C  C16  1  0.01303612  0.17776865  0.34728243  1.0
  C  C17  1  0.98696025  0.82223159  0.65271650  1.0
  C  C18  1  0.02715841  0.18486498  0.18009315  1.0
  C  C19  1  0.97284530  0.81513941  0.81989994  1.0
  C  C20  1  0.88403381  0.02729657  0.95263295  1.0
  C  C21  1  0.11595938  0.97270885  0.04736295  1.0
  C  C22  1  0.08699581  0.05730631  0.97237808  1.0
  C  C23  1  0.91298988  0.94270015  0.02761643  1.0
  C  C24  1  0.03176251  0.13822603  0.13023964  1.0
  C  C25  1  0.96825449  0.86178196  0.86975458  1.0
  C  C26  1  0.81770974  0.01622248  0.02202607  1.0
  C  C27  1  0.18228192  0.98378397  0.97796933  1.0
  C  C28  1  0.02146790  0.04817692  0.04379528  1.0
  C  C29  1  0.97852677  0.95182900  0.95620105  1.0
  C  C30  1  0.03297052  0.09708465  0.08957797  1.0
  C  C31  1  0.96702571  0.90291973  0.91041750  1.0
  C  C32  1  0.98944485  0.87544569  0.60311896  1.0
  C  C33  1  0.01054977  0.12456022  0.39688250  1.0
  C  C34  1  0.99324297  0.92315388  0.56313109  1.0
  C  C35  1  0.00675195  0.07684533  0.43686789  1.0
  C  C36  1  0.99778601  0.97565331  0.51975973  1.0
  C  C37  1  0.00223749  0.02434283  0.48023035  1.0
  C  C38  1  0.51671536  0.39605056  0.12006914  1.0
  C  C39  1  0.48328998  0.60391778  0.87990707  1.0
  C  C40  1  0.51108962  0.43591677  0.07368220  1.0
  C  C41  1  0.48892516  0.56404233  0.92628229  1.0
  C  C42  1  0.50391519  0.47970011  0.02312597  1.0
  C  C43  1  0.49612377  0.52025332  0.97683350  1.0
  C  C44  1  0.50151595  0.39235577  0.39359272  1.0
  C  C45  1  0.49856327  0.60762528  0.60641680  1.0
  C  C46  1  0.50090666  0.43370752  0.43467433  1.0
  C  C47  1  0.49931933  0.56626361  0.56533837  1.0
  C  C48  1  0.50031538  0.47905548  0.47945563  1.0
  C  C49  1  0.49994513  0.52091359  0.52054761  1.0
  N  N50  1  0.37326545  0.96365648  0.94956189  1.0
  N  N51  1  0.62673207  0.03635149  0.05043991  1.0
  O  O52  1  0.33746944  0.32686472  0.32503680  1.0
  O  O53  1  0.66253132  0.67313758  0.67496200  1.0
  O  O54  1  0.68811580  0.33177395  0.19600259  1.0
  O  O55  1  0.31187643  0.66822067  0.80398314  1.0
  O  O56  1  0.85437753  0.20278450  0.20004538  1.0
  O  O57  1  0.14561724  0.79722043  0.79994262  1.0
  O  O58  1  0.67811125  0.32739814  0.32391548  1.0
  O  O59  1  0.32191112  0.67258870  0.67607740  1.0
  O  O60  1  0.84344054  0.19822267  0.32731926  1.0
  O  O61  1  0.15656070  0.80176987  0.67267023  1.0
  O  O62  1  0.34697648  0.33193159  0.19713837  1.0
  O  O63  1  0.65302432  0.66807178  0.80285106  1.0
  O  O64  1  0.51802027  0.22428425  0.26263758  1.0
  O  O65  1  0.48197448  0.77572015  0.73735603  1.0
  O  O66  1  0.18441145  0.19788478  0.32751249  1.0
  O  O67  1  0.81558762  0.80212111  0.67249219  1.0
  O  O68  1  0.19470112  0.20271294  0.20007093  1.0
  O  O69  1  0.80529813  0.79728989  0.79992785  1.0
  O  O70  1  0.01388487  0.30602453  0.26135096  1.0
  O  O71  1  0.98611136  0.69397986  0.73864404  1.0
  O  O72  1  0.48116422  0.92189339  0.97995527  1.0
  O  O73  1  0.41076137  0.98819043  0.89612012  1.0
  O  O74  1  0.51881698  0.07811149  0.02004819  1.0
  O  O75  1  0.58926876  0.01182266  0.10388633  1.0
