# generated using pymatgen
data_CoH13C18N3O4
_symmetry_space_group_name_H-M   'P 1'
_cell_length_a   11.34990428
_cell_length_b   17.66185311
_cell_length_c   17.83999828
_cell_angle_alpha   89.99995631
_cell_angle_beta   89.99996360
_cell_angle_gamma   99.47376200
_symmetry_Int_Tables_number   1
_chemical_formula_structural   CoH13C18N3O4
_chemical_formula_sum   'Co4 H52 C72 N12 O16'
_cell_volume   3527.43648837
_cell_formula_units_Z   4
loop_
 _symmetry_equiv_pos_site_id
 _symmetry_equiv_pos_as_xyz
  1  'x, y, z'
loop_
 _atom_site_type_symbol
 _atom_site_label
 _atom_site_symmetry_multiplicity
 _atom_site_fract_x
 _atom_site_fract_y
 _atom_site_fract_z
 _atom_site_occupancy
  Co  Co0  1  0.96526021  0.07271988  0.92016635  1.0
  Co  Co1  1  0.03474101  0.42728015  0.42016747  1.0
  Co  Co2  1  0.03474033  0.92728421  0.07983205  1.0
  Co  Co3  1  0.96525942  0.57271303  0.57983148  1.0
  H  H4  1  0.01202770  0.77767008  0.98741235  1.0
  H  H5  1  0.00798883  0.68593521  0.95183839  1.0
  H  H6  1  0.95386635  0.92261076  0.76654606  1.0
  H  H7  1  0.00383406  0.65479917  0.82303963  1.0
  H  H8  1  0.95667521  0.82750834  0.66158700  1.0
  H  H9  1  0.52500440  0.97274681  0.84960162  1.0
  H  H10  1  0.74467892  0.97680501  0.85270808  1.0
  H  H11  1  0.79408818  0.16498566  0.99339505  1.0
  H  H12  1  0.57885341  0.17243509  0.99441752  1.0
  H  H13  1  0.35717142  0.99623255  0.82621207  1.0
  H  H14  1  0.14165853  0.00234769  0.82867774  1.0
  H  H15  1  0.18264263  0.15730655  0.00427176  1.0
  H  H16  1  0.39841197  0.15566235  0.01258394  1.0
  H  H17  1  0.98796551  0.72232736  0.48741437  1.0
  H  H18  1  0.99199269  0.81405766  0.45184090  1.0
  H  H19  1  0.04614240  0.57739150  0.26654576  1.0
  H  H20  1  0.99615011  0.84519669  0.32304660  1.0
  H  H21  1  0.04332677  0.67249113  0.16158663  1.0
  H  H22  1  0.47499306  0.52725995  0.34961297  1.0
  H  H23  1  0.25531870  0.52319888  0.35271503  1.0
  H  H24  1  0.20590975  0.33500856  0.49339338  1.0
  H  H25  1  0.42114405  0.32756429  0.49441744  1.0
  H  H26  1  0.64283520  0.50376851  0.32621776  1.0
  H  H27  1  0.85834473  0.49764956  0.32868128  1.0
  H  H28  1  0.81735766  0.34268811  0.50427442  1.0
  H  H29  1  0.60159459  0.34433977  0.51258780  1.0
  H  H30  1  0.98797195  0.22233400  0.01258492  1.0
  H  H31  1  0.99199235  0.31405852  0.04817009  1.0
  H  H32  1  0.04613584  0.07738243  0.23345794  1.0
  H  H33  1  0.99615741  0.34519343  0.17696213  1.0
  H  H34  1  0.04331023  0.17248482  0.33841924  1.0
  H  H35  1  0.47498920  0.02726473  0.15039397  1.0
  H  H36  1  0.25531588  0.02320079  0.14729087  1.0
  H  H37  1  0.20590531  0.83501842  0.00660390  1.0
  H  H38  1  0.42114167  0.82757530  0.00557976  1.0
  H  H39  1  0.64283628  0.00377901  0.17377791  1.0
  H  H40  1  0.85834096  0.99766271  0.17131617  1.0
  H  H41  1  0.81735940  0.84269295  0.99572887  1.0
  H  H42  1  0.60159560  0.84434520  0.98741053  1.0
  H  H43  1  0.01202612  0.27766237  0.51258290  1.0
  H  H44  1  0.00800260  0.18593609  0.54816534  1.0
  H  H45  1  0.95386165  0.42261603  0.73344815  1.0
  H  H46  1  0.00384339  0.15480394  0.67696133  1.0
  H  H47  1  0.95668329  0.32751928  0.83841568  1.0
  H  H48  1  0.52500896  0.47273955  0.65039328  1.0
  H  H49  1  0.74468202  0.47679546  0.64728673  1.0
  H  H50  1  0.79409201  0.66498291  0.50660502  1.0
  H  H51  1  0.57885843  0.67243004  0.50558432  1.0
  H  H52  1  0.35716656  0.49622296  0.67378176  1.0
  H  H53  1  0.14165676  0.50233732  0.67131879  1.0
  H  H54  1  0.18264290  0.65730909  0.49573126  1.0
  H  H55  1  0.39840685  0.65565743  0.48741844  1.0
  C  C56  1  0.98342862  0.84378041  0.85306234  1.0
  C  C57  1  0.99906483  0.76724897  0.87109376  1.0
  C  C58  1  0.99487812  0.71429207  0.81142674  1.0
  C  C59  1  0.98076408  0.73583519  0.73740879  1.0
  C  C60  1  0.96745039  0.81167851  0.71986055  1.0
  C  C61  1  0.96678146  0.86378617  0.77774451  1.0
  C  C62  1  0.98458299  0.90393145  0.91071423  1.0
  C  C63  1  0.97872678  0.67754573  0.67678773  1.0
  C  C64  1  0.52961165  0.07288294  0.92171632  1.0
  C  C65  1  0.58027418  0.01752663  0.88182507  1.0
  C  C66  1  0.70295246  0.01878502  0.88334747  1.0
  C  C67  1  0.73107912  0.12381370  0.96181100  1.0
  C  C68  1  0.60960860  0.12684803  0.96251842  1.0
  C  C69  1  0.40006310  0.07478724  0.92028642  1.0
  C  C70  1  0.32333916  0.03193767  0.86818667  1.0
  C  C71  1  0.20199925  0.03516845  0.86881729  1.0
  C  C72  1  0.22450803  0.12116760  0.96658689  1.0
  C  C73  1  0.34641452  0.12055361  0.97013058  1.0
  C  C74  1  0.01657077  0.65622004  0.35306312  1.0
  C  C75  1  0.00093074  0.73274686  0.37109505  1.0
  C  C76  1  0.00511972  0.78570554  0.31143078  1.0
  C  C77  1  0.01923150  0.76416364  0.23741565  1.0
  C  C78  1  0.03255093  0.68832205  0.21985962  1.0
  C  C79  1  0.03322317  0.63621378  0.27774697  1.0
  C  C80  1  0.01541957  0.59606780  0.41071786  1.0
  C  C81  1  0.02127181  0.82245430  0.17679622  1.0
  C  C82  1  0.47039220  0.42712054  0.42172400  1.0
  C  C83  1  0.41973383  0.48247918  0.38183665  1.0
  C  C84  1  0.29705056  0.48121849  0.38335461  1.0
  C  C85  1  0.26892426  0.37618457  0.46181263  1.0
  C  C86  1  0.39039698  0.37315196  0.46252225  1.0
  C  C87  1  0.59993079  0.42521163  0.42029068  1.0
  C  C88  1  0.67665567  0.46806125  0.36819367  1.0
  C  C89  1  0.79799911  0.46483047  0.36882201  1.0
  C  C90  1  0.77549064  0.37882951  0.46659055  1.0
  C  C91  1  0.65357723  0.37944750  0.47013486  1.0
  C  C92  1  0.01657868  0.15622254  0.14693493  1.0
  C  C93  1  0.00093485  0.23274823  0.12890687  1.0
  C  C94  1  0.00512172  0.28570226  0.18856942  1.0
  C  C95  1  0.01922695  0.26415913  0.26258680  1.0
  C  C96  1  0.03254284  0.18831409  0.28014176  1.0
  C  C97  1  0.03322895  0.13621162  0.22225389  1.0
  C  C98  1  0.01541827  0.09607551  0.08927856  1.0
  C  C99  1  0.02126644  0.32245031  0.32320955  1.0
  C  C100  1  0.47039444  0.92712919  0.07827478  1.0
  C  C101  1  0.41973867  0.98248437  0.11816603  1.0
  C  C102  1  0.29705408  0.98122539  0.11665036  1.0
  C  C103  1  0.26892876  0.87619155  0.03818403  1.0
  C  C104  1  0.39040234  0.87316238  0.03747885  1.0
  C  C105  1  0.59992744  0.92521912  0.07970862  1.0
  C  C106  1  0.67664579  0.96807098  0.13180500  1.0
  C  C107  1  0.79799216  0.96484136  0.13117998  1.0
  C  C108  1  0.77548237  0.87883475  0.03340983  1.0
  C  C109  1  0.65357496  0.87945906  0.02986501  1.0
  C  C110  1  0.98342215  0.34377830  0.64693303  1.0
  C  C111  1  0.99906321  0.26725205  0.62890335  1.0
  C  C112  1  0.99488038  0.21429683  0.68856817  1.0
  C  C113  1  0.98077300  0.23584218  0.76258723  1.0
  C  C114  1  0.96745810  0.31168779  0.78013990  1.0
  C  C115  1  0.96677618  0.36379260  0.72225030  1.0
  C  C116  1  0.98457953  0.40392711  0.58927717  1.0
  C  C117  1  0.97873636  0.17755210  0.82321226  1.0
  C  C118  1  0.52960925  0.57287667  0.57828000  1.0
  C  C119  1  0.58026776  0.51751860  0.61816791  1.0
  C  C120  1  0.70294884  0.51877412  0.61664826  1.0
  C  C121  1  0.73107469  0.62380976  0.53818745  1.0
  C  C122  1  0.60960330  0.62684409  0.53748344  1.0
  C  C123  1  0.40006979  0.57478214  0.57971388  1.0
  C  C124  1  0.32334845  0.53192908  0.63180809  1.0
  C  C125  1  0.20200486  0.53515928  0.63118087  1.0
  C  C126  1  0.22451301  0.62116597  0.53341289  1.0
  C  C127  1  0.34642496  0.62054569  0.52987082  1.0
  N  N128  1  0.01756074  0.74308453  0.94245384  1.0
  N  N129  1  0.77838380  0.07082207  0.92272805  1.0
  N  N130  1  0.15140130  0.07826380  0.91780776  1.0
  N  N131  1  0.98243050  0.75690837  0.44245528  1.0
  N  N132  1  0.22161992  0.42917738  0.42273246  1.0
  N  N133  1  0.84859656  0.42173335  0.41781081  1.0
  N  N134  1  0.98243425  0.25691152  0.05754736  1.0
  N  N135  1  0.22162863  0.92918376  0.07726979  1.0
  N  N136  1  0.84858616  0.92174084  0.08219287  1.0
  N  N137  1  0.01756405  0.24308596  0.55754480  1.0
  N  N138  1  0.77837875  0.57081580  0.57726874  1.0
  N  N139  1  0.15140770  0.57825755  0.58219319  1.0
  O  O140  1  0.93622800  0.96247725  0.89485660  1.0
  O  O141  1  0.03397062  0.89443145  0.97366903  1.0
  O  O142  1  0.96799350  0.60632429  0.69395368  1.0
  O  O143  1  0.98654771  0.69819070  0.60803715  1.0
  O  O144  1  0.06377222  0.53752660  0.39485016  1.0
  O  O145  1  0.96604922  0.60556319  0.47367451  1.0
  O  O146  1  0.03206032  0.89367123  0.19396268  1.0
  O  O147  1  0.01340427  0.80180243  0.10804679  1.0
  O  O148  1  0.06378763  0.03753777  0.10515581  1.0
  O  O149  1  0.96604465  0.10556119  0.02632208  1.0
  O  O150  1  0.03205187  0.39367242  0.30604976  1.0
  O  O151  1  0.01340804  0.30180701  0.39196012  1.0
  O  O152  1  0.93621073  0.46246713  0.60513927  1.0
  O  O153  1  0.03396587  0.39443920  0.52632613  1.0
  O  O154  1  0.96797741  0.10632661  0.80605646  1.0
  O  O155  1  0.98656971  0.19819416  0.89196562  1.0
