# generated using pymatgen
data_MgH5C12O3F2
_symmetry_space_group_name_H-M   'P 1'
_cell_length_a   6.81329234
_cell_length_b   34.30978659
_cell_length_c   34.31234445
_cell_angle_alpha   119.56734823
_cell_angle_beta   93.79957815
_cell_angle_gamma   93.79069582
_symmetry_Int_Tables_number   1
_chemical_formula_structural   MgH5C12O3F2
_chemical_formula_sum   'Mg6 H30 C72 O18 F12'
_cell_volume   6915.82601727
_cell_formula_units_Z   6
loop_
 _symmetry_equiv_pos_site_id
 _symmetry_equiv_pos_as_xyz
  1  'x, y, z'
loop_
 _atom_site_type_symbol
 _atom_site_label
 _atom_site_symmetry_multiplicity
 _atom_site_fract_x
 _atom_site_fract_y
 _atom_site_fract_z
 _atom_site_occupancy
  Mg  Mg0  1  0.49768655  0.63485463  0.33116854  1.0
  Mg  Mg1  1  0.16651790  0.66884745  0.30366229  1.0
  Mg  Mg2  1  0.86281996  0.69634394  0.36516551  1.0
  Mg  Mg3  1  0.31272346  0.36189288  0.66250006  1.0
  Mg  Mg4  1  0.65024683  0.33758032  0.69944629  1.0
  Mg  Mg5  1  0.95082072  0.30063616  0.63819984  1.0
  H  H6  1  0.97532567  0.44131371  0.88710038  1.0
  H  H7  1  0.08772604  0.11296850  0.55436570  1.0
  H  H8  1  0.53355927  0.44563505  0.55860441  1.0
  H  H9  1  0.35545160  0.50823339  0.92499671  1.0
  H  H10  1  0.43100186  0.07502957  0.58300942  1.0
  H  H11  1  0.84765915  0.41683385  0.49191106  1.0
  H  H12  1  0.00934078  0.42134221  0.82174969  1.0
  H  H13  1  0.18755655  0.17832093  0.59950973  1.0
  H  H14  1  0.58817066  0.40051954  0.57882985  1.0
  H  H15  1  0.70083363  0.44631016  0.79556441  1.0
  H  H16  1  0.90519694  0.20448877  0.65073112  1.0
  H  H17  1  0.25451644  0.34923350  0.55376672  1.0
  H  H18  1  0.60473503  0.48751303  0.87309097  1.0
  H  H19  1  0.73157832  0.12695929  0.61434619  1.0
  H  H20  1  0.11709107  0.38553649  0.51254180  1.0
  H  H21  1  0.86955231  0.57703428  0.11209694  1.0
  H  H22  1  0.75766240  0.88787942  0.46476527  1.0
  H  H23  1  0.29282456  0.53511623  0.42303957  1.0
  H  H24  1  0.46993478  0.51758723  0.07057638  1.0
  H  H25  1  0.39881699  0.92948305  0.44725677  1.0
  H  H26  1  0.95154043  0.55269578  0.48214053  1.0
  H  H27  1  0.81745689  0.59723427  0.17787263  1.0
  H  H28  1  0.63926158  0.82214224  0.41942402  1.0
  H  H29  1  0.22003612  0.58058095  0.40269773  1.0
  H  H30  1  0.11655900  0.56975291  0.19714016  1.0
  H  H31  1  0.91916947  0.80287338  0.37261159  1.0
  H  H32  1  0.54666662  0.62733138  0.43018835  1.0
  H  H33  1  0.22089812  0.53507362  0.12021873  1.0
  H  H34  1  0.10038658  0.87980612  0.41493169  1.0
  H  H35  1  0.68552648  0.58498243  0.46476275  1.0
  C  C36  1  0.73616514  0.49267266  0.00173595  1.0
  C  C37  1  0.73390232  0.99834741  0.49119405  1.0
  C  C38  1  0.24238976  0.50866634  0.50705590  1.0
  C  C39  1  0.83181628  0.53034801  0.04152670  1.0
  C  C40  1  0.79027908  0.95847199  0.48879451  1.0
  C  C41  1  0.30113686  0.51105002  0.46957306  1.0
  C  C42  1  0.01651690  0.54770192  0.03645647  1.0
  C  C43  1  0.98055071  0.96347278  0.51095646  1.0
  C  C44  1  0.46931953  0.48889393  0.45242958  1.0
  C  C45  1  0.09899961  0.52937692  0.99608539  1.0
  C  C46  1  0.10342988  0.00384159  0.53298708  1.0
  C  C47  1  0.57034701  0.46689609  0.47078701  1.0
  C  C48  1  0.00391474  0.49153359  0.95639639  1.0
  C  C49  1  0.04765420  0.04362493  0.53509408  1.0
  C  C50  1  0.51248038  0.46481125  0.50846706  1.0
  C  C51  1  0.81901307  0.47423365  0.96141688  1.0
  C  C52  1  0.85707835  0.03866761  0.51306451  1.0
  C  C53  1  0.34389627  0.48683815  0.52553190  1.0
  C  C54  1  0.07578736  0.47012238  0.91269675  1.0
  C  C55  1  0.16315689  0.08734130  0.55740625  1.0
  C  C56  1  0.60572762  0.44253313  0.52989763  1.0
  C  C57  1  0.24694238  0.48085291  0.90018396  1.0
  C  C58  1  0.34705105  0.09986382  0.58055360  1.0
  C  C59  1  0.76637666  0.41935670  0.51924535  1.0
  C  C60  1  0.29962990  0.45715126  0.85427814  1.0
  C  C61  1  0.44537993  0.14579296  0.60281214  1.0
  C  C62  1  0.84256456  0.39713971  0.54295799  1.0
  C  C63  1  0.16327856  0.42729969  0.81738313  1.0
  C  C64  1  0.34584488  0.18269228  0.60986375  1.0
  C  C65  1  0.73611190  0.39016173  0.57285160  1.0
  C  C66  1  0.21383360  0.40388575  0.77325917  1.0
  C  C67  1  0.44052298  0.22682131  0.63061341  1.0
  C  C68  1  0.81016848  0.36948181  0.59628686  1.0
  C  C69  1  0.41347770  0.41011419  0.76472520  1.0
  C  C70  1  0.64872444  0.23535052  0.64538947  1.0
  C  C71  1  0.00350002  0.35467114  0.59001901  1.0
  C  C72  1  0.54970862  0.44101677  0.80199354  1.0
  C  C73  1  0.74764774  0.19807409  0.63900991  1.0
  C  C74  1  0.10874635  0.36098737  0.55908764  1.0
  C  C75  1  0.49466495  0.46389715  0.84521644  1.0
  C  C76  1  0.64941368  0.15485005  0.61863879  1.0
  C  C77  1  0.03078219  0.38130910  0.53619165  1.0
  C  C78  1  0.05467727  0.37338635  0.73772662  1.0
  C  C79  1  0.31687207  0.26235407  0.63566893  1.0
  C  C80  1  0.68146843  0.36443868  0.62676181  1.0
  C  C81  1  0.76176801  0.55097668  0.08547622  1.0
  C  C82  1  0.67617318  0.91452862  0.46548435  1.0
  C  C83  1  0.21054349  0.53440544  0.44896248  1.0
  C  C84  1  0.58364812  0.54206962  0.09673908  1.0
  C  C85  1  0.48652520  0.90329963  0.44545965  1.0
  C  C86  1  0.04106633  0.55447578  0.45775192  1.0
  C  C87  1  0.52787090  0.56338256  0.14241305  1.0
  C  C88  1  0.38515520  0.85761541  0.42104753  1.0
  C  C89  1  0.96417411  0.57888615  0.43647692  1.0
  C  C90  1  0.66211401  0.59055904  0.18080893  1.0
  C  C91  1  0.48098653  0.81921282  0.40979011  1.0
  C  C92  1  0.07132663  0.59017781  0.40936380  1.0
  C  C93  1  0.60697064  0.61000405  0.22463577  1.0
  C  C94  1  0.38208915  0.77538607  0.38539585  1.0
  C  C95  1  0.99689848  0.61462525  0.38997613  1.0
  C  C96  1  0.40516640  0.60247166  0.23116840  1.0
  C  C97  1  0.17371471  0.76884454  0.37131268  1.0
  C  C98  1  0.80258213  0.62869255  0.39750116  1.0
  C  C99  1  0.26996648  0.57544731  0.19226495  1.0
  C  C100  1  0.07741633  0.80775139  0.38319951  1.0
  C  C101  1  0.69440152  0.61677525  0.42449364  1.0
  C  C102  1  0.32956314  0.55626198  0.14943905  1.0
  C  C103  1  0.17982986  0.85057905  0.40688413  1.0
  C  C104  1  0.77304474  0.59305867  0.44361283  1.0
  C  C105  1  0.76355629  0.63739392  0.26227119  1.0
  C  C106  1  0.50117834  0.73775541  0.37513242  1.0
  C  C107  1  0.12620628  0.62489546  0.36261458  1.0
  O  O108  1  0.93699056  0.64630198  0.25500789  1.0
  O  O109  1  0.68190074  0.74501383  0.39131132  1.0
  O  O110  1  0.29074327  0.60871552  0.35369892  1.0
  O  O111  1  0.72134875  0.65164352  0.30304756  1.0
  O  O112  1  0.41827406  0.69697066  0.34856296  1.0
  O  O113  1  0.06980383  0.65145459  0.34839637  1.0
  O  O114  1  0.33988559  0.61932363  0.27183973  1.0
  O  O115  1  0.06786670  0.72816345  0.34746061  1.0
  O  O116  1  0.72049485  0.65254135  0.38067810  1.0
  O  O117  1  0.88264148  0.36710609  0.74737229  1.0
  O  O118  1  0.13519102  0.25270287  0.61975311  1.0
  O  O119  1  0.51562816  0.38033836  0.63300750  1.0
  O  O120  1  0.09298560  0.35336801  0.69622205  1.0
  O  O121  1  0.39670700  0.30385968  0.65720145  1.0
  O  O122  1  0.73968383  0.34290991  0.64674250  1.0
  O  O123  1  0.47605498  0.38845240  0.72374954  1.0
  O  O124  1  0.75230989  0.27632949  0.66475404  1.0
  O  O125  1  0.08766440  0.33531946  0.61165011  1.0
  F  F126  1  0.55816767  0.47263055  0.00209697  1.0
  F  F127  1  0.55489051  0.99804271  0.47103909  1.0
  F  F128  1  0.08354813  0.52881341  0.52689835  1.0
  F  F129  1  0.11983549  0.58430466  0.07283000  1.0
  F  F130  1  0.04798105  0.92704246  0.51094871  1.0
  F  F131  1  0.53680952  0.48891784  0.41601631  1.0
  F  F132  1  0.27702362  0.54933977  0.99559643  1.0
  F  F133  1  0.28257602  0.00424141  0.55316539  1.0
  F  F134  1  0.72918972  0.44668932  0.45098390  1.0
  F  F135  1  0.71562914  0.43763259  0.92506081  1.0
  F  F136  1  0.78940797  0.07507200  0.51305854  1.0
  F  F137  1  0.27615884  0.48682539  0.56192671  1.0
