# generated using pymatgen
data_AlH6(C5O3)2
_symmetry_space_group_name_H-M   'P 1'
_cell_length_a   6.66012110
_cell_length_b   14.13134279
_cell_length_c   18.89544404
_cell_angle_alpha   101.09070604
_cell_angle_beta   89.99579436
_cell_angle_gamma   89.99856047
_symmetry_Int_Tables_number   1
_chemical_formula_structural   AlH6(C5O3)2
_chemical_formula_sum   'Al4 H24 C40 O24'
_cell_volume   1745.15909680
_cell_formula_units_Z   4
loop_
 _symmetry_equiv_pos_site_id
 _symmetry_equiv_pos_as_xyz
  1  'x, y, z'
loop_
 _atom_site_type_symbol
 _atom_site_label
 _atom_site_symmetry_multiplicity
 _atom_site_fract_x
 _atom_site_fract_y
 _atom_site_fract_z
 _atom_site_occupancy
  Al  Al0  1  0.90789626  0.50069973  0.50424253  1.0
  Al  Al1  1  0.40789275  0.49929673  0.49576796  1.0
  Al  Al2  1  0.36971010  0.00042301  0.99786358  1.0
  Al  Al3  1  0.86973345  0.99955557  0.00214584  1.0
  H  H4  1  0.43085022  0.18732458  0.19100489  1.0
  H  H5  1  0.93086137  0.81268055  0.80898433  1.0
  H  H6  1  0.98070490  0.23878815  0.18671051  1.0
  H  H7  1  0.48065203  0.76124662  0.81328303  1.0
  H  H8  1  0.43401701  0.31366008  0.30273682  1.0
  H  H9  1  0.93395423  0.68628526  0.69724779  1.0
  H  H10  1  0.88731871  0.29328328  0.64122719  1.0
  H  H11  1  0.38754611  0.70668160  0.35886269  1.0
  H  H12  1  0.48835959  0.40121764  0.67992290  1.0
  H  H13  1  0.98853611  0.59874334  0.32000121  1.0
  H  H14  1  0.76508458  0.16406103  0.70508115  1.0
  H  H15  1  0.26513154  0.83592173  0.29499081  1.0
  H  H16  1  0.52923377  0.31079434  0.78034245  1.0
  H  H17  1  0.02925370  0.68916387  0.21957911  1.0
  H  H18  1  0.38912492  0.19696150  0.85353349  1.0
  H  H19  1  0.88905817  0.80300671  0.14644079  1.0
  H  H20  1  0.97763666  0.15810806  0.28865809  1.0
  H  H21  1  0.47799214  0.84207230  0.71138928  1.0
  H  H22  1  0.83448505  0.97855333  0.81507759  1.0
  H  H23  1  0.33439521  0.02140314  0.18496588  1.0
  H  H24  1  0.66655999  0.38045470  0.45958956  1.0
  H  H25  1  0.16645401  0.61954610  0.54041883  1.0
  H  H26  1  0.62419235  0.11626059  0.98049129  1.0
  H  H27  1  0.12416703  0.88369541  0.01949818  1.0
  C  C28  1  0.66528836  0.59363473  0.40493091  1.0
  C  C29  1  0.16505001  0.40634955  0.59508665  1.0
  C  C30  1  0.65131986  0.63093907  0.60281694  1.0
  C  C31  1  0.15143944  0.36911014  0.39719124  1.0
  C  C32  1  0.28880806  0.21927994  0.21291574  1.0
  C  C33  1  0.78881261  0.78072122  0.78707847  1.0
  C  C34  1  0.12358750  0.20346740  0.17051769  1.0
  C  C35  1  0.62355419  0.79653966  0.82947552  1.0
  C  C36  1  0.29254750  0.27802551  0.28424144  1.0
  C  C37  1  0.79253850  0.72199727  0.71574798  1.0
  C  C38  1  0.13300480  0.29308791  0.33043455  1.0
  C  C39  1  0.63301192  0.70701237  0.66954789  1.0
  C  C40  1  0.18324814  0.35311133  0.65596130  1.0
  C  C41  1  0.68342141  0.64685746  0.34404456  1.0
  C  C42  1  0.10139271  0.13019667  0.83479926  1.0
  C  C43  1  0.60126931  0.86973974  0.16518223  1.0
  C  C44  1  0.89966104  0.17444085  0.73871510  1.0
  C  C45  1  0.39965979  0.82551553  0.26132384  1.0
  C  C46  1  0.92385549  0.11883395  0.79089451  1.0
  C  C47  1  0.42375125  0.88109023  0.20911384  1.0
  C  C48  1  0.25282008  0.19094397  0.82106923  1.0
  C  C49  1  0.75274484  0.80902549  0.17890843  1.0
  C  C50  1  0.23312131  0.24623607  0.76636014  1.0
  C  C51  1  0.73313201  0.75373681  0.23362193  1.0
  C  C52  1  0.04944732  0.24007474  0.72579428  1.0
  C  C53  1  0.54948986  0.75989135  0.27422708  1.0
  C  C54  1  0.02681757  0.29637205  0.67188947  1.0
  C  C55  1  0.52696877  0.70360822  0.32815065  1.0
  C  C56  1  0.36670462  0.35733335  0.69483629  1.0
  C  C57  1  0.86683214  0.64261729  0.30512255  1.0
  C  C58  1  0.38934619  0.30673473  0.74978548  1.0
  C  C59  1  0.88938944  0.69322930  0.25016831  1.0
  C  C60  1  0.62240788  0.86538160  0.89915839  1.0
  C  C61  1  0.12240502  0.13459484  0.10084087  1.0
  C  C62  1  0.61636833  0.91602997  0.10084458  1.0
  C  C63  1  0.11647331  0.08394887  0.89916938  1.0
  C  C64  1  0.94750570  0.23379022  0.31658162  1.0
  C  C65  1  0.44767225  0.76645794  0.68335412  1.0
  C  C66  1  0.77744310  0.03988376  0.79206139  1.0
  C  C67  1  0.27731912  0.96006178  0.20798551  1.0
  O  O68  1  0.48868985  0.60174820  0.57139538  1.0
  O  O69  1  0.98894004  0.39802768  0.42881269  1.0
  O  O70  1  0.83058296  0.57447296  0.43277797  1.0
  O  O71  1  0.33026595  0.42518965  0.56701506  1.0
  O  O72  1  0.82604739  0.60023504  0.58284407  1.0
  O  O73  1  0.32613499  0.40004244  0.41700125  1.0
  O  O74  1  0.98926055  0.42624996  0.57567170  1.0
  O  O75  1  0.48946991  0.57405266  0.42454939  1.0
  O  O76  1  0.65768182  0.44032563  0.49490801  1.0
  O  O77  1  0.15774842  0.55966104  0.50510663  1.0
  O  O78  1  0.78914530  0.93216380  0.07682424  1.0
  O  O79  1  0.28924112  0.06782792  0.92318627  1.0
  O  O80  1  0.44945459  0.89256670  0.92424825  1.0
  O  O81  1  0.94943200  0.10743160  0.07576486  1.0
  O  O82  1  0.44956783  0.93324388  0.07249568  1.0
  O  O83  1  0.94965659  0.06671741  0.92751307  1.0
  O  O84  1  0.29114552  0.10677404  0.07253205  1.0
  O  O85  1  0.79115824  0.89318359  0.92746772  1.0
  O  O86  1  0.62037890  0.05696681  0.99897992  1.0
  O  O87  1  0.12038453  0.94299153  0.00101027  1.0
  O  O88  1  0.77566126  0.25937366  0.33468349  1.0
  O  O89  1  0.27581124  0.74106405  0.66515429  1.0
  O  O90  1  0.60788587  0.03740807  0.76620262  1.0
  O  O91  1  0.10775188  0.96251217  0.23383923  1.0
