# generated using pymatgen
data_AlH5C8O9
_symmetry_space_group_name_H-M   'P 1'
_cell_length_a   6.68706730
_cell_length_b   10.24762475
_cell_length_c   18.47487585
_cell_angle_alpha   90.00020447
_cell_angle_beta   89.98216595
_cell_angle_gamma   89.99819424
_symmetry_Int_Tables_number   1
_chemical_formula_structural   AlH5C8O9
_chemical_formula_sum   'Al4 H20 C32 O36'
_cell_volume   1266.01955937
_cell_formula_units_Z   4
loop_
 _symmetry_equiv_pos_site_id
 _symmetry_equiv_pos_as_xyz
  1  'x, y, z'
loop_
 _atom_site_type_symbol
 _atom_site_label
 _atom_site_symmetry_multiplicity
 _atom_site_fract_x
 _atom_site_fract_y
 _atom_site_fract_z
 _atom_site_occupancy
  Al  Al0  1  0.76182549  0.75589404  0.74993891  1.0
  Al  Al1  1  0.23814042  0.24411556  0.24988981  1.0
  Al  Al2  1  0.26187484  0.74412401  0.74993218  1.0
  Al  Al3  1  0.73811949  0.25587680  0.24988192  1.0
  H  H4  1  0.32835937  0.52534582  0.62567348  1.0
  H  H5  1  0.67221514  0.47460131  0.37427968  1.0
  H  H6  1  0.67166436  0.47468632  0.12580065  1.0
  H  H7  1  0.32780653  0.52539942  0.87416072  1.0
  H  H8  1  0.82773982  0.97470694  0.87415758  1.0
  H  H9  1  0.17165331  0.02533392  0.12578322  1.0
  H  H10  1  0.17225044  0.02533088  0.37428119  1.0
  H  H11  1  0.82835697  0.97460746  0.62564382  1.0
  H  H12  1  0.42045506  0.35736074  0.49696013  1.0
  H  H13  1  0.57989515  0.64275229  0.50294163  1.0
  H  H14  1  0.57956035  0.64263205  0.99714038  1.0
  H  H15  1  0.42010196  0.35728973  0.00277009  1.0
  H  H16  1  0.92002133  0.14279367  0.00275200  1.0
  H  H17  1  0.07952287  0.85749406  0.99709461  1.0
  H  H18  1  0.07995037  0.85717321  0.50291642  1.0
  H  H19  1  0.92048359  0.14251532  0.49691659  1.0
  H  H20  1  0.52930250  0.57572112  0.75089435  1.0
  H  H21  1  0.47065962  0.42423192  0.25189676  1.0
  H  H22  1  0.02931000  0.92428436  0.75093427  1.0
  H  H23  1  0.97065958  0.07575359  0.25193154  1.0
  C  C24  1  0.50576422  0.88829237  0.64399771  1.0
  C  C25  1  0.49449777  0.11147033  0.35585696  1.0
  C  C26  1  0.49436634  0.11172666  0.14398329  1.0
  C  C27  1  0.50537227  0.88849568  0.85585735  1.0
  C  C28  1  0.00536909  0.61159886  0.85590224  1.0
  C  C29  1  0.99439940  0.38829560  0.14398657  1.0
  C  C30  1  0.99451289  0.38845011  0.35589327  1.0
  C  C31  1  0.00573115  0.61166975  0.64400363  1.0
  C  C32  1  0.16668665  0.48452695  0.54442332  1.0
  C  C33  1  0.83370844  0.51560656  0.45547464  1.0
  C  C34  1  0.83333594  0.51544511  0.04450899  1.0
  C  C35  1  0.16629197  0.48442398  0.95540095  1.0
  C  C36  1  0.66620121  0.01568168  0.95534566  1.0
  C  C37  1  0.33333333  0.98465972  0.04449337  1.0
  C  C38  1  0.33375586  0.98427763  0.45541734  1.0
  C  C39  1  0.66672895  0.01534357  0.54441187  1.0
  C  C40  1  0.16532363  0.42589871  0.47584775  1.0
  C  C41  1  0.83506548  0.57425237  0.52404209  1.0
  C  C42  1  0.83465531  0.57412173  0.97594232  1.0
  C  C43  1  0.16501448  0.42577956  0.02396219  1.0
  C  C44  1  0.66501582  0.07433761  0.02391633  1.0
  C  C45  1  0.33452391  0.92600574  0.97591946  1.0
  C  C46  1  0.33503575  0.92565919  0.52398783  1.0
  C  C47  1  0.66544308  0.07399225  0.47582461  1.0
  C  C48  1  0.99874255  0.44288124  0.42964863  1.0
  C  C49  1  0.00157028  0.55719177  0.57026071  1.0
  C  C50  1  0.00117602  0.55715827  0.92966505  1.0
  C  C51  1  0.99857452  0.44276546  0.07024975  1.0
  C  C52  1  0.49856191  0.05732934  0.07021266  1.0
  C  C53  1  0.50105558  0.94293497  0.92962041  1.0
  C  C54  1  0.50157244  0.94267669  0.57021660  1.0
  C  C55  1  0.49884656  0.05703624  0.42961911  1.0
  O  O56  1  0.34207576  0.85851335  0.82558516  1.0
  O  O57  1  0.65761054  0.14191782  0.17418998  1.0
  O  O58  1  0.65776722  0.14129073  0.32546515  1.0
  O  O59  1  0.34246637  0.85829437  0.67428994  1.0
  O  O60  1  0.84247685  0.64167488  0.67432543  1.0
  O  O61  1  0.15777620  0.35866551  0.32548161  1.0
  O  O62  1  0.15761797  0.35809623  0.17420970  1.0
  O  O63  1  0.84208922  0.64153085  0.82560117  1.0
  O  O64  1  0.67867116  0.87657491  0.67518348  1.0
  O  O65  1  0.32144426  0.12336637  0.32476593  1.0
  O  O66  1  0.32152783  0.12334846  0.17527100  1.0
  O  O67  1  0.67836925  0.87667968  0.82468059  1.0
  O  O68  1  0.17834174  0.62335417  0.82469672  1.0
  O  O69  1  0.82155086  0.37667007  0.17526678  1.0
  O  O70  1  0.82148372  0.37662650  0.32478227  1.0
  O  O71  1  0.17862870  0.62337724  0.67517743  1.0
  O  O72  1  0.51518128  0.66969369  0.74994741  1.0
  O  O73  1  0.48483844  0.33031200  0.24994463  1.0
  O  O74  1  0.01514281  0.83031972  0.74993643  1.0
  O  O75  1  0.98482159  0.16967134  0.24993558  1.0
  O  O76  1  0.33552329  0.46311291  0.58416754  1.0
  O  O77  1  0.66486880  0.53695718  0.41573313  1.0
  O  O78  1  0.66450931  0.53689258  0.08429493  1.0
  O  O79  1  0.33512758  0.46308776  0.91562258  1.0
  O  O80  1  0.83507466  0.03705975  0.91558774  1.0
  O  O81  1  0.16441870  0.96315675  0.08427403  1.0
  O  O82  1  0.16484697  0.96295104  0.41569814  1.0
  O  O83  1  0.83559896  0.03680190  0.58413757  1.0
  O  O84  1  0.32462080  0.35035844  0.45693320  1.0
  O  O85  1  0.67582215  0.64979069  0.54292687  1.0
  O  O86  1  0.67531895  0.64966338  0.95707422  1.0
  O  O87  1  0.32425065  0.35020181  0.04279025  1.0
  O  O88  1  0.82424096  0.14992172  0.04278565  1.0
  O  O89  1  0.17522849  0.85047042  0.95702578  1.0
  O  O90  1  0.17584531  0.85006590  0.54290387  1.0
  O  O91  1  0.82469932  0.14952211  0.45688799  1.0
