# generated using pymatgen
data_ZnH23C32N5O6
_symmetry_space_group_name_H-M   'P 1'
_cell_length_a   16.54752061
_cell_length_b   16.54748202
_cell_length_c   25.59390186
_cell_angle_alpha   90.00007844
_cell_angle_beta   90.00000310
_cell_angle_gamma   60.00002162
_symmetry_Int_Tables_number   1
_chemical_formula_structural   ZnH23C32N5O6
_chemical_formula_sum   'Zn6 H138 C192 N30 O36'
_cell_volume   6069.20874714
_cell_formula_units_Z   6
loop_
 _symmetry_equiv_pos_site_id
 _symmetry_equiv_pos_as_xyz
  1  'x, y, z'
loop_
 _atom_site_type_symbol
 _atom_site_label
 _atom_site_symmetry_multiplicity
 _atom_site_fract_x
 _atom_site_fract_y
 _atom_site_fract_z
 _atom_site_occupancy
  Zn  Zn0  1  0.42811934  0.28595106  0.99998488  1.0
  Zn  Zn1  1  0.28595144  0.28592883  0.66666667  1.0
  Zn  Zn2  1  0.28592866  0.42811914  0.33333333  1.0
  Zn  Zn3  1  0.57188024  0.71404865  0.99998502  1.0
  Zn  Zn4  1  0.71404813  0.71407206  0.66666667  1.0
  Zn  Zn5  1  0.71406989  0.57188012  0.33333333  1.0
  H  H6  1  0.32611287  0.34465893  0.83341515  1.0
  H  H7  1  0.34465852  0.32922641  0.50008222  1.0
  H  H8  1  0.32923021  0.32610812  0.16674735  1.0
  H  H9  1  0.67388658  0.65534101  0.83341602  1.0
  H  H10  1  0.65533894  0.67077262  0.50008115  1.0
  H  H11  1  0.67077096  0.67389069  0.16674706  1.0
  H  H12  1  0.22230903  0.60423611  0.91626820  1.0
  H  H13  1  0.60423544  0.17345730  0.58293783  1.0
  H  H14  1  0.17345374  0.22230805  0.24959789  1.0
  H  H15  1  0.77769343  0.39576266  0.91626845  1.0
  H  H16  1  0.39576425  0.82654334  0.58293884  1.0
  H  H17  1  0.82654767  0.77769029  0.24959849  1.0
  H  H18  1  0.82128404  0.39573526  0.74969909  1.0
  H  H19  1  0.78298385  0.82128155  0.08302797  1.0
  H  H20  1  0.39572966  0.78297810  0.41636985  1.0
  H  H21  1  0.17871768  0.60426375  0.74969883  1.0
  H  H22  1  0.21701743  0.17871703  0.08302773  1.0
  H  H23  1  0.60426591  0.21702349  0.41636888  1.0
  H  H24  1  0.53136300  0.10020245  0.05865471  1.0
  H  H25  1  0.10020224  0.36843784  0.72532143  1.0
  H  H26  1  0.36843913  0.53135969  0.39198664  1.0
  H  H27  1  0.46863934  0.89979885  0.05865579  1.0
  H  H28  1  0.89979656  0.63156459  0.72532151  1.0
  H  H29  1  0.63156210  0.46863904  0.39198617  1.0
  H  H30  1  0.63143271  0.90002168  0.60792296  1.0
  H  H31  1  0.46854495  0.63143467  0.94125458  1.0
  H  H32  1  0.90001994  0.46854215  0.27458790  1.0
  H  H33  1  0.36856694  0.09997904  0.60792265  1.0
  H  H34  1  0.53145687  0.36856418  0.94125413  1.0
  H  H35  1  0.09997766  0.53145416  0.27458914  1.0
  H  H36  1  0.64088792  0.93341881  0.03550381  1.0
  H  H37  1  0.93341795  0.42569651  0.70217098  1.0
  H  H38  1  0.42569780  0.64088428  0.36883542  1.0
  H  H39  1  0.35911385  0.06658242  0.03550425  1.0
  H  H40  1  0.06658036  0.57430448  0.70217070  1.0
  H  H41  1  0.57430251  0.35911508  0.36883496  1.0
  H  H42  1  0.57428455  0.06660161  0.63113364  1.0
  H  H43  1  0.35911305  0.57428629  0.96446522  1.0
  H  H44  1  0.06660121  0.35911238  0.29779772  1.0
  H  H45  1  0.42571602  0.93339848  0.63113279  1.0
  H  H46  1  0.64088839  0.42571332  0.96446510  1.0
  H  H47  1  0.93339713  0.64088608  0.29779897  1.0
  H  H48  1  0.61657176  0.02152551  0.87434976  1.0
  H  H49  1  0.02152763  0.36189903  0.54101581  1.0
  H  H50  1  0.36190369  0.61656838  0.20768262  1.0
  H  H51  1  0.38342894  0.97847315  0.87434973  1.0
  H  H52  1  0.97847264  0.63809801  0.54101668  1.0
  H  H53  1  0.63809441  0.38343054  0.20768207  1.0
  H  H54  1  0.63809940  0.97843631  0.79227785  1.0
  H  H55  1  0.38346554  0.63809825  0.12561029  1.0
  H  H56  1  0.97843801  0.38346890  0.45894350  1.0
  H  H57  1  0.36189698  0.02156492  0.79227708  1.0
  H  H58  1  0.61653213  0.36190393  0.12561062  1.0
  H  H59  1  0.02156018  0.61653350  0.45894403  1.0
  H  H60  1  0.50669920  0.18159063  0.90349075  1.0
  H  H61  1  0.18159312  0.31170571  0.57015789  1.0
  H  H62  1  0.31171236  0.50669460  0.23682310  1.0
  H  H63  1  0.49330207  0.81840810  0.90349098  1.0
  H  H64  1  0.81840702  0.68829281  0.57015762  1.0
  H  H65  1  0.68828570  0.49330440  0.23682227  1.0
  H  H66  1  0.68803583  0.81841160  0.76307902  1.0
  H  H67  1  0.49355358  0.68803643  0.09641195  1.0
  H  H68  1  0.81841224  0.49355321  0.42974518  1.0
  H  H69  1  0.31196361  0.18158955  0.76307918  1.0
  H  H70  1  0.50644474  0.31196567  0.09641145  1.0
  H  H71  1  0.18158609  0.50644771  0.42974601  1.0
  H  H72  1  0.78387594  0.69165816  0.96416828  1.0
  H  H73  1  0.69166091  0.52446427  0.63083763  1.0
  H  H74  1  0.52446704  0.78387196  0.29750130  1.0
  H  H75  1  0.21612334  0.30834214  0.96416815  1.0
  H  H76  1  0.30834002  0.47553510  0.63083687  1.0
  H  H77  1  0.47553234  0.21612442  0.29750071  1.0
  H  H78  1  0.47520080  0.30845578  0.70269102  1.0
  H  H79  1  0.21634513  0.47519994  0.03602252  1.0
  H  H80  1  0.30845651  0.21634207  0.36935611  1.0
  H  H81  1  0.52479933  0.69154519  0.70268997  1.0
  H  H82  1  0.78365562  0.52479850  0.03602172  1.0
  H  H83  1  0.69154319  0.78365730  0.36935514  1.0
  H  H84  1  0.90984292  0.52882975  0.95627023  1.0
  H  H85  1  0.52883038  0.56132804  0.62294045  1.0
  H  H86  1  0.56133051  0.90983796  0.28960534  1.0
  H  H87  1  0.09015732  0.47116984  0.95627064  1.0
  H  H88  1  0.47116960  0.43867202  0.62294044  1.0
  H  H89  1  0.43867174  0.09015630  0.28960542  1.0
  H  H90  1  0.43847924  0.47126963  0.71055547  1.0
  H  H91  1  0.09025194  0.43847894  0.04388766  1.0
  H  H92  1  0.47127055  0.09025065  0.37722434  1.0
  H  H93  1  0.56152278  0.52872998  0.71055466  1.0
  H  H94  1  0.90974645  0.56152301  0.04388728  1.0
  H  H95  1  0.52872810  0.90975083  0.37722504  1.0
  H  H96  1  0.99382660  0.58881203  0.80901956  1.0
  H  H97  1  0.58881459  0.41735701  0.47568968  1.0
  H  H98  1  0.41736230  0.99382611  0.14235428  1.0
  H  H99  1  0.00617479  0.41118645  0.80901873  1.0
  H  H100  1  0.41118800  0.58264264  0.47569020  1.0
  H  H101  1  0.58264090  0.00616985  0.14235429  1.0
  H  H102  1  0.58326184  0.41092540  0.85753655  1.0
  H  H103  1  0.00581451  0.58326220  0.19086883  1.0
  H  H104  1  0.41092144  0.00581711  0.52420501  1.0
  H  H105  1  0.41674060  0.58907460  0.85753657  1.0
  H  H106  1  0.99418506  0.41674225  0.19086950  1.0
  H  H107  1  0.58907666  0.99418548  0.52420540  1.0
  H  H108  1  0.86464037  0.75531720  0.81646945  1.0
  H  H109  1  0.75531850  0.38004177  0.48313793  1.0
  H  H110  1  0.38004251  0.86464040  0.14980326  1.0
  H  H111  1  0.13536162  0.24468129  0.81646809  1.0
  H  H112  1  0.24468338  0.61995931  0.48313808  1.0
  H  H113  1  0.61995748  0.13535836  0.14980300  1.0
  H  H114  1  0.62072727  0.24458483  0.85008509  1.0
  H  H115  1  0.13468771  0.62072987  0.18341668  1.0
  H  H116  1  0.24458257  0.13468929  0.51675017  1.0
  H  H117  1  0.37927457  0.75541516  0.85008487  1.0
  H  H118  1  0.86531361  0.37927108  0.18341653  1.0
  H  H119  1  0.75541546  0.86531466  0.51674966  1.0
  H  H120  1  0.71416780  0.82428329  0.97055736  1.0
  H  H121  1  0.82428649  0.46154423  0.63722545  1.0
  H  H122  1  0.46154932  0.71416621  0.30388951  1.0
  H  H123  1  0.28582966  0.17571703  0.97055711  1.0
  H  H124  1  0.17571442  0.53845517  0.63722514  1.0
  H  H125  1  0.53845021  0.28583228  0.30388977  1.0
  H  H126  1  0.53889769  0.17572807  0.69607728  1.0
  H  H127  1  0.28537388  0.53889965  0.02940848  1.0
  H  H128  1  0.17572783  0.28537494  0.36274206  1.0
  H  H129  1  0.46110149  0.82427359  0.69607634  1.0
  H  H130  1  0.71462522  0.46110087  0.02940879  1.0
  H  H131  1  0.82427179  0.71462580  0.36274377  1.0
  H  H132  1  0.10925156  0.74823744  0.80163627  1.0
  H  H133  1  0.74823039  0.14251008  0.46830544  1.0
  H  H134  1  0.14251056  0.10924718  0.13496663  1.0
  H  H135  1  0.89075009  0.25176172  0.80163640  1.0
  H  H136  1  0.25176789  0.85749094  0.46830647  1.0
  H  H137  1  0.85748945  0.89075153  0.13496694  1.0
  H  H138  1  0.87395013  0.25204789  0.86693828  1.0
  H  H139  1  0.87400454  0.87394975  0.20026842  1.0
  H  H140  1  0.25205066  0.87400472  0.53360563  1.0
  H  H141  1  0.12605144  0.74795144  0.86693815  1.0
  H  H142  1  0.12599625  0.12604984  0.20026813  1.0
  H  H143  1  0.74794692  0.12599649  0.53360380  1.0
  C  C144  1  0.31914263  0.42118655  0.93029841  1.0
  C  C145  1  0.42118764  0.25967304  0.59696660  1.0
  C  C146  1  0.25967008  0.31914124  0.26362901  1.0
  C  C147  1  0.68085755  0.57881436  0.93029844  1.0
  C  C148  1  0.57881263  0.74032765  0.59696637  1.0
  C  C149  1  0.74032967  0.68085923  0.26362874  1.0
  C  C150  1  0.74105823  0.57871017  0.73639834  1.0
  C  C151  1  0.68023129  0.74105553  0.06973062  1.0
  C  C152  1  0.57870496  0.68023053  0.40306390  1.0
  C  C153  1  0.25894351  0.42128880  0.73639793  1.0
  C  C154  1  0.31976760  0.25894300  0.06972928  1.0
  C  C155  1  0.42128977  0.31977032  0.40306419  1.0
  C  C156  1  0.27905804  0.47010157  0.87951993  1.0
  C  C157  1  0.47010087  0.25083874  0.54618770  1.0
  C  C158  1  0.25083835  0.27905822  0.21285089  1.0
  C  C159  1  0.72094291  0.52989780  0.87952030  1.0
  C  C160  1  0.52989739  0.74916112  0.54618787  1.0
  C  C161  1  0.74916181  0.72094141  0.21285065  1.0
  C  C162  1  0.74872053  0.52978047  0.78700217  1.0
  C  C163  1  0.72150118  0.74871901  0.12033331  1.0
  C  C164  1  0.52977871  0.72149698  0.45366934  1.0
  C  C165  1  0.25128175  0.47021864  0.78700180  1.0
  C  C166  1  0.27850101  0.25127897  0.12033313  1.0
  C  C167  1  0.47021717  0.27850401  0.45366958  1.0
  C  C168  1  0.28923758  0.42049694  0.83333704  1.0
  C  C169  1  0.42049718  0.29026562  0.50000445  1.0
  C  C170  1  0.29026536  0.28923507  0.16666919  1.0
  C  C171  1  0.71076359  0.57950439  0.83333745  1.0
  C  C172  1  0.57950315  0.70973131  0.50000381  1.0
  C  C173  1  0.70973435  0.71076304  0.16666855  1.0
  C  C174  1  0.23092703  0.56778872  0.87934376  1.0
  C  C175  1  0.56778536  0.20128730  0.54601225  1.0
  C  C176  1  0.20128357  0.23092389  0.21267504  1.0
  C  C177  1  0.76907513  0.43221064  0.87934444  1.0
  C  C178  1  0.43221377  0.79871324  0.54601246  1.0
  C  C179  1  0.79871694  0.76907504  0.21267485  1.0
  C  C180  1  0.79481439  0.43212471  0.78677551  1.0
  C  C181  1  0.77306413  0.79481433  0.12010554  1.0
  C  C182  1  0.43212204  0.77306439  0.45344469  1.0
  C  C183  1  0.20518693  0.56787511  0.78677562  1.0
  C  C184  1  0.22693746  0.20518365  0.12010571  1.0
  C  C185  1  0.56787435  0.22693799  0.45344451  1.0
  C  C186  1  0.19399885  0.61825917  0.83294054  1.0
  C  C187  1  0.61825532  0.18773930  0.49960744  1.0
  C  C188  1  0.18774320  0.19399498  0.16626983  1.0
  C  C189  1  0.80600276  0.38174007  0.83294079  1.0
  C  C190  1  0.38174196  0.81226252  0.49960883  1.0
  C  C191  1  0.81225711  0.80600313  0.16627006  1.0
  C  C192  1  0.55217921  0.07927159  0.01818959  1.0
  C  C193  1  0.07927037  0.36855151  0.68485711  1.0
  C  C194  1  0.36855461  0.55217602  0.35152232  1.0
  C  C195  1  0.44782267  0.92072821  0.01819030  1.0
  C  C196  1  0.92072883  0.63145011  0.68485719  1.0
  C  C197  1  0.63144728  0.44782260  0.35152184  1.0
  C  C198  1  0.63126913  0.92083533  0.64841621  1.0
  C  C199  1  0.44789417  0.63127141  0.98174860  1.0
  C  C200  1  0.92083474  0.44789331  0.31508152  1.0
  C  C201  1  0.36873272  0.07916341  0.64841588  1.0
  C  C202  1  0.55210750  0.36872894  0.98174932  1.0
  C  C203  1  0.07916392  0.55210451  0.31508239  1.0
  C  C204  1  0.61307349  0.98705107  0.00533336  1.0
  C  C205  1  0.98705100  0.39987822  0.67200090  1.0
  C  C206  1  0.39988219  0.61306670  0.33866494  1.0
  C  C207  1  0.38692806  0.01294939  0.00533337  1.0
  C  C208  1  0.01294796  0.60012268  0.67200024  1.0
  C  C209  1  0.60011850  0.38693189  0.33866489  1.0
  C  C210  1  0.60000350  0.01302796  0.66132870  1.0
  C  C211  1  0.38696820  0.60000696  0.99466031  1.0
  C  C212  1  0.01302712  0.38696897  0.32799320  1.0
  C  C213  1  0.39999633  0.98697360  0.66132829  1.0
  C  C214  1  0.61303155  0.39999482  0.99466095  1.0
  C  C215  1  0.98697134  0.61303167  0.32799405  1.0
  C  C216  1  0.63862367  0.96266531  0.95255743  1.0
  C  C217  1  0.96266667  0.39871069  0.61922426  1.0
  C  C218  1  0.39871442  0.63861905  0.28588870  1.0
  C  C219  1  0.36137778  0.03733426  0.95255745  1.0
  C  C220  1  0.03733305  0.60128867  0.61922400  1.0
  C  C221  1  0.60128418  0.36138009  0.28588864  1.0
  C  C222  1  0.60121502  0.03740535  0.71410534  1.0
  C  C223  1  0.36137968  0.60121633  0.04743702  1.0
  C  C224  1  0.03740588  0.36138105  0.38077061  1.0
  C  C225  1  0.39878423  0.96259496  0.71410531  1.0
  C  C226  1  0.63862061  0.39878424  0.04743805  1.0
  C  C227  1  0.96259312  0.63861974  0.38077147  1.0
  C  C228  1  0.59903986  0.03469602  0.91532476  1.0
  C  C229  1  0.03469633  0.36626111  0.58199159  1.0
  C  C230  1  0.36626300  0.59903874  0.24865761  1.0
  C  C231  1  0.40096044  0.96530344  0.91532472  1.0
  C  C232  1  0.96530354  0.63373674  0.58199167  1.0
  C  C233  1  0.63373505  0.40096028  0.24865747  1.0
  C  C234  1  0.63367827  0.96528251  0.75130519  1.0
  C  C235  1  0.40104227  0.63367688  0.08463647  1.0
  C  C236  1  0.96528190  0.40104389  0.41797046  1.0
  C  C237  1  0.36631808  0.03471999  0.75130365  1.0
  C  C238  1  0.59895615  0.36632380  0.08463640  1.0
  C  C239  1  0.03471600  0.59895909  0.41797137  1.0
  C  C240  1  0.53840144  0.12485172  0.93179513  1.0
  C  C241  1  0.12485295  0.33674383  0.59846151  1.0
  C  C242  1  0.33674858  0.53839760  0.26512752  1.0
  C  C243  1  0.46160039  0.87514710  0.93179580  1.0
  C  C244  1  0.87514630  0.66325406  0.59846201  1.0
  C  C245  1  0.66324970  0.46160217  0.26512665  1.0
  C  C246  1  0.66307450  0.87517284  0.73479497  1.0
  C  C247  1  0.46175307  0.66307429  0.06812747  1.0
  C  C248  1  0.87517337  0.46175190  0.40146070  1.0
  C  C249  1  0.33692292  0.12482753  0.73479429  1.0
  C  C250  1  0.53824814  0.33692564  0.06812777  1.0
  C  C251  1  0.12482560  0.53824894  0.40146155  1.0
  C  C252  1  0.74710022  0.83688218  0.89321198  1.0
  C  C253  1  0.83688207  0.41602246  0.55988044  1.0
  C  C254  1  0.41602101  0.74709574  0.22654415  1.0
  C  C255  1  0.25290148  0.16311932  0.89321290  1.0
  C  C256  1  0.16311790  0.58397882  0.55987861  1.0
  C  C257  1  0.58397872  0.25290114  0.22654399  1.0
  C  C258  1  0.58356962  0.16322834  0.77359574  1.0
  C  C259  1  0.25320105  0.58357355  0.10692735  1.0
  C  C260  1  0.16322849  0.25320247  0.44026129  1.0
  C  C261  1  0.41643188  0.83677353  0.77359677  1.0
  C  C262  1  0.74680037  0.41642718  0.10692723  1.0
  C  C263  1  0.83677049  0.74680197  0.44025991  1.0
  C  C264  1  0.81736257  0.73523566  0.89084497  1.0
  C  C265  1  0.73523630  0.44740430  0.55751309  1.0
  C  C266  1  0.44740427  0.81735832  0.22417760  1.0
  C  C267  1  0.18263897  0.26476374  0.89084402  1.0
  C  C268  1  0.26476332  0.55259767  0.55751280  1.0
  C  C269  1  0.55259546  0.18263855  0.22417737  1.0
  C  C270  1  0.55245779  0.26478977  0.77595221  1.0
  C  C271  1  0.18275197  0.55246160  0.10928415  1.0
  C  C272  1  0.26478879  0.18275301  0.44261886  1.0
  C  C273  1  0.44754380  0.73521072  0.77595236  1.0
  C  C274  1  0.81724909  0.44753984  0.10928367  1.0
  C  C275  1  0.73521028  0.81725005  0.44261909  1.0
  C  C276  1  0.82947606  0.67113554  0.93013204  1.0
  C  C277  1  0.67113613  0.49938908  0.59680177  1.0
  C  C278  1  0.49938776  0.82947521  0.26346587  1.0
  C  C279  1  0.17052422  0.32886396  0.93013232  1.0
  C  C280  1  0.32886414  0.50061160  0.59680104  1.0
  C  C281  1  0.50060992  0.17052456  0.26346563  1.0
  C  C282  1  0.50042322  0.32893520  0.73667491  1.0
  C  C283  1  0.17064190  0.50042371  0.07000641  1.0
  C  C284  1  0.32893395  0.17064321  0.40334192  1.0
  C  C285  1  0.49957782  0.67106517  0.73667423  1.0
  C  C286  1  0.82935870  0.49957623  0.07000558  1.0
  C  C287  1  0.67106476  0.82935694  0.40334216  1.0
  C  C288  1  0.90062611  0.57895762  0.92590560  1.0
  C  C289  1  0.57895938  0.52041542  0.59257577  1.0
  C  C290  1  0.52041370  0.90062469  0.25924185  1.0
  C  C291  1  0.09937211  0.42104118  0.92590596  1.0
  C  C292  1  0.42104054  0.47958596  0.59257620  1.0
  C  C293  1  0.47958468  0.09937368  0.25924077  1.0
  C  C294  1  0.47947245  0.42108247  0.74088181  1.0
  C  C295  1  0.09944712  0.47947397  0.07421365  1.0
  C  C296  1  0.42107966  0.09944778  0.40755031  1.0
  C  C297  1  0.52052875  0.57892000  0.74088144  1.0
  C  C298  1  0.90055278  0.52052737  0.07421324  1.0
  C  C299  1  0.57891939  0.90055168  0.40755062  1.0
  C  C300  1  0.96076848  0.54835514  0.88264372  1.0
  C  C301  1  0.54835795  0.49087352  0.54931506  1.0
  C  C302  1  0.49087474  0.96076750  0.21598079  1.0
  C  C303  1  0.03923255  0.45164285  0.88264410  1.0
  C  C304  1  0.45164463  0.50912495  0.54931473  1.0
  C  C305  1  0.50912646  0.03923005  0.21598044  1.0
  C  C306  1  0.50910905  0.45164876  0.78412025  1.0
  C  C307  1  0.03924202  0.50910929  0.11745209  1.0
  C  C308  1  0.45164800  0.03924287  0.45078871  1.0
  C  C309  1  0.49089418  0.54834965  0.78411946  1.0
  C  C310  1  0.96075738  0.49089427  0.11745165  1.0
  C  C311  1  0.54834978  0.96075672  0.45078907  1.0
  C  C312  1  0.94627792  0.61176931  0.84235641  1.0
  C  C313  1  0.61177147  0.44194932  0.50902693  1.0
  C  C314  1  0.44195213  0.94627805  0.17569189  1.0
  C  C315  1  0.05372317  0.38822856  0.84235596  1.0
  C  C316  1  0.38823047  0.55805043  0.50902703  1.0
  C  C317  1  0.55805069  0.05371868  0.17569233  1.0
  C  C318  1  0.55822400  0.38815508  0.82432707  1.0
  C  C319  1  0.05362188  0.55822476  0.15765895  1.0
  C  C320  1  0.38815216  0.05362194  0.49099517  1.0
  C  C321  1  0.44177883  0.61184414  0.82432672  1.0
  C  C322  1  0.94637677  0.44178031  0.15765964  1.0
  C  C323  1  0.61184513  0.94637985  0.49099552  1.0
  C  C324  1  0.87544930  0.70426404  0.84659418  1.0
  C  C325  1  0.70426616  0.42028589  0.51326309  1.0
  C  C326  1  0.42028777  0.87544817  0.17992841  1.0
  C  C327  1  0.12455239  0.29573385  0.84659365  1.0
  C  C328  1  0.29573543  0.57971457  0.51326321  1.0
  C  C329  1  0.57971313  0.12454998  0.17992892  1.0
  C  C330  1  0.57989379  0.29566239  0.82010688  1.0
  C  C331  1  0.12444260  0.57989603  0.15343804  1.0
  C  C332  1  0.29565966  0.12444614  0.48677271  1.0
  C  C333  1  0.42010784  0.70433682  0.82010583  1.0
  C  C334  1  0.87555650  0.42010693  0.15343753  1.0
  C  C335  1  0.70433780  0.87555773  0.48677261  1.0
  N  N336  1  0.51476744  0.14822494  0.98228685  1.0
  N  N337  1  0.14822675  0.33700630  0.64895323  1.0
  N  N338  1  0.33701135  0.51476283  0.31561961  1.0
  N  N339  1  0.48523458  0.85177472  0.98228750  1.0
  N  N340  1  0.85177355  0.66299312  0.64895372  1.0
  N  N341  1  0.66298807  0.48523709  0.31561877  1.0
  N  N342  1  0.66276677  0.85182333  0.68429269  1.0
  N  N343  1  0.48540974  0.66276859  0.01762481  1.0
  N  N344  1  0.85182236  0.48540759  0.35095844  1.0
  N  N345  1  0.33723243  0.14817829  0.68429204  1.0
  N  N346  1  0.51459068  0.33723050  0.01762394  1.0
  N  N347  1  0.14817555  0.51459172  0.35095889  1.0
  N  N348  1  0.70092093  0.87024104  0.94038144  1.0
  N  N349  1  0.87024323  0.42883716  0.60704911  1.0
  N  N350  1  0.42884037  0.70091611  0.27371279  1.0
  N  N351  1  0.29908064  0.12975710  0.94038116  1.0
  N  N352  1  0.12975651  0.57116217  0.60704882  1.0
  N  N353  1  0.57115894  0.29908160  0.27371305  1.0
  N  N354  1  0.57122313  0.12976754  0.72628954  1.0
  N  N355  1  0.29900840  0.57122508  0.05962077  1.0
  N  N356  1  0.12976782  0.29901015  0.39295473  1.0
  N  N357  1  0.42877707  0.87023210  0.72628864  1.0
  N  N358  1  0.70099273  0.42877622  0.05962105  1.0
  N  N359  1  0.87023106  0.70099208  0.39295526  1.0
  N  N360  1  0.15144633  0.71489962  0.83240452  1.0
  N  N361  1  0.71489556  0.13364092  0.49907135  1.0
  N  N362  1  0.13365814  0.15144034  0.16573531  1.0
  N  N363  1  0.84855528  0.28509963  0.83240468  1.0
  N  N364  1  0.28510102  0.86636229  0.49907240  1.0
  N  N365  1  0.86634303  0.84855847  0.16573558  1.0
  O  O366  1  0.37452003  0.33186685  0.92917194  1.0
  O  O367  1  0.33186616  0.29362004  0.59584056  1.0
  O  O368  1  0.29361327  0.37451812  0.26250494  1.0
  O  O369  1  0.62548171  0.66813336  0.92917321  1.0
  O  O370  1  0.66813281  0.70638203  0.59583992  1.0
  O  O371  1  0.70638588  0.62548234  0.26250501  1.0
  O  O372  1  0.70761462  0.66794407  0.73765649  1.0
  O  O373  1  0.62443776  0.70761779  0.07099067  1.0
  O  O374  1  0.66793958  0.62443578  0.40432199  1.0
  O  O375  1  0.29238616  0.33205561  0.73765678  1.0
  O  O376  1  0.37556294  0.29238074  0.07099054  1.0
  O  O377  1  0.33205645  0.37556368  0.40432271  1.0
  O  O378  1  0.29922511  0.46795804  0.97198610  1.0
  O  O379  1  0.46795611  0.23282278  0.63865464  1.0
  O  O380  1  0.23281644  0.29922296  0.30531862  1.0
  O  O381  1  0.70077511  0.53204158  0.97198647  1.0
  O  O382  1  0.53204446  0.76717731  0.63865444  1.0
  O  O383  1  0.76718256  0.70077901  0.30531837  1.0
  O  O384  1  0.76793561  0.53208873  0.69464619  1.0
  O  O385  1  0.69997871  0.76792958  0.02797968  1.0
  O  O386  1  0.53208264  0.69997778  0.36131373  1.0
  O  O387  1  0.23206643  0.46791084  0.69464582  1.0
  O  O388  1  0.30001944  0.23207163  0.02797831  1.0
  O  O389  1  0.46791370  0.30002227  0.36131439  1.0
  O  O390  1  0.73438523  0.88802605  0.85519319  1.0
  O  O391  1  0.88802463  0.37759821  0.52185887  1.0
  O  O392  1  0.37759117  0.73437944  0.18852415  1.0
  O  O393  1  0.26562068  0.11197185  0.85519171  1.0
  O  O394  1  0.11197583  0.62240087  0.52185785  1.0
  O  O395  1  0.62240731  0.26561872  0.18852439  1.0
  O  O396  1  0.62128894  0.11208450  0.81170011  1.0
  O  O397  1  0.26662514  0.62129099  0.14503098  1.0
  O  O398  1  0.11208232  0.26662835  0.47836569  1.0
  O  O399  1  0.37871597  0.88791539  0.81169883  1.0
  O  O400  1  0.73337692  0.37870846  0.14503043  1.0
  O  O401  1  0.88791738  0.73337829  0.47836507  1.0
