# generated using pymatgen
data_AlH11C15NO5
_symmetry_space_group_name_H-M   'P 1'
_cell_length_a   6.93414225
_cell_length_b   17.20118473
_cell_length_c   19.20831823
_cell_angle_alpha   71.11218348
_cell_angle_beta   89.99968294
_cell_angle_gamma   89.99974148
_symmetry_Int_Tables_number   1
_chemical_formula_structural   AlH11C15NO5
_chemical_formula_sum   'Al4 H44 C60 N4 O20'
_cell_volume   2167.71597249
_cell_formula_units_Z   4
loop_
 _symmetry_equiv_pos_site_id
 _symmetry_equiv_pos_as_xyz
  1  'x, y, z'
loop_
 _atom_site_type_symbol
 _atom_site_label
 _atom_site_symmetry_multiplicity
 _atom_site_fract_x
 _atom_site_fract_y
 _atom_site_fract_z
 _atom_site_occupancy
  Al  Al0  1  0.08378815  0.49817106  0.50082136  1.0
  Al  Al1  1  0.58378942  0.50182035  0.49918325  1.0
  Al  Al2  1  0.63198559  0.99978516  0.99779984  1.0
  Al  Al3  1  0.13199900  0.00021555  0.00219808  1.0
  H  H4  1  0.54419322  0.69182773  0.29721967  1.0
  H  H5  1  0.04418925  0.30816027  0.70277346  1.0
  H  H6  1  0.32328836  0.76870633  0.18055430  1.0
  H  H7  1  0.82329582  0.23129730  0.81945108  1.0
  H  H8  1  0.12190438  0.57955751  0.67719994  1.0
  H  H9  1  0.62189746  0.42042819  0.32281563  1.0
  H  H10  1  0.43756578  0.87254609  0.72993557  1.0
  H  H11  1  0.93756721  0.12744620  0.27006699  1.0
  H  H12  1  0.61197397  0.91421867  0.82501826  1.0
  H  H13  1  0.11197394  0.08577642  0.17498410  1.0
  H  H14  1  0.20887946  0.85533038  0.93482980  1.0
  H  H15  1  0.13815706  0.72309568  0.02556828  1.0
  H  H16  1  0.38567163  0.72946856  0.99793316  1.0
  H  H17  1  0.21685124  0.67489563  0.96158439  1.0
  H  H18  1  0.70883719  0.14469054  0.06514542  1.0
  H  H19  1  0.63812465  0.27694096  0.97442343  1.0
  H  H20  1  0.88563597  0.27056513  0.00206598  1.0
  H  H21  1  0.71679961  0.32512361  0.03842325  1.0
  H  H22  1  0.31583334  0.70862116  0.85191268  1.0
  H  H23  1  0.81581171  0.29138135  0.14808613  1.0
  H  H24  1  0.29819022  0.62343729  0.77136039  1.0
  H  H25  1  0.79817578  0.37655880  0.22864176  1.0
  H  H26  1  0.56943677  0.80768654  0.17893504  1.0
  H  H27  1  0.06944366  0.19230762  0.82106517  1.0
  H  H28  1  0.31263135  0.84187758  0.22907516  1.0
  H  H29  1  0.81263224  0.15812781  0.77093022  1.0
  H  H30  1  0.32477798  0.66851806  0.40653397  1.0
  H  H31  1  0.28583465  0.78937176  0.43959839  1.0
  H  H32  1  0.05866791  0.76745730  0.40600556  1.0
  H  H33  1  0.21362869  0.84422226  0.34851792  1.0
  H  H34  1  0.82475104  0.33148462  0.59346758  1.0
  H  H35  1  0.78586932  0.21061829  0.56041588  1.0
  H  H36  1  0.55868282  0.23252305  0.59400407  1.0
  H  H37  1  0.71367819  0.15577171  0.65150027  1.0
  H  H38  1  0.29717811  0.65302225  0.29673629  1.0
  H  H39  1  0.79718332  0.34698199  0.70326747  1.0
  H  H40  1  0.56276785  0.68066535  0.60201240  1.0
  H  H41  1  0.06275260  0.31932688  0.39798508  1.0
  H  H42  1  0.41923766  0.78708094  0.64827756  1.0
  H  H43  1  0.91924480  0.21291390  0.35172281  1.0
  H  H44  1  0.33042192  0.58455237  0.52747732  1.0
  H  H45  1  0.83042790  0.41544936  0.47251708  1.0
  H  H46  1  0.38407204  0.89632280  0.04787332  1.0
  H  H47  1  0.88406863  0.10367711  0.95212927  1.0
  C  C48  1  0.33580920  0.42302453  0.41636972  1.0
  C  C49  1  0.83581773  0.57696124  0.58363518  1.0
  C  C50  1  0.33627040  0.38757733  0.61275392  1.0
  C  C51  1  0.83627806  0.61241758  0.38724490  1.0
  C  C52  1  0.02086527  0.71499427  0.28682810  1.0
  C  C53  1  0.52086544  0.28500592  0.71317819  1.0
  C  C54  1  0.84654342  0.68030458  0.31615090  1.0
  C  C55  1  0.34655408  0.31969711  0.68385172  1.0
  C  C56  1  0.68293286  0.71516947  0.27475250  1.0
  C  C57  1  0.18293743  0.28482461  0.72524430  1.0
  C  C58  1  0.69725925  0.78029149  0.20920389  1.0
  C  C59  1  0.19725626  0.21970859  0.79079231  1.0
  C  C60  1  0.87473185  0.81530179  0.18003514  1.0
  C  C61  1  0.37473167  0.18470121  0.81997184  1.0
  C  C62  1  0.03562574  0.78045130  0.22143074  1.0
  C  C63  1  0.53563277  0.21954831  0.77857389  1.0
  C  C64  1  0.25124427  0.78466347  0.22501365  1.0
  C  C65  1  0.75126153  0.21534432  0.77498686  1.0
  C  C66  1  0.23635252  0.71053838  0.30070590  1.0
  C  C67  1  0.73636877  0.28946630  0.69929848  1.0
  C  C68  1  0.00281361  0.61977588  0.68018788  1.0
  C  C69  1  0.50280159  0.38021014  0.31982234  1.0
  C  C70  1  0.84092346  0.62516784  0.63538553  1.0
  C  C71  1  0.34091238  0.37482414  0.36461823  1.0
  C  C72  1  0.68690688  0.67690892  0.63781555  1.0
  C  C73  1  0.18688941  0.32307969  0.36219005  1.0
  C  C74  1  0.69378938  0.72583967  0.68370815  1.0
  C  C75  1  0.19377502  0.27415788  0.31629356  1.0
  C  C76  1  0.85708528  0.71920707  0.73105896  1.0
  C  C77  1  0.35705880  0.28078782  0.26894313  1.0
  C  C78  1  0.01212611  0.66502660  0.72921271  1.0
  C  C79  1  0.51211432  0.33496700  0.27079252  1.0
  C  C80  1  0.54318489  0.78275069  0.68430738  1.0
  C  C81  1  0.04317283  0.21724329  0.31569341  1.0
  C  C82  1  0.55336991  0.82981230  0.72934902  1.0
  C  C83  1  0.05336668  0.17018206  0.27065231  1.0
  C  C84  1  0.71399062  0.82396790  0.77761654  1.0
  C  C85  1  0.21397531  0.17603333  0.22238128  1.0
  C  C86  1  0.86657660  0.76748072  0.77886130  1.0
  C  C87  1  0.36656479  0.23251746  0.22113802  1.0
  C  C88  1  0.02958151  0.76131813  0.82572715  1.0
  C  C89  1  0.52956880  0.23868792  0.17426591  1.0
  C  C90  1  0.18468838  0.70835963  0.82087762  1.0
  C  C91  1  0.68467189  0.29164046  0.17912189  1.0
  C  C92  1  0.17592243  0.66172989  0.77532097  1.0
  C  C93  1  0.67590720  0.33826902  0.22468186  1.0
  C  C94  1  0.72833764  0.87211816  0.82362410  1.0
  C  C95  1  0.22832398  0.12788150  0.17637482  1.0
  C  C96  1  0.88768064  0.86757816  0.86956864  1.0
  C  C97  1  0.38766351  0.13242429  0.13042843  1.0
  C  C98  1  0.04099664  0.81123853  0.87233504  1.0
  C  C99  1  0.54096975  0.18877101  0.12765635  1.0
  C  C100  1  0.38117498  0.11423578  0.88906710  1.0
  C  C101  1  0.88116685  0.88574764  0.11093447  1.0
  C  C102  1  0.38360333  0.07993197  0.08235301  1.0
  C  C103  1  0.88361581  0.92007051  0.91763748  1.0
  C  C104  1  0.23656903  0.72919415  0.97873585  1.0
  C  C105  1  0.73653010  0.27083308  0.02125909  1.0
  C  C106  1  0.21136167  0.78343565  0.39113123  1.0
  C  C107  1  0.71139093  0.21655892  0.60888201  1.0
  N  N108  1  0.20037859  0.80495392  0.91780660  1.0
  N  N109  1  0.70034244  0.19506348  0.08217854  1.0
  N  N110  1  0.31387829  0.72390467  0.36566456  1.0
  N  N111  1  0.81387154  0.27610072  0.63434083  1.0
  O  O112  1  0.49907794  0.41483827  0.58362378  1.0
  O  O113  1  0.99907243  0.58515474  0.41638145  1.0
  O  O114  1  0.17118720  0.43850859  0.43875174  1.0
  O  O115  1  0.67120795  0.56148178  0.56125222  1.0
  O  O116  1  0.16984182  0.41217523  0.58644462  1.0
  O  O117  1  0.66983922  0.58782215  0.41355437  1.0
  O  O118  1  0.99825490  0.55492563  0.56493535  1.0
  O  O119  1  0.49823124  0.44506582  0.43507264  1.0
  O  O120  1  0.33263762  0.55206070  0.49439747  1.0
  O  O121  1  0.83263812  0.44793363  0.50560301  1.0
  O  O122  1  0.21813979  0.05857488  0.06583189  1.0
  O  O123  1  0.71815306  0.94141254  0.93417203  1.0
  O  O124  1  0.54755312  0.08673565  0.91374936  1.0
  O  O125  1  0.04753531  0.91325410  0.08624211  1.0
  O  O126  1  0.54614868  0.06034661  0.06063240  1.0
  O  O127  1  0.04616651  0.93966490  0.93935183  1.0
  O  O128  1  0.71950888  0.91343937  0.08130104  1.0
  O  O129  1  0.21952836  0.08657193  0.91870113  1.0
  O  O130  1  0.38150793  0.94855198  0.00827259  1.0
  O  O131  1  0.88150161  0.05144621  0.99172341  1.0
