# generated using pymatgen
data_AlH12(C5O3)6
_symmetry_space_group_name_H-M   'P 1'
_cell_length_a   4.02465498
_cell_length_b   29.13864707
_cell_length_c   29.13683569
_cell_angle_alpha   59.99815872
_cell_angle_beta   89.99987602
_cell_angle_gamma   89.99991914
_symmetry_Int_Tables_number   1
_chemical_formula_structural   AlH12(C5O3)6
_chemical_formula_sum   'Al2 H24 C60 O36'
_cell_volume   2959.12286275
_cell_formula_units_Z   2
loop_
 _symmetry_equiv_pos_site_id
 _symmetry_equiv_pos_as_xyz
  1  'x, y, z'
loop_
 _atom_site_type_symbol
 _atom_site_label
 _atom_site_symmetry_multiplicity
 _atom_site_fract_x
 _atom_site_fract_y
 _atom_site_fract_z
 _atom_site_occupancy
  Al  Al0  1  0.99988243  0.50000435  0.99998742  1.0
  Al  Al1  1  0.00052538  0.16665501  0.66668648  1.0
  H  H2  1  0.56508821  0.31372502  0.51971258  1.0
  H  H3  1  0.43560929  0.16655140  0.51969683  1.0
  H  H4  1  0.43551788  0.50012702  0.14695133  1.0
  H  H5  1  0.56447602  0.35291975  0.14695614  1.0
  H  H6  1  0.56511971  0.16657188  0.81375281  1.0
  H  H7  1  0.43563299  0.31375201  0.66655474  1.0
  H  H8  1  0.43553145  0.35292004  0.00012950  1.0
  H  H9  1  0.56448427  0.50012709  0.85291115  1.0
  H  H10  1  0.56508111  0.01970324  0.66657072  1.0
  H  H11  1  0.43555631  0.01966077  0.81378105  1.0
  H  H12  1  0.43551868  0.64695920  0.85290714  1.0
  H  H13  1  0.56447815  0.64694924  0.00012376  1.0
  H  H14  1  0.17105036  0.25327893  0.36548040  1.0
  H  H15  1  0.82900943  0.38127417  0.36546389  1.0
  H  H16  1  0.82900507  0.28533990  0.30113775  1.0
  H  H17  1  0.17140044  0.41350816  0.30117501  1.0
  H  H18  1  0.17124395  0.38125015  0.75328607  1.0
  H  H19  1  0.82906667  0.25326674  0.88128838  1.0
  H  H20  1  0.82897959  0.41354374  0.78531621  1.0
  H  H21  1  0.17144483  0.28532821  0.91350306  1.0
  H  H22  1  0.17102061  0.86545378  0.88125615  1.0
  H  H23  1  0.82888129  0.86544836  0.75326320  1.0
  H  H24  1  0.82895286  0.80113124  0.91351713  1.0
  H  H25  1  0.17141383  0.80117344  0.78530094  1.0
  C  C26  1  0.49992892  0.58100673  0.95949071  1.0
  C  C27  1  0.49992631  0.45949594  0.08100121  1.0
  C  C28  1  0.49994176  0.45949809  0.95948847  1.0
  C  C29  1  0.50049144  0.20715782  0.58565644  1.0
  C  C30  1  0.50048345  0.20718118  0.70718542  1.0
  C  C31  1  0.50049380  0.08562896  0.70721132  1.0
  C  C32  1  0.50038725  0.23669300  0.52660030  1.0
  C  C33  1  0.53809228  0.29162287  0.49884996  1.0
  C  C34  1  0.53414426  0.31996466  0.44359524  1.0
  C  C35  1  0.50019126  0.29277813  0.41444615  1.0
  C  C36  1  0.46631265  0.23644313  0.44358595  1.0
  C  C37  1  0.46255068  0.20951215  0.49884623  1.0
  C  C38  1  0.50010694  0.32112902  0.35775242  1.0
  C  C39  1  0.50005489  0.34556312  0.30888818  1.0
  C  C40  1  0.50001529  0.37390271  0.25219921  1.0
  C  C41  1  0.46635272  0.43023614  0.22304952  1.0
  C  C42  1  0.46242955  0.45715847  0.16780311  1.0
  C  C43  1  0.49997833  0.42997441  0.14005338  1.0
  C  C44  1  0.53756422  0.37504095  0.16780332  1.0
  C  C45  1  0.53368300  0.34671911  0.22304972  1.0
  C  C46  1  0.50040619  0.23671077  0.73670904  1.0
  C  C47  1  0.53810811  0.20953756  0.79164015  1.0
  C  C48  1  0.53416470  0.23645438  0.81997720  1.0
  C  C49  1  0.50019153  0.29278896  0.79277933  1.0
  C  C50  1  0.46634282  0.31997770  0.73644070  1.0
  C  C51  1  0.46258620  0.29164540  0.70951451  1.0
  C  C52  1  0.50012919  0.32113451  0.82112589  1.0
  C  C53  1  0.50007185  0.34556164  0.84555927  1.0
  C  C54  1  0.50001945  0.37390496  0.87390069  1.0
  C  C55  1  0.46635927  0.34671569  0.93023696  1.0
  C  C56  1  0.46244070  0.37503688  0.95715997  1.0
  C  C57  1  0.49999914  0.42996975  0.92996922  1.0
  C  C58  1  0.53758760  0.45715736  0.87503510  1.0
  C  C59  1  0.53369183  0.43023718  0.84671232  1.0
  C  C60  1  0.50034728  0.02657412  0.73672879  1.0
  C  C61  1  0.53807101  0.99883654  0.70953625  1.0
  C  C62  1  0.53412043  0.94358220  0.73644402  1.0
  C  C63  1  0.50014718  0.91442765  0.79278068  1.0
  C  C64  1  0.46625337  0.94355719  0.81998825  1.0
  C  C65  1  0.46249398  0.99881626  0.79166327  1.0
  C  C66  1  0.50009507  0.85773964  0.82111715  1.0
  C  C67  1  0.50005786  0.80887828  0.84554760  1.0
  C  C68  1  0.50002065  0.75219380  0.87389279  1.0
  C  C69  1  0.46634842  0.72304793  0.84670623  1.0
  C  C70  1  0.46240529  0.66780455  0.87503003  1.0
  C  C71  1  0.49997606  0.64005567  0.92996651  1.0
  C  C72  1  0.53758156  0.66780066  0.95715306  1.0
  C  C73  1  0.53369295  0.72304568  0.93022824  1.0
  C  C74  1  0.44209713  0.20072548  0.42002363  1.0
  C  C75  1  0.55815119  0.37924482  0.42004817  1.0
  C  C76  1  0.55734972  0.28743776  0.24659161  1.0
  C  C77  1  0.44270078  0.46598143  0.24658608  1.0
  C  C78  1  0.44209474  0.37925746  0.70071265  1.0
  C  C79  1  0.55813432  0.20072651  0.87925960  1.0
  C  C80  1  0.55731139  0.46598085  0.78742713  1.0
  C  C81  1  0.44266784  0.28743312  0.96598918  1.0
  C  C82  1  0.44211696  0.91999199  0.87927110  1.0
  C  C83  1  0.55815751  0.92004631  0.70070469  1.0
  C  C84  1  0.55738667  0.74657957  0.96597430  1.0
  C  C85  1  0.44271676  0.74658270  0.78741904  1.0
  O  O86  1  0.26506189  0.44944091  0.99252810  1.0
  O  O87  1  0.26505674  0.55802797  0.94942918  1.0
  O  O88  1  0.26504157  0.49253471  0.05801968  1.0
  O  O89  1  0.73479909  0.49254492  0.94942340  1.0
  O  O90  1  0.73481366  0.44943414  0.05802109  1.0
  O  O91  1  0.73481607  0.55802663  0.99253340  1.0
  O  O92  1  0.26567107  0.10862472  0.71725749  1.0
  O  O93  1  0.26567878  0.17411815  0.60865430  1.0
  O  O94  1  0.26566095  0.21722174  0.67414827  1.0
  O  O95  1  0.73546805  0.10860780  0.67417925  1.0
  O  O96  1  0.73544527  0.17414347  0.71724723  1.0
  O  O97  1  0.73546549  0.21721476  0.60863449  1.0
  O  O98  1  0.25112189  0.21766433  0.37620921  1.0
  O  O99  1  0.58041960  0.15809356  0.44055834  1.0
  O  O100  1  0.74896517  0.40614464  0.37621586  1.0
  O  O101  1  0.41983855  0.40131909  0.44060487  1.0
  O  O102  1  0.74810883  0.26048450  0.29042226  1.0
  O  O103  1  0.41859762  0.26536562  0.22606985  1.0
  O  O104  1  0.25204330  0.44909947  0.29042753  1.0
  O  O105  1  0.58134863  0.50858438  0.22604815  1.0
  O  O106  1  0.25113659  0.40613192  0.71765620  1.0
  O  O107  1  0.58031540  0.40135470  0.65807125  1.0
  O  O108  1  0.74893559  0.21765131  0.90616235  1.0
  O  O109  1  0.41975977  0.15809937  0.90133879  1.0
  O  O110  1  0.74804842  0.44911459  0.76046486  1.0
  O  O111  1  0.41851187  0.50857162  0.76535830  1.0
  O  O112  1  0.25200818  0.26048111  0.94910198  1.0
  O  O113  1  0.58127091  0.26536647  0.00859883  1.0
  O  O114  1  0.25113913  0.87617657  0.90614565  1.0
  O  O115  1  0.58046157  0.94052113  0.90137295  1.0
  O  O116  1  0.74893667  0.87621605  0.71763098  1.0
  O  O117  1  0.41989982  0.94061034  0.65806651  1.0
  O  O118  1  0.74814084  0.79040721  0.94909708  1.0
  O  O119  1  0.41868647  0.72604908  0.00857568  1.0
  O  O120  1  0.25207182  0.79042457  0.76045738  1.0
  O  O121  1  0.58138969  0.72604645  0.76535398  1.0
