# generated using pymatgen
data_Zn3H18C28(NO3)4
_symmetry_space_group_name_H-M   'P 1'
_cell_length_a   15.31927489
_cell_length_b   15.31925662
_cell_length_c   22.75937159
_cell_angle_alpha   89.99995944
_cell_angle_beta   89.99989249
_cell_angle_gamma   89.99982452
_symmetry_Int_Tables_number   1
_chemical_formula_structural   Zn3H18C28(NO3)4
_chemical_formula_sum   'Zn12 H72 C112 N16 O48'
_cell_volume   5341.16712324
_cell_formula_units_Z   4
loop_
 _symmetry_equiv_pos_site_id
 _symmetry_equiv_pos_as_xyz
  1  'x, y, z'
loop_
 _atom_site_type_symbol
 _atom_site_label
 _atom_site_symmetry_multiplicity
 _atom_site_fract_x
 _atom_site_fract_y
 _atom_site_fract_z
 _atom_site_occupancy
  Zn  Zn0  1  0.78135234  0.78135600  0.25000027  1.0
  Zn  Zn1  1  0.71864160  0.28136330  0.00000011  1.0
  Zn  Zn2  1  0.21864898  0.21864194  0.75000006  1.0
  Zn  Zn3  1  0.28135649  0.71864079  0.49999652  1.0
  Zn  Zn4  1  0.74394860  0.83501996  0.10665845  1.0
  Zn  Zn5  1  0.66497997  0.24394660  0.85665913  1.0
  Zn  Zn6  1  0.25605116  0.16498074  0.60665866  1.0
  Zn  Zn7  1  0.33501909  0.75605187  0.35665772  1.0
  Zn  Zn8  1  0.75605106  0.33501851  0.14334147  1.0
  Zn  Zn9  1  0.16497908  0.25605042  0.89334368  1.0
  Zn  Zn10  1  0.24395251  0.66497955  0.64334366  1.0
  Zn  Zn11  1  0.83501727  0.74395389  0.39334208  1.0
  H  H12  1  0.84930508  0.02604180  0.29743053  1.0
  H  H13  1  0.47396275  0.34930037  0.04743083  1.0
  H  H14  1  0.15069806  0.97395870  0.79742831  1.0
  H  H15  1  0.52604108  0.65070106  0.54743135  1.0
  H  H16  1  0.65070066  0.52604120  0.95256814  1.0
  H  H17  1  0.97396427  0.15069691  0.70257386  1.0
  H  H18  1  0.34930270  0.47396043  0.45257299  1.0
  H  H19  1  0.02603522  0.84929912  0.20257017  1.0
  H  H20  1  0.86091761  0.17987886  0.33301056  1.0
  H  H21  1  0.32012446  0.36090624  0.08301275  1.0
  H  H22  1  0.13908608  0.82012225  0.83301062  1.0
  H  H23  1  0.67987927  0.63909188  0.58301132  1.0
  H  H24  1  0.63909483  0.67988030  0.91698849  1.0
  H  H25  1  0.82012808  0.13907846  0.66699082  1.0
  H  H26  1  0.36091189  0.32012464  0.41698988  1.0
  H  H27  1  0.17987282  0.86090586  0.16698736  1.0
  H  H28  1  0.76861400  0.12621267  0.12918734  1.0
  H  H29  1  0.37378270  0.26861860  0.87918762  1.0
  H  H30  1  0.23138177  0.87378605  0.62918506  1.0
  H  H31  1  0.62621369  0.73138115  0.37918585  1.0
  H  H32  1  0.73137780  0.62621154  0.12081400  1.0
  H  H33  1  0.87378946  0.23138170  0.87081625  1.0
  H  H34  1  0.26861995  0.37378523  0.62081541  1.0
  H  H35  1  0.12620826  0.76861741  0.37081466  1.0
  H  H36  1  0.86408268  0.30879894  0.35619614  1.0
  H  H37  1  0.19120449  0.36407563  0.10619844  1.0
  H  H38  1  0.13591573  0.69120280  0.85619451  1.0
  H  H39  1  0.80880049  0.63591397  0.60619202  1.0
  H  H40  1  0.63591501  0.80880302  0.89380768  1.0
  H  H41  1  0.69121339  0.13592577  0.64380265  1.0
  H  H42  1  0.36408133  0.19120586  0.39380473  1.0
  H  H43  1  0.30878952  0.86408273  0.14380386  1.0
  H  H44  1  0.85989291  0.46873685  0.37920817  1.0
  H  H45  1  0.03126608  0.35989224  0.12921060  1.0
  H  H46  1  0.14010478  0.53126551  0.87920748  1.0
  H  H47  1  0.96873687  0.64010387  0.62920530  1.0
  H  H48  1  0.64010364  0.96873898  0.87079470  1.0
  H  H49  1  0.53127635  0.14010900  0.62079025  1.0
  H  H50  1  0.35989081  0.03126992  0.37079051  1.0
  H  H51  1  0.46872729  0.85989626  0.12079214  1.0
  H  H52  1  0.76143346  0.51317985  0.20482379  1.0
  H  H53  1  0.98681880  0.26143842  0.95482596  1.0
  H  H54  1  0.23857124  0.48681944  0.70482519  1.0
  H  H55  1  0.01318064  0.73857039  0.45482321  1.0
  H  H56  1  0.73857501  0.01318052  0.04517584  1.0
  H  H57  1  0.48682411  0.23856153  0.79517425  1.0
  H  H58  1  0.26143405  0.98681895  0.54517435  1.0
  H  H59  1  0.51317512  0.76142461  0.29517217  1.0
  H  H60  1  0.94010227  0.66301453  0.20168120  1.0
  H  H61  1  0.83698964  0.44010333  0.95167962  1.0
  H  H62  1  0.05990179  0.33698607  0.70168641  1.0
  H  H63  1  0.16301308  0.55989700  0.45168027  1.0
  H  H64  1  0.55989334  0.16301378  0.04832144  1.0
  H  H65  1  0.33698374  0.05989643  0.79832122  1.0
  H  H66  1  0.44010266  0.83698438  0.54831891  1.0
  H  H67  1  0.66300765  0.94010472  0.29831623  1.0
  H  H68  1  0.01644501  0.69254613  0.14489419  1.0
  H  H69  1  0.80745752  0.51644327  0.89489290  1.0
  H  H70  1  0.98355530  0.30745780  0.64490263  1.0
  H  H71  1  0.19254339  0.48355451  0.39489224  1.0
  H  H72  1  0.48355214  0.19254467  0.10510688  1.0
  H  H73  1  0.30745147  0.98355093  0.85510643  1.0
  H  H74  1  0.51644566  0.80745408  0.60510558  1.0
  H  H75  1  0.69253911  0.01644820  0.35509963  1.0
  H  H76  1  0.93532611  0.61259176  0.13109667  1.0
  H  H77  1  0.88740792  0.43532238  0.88109372  1.0
  H  H78  1  0.06467619  0.38740826  0.63110097  1.0
  H  H79  1  0.11259433  0.56467737  0.38109488  1.0
  H  H80  1  0.56467292  0.11259288  0.11890599  1.0
  H  H81  1  0.38740116  0.06467396  0.86890661  1.0
  H  H82  1  0.43532288  0.88740586  0.61890433  1.0
  H  H83  1  0.61258742  0.93532776  0.36890257  1.0
  C  C84  1  0.79300412  0.97089654  0.19135625  1.0
  C  C85  1  0.52910259  0.29300985  0.94135443  1.0
  C  C86  1  0.20699475  0.02910277  0.69134867  1.0
  C  C87  1  0.47089885  0.70699375  0.44135067  1.0
  C  C88  1  0.70699120  0.47089729  0.05864713  1.0
  C  C89  1  0.02910731  0.20699216  0.80864943  1.0
  C  C90  1  0.29300803  0.52910478  0.55864756  1.0
  C  C91  1  0.97089385  0.79300637  0.30864676  1.0
  C  C92  1  0.80706750  0.06383356  0.21102790  1.0
  C  C93  1  0.43616929  0.30706941  0.96102550  1.0
  C  C94  1  0.19293066  0.93616703  0.71102652  1.0
  C  C95  1  0.56383144  0.69293025  0.46102735  1.0
  C  C96  1  0.69292907  0.56383264  0.03897302  1.0
  C  C97  1  0.93617052  0.19293004  0.78897565  1.0
  C  C98  1  0.30707022  0.43616684  0.53897700  1.0
  C  C99  1  0.06382742  0.80706785  0.28897412  1.0
  C  C100  1  0.83429649  0.08077491  0.26859406  1.0
  C  C101  1  0.41922654  0.33428929  0.01859439  1.0
  C  C102  1  0.16570869  0.91922300  0.76859228  1.0
  C  C103  1  0.58077542  0.66571216  0.51859352  1.0
  C  C104  1  0.66571169  0.58077750  0.98140503  1.0
  C  C105  1  0.91922728  0.16570424  0.73140817  1.0
  C  C106  1  0.33429225  0.41922345  0.48140729  1.0
  C  C107  1  0.08077147  0.83428785  0.23140573  1.0
  C  C108  1  0.84012494  0.16641678  0.28818640  1.0
  C  C109  1  0.33358211  0.34011803  0.03818945  1.0
  C  C110  1  0.15987627  0.83358177  0.78818467  1.0
  C  C111  1  0.66641848  0.65988080  0.53818759  1.0
  C  C112  1  0.65988037  0.66642006  0.96181221  1.0
  C  C113  1  0.83358945  0.15987381  0.71181805  1.0
  C  C114  1  0.34012036  0.33358352  0.46181362  1.0
  C  C115  1  0.16641523  0.84011764  0.21181286  1.0
  C  C116  1  0.81682026  0.23413291  0.24986768  1.0
  C  C117  1  0.26586873  0.31681555  0.99987202  1.0
  C  C118  1  0.18318040  0.76586763  0.74986507  1.0
  C  C119  1  0.73413189  0.68318015  0.49986663  1.0
  C  C120  1  0.68318036  0.73413337  0.00013317  1.0
  C  C121  1  0.76587598  0.18317985  0.75013637  1.0
  C  C122  1  0.31681904  0.26586942  0.50013237  1.0
  C  C123  1  0.23412664  0.81681547  0.25013155  1.0
  C  C124  1  0.78868929  0.13520065  0.17476328  1.0
  C  C125  1  0.36479915  0.28869202  0.92476357  1.0
  C  C126  1  0.21130767  0.86479933  0.67476015  1.0
  C  C127  1  0.63519972  0.71131030  0.42476048  1.0
  C  C128  1  0.71130510  0.63519898  0.07523937  1.0
  C  C129  1  0.86480479  0.21130896  0.82523855  1.0
  C  C130  1  0.28869409  0.36479980  0.57524077  1.0
  C  C131  1  0.13519696  0.78869216  0.32523738  1.0
  C  C132  1  0.81576456  0.32710217  0.26757465  1.0
  C  C133  1  0.17289964  0.31576201  0.01757827  1.0
  C  C134  1  0.18423736  0.67289771  0.76757472  1.0
  C  C135  1  0.82710167  0.68423879  0.51757268  1.0
  C  C136  1  0.68423699  0.82710404  0.98242740  1.0
  C  C137  1  0.67290554  0.18423489  0.73242636  1.0
  C  C138  1  0.31576368  0.17290082  0.48242364  1.0
  C  C139  1  0.32709843  0.81576046  0.23242582  1.0
  C  C140  1  0.84187860  0.35542788  0.32336879  1.0
  C  C141  1  0.14457312  0.34187752  0.07337200  1.0
  C  C142  1  0.15811925  0.64457128  0.82336978  1.0
  C  C143  1  0.85542934  0.65811931  0.57336683  1.0
  C  C144  1  0.65811895  0.85543121  0.92663106  1.0
  C  C145  1  0.64458186  0.15812142  0.67662915  1.0
  C  C146  1  0.34187992  0.14457828  0.42662991  1.0
  C  C147  1  0.35542227  0.84187986  0.17662987  1.0
  C  C148  1  0.83966163  0.44397722  0.33644690  1.0
  C  C149  1  0.05602518  0.33966148  0.08644711  1.0
  C  C150  1  0.16033814  0.55602389  0.83644529  1.0
  C  C151  1  0.94397659  0.66033598  0.58644314  1.0
  C  C152  1  0.66033891  0.94397859  0.91355774  1.0
  C  C153  1  0.55603200  0.16033838  0.66355284  1.0
  C  C154  1  0.33966064  0.05602896  0.41355269  1.0
  C  C155  1  0.44397152  0.83966161  0.16355301  1.0
  C  C156  1  0.81109040  0.50312637  0.29387587  1.0
  C  C157  1  0.99687072  0.31109079  0.04387724  1.0
  C  C158  1  0.18891210  0.49687217  0.79387601  1.0
  C  C159  1  0.00312921  0.68890933  0.54387270  1.0
  C  C160  1  0.68891279  0.00312934  0.95612721  1.0
  C  C161  1  0.49687896  0.18890903  0.70612478  1.0
  C  C162  1  0.31108795  0.99687163  0.45612309  1.0
  C  C163  1  0.50311921  0.81108504  0.20612225  1.0
  C  C164  1  0.78498485  0.47007066  0.23940339  1.0
  C  C165  1  0.02992682  0.28498866  0.98940397  1.0
  C  C166  1  0.21502106  0.52992990  0.73940216  1.0
  C  C167  1  0.97007318  0.71501750  0.48940089  1.0
  C  C168  1  0.71502418  0.97007361  0.01060043  1.0
  C  C169  1  0.52993198  0.21501073  0.76059594  1.0
  C  C170  1  0.28498498  0.02992981  0.51059583  1.0
  C  C171  1  0.47006539  0.78497740  0.26059567  1.0
  C  C172  1  0.80885253  0.59971460  0.30598163  1.0
  C  C173  1  0.90028585  0.30886041  0.05598352  1.0
  C  C174  1  0.19114601  0.40028458  0.80598094  1.0
  C  C175  1  0.09971535  0.69114492  0.55598018  1.0
  C  C176  1  0.69114710  0.09971758  0.94402272  1.0
  C  C177  1  0.40029347  0.19113971  0.69401467  1.0
  C  C178  1  0.30885498  0.90028862  0.44401513  1.0
  C  C179  1  0.59970801  0.80885438  0.19401817  1.0
  C  C180  1  0.88665389  0.74239383  0.13158087  1.0
  C  C181  1  0.75760616  0.38666225  0.88157801  1.0
  C  C182  1  0.11333535  0.25760163  0.63157945  1.0
  C  C183  1  0.24239936  0.61333424  0.38157327  1.0
  C  C184  1  0.61333430  0.24239806  0.11842437  1.0
  C  C185  1  0.25759664  0.11333906  0.86841941  1.0
  C  C186  1  0.38665563  0.75760394  0.61841404  1.0
  C  C187  1  0.74239129  0.88666136  0.36841567  1.0
  C  C188  1  0.94888602  0.67394001  0.15458719  1.0
  C  C189  1  0.82605706  0.44888970  0.90458430  1.0
  C  C190  1  0.05111099  0.32605543  0.65458934  1.0
  C  C191  1  0.17394514  0.55111003  0.40458275  1.0
  C  C192  1  0.55110564  0.17394511  0.09541676  1.0
  C  C193  1  0.32605954  0.05110814  0.84541523  1.0
  C  C194  1  0.44889284  0.82606018  0.59541247  1.0
  C  C195  1  0.67394086  0.94889426  0.34541155  1.0
  N  N196  1  0.79259532  0.21756168  0.19406695  1.0
  N  N197  1  0.28243882  0.29259376  0.94406600  1.0
  N  N198  1  0.20740419  0.78244154  0.69406606  1.0
  N  N199  1  0.71756130  0.70740331  0.44406456  1.0
  N  N200  1  0.70740273  0.71756069  0.05593566  1.0
  N  N201  1  0.78244257  0.20740160  0.80593359  1.0
  N  N202  1  0.29259586  0.28243942  0.55593533  1.0
  N  N203  1  0.21755728  0.79259497  0.30593495  1.0
  N  N204  1  0.78744726  0.38474798  0.22677213  1.0
  N  N205  1  0.11525006  0.28744361  0.97677263  1.0
  N  N206  1  0.21255934  0.61525129  0.72677262  1.0
  N  N207  1  0.88474867  0.71255734  0.47677054  1.0
  N  N208  1  0.71256073  0.88474897  0.02322778  1.0
  N  N209  1  0.61525585  0.21255225  0.77322893  1.0
  N  N210  1  0.28744514  0.11525313  0.52322928  1.0
  N  N211  1  0.38474345  0.78744109  0.27322568  1.0
  O  O212  1  0.79064176  0.91572805  0.23256346  1.0
  O  O213  1  0.58427094  0.29064279  0.98255940  1.0
  O  O214  1  0.20936026  0.08427383  0.73256201  1.0
  O  O215  1  0.41572973  0.70935489  0.48256230  1.0
  O  O216  1  0.70935830  0.41572949  0.01743730  1.0
  O  O217  1  0.08427838  0.20935840  0.76744000  1.0
  O  O218  1  0.29064170  0.58427328  0.51743815  1.0
  O  O219  1  0.91572681  0.79063952  0.26744047  1.0
  O  O220  1  0.78281574  0.95721772  0.13654675  1.0
  O  O221  1  0.54278022  0.28282007  0.88654404  1.0
  O  O222  1  0.21718263  0.04278230  0.63654223  1.0
  O  O223  1  0.45722006  0.71718751  0.38654512  1.0
  O  O224  1  0.71717766  0.45721968  0.11345488  1.0
  O  O225  1  0.04278345  0.21718450  0.86345717  1.0
  O  O226  1  0.28282207  0.54278363  0.61345664  1.0
  O  O227  1  0.95721298  0.78282114  0.36345716  1.0
  O  O228  1  0.77744502  0.64748918  0.26594627  1.0
  O  O229  1  0.85250302  0.27745428  0.01594643  1.0
  O  O230  1  0.22255755  0.35250221  0.76594731  1.0
  O  O231  1  0.14749438  0.72255044  0.51594257  1.0
  O  O232  1  0.72255577  0.14749790  0.98405499  1.0
  O  O233  1  0.35251173  0.22254794  0.73405138  1.0
  O  O234  1  0.27744620  0.85250696  0.48404966  1.0
  O  O235  1  0.64748572  0.77744545  0.23405176  1.0
  O  O236  1  0.83946811  0.62286121  0.35565653  1.0
  O  O237  1  0.87714169  0.33947679  0.10565494  1.0
  O  O238  1  0.16053030  0.37714640  0.85565676  1.0
  O  O239  1  0.12285807  0.66053371  0.60565729  1.0
  O  O240  1  0.66053015  0.12285520  0.89434694  1.0
  O  O241  1  0.37715149  0.16052601  0.64434108  1.0
  O  O242  1  0.33946554  0.87714649  0.39434019  1.0
  O  O243  1  0.62285273  0.83947465  0.14434235  1.0
  O  O244  1  0.81393433  0.75500942  0.16114324  1.0
  O  O245  1  0.74499206  0.31393549  0.91114432  1.0
  O  O246  1  0.18606658  0.24499058  0.66114481  1.0
  O  O247  1  0.25501468  0.68605836  0.41114040  1.0
  O  O248  1  0.68605773  0.25501411  0.08885980  1.0
  O  O249  1  0.24499023  0.18606325  0.83885708  1.0
  O  O250  1  0.31393881  0.74499118  0.58885703  1.0
  O  O251  1  0.75500627  0.81393720  0.33885643  1.0
  O  O252  1  0.90022503  0.78189183  0.08459932  1.0
  O  O253  1  0.71810238  0.40022957  0.83459826  1.0
  O  O254  1  0.09976499  0.21810106  0.58460454  1.0
  O  O255  1  0.28189870  0.59976762  0.33459567  1.0
  O  O256  1  0.59976564  0.28189605  0.16540238  1.0
  O  O257  1  0.21809407  0.09976337  0.91539438  1.0
  O  O258  1  0.40022873  0.71810459  0.66539688  1.0
  O  O259  1  0.78189373  0.90023504  0.41539409  1.0
