# generated using pymatgen
data_ZnSiH12C20(N4F5)2
_symmetry_space_group_name_H-M   'P 1'
_cell_length_a   7.73900108
_cell_length_b   13.48094579
_cell_length_c   13.48532533
_cell_angle_alpha   88.84389726
_cell_angle_beta   75.29674496
_cell_angle_gamma   75.28931845
_symmetry_Int_Tables_number   1
_chemical_formula_structural   ZnSiH12C20(N4F5)2
_chemical_formula_sum   'Zn1 Si1 H12 C20 N8 F10'
_cell_volume   1314.75695897
_cell_formula_units_Z   1
loop_
 _symmetry_equiv_pos_site_id
 _symmetry_equiv_pos_as_xyz
  1  'x, y, z'
loop_
 _atom_site_type_symbol
 _atom_site_label
 _atom_site_symmetry_multiplicity
 _atom_site_fract_x
 _atom_site_fract_y
 _atom_site_fract_z
 _atom_site_occupancy
  Zn  Zn0  1  0.50000161  0.49997795  0.49997621  1.0
  Si  Si1  1  0.00000345  0.50004671  0.49990011  1.0
  H  H2  1  0.26615086  0.56894835  0.35491284  1.0
  H  H3  1  0.26122397  0.56781196  0.17212899  1.0
  H  H4  1  0.85232068  0.43256572  0.09565788  1.0
  H  H5  1  0.14769030  0.56719131  0.90433046  1.0
  H  H6  1  0.73899568  0.43261673  0.82776581  1.0
  H  H7  1  0.73399406  0.43137230  0.64500547  1.0
  H  H8  1  0.26603817  0.35504729  0.56901528  1.0
  H  H9  1  0.26115480  0.17218134  0.56796262  1.0
  H  H10  1  0.85208729  0.09571975  0.43218691  1.0
  H  H11  1  0.14791387  0.90413288  0.56827234  1.0
  H  H12  1  0.73861783  0.82785029  0.43188332  1.0
  H  H13  1  0.73384495  0.64496372  0.43070208  1.0
  C  C14  1  0.39353078  0.53928151  0.29579320  1.0
  C  C15  1  0.39038571  0.53862314  0.19366168  1.0
  C  C16  1  0.55670336  0.49841268  0.11935145  1.0
  C  C17  1  0.71947668  0.46278297  0.15056181  1.0
  C  C18  1  0.70554152  0.46580613  0.25551934  1.0
  C  C19  1  0.28054896  0.53710785  0.84940247  1.0
  C  C20  1  0.44339703  0.50171785  0.88059345  1.0
  C  C21  1  0.60976556  0.46165584  0.80626830  1.0
  C  C22  1  0.60657690  0.46092758  0.70414292  1.0
  C  C23  1  0.29441692  0.53398146  0.74445429  1.0
  C  C24  1  0.39343107  0.29591095  0.53925669  1.0
  C  C25  1  0.39029940  0.19372920  0.53864273  1.0
  C  C26  1  0.55658111  0.11938729  0.49827891  1.0
  C  C27  1  0.71927969  0.15064006  0.46250794  1.0
  C  C28  1  0.70533030  0.25563996  0.46547944  1.0
  C  C29  1  0.28069100  0.84926087  0.53776604  1.0
  C  C30  1  0.44330580  0.88055820  0.50186770  1.0
  C  C31  1  0.60955532  0.80625115  0.46132111  1.0
  C  C32  1  0.60647247  0.70406433  0.46064454  1.0
  C  C33  1  0.29470318  0.74425753  0.53476338  1.0
  N  N34  1  0.54928721  0.50152013  0.32801344  1.0
  N  N35  1  0.57601495  0.49172092  0.01201320  1.0
  N  N36  1  0.42411254  0.50840216  0.98793221  1.0
  N  N37  1  0.45071878  0.49844017  0.67194613  1.0
  N  N38  1  0.54911851  0.32816255  0.50132432  1.0
  N  N39  1  0.57589726  0.01200232  0.49165889  1.0
  N  N40  1  0.42395270  0.98794532  0.50853957  1.0
  N  N41  1  0.45087185  0.67176955  0.49871516  1.0
  F  F42  1  0.22077437  0.51180031  0.51157873  1.0
  F  F43  1  0.77923289  0.48827300  0.48824571  1.0
  F  F44  1  0.99997090  0.59061927  0.40925346  1.0
  F  F45  1  0.00003513  0.40947888  0.59055823  1.0
  F  F46  1  0.11203960  0.40786913  0.40785611  1.0
  F  F47  1  0.88797846  0.59223433  0.59193729  1.0
  F  F48  1  0.86034389  0.43033872  0.28604954  1.0
  F  F49  1  0.13948559  0.56914442  0.71396471  1.0
  F  F50  1  0.86003608  0.28620218  0.42976811  1.0
  F  F51  1  0.14010571  0.71364064  0.57066170  1.0
