# generated using pymatgen
data_Zn3H40(C3O)12
_symmetry_space_group_name_H-M   'P 1'
_cell_length_a   18.70684517
_cell_length_b   18.76597546
_cell_length_c   18.79921209
_cell_angle_alpha   109.44197325
_cell_angle_beta   109.22534497
_cell_angle_gamma   109.34040770
_symmetry_Int_Tables_number   1
_chemical_formula_structural   Zn3H40(C3O)12
_chemical_formula_sum   'Zn6 H80 C72 O24'
_cell_volume   5105.58002995
_cell_formula_units_Z   2
loop_
 _symmetry_equiv_pos_site_id
 _symmetry_equiv_pos_as_xyz
  1  'x, y, z'
loop_
 _atom_site_type_symbol
 _atom_site_label
 _atom_site_symmetry_multiplicity
 _atom_site_fract_x
 _atom_site_fract_y
 _atom_site_fract_z
 _atom_site_occupancy
  Zn  Zn0  1  0.50173870  0.05988580  0.05937539  1.0
  Zn  Zn1  1  0.49826912  0.94013152  0.94062795  1.0
  Zn  Zn2  1  0.94091712  0.49904105  0.94062481  1.0
  Zn  Zn3  1  0.05907934  0.50096134  0.05934856  1.0
  Zn  Zn4  1  0.94173838  0.94184485  0.50137274  1.0
  Zn  Zn5  1  0.05828206  0.05817508  0.49862337  1.0
  H  H6  1  0.90112027  0.70319087  0.30327547  1.0
  H  H7  1  0.16788758  0.78724126  0.06862676  1.0
  H  H8  1  0.79087752  0.19135242  0.09590928  1.0
  H  H9  1  0.20913127  0.80866230  0.90409617  1.0
  H  H10  1  0.89918896  0.29500815  0.09306617  1.0
  H  H11  1  0.10082009  0.70500137  0.90693338  1.0
  H  H12  1  0.30441624  0.10458861  0.89779197  1.0
  H  H13  1  0.69559111  0.89542546  0.10221439  1.0
  H  H14  1  0.11990638  0.99712751  0.76012050  1.0
  H  H15  1  0.88009747  0.00289437  0.23988997  1.0
  H  H16  1  0.19711447  0.10307706  0.79287632  1.0
  H  H17  1  0.10197741  0.29694513  0.70017486  1.0
  H  H18  1  0.80289587  0.89693961  0.20713082  1.0
  H  H19  1  0.90193552  0.59639800  0.19573043  1.0
  H  H20  1  0.10047668  0.40354529  0.80719585  1.0
  H  H21  1  0.39695131  0.11989400  0.83640193  1.0
  H  H22  1  0.60305190  0.88011746  0.16360220  1.0
  H  H23  1  0.29505509  0.12216775  0.72575576  1.0
  H  H24  1  0.70494733  0.87783982  0.27424575  1.0
  H  H25  1  0.27948428  0.88041612  0.70961485  1.0
  H  H26  1  0.72051644  0.11959601  0.29038656  1.0
  H  H27  1  0.21064887  0.85924756  0.75359729  1.0
  H  H28  1  0.72605559  0.10372896  0.93140804  1.0
  H  H29  1  0.78935799  0.14076326  0.24640942  1.0
  H  H30  1  0.10569720  0.86674698  0.64965857  1.0
  H  H31  1  0.89430333  0.13326707  0.35035565  1.0
  H  H32  1  0.17100755  0.87718375  0.60017605  1.0
  H  H33  1  0.82898280  0.12282120  0.39982968  1.0
  H  H34  1  0.38755602  0.02765485  0.75797504  1.0
  H  H35  1  0.61244978  0.97235726  0.24203016  1.0
  H  H36  1  0.28626502  0.03074335  0.64791237  1.0
  H  H37  1  0.71373715  0.96926486  0.35209140  1.0
  H  H38  1  0.12098073  0.90143198  0.32780644  1.0
  H  H39  1  0.27395199  0.89628902  0.06859544  1.0
  H  H40  1  0.87682931  0.09900133  0.66899647  1.0
  H  H41  1  0.11779785  0.79580602  0.21522741  1.0
  H  H42  1  0.87990350  0.20419745  0.78188935  1.0
  H  H43  1  0.01038254  0.62984323  0.26767507  1.0
  H  H44  1  0.99310417  0.37177711  0.73400161  1.0
  H  H45  1  0.13619671  0.74413681  0.27700041  1.0
  H  H46  1  0.86449169  0.25779846  0.72162348  1.0
  H  H47  1  0.13828669  0.84930704  0.38913957  1.0
  H  H48  1  0.86312107  0.15343647  0.60946902  1.0
  H  H49  1  0.00714343  0.73314517  0.37669477  1.0
  H  H50  1  0.64489271  0.11355761  0.86132959  1.0
  H  H51  1  0.99737596  0.26902061  0.62548615  1.0
  H  H52  1  0.87394973  0.66933068  0.10550941  1.0
  H  H53  1  0.12407189  0.32791165  0.89526847  1.0
  H  H54  1  0.96166293  0.74903199  0.11118043  1.0
  H  H55  1  0.03451423  0.24851759  0.88765120  1.0
  H  H56  1  0.96832317  0.85806965  0.22395182  1.0
  H  H57  1  0.02747197  0.13938197  0.77458735  1.0
  H  H58  1  0.87762101  0.77812931  0.21540026  1.0
  H  H59  1  0.12041838  0.21886153  0.78566038  1.0
  H  H60  1  0.64300329  0.28026751  0.03750972  1.0
  H  H61  1  0.35511382  0.88646167  0.13867877  1.0
  H  H62  1  0.35700679  0.71974981  0.96250021  1.0
  H  H63  1  0.59876279  0.22110191  0.92402706  1.0
  H  H64  1  0.40125150  0.77891931  0.07598449  1.0
  H  H65  1  0.70931693  0.33497782  0.93329086  1.0
  H  H66  1  0.29069687  0.66504470  0.06672522  1.0
  H  H67  1  0.75551607  0.39246700  0.04696682  1.0
  H  H68  1  0.24450065  0.60755226  0.95305019  1.0
  H  H69  1  0.75825991  0.26677155  0.13713934  1.0
  H  H70  1  0.24175309  0.73324707  0.86286826  1.0
  H  H71  1  0.87334974  0.37291900  0.14278643  1.0
  H  H72  1  0.75133227  0.22634635  0.86490760  1.0
  H  H73  1  0.12666625  0.62709312  0.85721626  1.0
  H  H74  1  0.31157124  0.10807876  0.02027553  1.0
  H  H75  1  0.24687708  0.05147767  0.09889483  1.0
  H  H76  1  0.11217027  0.90653902  0.01713888  1.0
  H  H77  1  0.04322975  0.82048940  0.85629092  1.0
  H  H78  1  0.10608846  0.87849080  0.77825876  1.0
  H  H79  1  0.68843569  0.89193790  0.97973102  1.0
  H  H80  1  0.75312904  0.94853965  0.90111274  1.0
  H  H81  1  0.88783755  0.09347830  0.98286978  1.0
  H  H82  1  0.95677799  0.17952662  0.14371834  1.0
  H  H83  1  0.24866826  0.77367682  0.13509796  1.0
  H  H84  1  0.89391654  0.12152197  0.22174639  1.0
  H  H85  1  0.83211499  0.21277346  0.93136814  1.0
  C  C86  1  0.37602896  0.99727041  0.88142563  1.0
  C  C87  1  0.15460023  0.69131381  0.91320148  1.0
  C  C88  1  0.77663291  0.22376555  0.92516072  1.0
  C  C89  1  0.22337095  0.77625177  0.07484132  1.0
  C  C90  1  0.25458543  0.03681269  0.84836210  1.0
  C  C91  1  0.74542102  0.96320073  0.15164481  1.0
  C  C92  1  0.18598891  0.03653342  0.77353480  1.0
  C  C93  1  0.81401633  0.96347869  0.22646915  1.0
  C  C94  1  0.34999702  0.05396071  0.78076188  1.0
  C  C95  1  0.65000781  0.94604945  0.21924235  1.0
  C  C96  1  0.24093776  0.90380890  0.73332902  1.0
  C  C97  1  0.62397329  0.00273911  0.11857648  1.0
  C  C98  1  0.75906141  0.09620126  0.26667282  1.0
  C  C99  1  0.30378907  0.99593016  0.81207199  1.0
  C  C100  1  0.69621431  0.00407935  0.18793102  1.0
  C  C101  1  0.61756079  0.11987707  0.99825733  1.0
  C  C102  1  0.38245099  0.88014480  0.00175042  1.0
  C  C103  1  0.19047156  0.99981423  0.68935181  1.0
  C  C104  1  0.80953214  0.00019593  0.31065365  1.0
  C  C105  1  0.28248830  0.05550104  0.70762148  1.0
  C  C106  1  0.71751500  0.94450717  0.29238213  1.0
  C  C107  1  0.17157179  0.90544017  0.66204826  1.0
  C  C108  1  0.70567411  0.15043028  0.92372830  1.0
  C  C109  1  0.82842559  0.09456868  0.33796107  1.0
  C  C110  1  0.00276752  0.81000098  0.31295983  1.0
  C  C111  1  0.99741167  0.19002857  0.68717080  1.0
  C  C112  1  0.00000276  0.62097404  0.11880553  1.0
  C  C113  1  0.99974704  0.37880972  0.88114556  1.0
  C  C114  1  0.87992277  0.38229715  0.00205208  1.0
  C  C115  1  0.12008102  0.61771432  0.99794799  1.0
  C  C116  1  0.99804984  0.11979611  0.61772430  1.0
  C  C117  1  0.00208393  0.88024000  0.38236011  1.0
  C  C118  1  0.12075347  0.00024622  0.61923251  1.0
  C  C119  1  0.29433322  0.84958834  0.07627744  1.0
  C  C120  1  0.87925687  0.99976590  0.38076886  1.0
  C  C121  1  0.09385298  0.76861016  0.25162119  1.0
  C  C122  1  0.90556086  0.23213052  0.74680787  1.0
  C  C123  1  0.94059211  0.72430412  0.15026642  1.0
  C  C124  1  0.05719337  0.27368365  0.84958423  1.0
  C  C125  1  0.96716159  0.72324658  0.31264430  1.0
  C  C126  1  0.03552099  0.27752609  0.68936901  1.0
  C  C127  1  0.94330543  0.79611477  0.22383899  1.0
  C  C128  1  0.05447300  0.20185996  0.77604597  1.0
  C  C129  1  0.09540945  0.83859107  0.32564635  1.0
  C  C130  1  0.68738577  0.18922677  0.99716144  1.0
  C  C131  1  0.90425581  0.16247246  0.67272208  1.0
  C  C132  1  0.00002701  0.69142343  0.18865743  1.0
  C  C133  1  0.99963923  0.30824448  0.81131334  1.0
  C  C134  1  0.96769620  0.65328646  0.24052299  1.0
  C  C135  1  0.03451966  0.34726782  0.76124542  1.0
  C  C136  1  0.65894108  0.25518199  0.98669636  1.0
  C  C137  1  0.34107166  0.74484184  0.01331342  1.0
  C  C138  1  0.73239883  0.32937682  0.99183341  1.0
  C  C139  1  0.26761464  0.67064504  0.00818074  1.0
  C  C140  1  0.77199919  0.23813750  0.08548637  1.0
  C  C141  1  0.31262642  0.81079251  0.00284611  1.0
  C  C142  1  0.22801786  0.76188242  0.91452352  1.0
  C  C143  1  0.21487078  0.99748763  0.89388198  1.0
  C  C144  1  0.25261658  0.04484500  0.98434692  1.0
  C  C145  1  0.21631146  0.01280462  0.02855932  1.0
  C  C146  1  0.14096438  0.93174437  0.98289536  1.0
  C  C147  1  0.10242646  0.88365711  0.89279211  1.0
  C  C148  1  0.13877519  0.91639774  0.84885289  1.0
  C  C149  1  0.78513301  0.00252384  0.10612128  1.0
  C  C150  1  0.74738931  0.95516842  0.01565768  1.0
  C  C151  1  0.78369433  0.98721205  0.97144739  1.0
  C  C152  1  0.80976511  0.31279031  0.00282858  1.0
  C  C153  1  0.85904279  0.06827164  0.01711105  1.0
  C  C154  1  0.89758314  0.11635695  0.10721605  1.0
  C  C155  1  0.86123248  0.08361242  0.15115227  1.0
  C  C156  1  0.19024312  0.68722440  0.99717775  1.0
  C  C157  1  0.84541067  0.30869830  0.08680167  1.0
  O  O158  1  0.40837406  0.05380896  0.96037941  1.0
  O  O159  1  0.59809405  0.05607203  0.14506768  1.0
  O  O160  1  0.59292709  0.14702183  0.05259789  1.0
  O  O161  1  0.40708444  0.85300069  0.94741159  1.0
  O  O162  1  0.58909532  0.04008574  0.94638703  1.0
  O  O163  1  0.41091298  0.95993483  0.05362340  1.0
  O  O164  1  0.94764237  0.59293237  0.03957284  1.0
  O  O165  1  0.05216894  0.40691257  0.96037517  1.0
  O  O166  1  0.05252367  0.59419449  0.14516978  1.0
  O  O167  1  0.94742939  0.40578775  0.85478584  1.0
  O  O168  1  0.85424637  0.40753627  0.94803686  1.0
  O  O169  1  0.59163320  0.94620381  0.03962223  1.0
  O  O170  1  0.14575235  0.59241019  0.05190214  1.0
  O  O171  1  0.95937575  0.40922491  0.05371163  1.0
  O  O172  1  0.04062763  0.59083596  0.94633720  1.0
  O  O173  1  0.94702710  0.04081293  0.59293433  1.0
  O  O174  1  0.05310847  0.95923940  0.40720341  1.0
  O  O175  1  0.05078978  0.14432869  0.59057488  1.0
  O  O176  1  0.94921496  0.85566983  0.40936906  1.0
  O  O177  1  0.04157711  0.94852103  0.59375442  1.0
  O  O178  1  0.95842611  0.05144821  0.40619470  1.0
  O  O179  1  0.14551812  0.05210755  0.59155147  1.0
  O  O180  1  0.85450548  0.94795527  0.40850889  1.0
  O  O181  1  0.40190942  0.94393879  0.85493313  1.0
