# generated using pymatgen
data_CdH18C22(NO)4
_symmetry_space_group_name_H-M   'P 1'
_cell_length_a   8.29505839
_cell_length_b   18.71733271
_cell_length_c   18.71731924
_cell_angle_alpha   89.99964329
_cell_angle_beta   90.00001297
_cell_angle_gamma   89.99997947
_symmetry_Int_Tables_number   1
_chemical_formula_structural   CdH18C22(NO)4
_chemical_formula_sum   'Cd4 H72 C88 N16 O16'
_cell_volume   2906.07658547
_cell_formula_units_Z   4
loop_
 _symmetry_equiv_pos_site_id
 _symmetry_equiv_pos_as_xyz
  1  'x, y, z'
loop_
 _atom_site_type_symbol
 _atom_site_label
 _atom_site_symmetry_multiplicity
 _atom_site_fract_x
 _atom_site_fract_y
 _atom_site_fract_z
 _atom_site_occupancy
  Cd  Cd0  1  0.99999862  0.26516788  0.73483300  1.0
  Cd  Cd1  1  0.00000313  0.23483293  0.23483409  1.0
  Cd  Cd2  1  0.99999831  0.73483348  0.26516599  1.0
  Cd  Cd3  1  0.00000064  0.76516699  0.76516586  1.0
  H  H4  1  0.92218954  0.62265749  0.87438766  1.0
  H  H5  1  0.92218843  0.37438813  0.87734505  1.0
  H  H6  1  0.92219065  0.37734389  0.12561453  1.0
  H  H7  1  0.92218693  0.62561431  0.12265500  1.0
  H  H8  1  0.07780864  0.12265760  0.62561423  1.0
  H  H9  1  0.07781068  0.87734231  0.37438787  1.0
  H  H10  1  0.07781098  0.12561232  0.37734362  1.0
  H  H11  1  0.07780592  0.87438759  0.62265634  1.0
  H  H12  1  0.13097394  0.50571137  0.88551457  1.0
  H  H13  1  0.13098004  0.38551335  0.99428907  1.0
  H  H14  1  0.13097857  0.49428853  0.11448539  1.0
  H  H15  1  0.13097729  0.61448655  0.00571196  1.0
  H  H16  1  0.86902433  0.00571143  0.61448804  1.0
  H  H17  1  0.86902387  0.99428782  0.38551467  1.0
  H  H18  1  0.86902305  0.11448478  0.49428886  1.0
  H  H19  1  0.86902154  0.88551447  0.50571064  1.0
  H  H20  1  0.39762899  0.61107636  0.68110999  1.0
  H  H21  1  0.39762801  0.18111060  0.88892367  1.0
  H  H22  1  0.39763140  0.38892350  0.31889161  1.0
  H  H23  1  0.39762755  0.81888979  0.11107525  1.0
  H  H24  1  0.60236678  0.11107839  0.81889090  1.0
  H  H25  1  0.60237234  0.88892464  0.18111018  1.0
  H  H26  1  0.60237021  0.31888978  0.38892430  1.0
  H  H27  1  0.60236771  0.68111058  0.61107571  1.0
  H  H28  1  0.30283035  0.69649343  0.68824696  1.0
  H  H29  1  0.30283058  0.18824811  0.80350543  1.0
  H  H30  1  0.30283403  0.30350591  0.31175303  1.0
  H  H31  1  0.30283018  0.81175337  0.19649295  1.0
  H  H32  1  0.69716536  0.19649495  0.81175233  1.0
  H  H33  1  0.69716978  0.80350753  0.18824716  1.0
  H  H34  1  0.69716880  0.31175174  0.30350665  1.0
  H  H35  1  0.69716633  0.68824754  0.69649338  1.0
  H  H36  1  0.20611013  0.62548239  0.64141515  1.0
  H  H37  1  0.20610797  0.14141644  0.87451788  1.0
  H  H38  1  0.20611136  0.37451696  0.35858536  1.0
  H  H39  1  0.20610749  0.85858452  0.12547996  1.0
  H  H40  1  0.79388563  0.12548361  0.85858512  1.0
  H  H41  1  0.79389118  0.87451939  0.14141491  1.0
  H  H42  1  0.79389024  0.35858404  0.37451774  1.0
  H  H43  1  0.79388778  0.64141522  0.62548175  1.0
  H  H44  1  0.54987871  0.59215076  0.79270135  1.0
  H  H45  1  0.54988488  0.29270015  0.90784805  1.0
  H  H46  1  0.54988707  0.40785068  0.20729812  1.0
  H  H47  1  0.54988330  0.70729702  0.09215196  1.0
  H  H48  1  0.45011949  0.09215030  0.70729912  1.0
  H  H49  1  0.45012147  0.90784955  0.29270141  1.0
  H  H50  1  0.45011816  0.20729745  0.40784882  1.0
  H  H51  1  0.45011556  0.79270080  0.59214904  1.0
  H  H52  1  0.77937682  0.50747048  0.76904867  1.0
  H  H53  1  0.77938300  0.26904799  0.99252960  1.0
  H  H54  1  0.77938392  0.49253199  0.23095189  1.0
  H  H55  1  0.77938377  0.73094967  0.00747150  1.0
  H  H56  1  0.22061663  0.00747045  0.73095019  1.0
  H  H57  1  0.22062093  0.99252891  0.26904765  1.0
  H  H58  1  0.22061768  0.23095015  0.49252967  1.0
  H  H59  1  0.22061988  0.76904654  0.50746763  1.0
  H  H60  1  0.44207004  0.33325182  0.75251905  1.0
  H  H61  1  0.44207353  0.25251885  0.16674738  1.0
  H  H62  1  0.44206977  0.66674589  0.24748415  1.0
  H  H63  1  0.44207471  0.74748420  0.83325368  1.0
  H  H64  1  0.55792797  0.83325149  0.74748259  1.0
  H  H65  1  0.55792811  0.16674727  0.25251742  1.0
  H  H66  1  0.55792818  0.24748131  0.66674796  1.0
  H  H67  1  0.55793031  0.75251745  0.33325045  1.0
  H  H68  1  0.21293599  0.41811484  0.77073452  1.0
  H  H69  1  0.21293949  0.27073487  0.08188367  1.0
  H  H70  1  0.21293579  0.58188345  0.22926598  1.0
  H  H71  1  0.21293952  0.72926715  0.91811631  1.0
  H  H72  1  0.78706435  0.91811565  0.72926819  1.0
  H  H73  1  0.78706337  0.08188521  0.27073558  1.0
  H  H74  1  0.78706097  0.22926475  0.58188384  1.0
  H  H75  1  0.78706192  0.77073291  0.41811458  1.0
  C  C76  1  0.02345927  0.60704540  0.84129371  1.0
  C  C77  1  0.02346060  0.34129370  0.89295578  1.0
  C  C78  1  0.02346159  0.39295559  0.15870785  1.0
  C  C79  1  0.02345786  0.65870782  0.10704364  1.0
  C  C80  1  0.97653891  0.10704570  0.65870720  1.0
  C  C81  1  0.97654093  0.89295460  0.34129392  1.0
  C  C82  1  0.97654124  0.15870666  0.39295638  1.0
  C  C83  1  0.97653740  0.84129364  0.60704474  1.0
  C  C84  1  0.12544170  0.54993734  0.84825536  1.0
  C  C85  1  0.12544663  0.34825551  0.95006330  1.0
  C  C86  1  0.12544759  0.45006310  0.15174514  1.0
  C  C87  1  0.12544507  0.65174546  0.04993720  1.0
  C  C88  1  0.87455412  0.04993770  0.65174591  1.0
  C  C89  1  0.87455609  0.95006209  0.34825520  1.0
  C  C90  1  0.87455644  0.15174396  0.45006393  1.0
  C  C91  1  0.87455136  0.84825582  0.54993664  1.0
  C  C92  1  0.20059483  0.61637284  0.75485182  1.0
  C  C93  1  0.20059742  0.25485244  0.88362727  1.0
  C  C94  1  0.20059841  0.38362652  0.24514868  1.0
  C  C95  1  0.20059461  0.74514852  0.11637270  1.0
  C  C96  1  0.79939973  0.11637369  0.74514850  1.0
  C  C97  1  0.79940533  0.88362770  0.25485154  1.0
  C  C98  1  0.79940321  0.24514744  0.38362731  1.0
  C  C99  1  0.79940306  0.75485129  0.61637219  1.0
  C  C100  1  0.28222292  0.63857439  0.68777431  1.0
  C  C101  1  0.28222194  0.18777564  0.86142505  1.0
  C  C102  1  0.28222535  0.36142496  0.31222620  1.0
  C  C103  1  0.28222150  0.81222584  0.13857333  1.0
  C  C104  1  0.71777283  0.13857591  0.81222587  1.0
  C  C105  1  0.71777841  0.86142657  0.18777469  1.0
  C  C106  1  0.71777747  0.31222598  0.36142626  1.0
  C  C107  1  0.71777498  0.68777489  0.63857376  1.0
  C  C108  1  0.36994269  0.50917477  0.78235664  1.0
  C  C109  1  0.36994766  0.28235602  0.99082363  1.0
  C  C110  1  0.36994497  0.49082402  0.21764442  1.0
  C  C111  1  0.36994723  0.71764438  0.00917636  1.0
  C  C112  1  0.63005437  0.00917529  0.71764488  1.0
  C  C113  1  0.63005748  0.99082453  0.28235460  1.0
  C  C114  1  0.63005302  0.21764213  0.49082436  1.0
  C  C115  1  0.63005400  0.78235555  0.50917352  1.0
  C  C116  1  0.52784392  0.53559038  0.78249547  1.0
  C  C117  1  0.52785010  0.28249392  0.96440853  1.0
  C  C118  1  0.52784983  0.46440999  0.21750453  1.0
  C  C119  1  0.52785089  0.71750431  0.03559147  1.0
  C  C120  1  0.47215191  0.03559146  0.71750535  1.0
  C  C121  1  0.47215625  0.96440838  0.28249358  1.0
  C  C122  1  0.47215057  0.21750225  0.46440924  1.0
  C  C123  1  0.47215156  0.78249492  0.53558915  1.0
  C  C124  1  0.65495455  0.48858158  0.77019846  1.0
  C  C125  1  0.65495686  0.27019652  0.01141794  1.0
  C  C126  1  0.65495802  0.51141931  0.22980316  1.0
  C  C127  1  0.65495813  0.72980170  0.98858315  1.0
  C  C128  1  0.34504332  0.98858139  0.72980221  1.0
  C  C129  1  0.34504481  0.01141795  0.27019563  1.0
  C  C130  1  0.34504357  0.22980034  0.51141860  1.0
  C  C131  1  0.34504215  0.77019685  0.48857978  1.0
  C  C132  1  0.62443400  0.41560006  0.75997446  1.0
  C  C133  1  0.62443871  0.25997368  0.08440011  1.0
  C  C134  1  0.62443621  0.58440083  0.24002769  1.0
  C  C135  1  0.62443994  0.74002721  0.91560098  1.0
  C  C136  1  0.37556273  0.91559927  0.74002559  1.0
  C  C137  1  0.37556535  0.08440006  0.25997226  1.0
  C  C138  1  0.37556296  0.24002433  0.58440071  1.0
  C  C139  1  0.37556271  0.75997287  0.41559821  1.0
  C  C140  1  0.46569131  0.38981381  0.76153726  1.0
  C  C141  1  0.46569601  0.26153634  0.11018584  1.0
  C  C142  1  0.46569109  0.61018497  0.23846487  1.0
  C  C143  1  0.46569602  0.73846511  0.88981523  1.0
  C  C144  1  0.53430786  0.88981407  0.73846349  1.0
  C  C145  1  0.53430805  0.11018630  0.26153544  1.0
  C  C146  1  0.53430447  0.23846204  0.61018700  1.0
  C  C147  1  0.53430782  0.76153566  0.38981247  1.0
  C  C148  1  0.33759816  0.43671897  0.77186498  1.0
  C  C149  1  0.33760287  0.27186542  0.06328004  1.0
  C  C150  1  0.33759918  0.56327929  0.22813501  1.0
  C  C151  1  0.33760411  0.72813551  0.93672048  1.0
  C  C152  1  0.66239976  0.93671874  0.72813602  1.0
  C  C153  1  0.66240120  0.06328107  0.27186346  1.0
  C  C154  1  0.66239759  0.22813272  0.56328128  1.0
  C  C155  1  0.66239975  0.77186336  0.43671820  1.0
  C  C156  1  0.76133962  0.36495238  0.74787567  1.0
  C  C157  1  0.76134554  0.24787564  0.13504790  1.0
  C  C158  1  0.76134060  0.63504956  0.25212596  1.0
  C  C159  1  0.76134553  0.75212630  0.86495267  1.0
  C  C160  1  0.23865715  0.86495100  0.75212417  1.0
  C  C161  1  0.23865972  0.13504889  0.24787474  1.0
  C  C162  1  0.23865736  0.25212473  0.63504841  1.0
  C  C163  1  0.23865710  0.74787409  0.36494996  1.0
  N  N164  1  0.07118766  0.64772017  0.78343648  1.0
  N  N165  1  0.07118782  0.28343729  0.85228080  1.0
  N  N166  1  0.07118763  0.35227974  0.21656402  1.0
  N  N167  1  0.07118506  0.71656423  0.14771862  1.0
  N  N168  1  0.92880929  0.14772119  0.71656365  1.0
  N  N169  1  0.92881372  0.85228019  0.28343693  1.0
  N  N170  1  0.92881279  0.21656279  0.35228103  1.0
  N  N171  1  0.92881022  0.78343645  0.64771848  1.0
  N  N172  1  0.23821606  0.55674616  0.79390301  1.0
  N  N173  1  0.23822223  0.29390323  0.94325267  1.0
  N  N174  1  0.23822319  0.44325212  0.20609750  1.0
  N  N175  1  0.23822063  0.70609719  0.05674730  1.0
  N  N176  1  0.76177855  0.05674780  0.70609822  1.0
  N  N177  1  0.76178291  0.94325307  0.29390235  1.0
  N  N178  1  0.76178084  0.20609629  0.44325349  1.0
  N  N179  1  0.76177942  0.79390298  0.55674654  1.0
  O  O180  1  0.90260203  0.38915563  0.73745371  1.0
  O  O181  1  0.90260796  0.23745381  0.11084468  1.0
  O  O182  1  0.90260182  0.61084682  0.26254847  1.0
  O  O183  1  0.90260795  0.76254811  0.88915589  1.0
  O  O184  1  0.09739472  0.88915474  0.76254652  1.0
  O  O185  1  0.09739731  0.11084677  0.23745184  1.0
  O  O186  1  0.09739494  0.26254777  0.61084458  1.0
  O  O187  1  0.09739469  0.73745213  0.38915324  1.0
  O  O188  1  0.72967743  0.29780819  0.74988739  1.0
  O  O189  1  0.72968092  0.24988693  0.20219212  1.0
  O  O190  1  0.72967593  0.70219375  0.25011317  1.0
  O  O191  1  0.72968087  0.75011394  0.79780844  1.0
  O  O192  1  0.27032060  0.79780682  0.75011234  1.0
  O  O193  1  0.27032313  0.20219306  0.24988818  1.0
  O  O194  1  0.27032081  0.25011301  0.70219318  1.0
  O  O195  1  0.27032051  0.74988687  0.29780573  1.0
