# generated using pymatgen
data_Zn3H28C37O12
_symmetry_space_group_name_H-M   'P 1'
_cell_length_a   18.47856570
_cell_length_b   18.53066732
_cell_length_c   18.61650692
_cell_angle_alpha   109.12555387
_cell_angle_beta   109.59125168
_cell_angle_gamma   109.13334926
_symmetry_Int_Tables_number   1
_chemical_formula_structural   Zn3H28C37O12
_chemical_formula_sum   'Zn6 H56 C74 O24'
_cell_volume   4940.97278504
_cell_formula_units_Z   2
loop_
 _symmetry_equiv_pos_site_id
 _symmetry_equiv_pos_as_xyz
  1  'x, y, z'
loop_
 _atom_site_type_symbol
 _atom_site_label
 _atom_site_symmetry_multiplicity
 _atom_site_fract_x
 _atom_site_fract_y
 _atom_site_fract_z
 _atom_site_occupancy
  Zn  Zn0  1  0.49670272  0.42996955  0.43563337  1.0
  Zn  Zn1  1  0.50224523  0.56143118  0.56067326  1.0
  Zn  Zn2  1  0.93179145  0.43730304  0.00103126  1.0
  Zn  Zn3  1  0.06439575  0.55556778  0.00107509  1.0
  Zn  Zn4  1  0.92771554  0.99746696  0.42573206  1.0
  Zn  Zn5  1  0.04992408  0.99441726  0.55242360  1.0
  H  H6  1  0.61417996  0.37572161  0.63052487  1.0
  H  H7  1  0.09681951  0.34099215  0.15190998  1.0
  H  H8  1  0.58800019  0.42623267  0.70874230  1.0
  H  H9  1  0.22803067  0.35926914  0.27182432  1.0
  H  H10  1  0.58252083  0.71466652  0.43493789  1.0
  H  H11  1  0.68556707  0.83156679  0.42274569  1.0
  H  H12  1  0.86170720  0.72526984  0.45671690  1.0
  H  H13  1  0.75172193  0.59978471  0.45278778  1.0
  H  H14  1  0.13367972  0.21767036  0.78849387  1.0
  H  H15  1  0.09371080  0.81312977  0.16446074  1.0
  H  H16  1  0.68030327  0.40332808  0.80882475  1.0
  H  H17  1  0.85647547  0.63272629  0.91040142  1.0
  H  H18  1  0.00043661  0.74350030  0.36482336  1.0
  H  H19  1  0.99187308  0.62613927  0.24188500  1.0
  H  H20  1  0.70843596  0.35497874  0.73212207  1.0
  H  H21  1  0.85079582  0.46319369  0.73328972  1.0
  H  H22  1  0.76641253  0.65467150  0.80811974  1.0
  H  H23  1  0.67388550  0.58780543  0.80854057  1.0
  H  H24  1  0.76346367  0.56439907  0.91054202  1.0
  H  H25  1  0.93550726  0.58545826  0.70582041  1.0
  H  H26  1  0.02624851  0.71957032  0.71022975  1.0
  H  H27  1  0.96971754  0.82288829  0.69702827  1.0
  H  H28  1  0.89733398  0.57513106  0.80452451  1.0
  H  H29  1  0.82081012  0.78831828  0.68068691  1.0
  H  H30  1  0.73192148  0.65715520  0.67907368  1.0
  H  H31  1  0.21953833  0.27742684  0.94234960  1.0
  H  H32  1  0.26752653  0.33717201  0.89773621  1.0
  H  H33  1  0.30111989  0.38985654  0.01068349  1.0
  H  H34  1  0.20076668  0.43401392  0.93246964  1.0
  H  H35  1  0.15572162  0.37785438  0.97928024  1.0
  H  H36  1  0.84812554  0.22836442  0.54187012  1.0
  H  H37  1  0.89737843  0.16672208  0.50706508  1.0
  H  H38  1  0.78041330  0.11734264  0.45677046  1.0
  H  H39  1  0.23366418  0.37107792  0.46203117  1.0
  H  H40  1  0.83284209  0.06478219  0.55913634  1.0
  H  H41  1  0.78886761  0.12954226  0.59760415  1.0
  H  H42  1  0.82510622  0.24313375  0.80901714  1.0
  H  H43  1  0.73985991  0.24600028  0.73124519  1.0
  H  H44  1  0.76191398  0.15785732  0.69845600  1.0
  H  H45  1  0.88465822  0.35161725  0.76160234  1.0
  H  H46  1  0.82659130  0.26677830  0.65326991  1.0
  H  H47  1  0.22684786  0.96141593  0.29115383  1.0
  H  H48  1  0.27554729  0.09661468  0.27904186  1.0
  H  H49  1  0.17738105  0.16168099  0.25445492  1.0
  H  H50  1  0.10052140  0.26419003  0.45269506  1.0
  H  H51  1  0.03145499  0.09200932  0.24510702  1.0
  H  H52  1  0.98329869  0.95733820  0.25750614  1.0
  H  H53  1  0.73532412  0.34850892  0.63451552  1.0
  H  H54  1  0.68510917  0.23175075  0.49001520  1.0
  H  H55  1  0.66242302  0.26055657  0.36430680  1.0
  H  H56  1  0.69093749  0.41039941  0.38806885  1.0
  H  H57  1  0.74130684  0.52734367  0.53355020  1.0
  H  H58  1  0.22772102  0.11215575  0.49108348  1.0
  H  H59  1  0.35323922  0.20946295  0.48379912  1.0
  H  H60  1  0.33658843  0.63941827  0.39695472  1.0
  H  H61  1  0.21422131  0.62186001  0.26868649  1.0
  C  C62  1  0.37873139  0.35947055  0.47783716  1.0
  C  C63  1  0.30063118  0.29591037  0.47312001  1.0
  C  C64  1  0.28458150  0.57461496  0.34219415  1.0
  C  C65  1  0.62246790  0.52278527  0.63765167  1.0
  C  C66  1  0.21605602  0.56472041  0.27182682  1.0
  C  C67  1  0.14900613  0.48050052  0.20321028  1.0
  C  C68  1  0.15034378  0.40600499  0.20505172  1.0
  C  C69  1  0.22250844  0.41618615  0.27217535  1.0
  C  C70  1  0.28969563  0.50043266  0.34065613  1.0
  C  C71  1  0.64219600  0.71552561  0.43610725  1.0
  C  C72  1  0.69999602  0.78122502  0.43053679  1.0
  C  C73  1  0.79725441  0.49436072  0.81964073  1.0
  C  C74  1  0.77989730  0.78549574  0.43943682  1.0
  C  C75  1  0.79867698  0.72039136  0.44815358  1.0
  C  C76  1  0.73784901  0.65105592  0.44704295  1.0
  C  C77  1  0.60147444  0.58358443  0.45601683  1.0
  C  C78  1  0.66072027  0.64999461  0.44389947  1.0
  C  C79  1  0.02066446  0.39534538  0.88755682  1.0
  C  C80  1  0.86207902  0.48409774  0.88628125  1.0
  C  C81  1  0.03417329  0.64263352  0.12126574  1.0
  C  C82  1  0.08141823  0.47263585  0.12516677  1.0
  C  C83  1  0.03410778  0.90143600  0.39663129  1.0
  C  C84  1  0.83462501  0.51358939  0.76140888  1.0
  C  C85  1  0.08372981  0.12116381  0.47445933  1.0
  C  C86  1  0.00320758  0.10301358  0.62961460  1.0
  C  C87  1  0.84860900  0.86223977  0.44676062  1.0
  C  C88  1  0.08938448  0.30654788  0.83922143  1.0
  C  C89  1  0.36986771  0.51117515  0.40839837  1.0
  C  C90  1  0.07993045  0.23263553  0.77603671  1.0
  C  C91  1  0.00257027  0.17595362  0.69425284  1.0
  C  C92  1  0.92951796  0.19077436  0.67369889  1.0
  C  C93  1  0.93696961  0.26386164  0.73832239  1.0
  C  C94  1  0.01626664  0.32061306  0.81891366  1.0
  C  C95  1  0.79009131  0.57507007  0.86801263  1.0
  C  C96  1  0.07262128  0.79823373  0.20839639  1.0
  C  C97  1  0.07176972  0.86355645  0.27261419  1.0
  C  C98  1  0.04436925  0.84179610  0.32858085  1.0
  C  C99  1  0.01922213  0.75768240  0.31933008  1.0
  C  C100  1  0.01547548  0.69268442  0.25201230  1.0
  C  C101  1  0.64319956  0.42775059  0.69766531  1.0
  C  C102  1  0.04242799  0.71324359  0.19603665  1.0
  C  C103  1  0.70483074  0.41387653  0.76499104  1.0
  C  C104  1  0.77245913  0.52241061  0.68694363  1.0
  C  C105  1  0.73003757  0.58960030  0.79950487  1.0
  C  C106  1  0.23036199  0.31251876  0.46540156  1.0
  C  C107  1  0.69305977  0.51814053  0.70513125  1.0
  C  C108  1  0.82638593  0.60999720  0.69322828  1.0
  C  C109  1  0.91015220  0.63028863  0.70159646  1.0
  C  C110  1  0.96145288  0.70591021  0.70332747  1.0
  C  C111  1  0.93003245  0.76374647  0.69600254  1.0
  C  C112  1  0.84703579  0.74453919  0.68716134  1.0
  C  C113  1  0.79604394  0.66872940  0.68595159  1.0
  C  C114  1  0.17322388  0.36879255  0.92706246  1.0
  C  C115  1  0.24396414  0.34149875  0.94513343  1.0
  C  C116  1  0.84425338  0.13207900  0.58674927  1.0
  C  C117  1  0.15707347  0.25403967  0.46156324  1.0
  C  C118  1  0.84255527  0.16304630  0.51930208  1.0
  C  C119  1  0.85985622  0.28128394  0.72147445  1.0
  C  C120  1  0.79265172  0.22885337  0.74100197  1.0
  C  C121  1  0.10169538  0.95000052  0.27546594  1.0
  C  C122  1  0.18405625  0.99026902  0.28108651  1.0
  C  C123  1  0.21113528  0.06580508  0.27365853  1.0
  C  C124  1  0.15610059  0.10242546  0.26001040  1.0
  C  C125  1  0.07457680  0.06349839  0.25497177  1.0
  C  C126  1  0.04741784  0.98795628  0.26268435  1.0
  C  C127  1  0.74162854  0.44793689  0.59606636  1.0
  C  C128  1  0.15737217  0.18284619  0.47231210  1.0
  C  C129  1  0.72544955  0.36349079  0.58128841  1.0
  C  C130  1  0.69694423  0.29656105  0.49887784  1.0
  C  C131  1  0.68423900  0.31251704  0.42861257  1.0
  C  C132  1  0.70056844  0.39631345  0.44205052  1.0
  C  C133  1  0.72913727  0.46264816  0.52459835  1.0
  C  C134  1  0.22894241  0.16794133  0.48272768  1.0
  C  C135  1  0.29893374  0.22240055  0.47962958  1.0
  O  O136  1  0.40778274  0.32935320  0.42759994  1.0
  O  O137  1  0.08057677  0.92206358  0.47653377  1.0
  O  O138  1  0.00353785  0.09840592  0.42270326  1.0
  O  O139  1  0.41057187  0.43961428  0.53142383  1.0
  O  O140  1  0.10593308  0.09299228  0.52718932  1.0
  O  O141  1  0.95127274  0.07157196  0.54872515  1.0
  O  O142  1  0.05741191  0.07588440  0.65735424  1.0
  O  O143  1  0.82367183  0.89783112  0.40142588  1.0
  O  O144  1  0.92818889  0.88780811  0.49916930  1.0
  O  O145  1  0.58934284  0.46774732  0.55807710  1.0
  O  O146  1  0.59675926  0.57839286  0.66378570  1.0
  O  O147  1  0.07598836  0.47454301  0.91292987  1.0
  O  O148  1  0.57725635  0.50227436  0.40996335  1.0
  O  O149  1  0.58018738  0.61330161  0.51271850  1.0
  O  O150  1  0.39749509  0.45909063  0.38204596  1.0
  O  O151  1  0.40599177  0.57240133  0.48786311  1.0
  O  O152  1  0.96880378  0.37478314  0.91691205  1.0
  O  O153  1  0.83200176  0.43097134  0.91274829  1.0
  O  O154  1  0.94332809  0.52959324  0.91261724  1.0
  O  O155  1  0.97564365  0.56493342  0.09251624  1.0
  O  O156  1  0.08584906  0.66414808  0.09047304  1.0
  O  O157  1  0.99942364  0.41890868  0.09312622  1.0
  O  O158  1  0.11150969  0.52114357  0.09583723  1.0
  O  O159  1  0.97577204  0.92238188  0.36892443  1.0
