# generated using pymatgen
data_AlH6C11O6
_symmetry_space_group_name_H-M   'P 1'
_cell_length_a   6.67195944
_cell_length_b   17.98804156
_cell_length_c   19.97021280
_cell_angle_alpha   95.70234187
_cell_angle_beta   92.51132970
_cell_angle_gamma   93.38752559
_symmetry_Int_Tables_number   1
_chemical_formula_structural   AlH6C11O6
_chemical_formula_sum   'Al4 H24 C44 O24'
_cell_volume   2377.72704193
_cell_formula_units_Z   4
loop_
 _symmetry_equiv_pos_site_id
 _symmetry_equiv_pos_as_xyz
  1  'x, y, z'
loop_
 _atom_site_type_symbol
 _atom_site_label
 _atom_site_symmetry_multiplicity
 _atom_site_fract_x
 _atom_site_fract_y
 _atom_site_fract_z
 _atom_site_occupancy
  Al  Al0  1  0.74261660  0.74926271  0.24991519  1.0
  Al  Al1  1  0.25739061  0.25074331  0.75007921  1.0
  Al  Al2  1  0.24286673  0.75010922  0.25030706  1.0
  Al  Al3  1  0.75714464  0.24988985  0.74968939  1.0
  H  H4  1  0.77461625  0.44545802  0.88244490  1.0
  H  H5  1  0.22537558  0.55453228  0.11757089  1.0
  H  H6  1  0.73405917  0.05420278  0.61593035  1.0
  H  H7  1  0.26595021  0.94581670  0.38405959  1.0
  H  H8  1  0.33173147  0.35763291  0.94302073  1.0
  H  H9  1  0.66826447  0.64235386  0.05698755  1.0
  H  H10  1  0.17661751  0.14427497  0.55908356  1.0
  H  H11  1  0.82339006  0.85573896  0.44090684  1.0
  H  H12  1  0.53238061  0.65924382  0.94562300  1.0
  H  H13  1  0.39284664  0.59996136  0.99690407  1.0
  H  H14  1  0.35330309  0.58706943  0.90715416  1.0
  H  H15  1  0.60714608  0.40001974  0.00310869  1.0
  H  H16  1  0.46760411  0.34073100  0.05438410  1.0
  H  H17  1  0.64667116  0.41290409  0.09285783  1.0
  H  H18  1  0.10360586  0.89660526  0.49972448  1.0
  H  H19  1  0.96180247  0.83781375  0.55081998  1.0
  H  H20  1  0.14526567  0.90834293  0.58941537  1.0
  H  H21  1  0.03819471  0.16220225  0.44917029  1.0
  H  H22  1  0.89640607  0.10340691  0.50026446  1.0
  H  H23  1  0.85474494  0.09167295  0.41057205  1.0
  H  H24  1  0.47198169  0.65161522  0.22980731  1.0
  H  H25  1  0.52803930  0.34837854  0.77022648  1.0
  H  H26  1  0.00876345  0.84913340  0.25937412  1.0
  H  H27  1  0.99126462  0.15086778  0.74068645  1.0
  C  C28  1  0.00202472  0.47763589  0.52149327  1.0
  C  C29  1  0.99793995  0.52239967  0.47853335  1.0
  C  C30  1  0.50096520  0.02225925  0.97839835  1.0
  C  C31  1  0.49905810  0.97769945  0.02156746  1.0
  C  C32  1  0.48826575  0.83555497  0.16406612  1.0
  C  C33  1  0.51172860  0.16443768  0.83592455  1.0
  C  C34  1  0.99799120  0.66459991  0.33610870  1.0
  C  C35  1  0.00199933  0.33539999  0.66389301  1.0
  C  C36  1  0.52659664  0.84208247  0.34594852  1.0
  C  C37  1  0.47340336  0.15793023  0.65404177  1.0
  C  C38  1  0.96034319  0.65692442  0.15403559  1.0
  C  C39  1  0.03966369  0.34307289  0.84596583  1.0
  C  C40  1  0.00601067  0.38529847  0.61163307  1.0
  C  C41  1  0.99396899  0.61471685  0.38837910  1.0
  C  C42  1  0.50644302  0.11440520  0.88807717  1.0
  C  C43  1  0.49354304  0.88557576  0.11190934  1.0
  C  C44  1  0.05125065  0.39713011  0.90770755  1.0
  C  C45  1  0.94873808  0.60286296  0.09229814  1.0
  C  C46  1  0.45767224  0.10368164  0.59245437  1.0
  C  C47  1  0.54233079  0.89633256  0.40753396  1.0
  C  C48  1  0.00482867  0.42923085  0.56842699  1.0
  C  C49  1  0.99513358  0.57079258  0.43159050  1.0
  C  C50  1  0.50366102  0.07053124  0.93134251  1.0
  C  C51  1  0.49636338  0.92944420  0.06862889  1.0
  C  C52  1  0.76717343  0.55263969  0.98845905  1.0
  C  C53  1  0.23281309  0.44733534  0.01156015  1.0
  C  C54  1  0.73128154  0.94614746  0.51010999  1.0
  C  C55  1  0.26872620  0.05387330  0.48987137  1.0
  C  C56  1  0.78177247  0.60258249  0.04597040  1.0
  C  C57  1  0.21820847  0.39740192  0.95404372  1.0
  C  C58  1  0.71180666  0.89605745  0.45273333  1.0
  C  C59  1  0.28819490  0.10395774  0.54725398  1.0
  C  C60  1  0.09794907  0.55327577  0.08154712  1.0
  C  C61  1  0.90203644  0.44670893  0.91846907  1.0
  C  C62  1  0.39542818  0.94667880  0.41921145  1.0
  C  C63  1  0.60458861  0.05333957  0.58077757  1.0
  C  C64  1  0.08303048  0.50045145  0.02405255  1.0
  C  C65  1  0.91696676  0.49952664  0.97596780  1.0
  C  C66  1  0.41560112  0.99980674  0.47650887  1.0
  C  C67  1  0.58440044  0.00020800  0.52347944  1.0
  C  C68  1  0.46520993  0.60236654  0.94870975  1.0
  C  C69  1  0.53477070  0.39761191  0.05130586  1.0
  C  C70  1  0.03203119  0.89430242  0.54806940  1.0
  C  C71  1  0.96798705  0.10571621  0.45191662  1.0
  O  O72  1  0.35506180  0.82895937  0.31475083  1.0
  O  O73  1  0.64494403  0.17105059  0.68523904  1.0
  O  O74  1  0.79691462  0.68500697  0.17147958  1.0
  O  O75  1  0.20309401  0.31499566  0.82851936  1.0
  O  O76  1  0.65712568  0.82358875  0.19187672  1.0
  O  O77  1  0.34287479  0.17640527  0.80811554  1.0
  O  O78  1  0.17062915  0.69184657  0.32319077  1.0
  O  O79  1  0.82936568  0.30815135  0.67680747  1.0
  O  O80  1  0.68814261  0.81291937  0.32814915  1.0
  O  O81  1  0.31185591  0.18709163  0.67184615  1.0
  O  O82  1  0.13109978  0.67080163  0.18560160  1.0
  O  O83  1  0.86891326  0.32920030  0.81439538  1.0
  O  O84  1  0.82935298  0.67552881  0.30764976  1.0
  O  O85  1  0.17064679  0.32447647  0.69234906  1.0
  O  O86  1  0.31501642  0.80924882  0.17747683  1.0
  O  O87  1  0.68498086  0.19074142  0.82251689  1.0
  O  O88  1  0.48457847  0.70417999  0.24648269  1.0
  O  O89  1  0.51542738  0.29582514  0.75351924  1.0
  O  O90  1  0.99997635  0.79497911  0.25290620  1.0
  O  O91  1  0.00003540  0.20502484  0.74709430  1.0
  O  O92  1  0.61426324  0.54849138  0.94058277  1.0
  O  O93  1  0.38571605  0.45148938  0.05943383  1.0
  O  O94  1  0.88647956  0.94940869  0.55707293  1.0
  O  O95  1  0.11353884  0.05061316  0.44291210  1.0
