# generated using pymatgen
data_MgH8C14O3
_symmetry_space_group_name_H-M   'P 1'
_cell_length_a   6.86236955
_cell_length_b   35.80857813
_cell_length_c   35.80719923
_cell_angle_alpha   119.59302614
_cell_angle_beta   93.67357472
_cell_angle_gamma   93.65206578
_symmetry_Int_Tables_number   1
_chemical_formula_structural   MgH8C14O3
_chemical_formula_sum   'Mg6 H48 C84 O18'
_cell_volume   7589.24004217
_cell_formula_units_Z   6
loop_
 _symmetry_equiv_pos_site_id
 _symmetry_equiv_pos_as_xyz
  1  'x, y, z'
loop_
 _atom_site_type_symbol
 _atom_site_label
 _atom_site_symmetry_multiplicity
 _atom_site_fract_x
 _atom_site_fract_y
 _atom_site_fract_z
 _atom_site_occupancy
  Mg  Mg0  1  0.59200765  0.69379440  0.32946290  1.0
  Mg  Mg1  1  0.31283752  0.30524539  0.66937188  1.0
  Mg  Mg2  1  0.26266635  0.67051331  0.36436506  1.0
  Mg  Mg3  1  0.64338170  0.33063738  0.63588754  1.0
  Mg  Mg4  1  0.89827221  0.63562913  0.30621828  1.0
  Mg  Mg5  1  0.00759077  0.36412796  0.69475978  1.0
  H  H6  1  0.12729343  0.57305782  0.18480497  1.0
  H  H7  1  0.38682071  0.52897557  0.08150044  1.0
  H  H8  1  0.99429839  0.54876566  0.11984238  1.0
  H  H9  1  0.53488930  0.50703490  0.00361485  1.0
  H  H10  1  0.74385566  0.54510404  0.07286671  1.0
  H  H11  1  0.45483455  0.44531134  0.93312594  1.0
  H  H12  1  0.82651040  0.43346720  0.88667646  1.0
  H  H13  1  0.79134320  0.41169918  0.81423031  1.0
  H  H14  1  0.07412129  0.37280248  0.79907242  1.0
  H  H15  1  0.26203694  0.40798610  0.87150337  1.0
  H  H16  1  0.88866043  0.39084105  0.91031358  1.0
  H  H17  1  0.19687311  0.36299087  0.91905512  1.0
  H  H18  1  0.40667785  0.40081216  0.99025322  1.0
  H  H19  1  0.30308370  0.46502198  0.05134532  1.0
  H  H20  1  0.66548911  0.57207787  0.12893890  1.0
  H  H21  1  0.84037146  0.61870054  0.20207094  1.0
  H  H22  1  0.94222966  0.81517649  0.38828962  1.0
  H  H23  1  0.30524209  0.91849670  0.44744721  1.0
  H  H24  1  0.87436814  0.88019770  0.42894080  1.0
  H  H25  1  0.53106624  0.99640352  0.50336849  1.0
  H  H26  1  0.67085476  0.92716156  0.47219232  1.0
  H  H27  1  0.52193086  0.06696663  0.51222089  1.0
  H  H28  1  0.94023496  0.11336932  0.54680119  1.0
  H  H29  1  0.97739091  0.18586938  0.59750000  1.0
  H  H30  1  0.27512922  0.20088491  0.57369393  1.0
  H  H31  1  0.39093343  0.12851291  0.53649829  1.0
  H  H32  1  0.97799959  0.08971022  0.48049827  1.0
  H  H33  1  0.27741362  0.08098463  0.44389856  1.0
  H  H34  1  0.41611653  0.00980594  0.41052433  1.0
  H  H35  1  0.25156746  0.94870262  0.41364160  1.0
  H  H36  1  0.53637533  0.87107314  0.44308812  1.0
  H  H37  1  0.63818758  0.79795872  0.41658833  1.0
  H  H38  1  0.55424929  0.61175602  0.42693313  1.0
  H  H39  1  0.85715530  0.55244781  0.47101189  1.0
  H  H40  1  0.44497410  0.57109893  0.45123806  1.0
  H  H41  1  0.02765526  0.49655987  0.49297799  1.0
  H  H42  1  0.19830728  0.52775103  0.45489652  1.0
  H  H43  1  0.00958311  0.48781296  0.55470818  1.0
  H  H44  1  0.39316679  0.45318032  0.56652902  1.0
  H  H45  1  0.37969023  0.40255116  0.58837480  1.0
  H  H46  1  0.70124189  0.42625967  0.62714090  1.0
  H  H47  1  0.85404511  0.46349003  0.59197392  1.0
  H  H48  1  0.49748566  0.51946455  0.60916701  1.0
  H  H49  1  0.83364847  0.55605523  0.63703809  1.0
  H  H50  1  0.00555629  0.58938674  0.59918663  1.0
  H  H51  1  0.83781011  0.58630778  0.53500041  1.0
  H  H52  1  0.09314313  0.55673676  0.42792762  1.0
  H  H53  1  0.22164426  0.58326719  0.38135035  1.0
  C  C54  1  0.58505115  0.62373994  0.23515564  1.0
  C  C55  1  0.37855556  0.61020834  0.22922947  1.0
  C  C56  1  0.28294132  0.58329327  0.18732430  1.0
  C  C57  1  0.38063566  0.56915064  0.15028739  1.0
  C  C58  1  0.28597384  0.54155122  0.10628213  1.0
  C  C59  1  0.08957183  0.53241455  0.09438779  1.0
  C  C60  1  0.98055489  0.50583788  0.05173519  1.0
  C  C61  1  0.04372742  0.46842368  0.01578468  1.0
  C  C62  1  0.92320759  0.44678077  0.97463020  1.0
  C  C63  1  0.73961639  0.46227721  0.96976992  1.0
  C  C64  1  0.67702902  0.49606288  0.00641380  1.0
  C  C65  1  0.79512104  0.51729961  0.04587906  1.0
  C  C66  1  0.61175767  0.44465883  0.92936765  1.0
  C  C67  1  0.66923900  0.43068114  0.88956663  1.0
  C  C68  1  0.54459816  0.41237481  0.84879217  1.0
  C  C69  1  0.63370110  0.40315428  0.81165171  1.0
  C  C70  1  0.53020295  0.38264311  0.77019692  1.0
  C  C71  1  0.32327439  0.37053581  0.76496062  1.0
  C  C72  1  0.23222610  0.38157872  0.80295260  1.0
  C  C73  1  0.33856902  0.40146399  0.84341972  1.0
  C  C74  1  0.64433488  0.37403880  0.73385810  1.0
  C  C75  1  0.98389665  0.40855356  0.94063711  1.0
  C  C76  1  0.15530240  0.39257944  0.94574662  1.0
  C  C77  1  0.27282899  0.41370857  0.98586501  1.0
  C  C78  1  0.21628530  0.45029657  0.01999991  1.0
  C  C79  1  0.58418637  0.58258856  0.15698625  1.0
  C  C80  1  0.68324104  0.60879210  0.19775238  1.0
  C  C81  1  0.26000593  0.62274663  0.26581297  1.0
  C  C82  1  0.34983794  0.76485649  0.38857410  1.0
  C  C83  1  0.14920231  0.77078087  0.38102106  1.0
  C  C84  1  0.09535528  0.81267709  0.39601124  1.0
  C  C85  1  0.23005699  0.84971663  0.41886722  1.0
  C  C86  1  0.17953214  0.89373631  0.43528169  1.0
  C  C87  1  0.99507439  0.90565577  0.43804318  1.0
  C  C88  1  0.92867054  0.94830111  0.45408811  1.0
  C  C89  1  0.02777548  0.98424463  0.45260120  1.0
  C  C90  1  0.94832519  0.02538590  0.47209375  1.0
  C  C91  1  0.76970552  0.03025035  0.49246558  1.0
  C  C92  1  0.67034467  0.99361032  0.48958636  1.0
  C  C93  1  0.74903609  0.95415335  0.47137274  1.0
  C  C94  1  0.68263974  0.07069578  0.51530857  1.0
  C  C95  1  0.78005703  0.11048092  0.54114089  1.0
  C  C96  1  0.69619743  0.15125235  0.56361764  1.0
  C  C97  1  0.82229580  0.18841506  0.59151822  1.0
  C  C98  1  0.76001493  0.22983959  0.61245189  1.0
  C  C99  1  0.55825038  0.23505086  0.60558029  1.0
  C  C100  1  0.42937186  0.19703741  0.57863105  1.0
  C  C101  1  0.49550598  0.15659607  0.55807337  1.0
  C  C102  1  0.91040168  0.26618197  0.64019511  1.0
  C  C103  1  0.04291734  0.05939273  0.46787400  1.0
  C  C104  1  0.20915509  0.05429061  0.44678799  1.0
  C  C105  1  0.28665710  0.01418679  0.42780399  1.0
  C  C106  1  0.19608060  0.98004657  0.43026215  1.0
  C  C107  1  0.42700652  0.84302620  0.42556485  1.0
  C  C108  1  0.48535032  0.80226697  0.41100330  1.0
  C  C109  1  0.99417469  0.73417318  0.35696586  1.0
  C  C110  1  0.96144686  0.61135396  0.37629199  1.0
  C  C111  1  0.76847887  0.61897996  0.38980896  1.0
  C  C112  1  0.69963057  0.60400453  0.41670878  1.0
  C  C113  1  0.81123363  0.58106816  0.43083807  1.0
  C  C114  1  0.74383107  0.56466615  0.45841280  1.0
  C  C115  1  0.55657866  0.56195341  0.46756825  1.0
  C  C116  1  0.47429619  0.54589311  0.49416256  1.0
  C  C117  1  0.57499747  0.54735188  0.53157425  1.0
  C  C118  1  0.47623477  0.52786129  0.55323738  1.0
  C  C119  1  0.27722873  0.50749482  0.53772537  1.0
  C  C120  1  0.18072681  0.51034472  0.50394472  1.0
  C  C121  1  0.27744841  0.52856226  0.48269645  1.0
  C  C122  1  0.16716951  0.48469795  0.55534936  1.0
  C  C123  1  0.23868534  0.45886500  0.56931323  1.0
  C  C124  1  0.13229027  0.43640186  0.58761462  1.0
  C  C125  1  0.23056186  0.40851265  0.59688826  1.0
  C  C126  1  0.14750449  0.38757337  0.61738594  1.0
  C  C127  1  0.95258505  0.39441740  0.62945025  1.0
  C  C128  1  0.85054414  0.42133990  0.61836009  1.0
  C  C129  1  0.93712888  0.44192016  0.59848647  1.0
  C  C130  1  0.27025382  0.35983898  0.62600109  1.0
  C  C131  1  0.57503514  0.53208464  0.59147264  1.0
  C  C132  1  0.76241547  0.55314917  0.60744959  1.0
  C  C133  1  0.85877798  0.57211343  0.58629973  1.0
  C  C134  1  0.76567840  0.56967941  0.54971014  1.0
  C  C135  1  0.00139754  0.57429043  0.41742078  1.0
  C  C136  1  0.07439638  0.58885998  0.39123292  1.0
  C  C137  1  0.63745534  0.64303484  0.37726137  1.0
  O  O138  1  0.07978157  0.60817915  0.25981120  1.0
  O  O139  1  0.34381566  0.64951516  0.30437843  1.0
  O  O140  1  0.68917994  0.64928396  0.27380791  1.0
  O  O141  1  0.82373857  0.38930583  0.74042220  1.0
  O  O142  1  0.55814255  0.34978413  0.69499921  1.0
  O  O143  1  0.21448917  0.34905178  0.72641457  1.0
  O  O144  1  0.81994094  0.74017061  0.34838367  1.0
  O  O145  1  0.03946587  0.69561714  0.34519515  1.0
  O  O146  1  0.41537903  0.72620840  0.37547707  1.0
  O  O147  1  0.08326732  0.25960915  0.64888266  1.0
  O  O148  1  0.86302301  0.30503599  0.65482827  1.0
  O  O149  1  0.48786123  0.27358169  0.62262253  1.0
  O  O150  1  0.47183724  0.65162631  0.39184542  1.0
  O  O151  1  0.69440965  0.65478831  0.35045749  1.0
  O  O152  1  0.04011473  0.62445980  0.35075055  1.0
  O  O153  1  0.43439616  0.35114865  0.61073584  1.0
  O  O154  1  0.20829798  0.34520663  0.65022807  1.0
  O  O155  1  0.86528067  0.37736943  0.65094641  1.0
