# generated using pymatgen
data_Al6H57C90O28F5
_symmetry_space_group_name_H-M   'P 1'
_cell_length_a   11.94351164
_cell_length_b   12.11757008
_cell_length_c   28.05357251
_cell_angle_alpha   89.59326168
_cell_angle_beta   89.96486876
_cell_angle_gamma   116.60201686
_symmetry_Int_Tables_number   1
_chemical_formula_structural   Al6H57C90O28F5
_chemical_formula_sum   'Al6 H57 C90 O28 F5'
_cell_volume   3630.15932367
_cell_formula_units_Z   1
loop_
 _symmetry_equiv_pos_site_id
 _symmetry_equiv_pos_as_xyz
  1  'x, y, z'
loop_
 _atom_site_type_symbol
 _atom_site_label
 _atom_site_symmetry_multiplicity
 _atom_site_fract_x
 _atom_site_fract_y
 _atom_site_fract_z
 _atom_site_occupancy
  Al  Al0  1  0.59731256  0.40379506  0.50473206  1.0
  Al  Al1  1  0.33361683  0.41369653  0.50264314  1.0
  Al  Al2  1  0.56907577  0.65420719  0.50133222  1.0
  Al  Al3  1  0.07323690  0.93337712  0.01744853  1.0
  Al  Al4  1  0.08315311  0.67429732  0.01566628  1.0
  Al  Al5  1  0.32783519  0.90447491  0.01865522  1.0
  H  H6  1  0.23762158  0.45006986  0.72227599  1.0
  H  H7  1  0.51814971  0.31941059  0.81373729  1.0
  H  H8  1  0.17529108  0.98079705  0.80037780  1.0
  H  H9  1  0.22247583  0.43919556  0.37257888  1.0
  H  H10  1  0.12814469  0.56358928  0.23445462  1.0
  H  H11  1  0.10295889  0.57493640  0.14701575  1.0
  H  H12  1  0.21107086  0.46883475  0.28525508  1.0
  H  H13  1  0.52743709  0.77842430  0.21759786  1.0
  H  H14  1  0.49911733  0.80112184  0.13140456  1.0
  H  H15  1  0.48991348  0.81978194  0.38496648  1.0
  H  H16  1  0.84150397  0.82314099  0.38183344  1.0
  H  H17  1  0.89411412  0.51564822  0.13875036  1.0
  H  H18  1  0.89759507  0.84515896  0.29567217  1.0
  H  H19  1  0.81584597  0.83615898  0.22093738  1.0
  H  H20  1  0.87472120  0.86194409  0.13471661  1.0
  H  H21  1  0.67924711  0.45169248  0.27856248  1.0
  H  H22  1  0.63585613  0.43083953  0.36528474  1.0
  H  H23  1  0.54103223  0.22749177  0.38490163  1.0
  H  H24  1  0.40750656  0.86549681  0.79617634  1.0
  H  H25  1  0.15723219  0.95624437  0.24974257  1.0
  H  H26  1  0.12853030  0.90831207  0.16319229  1.0
  H  H27  1  0.15204502  0.14288398  0.29572432  1.0
  H  H28  1  0.16927576  0.20012650  0.38187018  1.0
  H  H29  1  0.41716311  0.84665810  0.70786633  1.0
  H  H30  1  0.89795446  0.87885144  0.70890330  1.0
  H  H31  1  0.76243621  0.48256262  0.71341164  1.0
  H  H32  1  0.51715232  0.35474700  0.72611838  1.0
  H  H33  1  0.67611296  0.04727269  0.22843383  1.0
  H  H34  1  0.71553724  0.12366633  0.28391937  1.0
  H  H35  1  0.81326295  0.06368908  0.25879401  1.0
  H  H36  1  0.67784246  0.92392500  0.32516149  1.0
  H  H37  1  0.64724758  0.84804262  0.27049134  1.0
  H  H38  1  0.46343402  0.90579880  0.26031854  1.0
  H  H39  1  0.49195473  0.95846516  0.31949049  1.0
  H  H40  1  0.17202113  0.21268871  0.86034162  1.0
  H  H41  1  0.02527111  0.21451885  0.85647064  1.0
  H  H42  1  0.05883348  0.11683144  0.81884091  1.0
  H  H43  1  0.07795770  0.30534865  0.77355359  1.0
  H  H44  1  0.22206373  0.29817443  0.77565743  1.0
  H  H45  1  0.28862855  0.44189849  0.84532636  1.0
  H  H46  1  0.14594891  0.44831187  0.84484116  1.0
  H  H47  1  0.65391402  0.30323534  0.04267816  1.0
  H  H48  1  0.71973688  0.42969144  0.08220106  1.0
  H  H49  1  0.78966334  0.32861535  0.07588391  1.0
  H  H50  1  0.66574761  0.27498967  0.15189956  1.0
  H  H51  1  0.59165379  0.15378006  0.11073714  1.0
  H  H52  1  0.45148156  0.25228458  0.08636250  1.0
  H  H53  1  0.51890606  0.36065123  0.13239061  1.0
  H  H54  1  0.81647689  0.34427763  0.89019776  1.0
  H  H55  1  0.79823940  0.24475677  0.84137171  1.0
  H  H56  1  0.94519893  0.32200435  0.87015141  1.0
  H  H57  1  0.94453496  0.42874658  0.79172206  1.0
  H  H58  1  0.96734772  0.52607348  0.84114974  1.0
  H  H59  1  0.73309494  0.45875817  0.84233794  1.0
  H  H60  1  0.72033324  0.37680783  0.78874351  1.0
  H  H61  1  0.67969500  0.26928800  0.48142005  1.0
  H  H62  1  0.98802915  0.06031966  0.98811990  1.0
  C  C63  1  0.38473264  0.28255703  0.57391231  1.0
  C  C64  1  0.37075811  0.77498362  0.77959038  1.0
  C  C65  1  0.37591732  0.76469257  0.73055076  1.0
  C  C66  1  0.32738178  0.64674105  0.70968838  1.0
  C  C67  1  0.31743538  0.66853267  0.80882429  1.0
  C  C68  1  0.30986149  0.68066461  0.85867037  1.0
  C  C69  1  0.33463805  0.63483154  0.65972179  1.0
  C  C70  1  0.29906503  0.68850929  0.90162334  1.0
  C  C71  1  0.77996999  0.65919196  0.61346311  1.0
  C  C72  1  0.87429835  0.79360392  0.72861893  1.0
  C  C73  1  0.89029788  0.79526895  0.77736441  1.0
  C  C74  1  0.37036172  0.60170153  0.56903305  1.0
  C  C75  1  0.81400069  0.57304722  0.78127277  1.0
  C  C76  1  0.79835717  0.57033037  0.73210423  1.0
  C  C77  1  0.82739558  0.67906523  0.70538419  1.0
  C  C78  1  0.86206367  0.68852851  0.80501710  1.0
  C  C79  1  0.88383061  0.69841927  0.85457328  1.0
  C  C80  1  0.80502541  0.67113263  0.65576504  1.0
  C  C81  1  0.90652521  0.70835073  0.89712821  1.0
  C  C82  1  0.35493505  0.23456072  0.62181406  1.0
  C  C83  1  0.44352264  0.27298262  0.74283870  1.0
  C  C84  1  0.44425627  0.25325737  0.79153728  1.0
  C  C85  1  0.72544593  0.62809705  0.56685066  1.0
  C  C86  1  0.25160988  0.06181475  0.78453669  1.0
  C  C87  1  0.25254235  0.08429172  0.73613875  1.0
  C  C88  1  0.34703624  0.18874399  0.71367368  1.0
  C  C89  1  0.34843397  0.14748390  0.81296859  1.0
  C  C90  1  0.34543278  0.12774622  0.86280957  1.0
  C  C91  1  0.34683676  0.21009605  0.66421493  1.0
  C  C92  1  0.33666265  0.10865505  0.90566763  1.0
  C  C93  1  0.35724785  0.62830178  0.38410857  1.0
  C  C94  1  0.27637832  0.52932556  0.35602140  1.0
  C  C95  1  0.27042238  0.54688653  0.30735568  1.0
  C  C96  1  0.37589587  0.26657193  0.43817458  1.0
  C  C97  1  0.34254315  0.66225828  0.28517627  1.0
  C  C98  1  0.42153034  0.76349084  0.31376997  1.0
  C  C99  1  0.42789114  0.74352241  0.36263982  1.0
  C  C100  1  0.21042154  0.61266614  0.21189650  1.0
  C  C101  1  0.19549221  0.61935472  0.16300641  1.0
  C  C102  1  0.41859972  0.74722460  0.15409670  1.0
  C  C103  1  0.43354789  0.73636043  0.20274188  1.0
  C  C104  1  0.32978019  0.67165639  0.23292887  1.0
  C  C105  1  0.29908493  0.68890426  0.13375509  1.0
  C  C106  1  0.73702254  0.62490531  0.37888095  1.0
  C  C107  1  0.37700687  0.60694400  0.43478418  1.0
  C  C108  1  0.80808778  0.74226299  0.35901371  1.0
  C  C109  1  0.83778428  0.75408819  0.31062353  1.0
  C  C110  1  0.79348404  0.65002746  0.28083533  1.0
  C  C111  1  0.71827356  0.53316073  0.30097351  1.0
  C  C112  1  0.69264390  0.52110245  0.34944585  1.0
  C  C113  1  0.84644353  0.57492158  0.20430338  1.0
  C  C114  1  0.87630597  0.58600837  0.15631950  1.0
  C  C115  1  0.86485446  0.78063082  0.15470593  1.0
  C  C116  1  0.83377302  0.76620823  0.20286419  1.0
  C  C117  1  0.82401940  0.66311243  0.22952952  1.0
  C  C118  1  0.70105498  0.60402037  0.43014201  1.0
  C  C119  1  0.88675308  0.69033992  0.13114324  1.0
  C  C120  1  0.35597536  0.21766636  0.38869682  1.0
  C  C121  1  0.45582601  0.20962088  0.36544584  1.0
  C  C122  1  0.44565473  0.18259530  0.31735737  1.0
  C  C123  1  0.33762632  0.15742024  0.29088883  1.0
  C  C124  1  0.23689784  0.16116012  0.31564396  1.0
  C  C125  1  0.24589469  0.19247871  0.36358508  1.0
  C  C126  1  0.22426609  0.01818514  0.22373543  1.0
  C  C127  1  0.20908060  0.99066736  0.17552504  1.0
  C  C128  1  0.40157691  0.17680706  0.15659525  1.0
  C  C129  1  0.34398858  0.62449039  0.61685806  1.0
  C  C130  1  0.41164147  0.20132431  0.20542893  1.0
  C  C131  1  0.32646740  0.12557241  0.23985188  1.0
  C  C132  1  0.29731232  0.06858542  0.14231820  1.0
  C  C133  1  0.95408298  0.73413147  0.94493118  1.0
  C  C134  1  0.27435958  0.71201220  0.94946667  1.0
  C  C135  1  0.30692803  0.06179901  0.95370580  1.0
  C  C136  1  0.93461673  0.71233691  0.08133874  1.0
  C  C137  1  0.27829956  0.71129001  0.08336268  1.0
  C  C138  1  0.27382639  0.03100943  0.09123697  1.0
  C  C139  1  0.27415271  0.54023508  0.73909155  1.0
  C  C140  1  0.26857175  0.54872703  0.78844108  1.0
  C  C141  1  0.49974932  0.89228795  0.29470539  1.0
  C  C142  1  0.63912961  0.92345226  0.28948947  1.0
  C  C143  1  0.71536505  0.04619730  0.26382638  1.0
  C  C144  1  0.21400623  0.43768719  0.82106304  1.0
  C  C145  1  0.15279892  0.31100389  0.79788242  1.0
  C  C146  1  0.09940462  0.20812565  0.83531069  1.0
  C  C147  1  0.49493113  0.26543316  0.12173373  1.0
  C  C148  1  0.61621042  0.25124704  0.11754150  1.0
  C  C149  1  0.69962878  0.33259776  0.07749124  1.0
  C  C150  1  0.78329104  0.45738310  0.80952400  1.0
  C  C151  1  0.89906462  0.44106988  0.82407065  1.0
  C  C152  1  0.86277644  0.33186947  0.85822056  1.0
  O  O153  1  0.70806369  0.52534985  0.55016065  1.0
  O  O154  1  0.30036632  0.50542930  0.45450148  1.0
  O  O155  1  0.47489618  0.68855536  0.45536779  1.0
  O  O156  1  0.68826977  0.69041470  0.45261940  1.0
  O  O157  1  0.49854462  0.49127986  0.50300612  1.0
  O  O158  1  0.20378841  0.04772832  0.97084884  1.0
  O  O159  1  0.98579276  0.84215956  0.95991357  1.0
  O  O160  1  0.96458755  0.64631225  0.96776512  1.0
  O  O161  1  0.17135353  0.63390969  0.96875293  1.0
  O  O162  1  0.35354107  0.81209575  0.96839211  1.0
  O  O163  1  0.38650215  0.03195697  0.97421961  1.0
  O  O164  1  0.49596806  0.31474712  0.56058648  1.0
  O  O165  1  0.16833703  0.01059984  0.07467489  1.0
  O  O166  1  0.95284569  0.81246071  0.06125452  1.0
  O  O167  1  0.96113442  0.62939978  0.06269034  1.0
  O  O168  1  0.17468860  0.63871257  0.06393498  1.0
  O  O169  1  0.36278117  0.80808733  0.06279427  1.0
  O  O170  1  0.36032964  0.01652487  0.06859157  1.0
  O  O171  1  0.16278533  0.83694312  0.01660385  1.0
  O  O172  1  0.29791084  0.29282870  0.54986695  1.0
  O  O173  1  0.29331640  0.49996258  0.55004558  1.0
  O  O174  1  0.47197088  0.68141858  0.54998711  1.0
  O  O175  1  0.69337547  0.70636943  0.54714630  1.0
  O  O176  1  0.68013248  0.50020498  0.44767557  1.0
  O  O177  1  0.47609095  0.28413028  0.45905830  1.0
  O  O178  1  0.29169985  0.29474971  0.45530886  1.0
  O  O179  1  0.68923673  0.32487793  0.50730720  1.0
  O  O180  1  0.99488260  0.02555208  0.01844435  1.0
  F  F181  1  0.15809187  0.00263271  0.70900352  1.0
  F  F182  1  0.84485410  0.47507681  0.22789633  1.0
  F  F183  1  0.54566249  0.17935095  0.29506474  1.0
  F  F184  1  0.50797871  0.30983536  0.22005294  1.0
  F  F185  1  0.93598719  0.90557402  0.80007399  1.0
