# generated using pymatgen
data_Zn4H12C27N12O13
_symmetry_space_group_name_H-M   'P 1'
_cell_length_a   15.65600213
_cell_length_b   16.34006349
_cell_length_c   16.51283447
_cell_angle_alpha   64.94860867
_cell_angle_beta   63.89704865
_cell_angle_gamma   62.13937687
_symmetry_Int_Tables_number   1
_chemical_formula_structural   Zn4H12C27N12O13
_chemical_formula_sum   'Zn8 H24 C54 N24 O26'
_cell_volume   3225.05422498
_cell_formula_units_Z   2
loop_
 _symmetry_equiv_pos_site_id
 _symmetry_equiv_pos_as_xyz
  1  'x, y, z'
loop_
 _atom_site_type_symbol
 _atom_site_label
 _atom_site_symmetry_multiplicity
 _atom_site_fract_x
 _atom_site_fract_y
 _atom_site_fract_z
 _atom_site_occupancy
  Zn  Zn0  1  0.11554592  0.97123217  0.98808416  1.0
  Zn  Zn1  1  0.91555767  0.92396748  0.01455174  1.0
  Zn  Zn2  1  0.90817858  0.13566960  0.98393170  1.0
  Zn  Zn3  1  0.92243405  0.97593733  0.17295815  1.0
  Zn  Zn4  1  0.31877833  0.53785674  0.59743265  1.0
  Zn  Zn5  1  0.53544936  0.49492745  0.61508509  1.0
  Zn  Zn6  1  0.51277568  0.56165231  0.41567147  1.0
  Zn  Zn7  1  0.51354949  0.34942277  0.55421672  1.0
  H  H8  1  0.19088583  0.74072058  0.79221650  1.0
  H  H9  1  0.37599539  0.45502207  0.90871639  1.0
  H  H10  1  0.18820257  0.65209007  0.07973450  1.0
  H  H11  1  0.33502642  0.34064071  0.04967341  1.0
  H  H12  1  0.25223921  0.21294964  0.76795569  1.0
  H  H13  1  0.20862120  0.38941637  0.49769287  1.0
  H  H14  1  0.02601721  0.21223924  0.68637205  1.0
  H  H15  1  0.16250237  0.37428437  0.37886877  1.0
  H  H16  1  0.24028069  0.73890273  0.27304904  1.0
  H  H17  1  0.24579123  0.85646485  0.45957012  1.0
  H  H18  1  0.11380219  0.04656144  0.23594177  1.0
  H  H19  1  0.28466986  0.00716742  0.41955167  1.0
  H  H20  1  0.71673084  0.23687546  0.79953831  1.0
  H  H21  1  0.42095210  0.23804091  0.85561226  1.0
  H  H22  1  0.57177755  0.07548686  0.06960333  1.0
  H  H23  1  0.27462014  0.23137524  0.97399005  1.0
  H  H24  1  0.69637749  0.74383562  0.28413329  1.0
  H  H25  1  0.78939890  0.55082506  0.52851330  1.0
  H  H26  1  0.95253704  0.74207943  0.32435770  1.0
  H  H27  1  0.87294857  0.53957714  0.62497870  1.0
  H  H28  1  0.73463346  0.22152877  0.31061619  1.0
  H  H29  1  0.81897590  0.44798901  0.28873947  1.0
  H  H30  1  0.00313793  0.27374351  0.09531120  1.0
  H  H31  1  0.98849340  0.44981971  0.26342339  1.0
  C  C32  1  0.12348440  0.80799996  0.94468359  1.0
  C  C33  1  0.18678838  0.70787826  0.93521893  1.0
  C  C34  1  0.21763954  0.68633861  0.85100757  1.0
  C  C35  1  0.28794268  0.59563612  0.84172638  1.0
  C  C36  1  0.32015955  0.52486563  0.91774992  1.0
  C  C37  1  0.27919421  0.54448757  0.00416859  1.0
  C  C38  1  0.21605063  0.63701313  0.01266170  1.0
  C  C39  1  0.32103997  0.37315044  0.10139759  1.0
  C  C40  1  0.33548285  0.57198088  0.74981886  1.0
  C  C41  1  0.09645690  0.14359254  0.83097308  1.0
  C  C42  1  0.13773281  0.20387444  0.73578320  1.0
  C  C43  1  0.21488454  0.23683600  0.71558221  1.0
  C  C44  1  0.23894672  0.30452209  0.62998086  1.0
  C  C45  1  0.19139073  0.33465485  0.56283970  1.0
  C  C46  1  0.11665352  0.29901973  0.58319274  1.0
  C  C47  1  0.08810051  0.23532545  0.66962182  1.0
  C  C48  1  0.08718993  0.37344895  0.42472148  1.0
  C  C49  1  0.31077441  0.35299423  0.60895297  1.0
  C  C50  1  0.12563435  0.91055714  0.17666500  1.0
  C  C51  1  0.17043515  0.89378863  0.24849865  1.0
  C  C52  1  0.22323853  0.80107517  0.29407080  1.0
  C  C53  1  0.25180479  0.78862181  0.36880027  1.0
  C  C54  1  0.22717578  0.86753738  0.39856884  1.0
  C  C55  1  0.17899427  0.95969322  0.34909878  1.0
  C  C56  1  0.15042206  0.97376890  0.27388880  1.0
  C  C57  1  0.21309711  0.05785189  0.40723068  1.0
  C  C58  1  0.31019860  0.69099432  0.41872635  1.0
  C  C59  1  0.75086114  0.10746007  0.96175244  1.0
  C  C60  1  0.65505166  0.14967101  0.93630861  1.0
  C  C61  1  0.65279670  0.21295674  0.84740783  1.0
  C  C62  1  0.56918579  0.24158234  0.81850535  1.0
  C  C63  1  0.48470347  0.21507011  0.88044369  1.0
  C  C64  1  0.48443391  0.16001376  0.97212637  1.0
  C  C65  1  0.57108535  0.12311818  0.99958580  1.0
  C  C66  1  0.29892761  0.17910482  0.03420950  1.0
  C  C67  1  0.56887490  0.30076853  0.72055709  1.0
  C  C68  1  0.84071509  0.83368717  0.21058598  1.0
  C  C69  1  0.82653253  0.75025431  0.29452081  1.0
  C  C70  1  0.74819256  0.71551740  0.32473385  1.0
  C  C71  1  0.73356451  0.64622184  0.41136826  1.0
  C  C72  1  0.80049207  0.60747541  0.46367519  1.0
  C  C73  1  0.88062883  0.64039136  0.43015112  1.0
  C  C74  1  0.89260845  0.71362689  0.34719734  1.0
  C  C75  1  0.93994975  0.55577246  0.57387940  1.0
  C  C76  1  0.64597857  0.61212912  0.45140309  1.0
  C  C77  1  0.88202386  0.17127822  0.15515309  1.0
  C  C78  1  0.86943998  0.24147313  0.19813620  1.0
  C  C79  1  0.78685053  0.26114012  0.27701534  1.0
  C  C80  1  0.76781552  0.33761760  0.30718675  1.0
  C  C81  1  0.83565838  0.38750268  0.26542916  1.0
  C  C82  1  0.92261978  0.36026716  0.19269348  1.0
  C  C83  1  0.93814311  0.29014307  0.15580819  1.0
  C  C84  1  0.01736126  0.45082710  0.18971470  1.0
  C  C85  1  0.66867328  0.37537824  0.37614785  1.0
  N  N86  1  0.29862476  0.46849234  0.08478559  1.0
  N  N87  1  0.31842250  0.32913993  0.18997499  1.0
  N  N88  1  0.29263688  0.40024944  0.22835820  1.0
  N  N89  1  0.28007332  0.48393715  0.16658932  1.0
  N  N90  1  0.06138442  0.33572560  0.51896869  1.0
  N  N91  1  0.00580952  0.40690712  0.39806592  1.0
  N  N92  1  0.92965605  0.38833054  0.47749818  1.0
  N  N93  1  0.96105997  0.34596061  0.55078137  1.0
  N  N94  1  0.15880597  0.04113671  0.37455394  1.0
  N  N95  1  0.16649034  0.14577733  0.41788122  1.0
  N  N96  1  0.08190308  0.18347260  0.39023579  1.0
  N  N97  1  0.07623841  0.12230493  0.36374463  1.0
  N  N98  1  0.39523365  0.14110915  0.03857353  1.0
  N  N99  1  0.24008530  0.14318934  0.11543272  1.0
  N  N100  1  0.30227202  0.08203210  0.17046411  1.0
  N  N101  1  0.39479003  0.07993305  0.12604753  1.0
  N  N102  1  0.94994034  0.60160465  0.48161999  1.0
  N  N103  1  0.02413950  0.53505950  0.59035390  1.0
  N  N104  1  0.08700672  0.56901354  0.50570535  1.0
  N  N105  1  0.04404348  0.60911283  0.43999624  1.0
  N  N106  1  0.99400156  0.40757357  0.15199250  1.0
  N  N107  1  0.08841854  0.48593898  0.12424568  1.0
  N  N108  1  0.10861028  0.46305211  0.04547820  1.0
  N  N109  1  0.05305638  0.41593602  0.06063743  1.0
  O  O110  1  0.96795953  0.99759950  0.03748290  1.0
  O  O111  1  0.03495903  0.84466755  0.93566931  1.0
  O  O112  1  0.16585873  0.84670527  0.96164649  1.0
  O  O113  1  0.43223927  0.54232293  0.72264725  1.0
  O  O114  1  0.27795092  0.58185695  0.70840995  1.0
  O  O115  1  0.00006917  0.16838801  0.85824060  1.0
  O  O116  1  0.15629122  0.07498738  0.87705121  1.0
  O  O117  1  0.40383328  0.31179250  0.56962538  1.0
  O  O118  1  0.27075029  0.43179254  0.63090877  1.0
  O  O119  1  0.04691944  0.88705491  0.21002015  1.0
  O  O120  1  0.16488361  0.94938043  0.09091573  1.0
  O  O121  1  0.39652047  0.64718046  0.36847502  1.0
  O  O122  1  0.27041138  0.66181371  0.50656775  1.0
  O  O123  1  0.78131308  0.16670409  0.96296629  1.0
  O  O124  1  0.79269070  0.01643548  0.97763562  1.0
  O  O125  1  0.52570764  0.28266179  0.68335259  1.0
  O  O126  1  0.61013087  0.36475709  0.68263446  1.0
  O  O127  1  0.82875062  0.90653216  0.23078830  1.0
  O  O128  1  0.86600517  0.82649148  0.12884377  1.0
  O  O129  1  0.59178862  0.63713357  0.39992827  1.0
  O  O130  1  0.63241521  0.56014149  0.53648852  1.0
  O  O131  1  0.90563380  0.19647527  0.06581257  1.0
  O  O132  1  0.86717217  0.09293066  0.21092499  1.0
  O  O133  1  0.63370288  0.31534351  0.44882918  1.0
  O  O134  1  0.62721816  0.46663309  0.35268281  1.0
  O  O135  1  0.46746282  0.48688300  0.54519023  1.0
