# generated using pymatgen
data_ZnH7C13SNO6
_symmetry_space_group_name_H-M   'P 1'
_cell_length_a   6.87071908
_cell_length_b   12.60868900
_cell_length_c   34.72913856
_cell_angle_alpha   89.87138682
_cell_angle_beta   85.57281242
_cell_angle_gamma   89.85487256
_symmetry_Int_Tables_number   1
_chemical_formula_structural   ZnH7C13SNO6
_chemical_formula_sum   'Zn4 H28 C52 S4 N4 O24'
_cell_volume   2999.61872443
_cell_formula_units_Z   4
loop_
 _symmetry_equiv_pos_site_id
 _symmetry_equiv_pos_as_xyz
  1  'x, y, z'
loop_
 _atom_site_type_symbol
 _atom_site_label
 _atom_site_symmetry_multiplicity
 _atom_site_fract_x
 _atom_site_fract_y
 _atom_site_fract_z
 _atom_site_occupancy
  Zn  Zn0  1  0.64312929  0.01928085  0.49753041  1.0
  Zn  Zn1  1  0.25729164  0.99690523  0.50396701  1.0
  Zn  Zn2  1  0.26586053  0.02133790  0.00248905  1.0
  Zn  Zn3  1  0.65180006  0.99765425  0.99621942  1.0
  H  H4  1  0.68040057  0.03714143  0.11516680  1.0
  H  H5  1  0.69192163  0.03618159  0.18619724  1.0
  H  H6  1  0.07453053  0.96850044  0.19774466  1.0
  H  H7  1  0.83390380  0.96755571  0.30231068  1.0
  H  H8  1  0.21589677  0.03516161  0.31392418  1.0
  H  H9  1  0.22772071  0.03574635  0.38494191  1.0
  H  H10  1  0.22935348  0.99479527  0.25389326  1.0
  H  H11  1  0.67857215  0.99418963  0.24616400  1.0
  H  H12  1  0.66183959  0.96203092  0.87954489  1.0
  H  H13  1  0.68347024  0.96014150  0.80811596  1.0
  H  H14  1  0.06895630  0.03555025  0.81151320  1.0
  H  H15  1  0.84107472  0.03612152  0.68838649  1.0
  H  H16  1  0.22774597  0.95939024  0.69216666  1.0
  H  H17  1  0.24852387  0.96106445  0.62074453  1.0
  H  H18  1  0.23115964  0.00371804  0.75156120  1.0
  H  H19  1  0.67972676  0.00431128  0.74851654  1.0
  H  H20  1  0.02064194  0.96374402  0.09522322  1.0
  H  H21  1  0.91057704  0.93955934  0.14150479  1.0
  H  H22  1  0.88831169  0.96163456  0.40480145  1.0
  H  H23  1  0.99814763  0.93784594  0.35849856  1.0
  H  H24  1  0.00255885  0.04988346  0.91547497  1.0
  H  H25  1  0.89932996  0.07144239  0.87171455  1.0
  H  H26  1  0.90637706  0.04970439  0.58437442  1.0
  H  H27  1  0.00968618  0.07180246  0.62803929  1.0
  H  H28  1  0.69003816  0.77372537  0.47943496  1.0
  H  H29  1  0.00244802  0.22215036  0.52355187  1.0
  H  H30  1  0.21921713  0.77549922  0.02078990  1.0
  H  H31  1  0.90686230  0.22257080  0.97648935  1.0
  C  C32  1  0.33787059  0.20507033  0.50150368  1.0
  C  C33  1  0.52261874  0.00216843  0.42674885  1.0
  C  C34  1  0.36030861  0.79725482  0.50196753  1.0
  C  C35  1  0.54436341  0.00600827  0.57163901  1.0
  C  C36  1  0.57128573  0.20606807  0.99847630  1.0
  C  C37  1  0.38610377  0.00361666  0.07332327  1.0
  C  C38  1  0.54904443  0.79827939  0.99832860  1.0
  C  C39  1  0.36526893  0.00722288  0.92844389  1.0
  C  C40  1  0.37591600  0.00196223  0.11556956  1.0
  C  C41  1  0.54960320  0.01968555  0.13379373  1.0
  C  C42  1  0.55600032  0.01822911  0.17336725  1.0
  C  C43  1  0.38252144  0.99854383  0.19723192  1.0
  C  C44  1  0.20930070  0.98244236  0.17963586  1.0
  C  C45  1  0.19942338  0.98341774  0.13911191  1.0
  C  C46  1  0.37611774  0.99690008  0.23925789  1.0
  C  C47  1  0.53188711  0.99654455  0.26083653  1.0
  C  C48  1  0.69907839  0.98134737  0.32043447  1.0
  C  C49  1  0.52563336  0.99765273  0.30286144  1.0
  C  C50  1  0.35204337  0.01713199  0.32674596  1.0
  C  C51  1  0.35859308  0.01833861  0.36631218  1.0
  C  C52  1  0.53256958  0.00054445  0.38451111  1.0
  C  C53  1  0.70909243  0.98202071  0.36095384  1.0
  C  C54  1  0.35853051  0.00326950  0.88650050  1.0
  C  C55  1  0.53429862  0.98099371  0.86402158  1.0
  C  C56  1  0.54600142  0.98012206  0.82424593  1.0
  C  C57  1  0.37608040  0.00109784  0.80462254  1.0
  C  C58  1  0.20076077  0.02067637  0.82641988  1.0
  C  C59  1  0.18564874  0.02276202  0.86723514  1.0
  C  C60  1  0.37568802  0.00131971  0.76272434  1.0
  C  C61  1  0.53524710  0.00144413  0.73736013  1.0
  C  C62  1  0.70939014  0.02082810  0.67355762  1.0
  C  C63  1  0.53457253  0.00098820  0.69546200  1.0
  C  C64  1  0.36478935  0.97953159  0.67594648  1.0
  C  C65  1  0.37606278  0.98019350  0.63617158  1.0
  C  C66  1  0.55137332  0.00253784  0.61358114  1.0
  C  C67  1  0.72408402  0.02259423  0.63273745  1.0
  C  C68  1  0.50394607  0.60968603  0.48766467  1.0
  C  C69  1  0.17398578  0.39124608  0.51393403  1.0
  C  C70  1  0.35611619  0.68100419  0.50081996  1.0
  C  C71  1  0.32422014  0.32087251  0.50119124  1.0
  C  C72  1  0.24116971  0.49705897  0.50882492  1.0
  C  C73  1  0.43381919  0.50466540  0.49239230  1.0
  C  C74  1  0.40516994  0.61091989  0.01253856  1.0
  C  C75  1  0.73525716  0.39195124  0.98623678  1.0
  C  C76  1  0.55311414  0.68200210  0.99944586  1.0
  C  C77  1  0.58493108  0.32180365  0.99888400  1.0
  C  C78  1  0.66810092  0.49787281  0.99141805  1.0
  C  C79  1  0.47531259  0.50575360  0.00779039  1.0
  C  C80  1  0.70638916  0.62370541  0.46938909  1.0
  C  C81  1  0.97392036  0.37325648  0.53242240  1.0
  C  C82  1  0.20252315  0.62533093  0.03072274  1.0
  C  C83  1  0.93534357  0.37374892  0.96772950  1.0
  S  S84  1  0.14006175  0.61948513  0.51814805  1.0
  S  S85  1  0.53832839  0.38349315  0.48337518  1.0
  S  S86  1  0.76925710  0.62015541  0.98216371  1.0
  S  S87  1  0.37067832  0.38472224  0.01665658  1.0
  N  N88  1  0.02461113  0.96752031  0.12433143  1.0
  N  N89  1  0.88412226  0.96581661  0.37569909  1.0
  N  N90  1  0.00918307  0.04209653  0.88635442  1.0
  N  N91  1  0.90009293  0.04217368  0.61351234  1.0
  O  O92  1  0.50699988  0.16508730  0.49587464  1.0
  O  O93  1  0.17988745  0.14753314  0.50700236  1.0
  O  O94  1  0.35676228  0.00408333  0.44606211  1.0
  O  O95  1  0.68791538  0.00203338  0.44328763  1.0
  O  O96  1  0.19564864  0.84671540  0.50726083  1.0
  O  O97  1  0.52417045  0.84594992  0.49797134  1.0
  O  O98  1  0.70860213  0.01300132  0.54976570  1.0
  O  O99  1  0.37945805  0.00300877  0.55708410  1.0
  O  O100  1  0.40204718  0.16654417  0.00400484  1.0
  O  O101  1  0.72924014  0.14815005  0.99300817  1.0
  O  O102  1  0.55207914  0.00532239  0.05405610  1.0
  O  O103  1  0.22092882  0.00372759  0.05674061  1.0
  O  O104  1  0.71371592  0.84733556  0.99299820  1.0
  O  O105  1  0.38528889  0.84744889  0.00237531  1.0
  O  O106  1  0.20083296  0.01444389  0.95025556  1.0
  O  O107  1  0.53008425  0.00449329  0.94304879  1.0
  O  O108  1  0.78419547  0.72053614  0.46648582  1.0
  O  O109  1  0.79775950  0.54498351  0.45731624  1.0
  O  O110  1  0.90416015  0.27398541  0.53537703  1.0
  O  O111  1  0.87589582  0.44922332  0.54466408  1.0
  O  O112  1  0.12474873  0.72233535  0.03360982  1.0
  O  O113  1  0.11093896  0.54670927  0.04272499  1.0
  O  O114  1  0.00519876  0.27433436  0.96472508  1.0
  O  O115  1  0.03328831  0.44966112  0.95552381  1.0
