# generated using pymatgen
data_Zn2H40C65(NO7)4
_symmetry_space_group_name_H-M   'P 1'
_cell_length_a   9.97691863
_cell_length_b   10.91798265
_cell_length_c   27.96537033
_cell_angle_alpha   87.58096466
_cell_angle_beta   89.46874930
_cell_angle_gamma   86.99085142
_symmetry_Int_Tables_number   1
_chemical_formula_structural   Zn2H40C65(NO7)4
_chemical_formula_sum   'Zn2 H40 C65 N4 O28'
_cell_volume   3039.21988061
_cell_formula_units_Z   1
loop_
 _symmetry_equiv_pos_site_id
 _symmetry_equiv_pos_as_xyz
  1  'x, y, z'
loop_
 _atom_site_type_symbol
 _atom_site_label
 _atom_site_symmetry_multiplicity
 _atom_site_fract_x
 _atom_site_fract_y
 _atom_site_fract_z
 _atom_site_occupancy
  Zn  Zn0  1  0.63822416  0.48778343  0.49931891  1.0
  Zn  Zn1  1  0.34694232  0.50598859  0.50171657  1.0
  H  H2  1  0.66571224  0.59997070  0.34039228  1.0
  H  H3  1  0.63854025  0.60795646  0.25159827  1.0
  H  H4  1  0.33781776  0.67620720  0.74013922  1.0
  H  H5  1  0.52203577  0.82183399  0.87712115  1.0
  H  H6  1  0.48800294  0.82048944  0.96490377  1.0
  H  H7  1  0.45420144  0.81544421  0.03266320  1.0
  H  H8  1  0.33621730  0.36355938  0.35521577  1.0
  H  H9  1  0.31011560  0.36822241  0.26652488  1.0
  H  H10  1  0.42288093  0.20500856  0.96346010  1.0
  H  H11  1  0.66061119  0.42410772  0.64746320  1.0
  H  H12  1  0.47784923  0.19405821  0.03348551  1.0
  H  H13  1  0.27081773  0.90223261  0.46640413  1.0
  H  H14  1  0.76067116  0.08471453  0.55005689  1.0
  H  H15  1  0.80373206  0.87618863  0.48040642  1.0
  H  H16  1  0.86849915  0.58415498  0.39656310  1.0
  H  H17  1  0.82017095  0.71064834  0.43305856  1.0
  H  H18  1  0.06079290  0.75380863  0.44577657  1.0
  H  H19  1  0.66216253  0.19611766  0.17037063  1.0
  H  H20  1  0.72051367  0.16134731  0.11062561  1.0
  H  H21  1  0.65838657  0.04229182  0.15023003  1.0
  H  H22  1  0.49557901  0.18318389  0.80575265  1.0
  H  H23  1  0.50691206  0.04066900  0.84042141  1.0
  H  H24  1  0.62527145  0.15558536  0.85004784  1.0
  H  H25  1  0.80731416  0.33530328  0.79216515  1.0
  H  H26  1  0.32452563  0.27269696  0.42507726  1.0
  H  H27  1  0.14840068  0.25680032  0.42084677  1.0
  H  H28  1  0.26169226  0.14509230  0.39437722  1.0
  H  H29  1  0.99789346  0.01771585  0.48911944  1.0
  H  H30  1  0.96889989  0.15181562  0.52346543  1.0
  H  H31  1  0.99777451  0.16649784  0.46009612  1.0
  H  H32  1  0.90129219  0.72312741  0.58450978  1.0
  H  H33  1  0.19933453  0.21328522  0.56118676  1.0
  H  H34  1  0.05191580  0.23821490  0.59853427  1.0
  H  H35  1  0.21525440  0.25881872  0.62194408  1.0
  H  H36  1  0.86205055  0.40317552  0.65601457  1.0
  H  H37  1  0.19747354  0.52367609  0.34665047  1.0
  H  H38  1  0.42211228  0.00935561  0.12296954  1.0
  H  H39  1  0.46737660  0.79378247  0.60154433  1.0
  H  H40  1  0.31738681  0.88688552  0.61193371  1.0
  H  H41  1  0.30981690  0.75072699  0.57804650  1.0
  C  C42  1  0.47598622  0.73219370  0.48666777  1.0
  C  C43  1  0.51248001  0.48241676  0.40690913  1.0
  C  C44  1  0.47993684  0.26539160  0.50230030  1.0
  C  C45  1  0.49851676  0.54168867  0.59062632  1.0
  C  C46  1  0.43679288  0.60652173  0.17882356  1.0
  C  C47  1  0.47346669  0.37781440  0.18021728  1.0
  C  C48  1  0.38610308  0.42079769  0.28278911  1.0
  C  C49  1  0.40084151  0.41836291  0.33228618  1.0
  C  C50  1  0.58756631  0.55002937  0.32402417  1.0
  C  C51  1  0.57276100  0.55409751  0.27449255  1.0
  C  C52  1  0.47224612  0.48939907  0.25406915  1.0
  C  C53  1  0.45436835  0.49752476  0.10127177  1.0
  C  C54  1  0.44817326  0.60827377  0.12623211  1.0
  C  C55  1  0.45084883  0.72118278  0.10096292  1.0
  C  C56  1  0.46954090  0.38228453  0.12732414  1.0
  C  C57  1  0.50112126  0.48305795  0.35338573  1.0
  C  C58  1  0.50137364  0.55952089  0.64339768  1.0
  C  C59  1  0.46574644  0.62436145  0.97259403  1.0
  C  C60  1  0.44684951  0.39834462  0.97248480  1.0
  C  C61  1  0.46136871  0.51382435  0.94743360  1.0
  C  C62  1  0.48476486  0.73464904  0.94665820  1.0
  C  C63  1  0.50270399  0.73683737  0.89726953  1.0
  C  C64  1  0.49678132  0.63013686  0.87212180  1.0
  C  C65  1  0.47218476  0.51676000  0.89637890  1.0
  C  C66  1  0.45872738  0.40907506  0.86975392  1.0
  C  C67  1  0.44737717  0.42363024  0.81723557  1.0
  C  C68  1  0.52101631  0.63846603  0.82007470  1.0
  C  C69  1  0.41005510  0.61979372  0.72017565  1.0
  C  C70  1  0.41281134  0.63681220  0.66993810  1.0
  C  C71  1  0.59372940  0.48258482  0.66849873  1.0
  C  C72  1  0.60158556  0.47346335  0.71841010  1.0
  C  C73  1  0.50119749  0.54029668  0.74418359  1.0
  C  C74  1  0.45354097  0.61947357  0.02480752  1.0
  C  C75  1  0.45216971  0.50331621  0.05003604  1.0
  C  C76  1  0.45269687  0.39213278  0.02490569  1.0
  C  C77  1  0.45182165  0.72561279  0.05090372  1.0
  C  C78  1  0.48328241  0.27510007  0.10106564  1.0
  C  C79  1  0.43511231  0.29489647  0.94604442  1.0
  C  C80  1  0.44251261  0.29686420  0.89550123  1.0
  C  C81  1  0.46832140  0.28118514  0.05110284  1.0
  C  C82  1  0.59196835  0.92814224  0.49791461  1.0
  C  C83  1  0.47730772  0.86796938  0.48709505  1.0
  C  C84  1  0.36206424  0.94355231  0.47735765  1.0
  C  C85  1  0.36077218  0.07131750  0.48019688  1.0
  C  C86  1  0.47618135  0.13159522  0.49407692  1.0
  C  C87  1  0.59043131  0.05433326  0.50127939  1.0
  C  C88  1  0.73739149  0.05478777  0.51398505  1.0
  C  C89  1  0.73891805  0.90586241  0.51006930  1.0
  C  C90  1  0.05208647  0.56590860  0.47374567  1.0
  C  C91  1  0.07262709  0.44440786  0.54077341  1.0
  C  C92  1  0.93021113  0.43742812  0.54249631  1.0
  C  C93  1  0.91546724  0.54893120  0.47264504  1.0
  C  C94  1  0.89213254  0.63249690  0.42873300  1.0
  C  C95  1  0.04709328  0.66187321  0.43277443  1.0
  C  C96  1  0.64874766  0.13984469  0.13947117  1.0
  C  C97  1  0.52102898  0.13945435  0.84065705  1.0
  C  C98  1  0.71850788  0.40129324  0.73749305  1.0
  C  C99  1  0.24589937  0.20614200  0.42458941  1.0
  C  C100  1  0.95135133  0.11174597  0.48866892  1.0
  C  C101  1  0.76960850  0.83174372  0.55531649  1.0
  C  C102  1  0.15316504  0.26722314  0.58981550  1.0
  C  C103  1  0.86625024  0.38021494  0.58689778  1.0
  C  C104  1  0.13752200  0.64488772  0.38950052  1.0
  C  C105  1  0.47957618  0.83932981  0.12385303  1.0
  C  C106  1  0.35846389  0.79285636  0.60769504  1.0
  N  N107  1  0.46149025  0.49160066  0.20270643  1.0
  N  N108  1  0.49347473  0.53324051  0.79562014  1.0
  N  N109  1  0.13531800  0.51133802  0.50575856  1.0
  N  N110  1  0.85036201  0.48621370  0.50664940  1.0
  O  O111  1  0.58942769  0.67439854  0.49213761  1.0
  O  O112  1  0.36243230  0.68561025  0.48237125  1.0
  O  O113  1  0.62790362  0.49545606  0.42445435  1.0
  O  O114  1  0.40369562  0.46869473  0.43034438  1.0
  O  O115  1  0.59441095  0.31047767  0.49845519  1.0
  O  O116  1  0.37025756  0.32273900  0.51340686  1.0
  O  O117  1  0.60993140  0.51035747  0.57108331  1.0
  O  O118  1  0.38459919  0.55115518  0.57060063  1.0
  O  O119  1  0.40632562  0.69898314  0.20092312  1.0
  O  O120  1  0.56049250  0.73120153  0.79894410  1.0
  O  O121  1  0.48510790  0.28176835  0.20484334  1.0
  O  O122  1  0.39809260  0.34836087  0.79189073  1.0
  O  O123  1  0.51297601  0.15958746  0.12080404  1.0
  O  O124  1  0.43199195  0.18391513  0.87787379  1.0
  O  O125  1  0.81434640  0.36211866  0.71289372  1.0
  O  O126  1  0.72090709  0.37960419  0.78575052  1.0
  O  O127  1  0.24130551  0.13462773  0.46889709  1.0
  O  O128  1  0.81217037  0.11404485  0.47831986  1.0
  O  O129  1  0.70016884  0.83112046  0.59151625  1.0
  O  O130  1  0.89014161  0.76572340  0.55306504  1.0
  O  O131  1  0.15419700  0.39579571  0.57475532  1.0
  O  O132  1  0.79852875  0.29045550  0.58663533  1.0
  O  O133  1  0.90006229  0.44033146  0.62535990  1.0
  O  O134  1  0.20905139  0.72267365  0.37260820  1.0
  O  O135  1  0.12779125  0.53193359  0.37167652  1.0
  O  O136  1  0.58616051  0.85215475  0.14374259  1.0
  O  O137  1  0.38690076  0.93053233  0.11343931  1.0
  O  O138  1  0.32924238  0.72843113  0.65261315  1.0
