# generated using pymatgen
data_CoH22C20(NO4)2
_symmetry_space_group_name_H-M   'P 1'
_cell_length_a   8.29240760
_cell_length_b   17.46345131
_cell_length_c   17.46599328
_cell_angle_alpha   119.99431579
_cell_angle_beta   89.98388314
_cell_angle_gamma   89.99906195
_symmetry_Int_Tables_number   1
_chemical_formula_structural   CoH22C20(NO4)2
_chemical_formula_sum   'Co3 H66 C60 N6 O24'
_cell_volume   2190.58186197
_cell_formula_units_Z   3
loop_
 _symmetry_equiv_pos_site_id
 _symmetry_equiv_pos_as_xyz
  1  'x, y, z'
loop_
 _atom_site_type_symbol
 _atom_site_label
 _atom_site_symmetry_multiplicity
 _atom_site_fract_x
 _atom_site_fract_y
 _atom_site_fract_z
 _atom_site_occupancy
  Co  Co0  1  0.00000995  0.47329025  0.99999665  1.0
  Co  Co1  1  0.66666667  0.99999682  0.47334182  1.0
  Co  Co2  1  0.33333333  0.52665029  0.52665009  1.0
  H  H3  1  0.82364732  0.85947875  0.43740106  1.0
  H  H4  1  0.48978753  0.56250583  0.42195626  1.0
  H  H5  1  0.15695165  0.57806248  0.14037476  1.0
  H  H6  1  0.51023315  0.14054566  0.57806377  1.0
  H  H7  1  0.84301904  0.43766081  0.85960974  1.0
  H  H8  1  0.17637670  0.42208154  0.56257128  1.0
  H  H9  1  0.99653325  0.69411108  0.23859500  1.0
  H  H10  1  0.66265562  0.76157582  0.45557403  1.0
  H  H11  1  0.32967904  0.54456220  0.30590761  1.0
  H  H12  1  0.33737688  0.30599633  0.54443612  1.0
  H  H13  1  0.67030408  0.23865457  0.69409177  1.0
  H  H14  1  0.00346046  0.45553071  0.76140382  1.0
  H  H15  1  0.78272129  0.89346215  0.19497922  1.0
  H  H16  1  0.44834431  0.80516689  0.69840805  1.0
  H  H17  1  0.11566914  0.30172416  0.10664774  1.0
  H  H18  1  0.55166916  0.10675273  0.30158185  1.0
  H  H19  1  0.88434543  0.19507746  0.89336325  1.0
  H  H20  1  0.21728171  0.69848798  0.80503153  1.0
  H  H21  1  0.69028065  0.58437381  0.02876012  1.0
  H  H22  1  0.35689698  0.97129201  0.55576138  1.0
  H  H23  1  0.02372287  0.44420478  0.41553164  1.0
  H  H24  1  0.64310230  0.41554965  0.44424643  1.0
  H  H25  1  0.97629573  0.02867999  0.58446997  1.0
  H  H26  1  0.30971806  0.55561229  0.97122747  1.0
  H  H27  1  0.86236483  0.80589780  0.03566807  1.0
  H  H28  1  0.52844633  0.96437863  0.77025120  1.0
  H  H29  1  0.19558864  0.22980003  0.19398388  1.0
  H  H30  1  0.47153517  0.19413681  0.22975640  1.0
  H  H31  1  0.80442990  0.03581705  0.80602899  1.0
  H  H32  1  0.13763482  0.77022801  0.96433986  1.0
  H  H33  1  0.67831659  0.56152630  0.22203953  1.0
  H  H34  1  0.34490710  0.77788962  0.33973857  1.0
  H  H35  1  0.01089969  0.66046690  0.43863003  1.0
  H  H36  1  0.65507702  0.43816456  0.66027829  1.0
  H  H37  1  0.98909380  0.22184588  0.56137272  1.0
  H  H38  1  0.32168622  0.33949425  0.77795140  1.0
  H  H39  1  0.47489327  0.60159407  0.24477107  1.0
  H  H40  1  0.14139715  0.75534044  0.35705719  1.0
  H  H41  1  0.80755092  0.64301361  0.39854081  1.0
  H  H42  1  0.85857961  0.39829106  0.64295680  1.0
  H  H43  1  0.19244368  0.24447212  0.60145628  1.0
  H  H44  1  0.52511097  0.35682615  0.75521701  1.0
  H  H45  1  0.63998844  0.67782834  0.28848136  1.0
  H  H46  1  0.30629977  0.71152657  0.38962547  1.0
  H  H47  1  0.97276634  0.61067835  0.32236530  1.0
  H  H48  1  0.69368870  0.32191741  0.61038832  1.0
  H  H49  1  0.02723047  0.28831604  0.67763731  1.0
  H  H50  1  0.36001273  0.38935287  0.71150746  1.0
  H  H51  1  0.51947380  0.69129976  0.09035683  1.0
  H  H52  1  0.18646179  0.90978245  0.60121860  1.0
  H  H53  1  0.85277125  0.39890773  0.30888771  1.0
  H  H54  1  0.81351265  0.30857739  0.39880025  1.0
  H  H55  1  0.14724225  0.09002502  0.69111294  1.0
  H  H56  1  0.48052470  0.60094500  0.90962867  1.0
  H  H57  1  0.52785437  0.75477096  0.20778114  1.0
  H  H58  1  0.19472760  0.79234687  0.54727754  1.0
  H  H59  1  0.86096327  0.45280504  0.24535680  1.0
  H  H60  1  0.80525115  0.24509490  0.45275022  1.0
  H  H61  1  0.13904005  0.20745059  0.75464453  1.0
  H  H62  1  0.47214879  0.54699232  0.79220273  1.0
  H  H63  1  0.36959583  0.67548919  0.15483168  1.0
  H  H64  1  0.03631810  0.84537783  0.52114240  1.0
  H  H65  1  0.70264255  0.47904704  0.32463459  1.0
  H  H66  1  0.96365598  0.32424541  0.47887190  1.0
  H  H67  1  0.29736848  0.15441114  0.67536228  1.0
  H  H68  1  0.63040312  0.52065614  0.84515437  1.0
  C  C69  1  0.88529457  0.79913956  0.22645803  1.0
  C  C70  1  0.55116608  0.77362721  0.57263011  1.0
  C  C71  1  0.21823049  0.42750755  0.20096095  1.0
  C  C72  1  0.44885717  0.20099824  0.42736811  1.0
  C  C73  1  0.78178138  0.22654398  0.79903845  1.0
  C  C74  1  0.11469050  0.57268604  0.77353466  1.0
  C  C75  1  0.97625675  0.70142214  0.04702416  1.0
  C  C76  1  0.64264158  0.95306728  0.65450886  1.0
  C  C77  1  0.30961078  0.34555974  0.29847990  1.0
  C  C78  1  0.35735400  0.29855634  0.34549694  1.0
  C  C79  1  0.69039473  0.04707944  0.70152420  1.0
  C  C80  1  0.02373945  0.65440090  0.95297789  1.0
  C  C81  1  0.96906717  0.71949370  0.19445660  1.0
  C  C82  1  0.63510397  0.80566038  0.52504958  1.0
  C  C83  1  0.30213330  0.47505864  0.28055028  1.0
  C  C84  1  0.36491495  0.28060491  0.47494734  1.0
  C  C85  1  0.69786625  0.19450796  0.71945083  1.0
  C  C86  1  0.03092129  0.52505067  0.80553831  1.0
  C  C87  1  0.01757577  0.67021419  0.10566311  1.0
  C  C88  1  0.68391180  0.89442572  0.56462794  1.0
  C  C89  1  0.35078867  0.43544655  0.32972421  1.0
  C  C90  1  0.31610355  0.32979183  0.43537046  1.0
  C  C91  1  0.64918294  0.10572792  0.67028830  1.0
  C  C92  1  0.98242492  0.56455281  0.89433574  1.0
  C  C93  1  0.84772042  0.83122730  0.16924428  1.0
  C  C94  1  0.51360787  0.83085292  0.66196126  1.0
  C  C95  1  0.18071524  0.33816724  0.16881369  1.0
  C  C96  1  0.48642098  0.16888849  0.33803941  1.0
  C  C97  1  0.81930277  0.16934888  0.83118958  1.0
  C  C98  1  0.15225774  0.66198601  0.83075664  1.0
  C  C99  1  0.83397809  0.84995140  0.32008515  1.0
  C  C100  1  0.49997035  0.67996855  0.52973849  1.0
  C  C101  1  0.16713112  0.47038269  0.15017851  1.0
  C  C102  1  0.50005659  0.15023718  0.47027002  1.0
  C  C103  1  0.83286514  0.32019613  0.84982495  1.0
  C  C104  1  0.16601770  0.52986680  0.67990409  1.0
  C  C105  1  0.69679030  0.57174261  0.08454486  1.0
  C  C106  1  0.36326047  0.91552000  0.48734144  1.0
  C  C107  1  0.03000216  0.51266127  0.42822524  1.0
  C  C108  1  0.63671905  0.42818744  0.51266306  1.0
  C  C109  1  0.97000587  0.08444127  0.57177410  1.0
  C  C110  1  0.30321221  0.48719573  0.91544114  1.0
  C  C111  1  0.89300573  0.78220581  0.08103995  1.0
  C  C112  1  0.55916222  0.91901943  0.70119421  1.0
  C  C113  1  0.22620754  0.29889017  0.21773102  1.0
  C  C114  1  0.44083171  0.21782469  0.29881002  1.0
  C  C115  1  0.77379578  0.08115792  0.78227346  1.0
  C  C116  1  0.10700275  0.70117331  0.91896562  1.0
  C  C117  1  0.59786698  0.61538416  0.23194121  1.0
  C  C118  1  0.26433438  0.76807795  0.38370591  1.0
  C  C119  1  0.93060761  0.61647565  0.38475358  1.0
  C  C120  1  0.73565085  0.38438285  0.61630377  1.0
  C  C121  1  0.06939490  0.23172602  0.61524605  1.0
  C  C122  1  0.40213656  0.38344782  0.76804927  1.0
  C  C123  1  0.49765468  0.68949681  0.15136413  1.0
  C  C124  1  0.16442189  0.84878955  0.53846071  1.0
  C  C125  1  0.83073989  0.46167518  0.31063859  1.0
  C  C126  1  0.83555357  0.31034900  0.46156168  1.0
  C  C127  1  0.16926426  0.15103814  0.68936294  1.0
  C  C128  1  0.50234011  0.53813116  0.84862291  1.0
  N  N129  1  0.59876497  0.62188532  0.15217504  1.0
  N  N130  1  0.26529140  0.84790073  0.46992941  1.0
  N  N131  1  0.93173004  0.53016583  0.37820843  1.0
  N  N132  1  0.73469738  0.37798985  0.53008633  1.0
  N  N133  1  0.06827291  0.15196267  0.62179285  1.0
  N  N134  1  0.40123819  0.46971346  0.84781145  1.0
  O  O135  1  0.76149765  0.92222547  0.34861578  1.0
  O  O136  1  0.42779604  0.65136201  0.57351383  1.0
  O  O137  1  0.09451963  0.42661652  0.07795732  1.0
  O  O138  1  0.57223505  0.07785611  0.42647954  1.0
  O  O139  1  0.90549981  0.34864748  0.92203773  1.0
  O  O140  1  0.23849615  0.57360583  0.65136225  1.0
  O  O141  1  0.10478400  0.59592335  0.07774399  1.0
  O  O142  1  0.77109940  0.92228429  0.51821382  1.0
  O  O143  1  0.43791643  0.48184761  0.40400552  1.0
  O  O144  1  0.22891299  0.40407385  0.48178168  1.0
  O  O145  1  0.56202833  0.07784277  0.59601754  1.0
  O  O146  1  0.89523927  0.51817443  0.92224506  1.0
  O  O147  1  0.86775101  0.81461006  0.36956450  1.0
  O  O148  1  0.53361152  0.63053844  0.44490852  1.0
  O  O149  1  0.20093615  0.55517334  0.18545727  1.0
  O  O150  1  0.46643013  0.18563278  0.55509509  1.0
  O  O151  1  0.79904093  0.36970387  0.81454367  1.0
  O  O152  1  0.13226735  0.44503687  0.63041631  1.0
  O  O153  1  0.79156043  0.51470704  0.08266764  1.0
  O  O154  1  0.45787707  0.91744691  0.43215070  1.0
  O  O155  1  0.12469701  0.56783030  0.48522540  1.0
  O  O156  1  0.54208456  0.48529612  0.56784244  1.0
  O  O157  1  0.87530046  0.08260828  0.51477260  1.0
  O  O158  1  0.20845365  0.43203678  0.91731774  1.0
