# generated using pymatgen
data_LaH19C27O8
_symmetry_space_group_name_H-M   'P 1'
_cell_length_a   13.90497412
_cell_length_b   14.59439007
_cell_length_c   22.49354254
_cell_angle_alpha   108.91072843
_cell_angle_beta   100.71198139
_cell_angle_gamma   90.01310269
_symmetry_Int_Tables_number   1
_chemical_formula_structural   LaH19C27O8
_chemical_formula_sum   'La4 H76 C108 O32'
_cell_volume   4234.09727172
_cell_formula_units_Z   4
loop_
 _symmetry_equiv_pos_site_id
 _symmetry_equiv_pos_as_xyz
  1  'x, y, z'
loop_
 _atom_site_type_symbol
 _atom_site_label
 _atom_site_symmetry_multiplicity
 _atom_site_fract_x
 _atom_site_fract_y
 _atom_site_fract_z
 _atom_site_occupancy
  La  La0  1  0.46264559  0.41767614  0.40524385  1.0
  La  La1  1  0.03723434  0.01232441  0.59476087  1.0
  La  La2  1  0.53735173  0.58232266  0.59475446  1.0
  La  La3  1  0.96276615  0.98767412  0.40524080  1.0
  H  H4  1  0.80228489  0.72926989  0.53636256  1.0
  H  H5  1  0.69803528  0.19336268  0.46367258  1.0
  H  H6  1  0.19771029  0.27073211  0.46363966  1.0
  H  H7  1  0.30197184  0.80663737  0.53633134  1.0
  H  H8  1  0.92316612  0.72925383  0.37371668  1.0
  H  H9  1  0.57689025  0.35581877  0.62618345  1.0
  H  H10  1  0.07683368  0.27074182  0.62628284  1.0
  H  H11  1  0.42310708  0.64418137  0.37381620  1.0
  H  H12  1  0.70122349  0.50820773  0.35451685  1.0
  H  H13  1  0.79898231  0.15429634  0.64564291  1.0
  H  H14  1  0.29877631  0.49179060  0.64548534  1.0
  H  H15  1  0.20101672  0.84570470  0.35436126  1.0
  H  H16  1  0.86706868  0.69451332  0.27093420  1.0
  H  H17  1  0.63283833  0.42414694  0.72913588  1.0
  H  H18  1  0.13292961  0.30548496  0.72906722  1.0
  H  H19  1  0.36716274  0.57585204  0.27086407  1.0
  H  H20  1  0.88581584  0.61330106  0.16152077  1.0
  H  H21  1  0.61401111  0.45221197  0.83852699  1.0
  H  H22  1  0.11418158  0.38669973  0.83848098  1.0
  H  H23  1  0.38599061  0.54779001  0.16147450  1.0
  H  H24  1  0.80202434  0.33779890  0.17632521  1.0
  H  H25  1  0.69797812  0.16203627  0.82379748  1.0
  H  H26  1  0.19797743  0.66220073  0.82367466  1.0
  H  H27  1  0.30202287  0.83796429  0.17620259  1.0
  H  H28  1  0.78296486  0.41918768  0.28589120  1.0
  H  H29  1  0.71710937  0.13398870  0.71426252  1.0
  H  H30  1  0.21703499  0.58080696  0.71410804  1.0
  H  H31  1  0.28289014  0.86601169  0.28573738  1.0
  H  H32  1  0.87292038  0.54711103  0.06667175  1.0
  H  H33  1  0.62709608  0.48074460  0.93347070  1.0
  H  H34  1  0.12707987  0.45289033  0.93332913  1.0
  H  H35  1  0.37290559  0.51925616  0.06652885  1.0
  H  H36  1  0.90365346  0.46453039  0.96083458  1.0
  H  H37  1  0.59645515  0.50377824  0.03931733  1.0
  H  H38  1  0.09634597  0.53547247  0.03916634  1.0
  H  H39  1  0.40354217  0.49622101  0.96068144  1.0
  H  H40  1  0.88836267  0.19045433  0.99452478  1.0
  H  H41  1  0.61168294  0.19602855  0.00554530  1.0
  H  H42  1  0.11164110  0.80954782  0.00547470  1.0
  H  H43  1  0.38831648  0.80397074  0.99445207  1.0
  H  H44  1  0.86210176  0.27348872  0.10116063  1.0
  H  H45  1  0.63790938  0.17264070  0.89889571  1.0
  H  H46  1  0.13790146  0.72651063  0.89883896  1.0
  H  H47  1  0.36209292  0.82736038  0.10110272  1.0
  H  H48  1  0.91292628  0.39394835  0.87098939  1.0
  H  H49  1  0.58735611  0.52301224  0.12896940  1.0
  H  H50  1  0.08707154  0.60605649  0.12901133  1.0
  H  H51  1  0.41264126  0.47698644  0.87102952  1.0
  H  H52  1  0.95281352  0.30762471  0.76560098  1.0
  H  H53  1  0.54743733  0.54224927  0.23440013  1.0
  H  H54  1  0.04718544  0.69238382  0.23439834  1.0
  H  H55  1  0.45255803  0.45774466  0.76559696  1.0
  H  H56  1  0.96025230  0.04076357  0.80713507  1.0
  H  H57  1  0.53935769  0.23390474  0.19301954  1.0
  H  H58  1  0.03974523  0.95924244  0.19286247  1.0
  H  H59  1  0.46064270  0.76608913  0.80697603  1.0
  H  H60  1  0.92383635  0.12551929  0.91380862  1.0
  H  H61  1  0.57607931  0.21185333  0.08635971  1.0
  H  H62  1  0.07615835  0.87448391  0.08618757  1.0
  H  H63  1  0.42391782  0.78814462  0.91363486  1.0
  H  H64  1  0.28907126  0.54118856  0.37056859  1.0
  H  H65  1  0.21086457  0.17046897  0.62941028  1.0
  H  H66  1  0.71092557  0.45880777  0.62943089  1.0
  H  H67  1  0.78913066  0.82953246  0.37059211  1.0
  H  H68  1  0.27387110  0.45032731  0.30953135  1.0
  H  H69  1  0.22594169  0.14068753  0.69048210  1.0
  H  H70  1  0.72612915  0.54967138  0.69046686  1.0
  H  H71  1  0.77406415  0.85930429  0.30951651  1.0
  H  H72  1  0.38334392  0.20116558  0.35013142  1.0
  H  H73  1  0.11663507  0.85108793  0.64995484  1.0
  H  H74  1  0.61666320  0.79883314  0.64987116  1.0
  H  H75  1  0.88337182  0.14891674  0.35005006  1.0
  H  H76  1  0.31804813  0.26989284  0.39340217  1.0
  H  H77  1  0.18190293  0.87659236  0.60666316  1.0
  H  H78  1  0.68195098  0.73010082  0.60659610  1.0
  H  H79  1  0.81809553  0.12341235  0.39333599  1.0
  C  C80  1  0.67473297  0.56884770  0.47531595  1.0
  C  C81  1  0.82550465  0.09407844  0.52478521  1.0
  C  C82  1  0.32526128  0.43114712  0.52467622  1.0
  C  C83  1  0.17449534  0.90591672  0.47521673  1.0
  C  C84  1  0.74437196  0.61400660  0.44761738  1.0
  C  C85  1  0.75596064  0.16701594  0.55251626  1.0
  C  C86  1  0.25562889  0.38600055  0.55238710  1.0
  C  C87  1  0.24404404  0.83298301  0.44749380  1.0
  C  C88  1  0.80375120  0.69697701  0.48563836  1.0
  C  C89  1  0.69656587  0.21185748  0.51440527  1.0
  C  C90  1  0.19624598  0.30302082  0.51435682  1.0
  C  C91  1  0.30343707  0.78814215  0.48559026  1.0
  C  C92  1  0.86591380  0.73920192  0.45822534  1.0
  C  C93  1  0.63426222  0.28133468  0.54174572  1.0
  C  C94  1  0.13408523  0.26079912  0.54177883  1.0
  C  C95  1  0.36573983  0.71866778  0.45826132  1.0
  C  C96  1  0.87082053  0.69742311  0.39333809  1.0
  C  C97  1  0.62933831  0.30449268  0.60663473  1.0
  C  C98  1  0.12918059  0.30257441  0.60666112  1.0
  C  C99  1  0.37066111  0.69550528  0.39336130  1.0
  C  C100  1  0.81352071  0.61197195  0.35486029  1.0
  C  C101  1  0.68669508  0.25770712  0.64522834  1.0
  C  C102  1  0.18647914  0.38802492  0.64514117  1.0
  C  C103  1  0.31330537  0.74229420  0.35477539  1.0
  C  C104  1  0.74937291  0.57233235  0.38290687  1.0
  C  C105  1  0.75089754  0.19005689  0.61722254  1.0
  C  C106  1  0.25062675  0.42766322  0.61709040  1.0
  C  C107  1  0.24910105  0.80994435  0.38277531  1.0
  C  C108  1  0.92741305  0.82862439  0.49952110  1.0
  C  C109  1  0.57250615  0.32919122  0.50038505  1.0
  C  C110  1  0.07258734  0.17137305  0.50047803  1.0
  C  C111  1  0.42749469  0.67080970  0.49961321  1.0
  C  C112  1  0.82250451  0.56371334  0.28758105  1.0
  C  C113  1  0.67759122  0.27677485  0.71252200  1.0
  C  C114  1  0.17749680  0.43628280  0.71241969  1.0
  C  C115  1  0.32241054  0.72322523  0.28747831  1.0
  C  C116  1  0.85086789  0.61614589  0.25044496  1.0
  C  C117  1  0.64911189  0.36626511  0.74963817  1.0
  C  C118  1  0.14913114  0.38385292  0.74955699  1.0
  C  C119  1  0.35088896  0.63373937  0.25036364  1.0
  C  C120  1  0.86230560  0.56941461  0.18785543  1.0
  C  C121  1  0.63761817  0.38206054  0.81222680  1.0
  C  C122  1  0.13769323  0.43058557  0.81214499  1.0
  C  C123  1  0.36238515  0.61793767  0.18777311  1.0
  C  C124  1  0.84747310  0.46797203  0.15929673  1.0
  C  C125  1  0.65250382  0.30916306  0.84081582  1.0
  C  C126  1  0.15252867  0.53202805  0.84070359  1.0
  C  C127  1  0.34749858  0.69083867  0.15918470  1.0
  C  C128  1  0.81735135  0.41611126  0.19641771  1.0
  C  C129  1  0.68266234  0.22026877  0.80370138  1.0
  C  C130  1  0.18264987  0.58388646  0.80358315  1.0
  C  C131  1  0.31734006  0.77973252  0.19629870  1.0
  C  C132  1  0.80508113  0.46257680  0.25876332  1.0
  C  C133  1  0.69499002  0.20448070  0.74136991  1.0
  C  C134  1  0.19491922  0.53742165  0.74123610  1.0
  C  C135  1  0.30501028  0.79551921  0.25863023  1.0
  C  C136  1  0.86469829  0.41805623  0.09399325  1.0
  C  C137  1  0.63527792  0.32440036  0.90611239  1.0
  C  C138  1  0.13530274  0.58194420  0.90600742  1.0
  C  C139  1  0.36472371  0.67560231  0.09388834  1.0
  C  C140  1  0.87726999  0.46861347  0.05191730  1.0
  C  C141  1  0.62275793  0.41695461  0.94821230  1.0
  C  C142  1  0.12273026  0.53138700  0.94808268  1.0
  C  C143  1  0.37724383  0.58304413  0.05178668  1.0
  C  C144  1  0.89415987  0.42091262  0.99074548  1.0
  C  C145  1  0.60593298  0.43030062  0.00937985  1.0
  C  C146  1  0.10584039  0.57908964  0.00925628  1.0
  C  C147  1  0.39406722  0.56969953  0.99061909  1.0
  C  C148  1  0.89901110  0.31938256  0.96737387  1.0
  C  C149  1  0.60108724  0.35210504  0.03272517  1.0
  C  C150  1  0.10098969  0.68062027  0.03262557  1.0
  C  C151  1  0.39891218  0.64789381  0.96727175  1.0
  C  C152  1  0.88630392  0.26912487  0.00954844  1.0
  C  C153  1  0.61375428  0.25970522  0.99053605  1.0
  C  C154  1  0.11369858  0.73087529  0.99045196  1.0
  C  C155  1  0.38624519  0.74029484  0.00946281  1.0
  C  C156  1  0.87022725  0.31671870  0.07076635  1.0
  C  C157  1  0.62978359  0.24622218  0.92931664  1.0
  C  C158  1  0.12977519  0.68328203  0.92923389  1.0
  C  C159  1  0.37021876  0.75377744  0.07068105  1.0
  C  C160  1  0.91745465  0.26784684  0.90245735  1.0
  C  C161  1  0.58265887  0.36548756  0.09763733  1.0
  C  C162  1  0.08254171  0.73215650  0.09754186  1.0
  C  C163  1  0.41733908  0.63451156  0.90235986  1.0
  C  C164  1  0.92468673  0.31676983  0.85852669  1.0
  C  C165  1  0.57552250  0.45836475  0.14150853  1.0
  C  C166  1  0.07531241  0.68323465  0.14147149  1.0
  C  C167  1  0.42447702  0.54163252  0.85848826  1.0
  C  C168  1  0.94655916  0.26857508  0.79874523  1.0
  C  C169  1  0.55361532  0.47004061  0.20128481  1.0
  C  C170  1  0.05344022  0.73143012  0.20125731  1.0
  C  C171  1  0.44637922  0.52995482  0.79871231  1.0
  C  C172  1  0.96123892  0.16906935  0.78019779  1.0
  C  C173  1  0.53872712  0.38913800  0.21985513  1.0
  C  C174  1  0.03876086  0.83093813  0.21980193  1.0
  C  C175  1  0.46126736  0.61085443  0.78013828  1.0
  C  C176  1  0.95032715  0.11846083  0.82214940  1.0
  C  C177  1  0.54949182  0.29654337  0.17797495  1.0
  C  C178  1  0.04967180  0.88154458  0.17784682  1.0
  C  C179  1  0.45050540  0.70345345  0.82201994  1.0
  C  C180  1  0.92945620  0.16707215  0.88204431  1.0
  C  C181  1  0.57051530  0.28516050  0.11809100  1.0
  C  C182  1  0.07054089  0.83293127  0.11795499  1.0
  C  C183  1  0.42948202  0.71483474  0.88190376  1.0
  C  C184  1  0.99128429  0.11752969  0.71825056  1.0
  C  C185  1  0.50862429  0.39968524  0.28181269  1.0
  C  C186  1  0.00872038  0.88248210  0.28174985  1.0
  C  C187  1  0.49136905  0.60030262  0.71818123  1.0
  O  O188  1  0.28739783  0.47019497  0.35613969  1.0
  O  O189  1  0.21251084  0.11392985  0.64387729  1.0
  O  O190  1  0.71259744  0.52980232  0.64385929  1.0
  O  O191  1  0.78748881  0.88606750  0.35612175  1.0
  O  O192  1  0.34440072  0.25746627  0.35398378  1.0
  O  O193  1  0.15553189  0.90357011  0.64607287  1.0
  O  O194  1  0.65560512  0.74252510  0.64601439  1.0
  O  O195  1  0.84447178  0.09643495  0.35392807  1.0
  O  O196  1  0.62934735  0.48869437  0.43927086  1.0
  O  O197  1  0.87076464  0.04984894  0.56079398  1.0
  O  O198  1  0.37064891  0.51131589  0.56073382  1.0
  O  O199  1  0.12922723  0.95014264  0.43921451  1.0
  O  O200  1  0.66453815  0.61273421  0.53267881  1.0
  O  O201  1  0.83568813  0.08061996  0.46742530  1.0
  O  O202  1  0.33546261  0.38727542  0.46732669  1.0
  O  O203  1  0.16431756  0.91937434  0.53258447  1.0
  O  O204  1  0.95083420  0.84542262  0.55943561  1.0
  O  O205  1  0.54908968  0.28602413  0.44048868  1.0
  O  O206  1  0.04916964  0.15457248  0.44056917  1.0
  O  O207  1  0.45091191  0.71398578  0.55951855  1.0
  O  O208  1  0.95430773  0.88762667  0.47282163  1.0
  O  O209  1  0.54534918  0.41476274  0.52705182  1.0
  O  O210  1  0.04569652  0.11237381  0.52718345  1.0
  O  O211  1  0.45465493  0.58524079  0.47295411  1.0
  O  O212  1  0.01865823  0.16691778  0.68555730  1.0
  O  O213  1  0.48167980  0.48189984  0.31457741  1.0
  O  O214  1  0.98134306  0.83308751  0.31444098  1.0
  O  O215  1  0.51830951  0.51809258  0.68541526  1.0
  O  O216  1  0.99072795  0.02459180  0.69910940  1.0
  O  O217  1  0.50871451  0.32583860  0.30087179  1.0
  O  O218  1  0.00928319  0.97541284  0.30089330  1.0
  O  O219  1  0.49128061  0.67415594  0.69912228  1.0
