# generated using pymatgen
data_CuH2C4(NO)2
_symmetry_space_group_name_H-M   'P 1'
_cell_length_a   15.07541858
_cell_length_b   15.07568984
_cell_length_c   15.07737121
_cell_angle_alpha   65.74761546
_cell_angle_beta   65.73274011
_cell_angle_gamma   100.26689856
_symmetry_Int_Tables_number   1
_chemical_formula_structural   CuH2C4(NO)2
_chemical_formula_sum   'Cu8 H16 C32 N16 O16'
_cell_volume   2588.02627215
_cell_formula_units_Z   8
loop_
 _symmetry_equiv_pos_site_id
 _symmetry_equiv_pos_as_xyz
  1  'x, y, z'
loop_
 _atom_site_type_symbol
 _atom_site_label
 _atom_site_symmetry_multiplicity
 _atom_site_fract_x
 _atom_site_fract_y
 _atom_site_fract_z
 _atom_site_occupancy
  Cu  Cu0  1  0.89891886  0.85607421  0.57047960  1.0
  Cu  Cu1  1  0.96937788  0.39891147  0.45715450  1.0
  Cu  Cu2  1  0.35606020  0.42652914  0.04285618  1.0
  Cu  Cu3  1  0.92653771  0.46939302  0.92953341  1.0
  Cu  Cu4  1  0.07346690  0.53062564  0.07047659  1.0
  Cu  Cu5  1  0.64395099  0.57349952  0.95714412  1.0
  Cu  Cu6  1  0.03064806  0.60108486  0.54286196  1.0
  Cu  Cu7  1  0.10109401  0.14394830  0.42952197  1.0
  H  H8  1  0.71833575  0.28315718  0.17221260  1.0
  H  H9  1  0.39058080  0.21834923  0.06480043  1.0
  H  H10  1  0.95535759  0.89056410  0.32776565  1.0
  H  H11  1  0.60942088  0.78166458  0.93521386  1.0
  H  H12  1  0.29395959  0.76396371  0.62407539  1.0
  H  H13  1  0.26395921  0.38799721  0.52996414  1.0
  H  H14  1  0.04466571  0.10944532  0.67220539  1.0
  H  H15  1  0.78314173  0.45537888  0.43521329  1.0
  H  H16  1  0.41796466  0.79391100  0.97004903  1.0
  H  H17  1  0.28164723  0.71685852  0.82779249  1.0
  H  H18  1  0.11197060  0.08197907  0.12406481  1.0
  H  H19  1  0.70604001  0.23604441  0.37592730  1.0
  H  H20  1  0.88804031  0.91801261  0.87593284  1.0
  H  H21  1  0.21687895  0.54461567  0.56479265  1.0
  H  H22  1  0.58201942  0.20609572  0.02996019  1.0
  H  H23  1  0.73605198  0.61198368  0.47003635  1.0
  C  C24  1  0.27067837  0.57621380  0.03303573  1.0
  C  C25  1  0.08328639  0.05931714  0.21228515  1.0
  C  C26  1  0.19630195  0.22931571  0.19442577  1.0
  C  C27  1  0.53749821  0.72316935  0.95799446  1.0
  C  C28  1  0.62152942  0.37135197  0.99541600  1.0
  C  C29  1  0.86676619  0.61695268  0.50458486  1.0
  C  C30  1  0.46249197  0.27683259  0.04200878  1.0
  C  C31  1  0.77160601  0.29555847  0.28770007  1.0
  C  C32  1  0.91675006  0.94070537  0.78768530  1.0
  C  C33  1  0.81884797  0.50451099  0.45798992  1.0
  C  C34  1  0.99550027  0.03752544  0.68563446  1.0
  C  C35  1  0.11695821  0.12151577  0.24978962  1.0
  C  C36  1  0.22839471  0.70446570  0.71231503  1.0
  C  C37  1  0.13322362  0.38304534  0.49541995  1.0
  C  C38  1  0.12868955  0.63323675  0.74982523  1.0
  C  C39  1  0.20444787  0.41671354  0.52391848  1.0
  C  C40  1  0.55934655  0.27164542  0.02390507  1.0
  C  C41  1  0.89075526  0.69627662  0.53302614  1.0
  C  C42  1  0.10923263  0.30370181  0.46697302  1.0
  C  C43  1  0.44064992  0.72836828  0.97609862  1.0
  C  C44  1  0.80370496  0.77069425  0.80554281  1.0
  C  C45  1  0.00452552  0.96248317  0.31432848  1.0
  C  C46  1  0.92373764  0.39073508  0.30556309  1.0
  C  C47  1  0.79556182  0.58327083  0.47608500  1.0
  C  C48  1  0.22316742  0.68114942  0.81435931  1.0
  C  C49  1  0.77681885  0.31883784  0.18566921  1.0
  C  C50  1  0.87131592  0.36677426  0.25019316  1.0
  C  C51  1  0.72928921  0.42376790  0.96699104  1.0
  C  C52  1  0.88306454  0.87851071  0.75015569  1.0
  C  C53  1  0.07625178  0.60925173  0.69444821  1.0
  C  C54  1  0.37847654  0.62864260  0.00458390  1.0
  C  C55  1  0.18114469  0.49546792  0.54202506  1.0
  N  N56  1  0.12618345  0.60076186  0.90664575  1.0
  N  N57  1  0.56416821  0.43111855  0.99720438  1.0
  N  N58  1  0.07167288  0.43862813  0.49719341  1.0
  N  N59  1  0.99260321  0.96715751  0.40662657  1.0
  N  N60  1  0.93111440  0.42831143  0.13307613  1.0
  N  N61  1  0.53281941  0.62616940  0.97458359  1.0
  N  N62  1  0.06137133  0.06417968  0.36690342  1.0
  N  N63  1  0.00739719  0.03282852  0.59334423  1.0
  N  N64  1  0.87381006  0.39924179  0.09337297  1.0
  N  N65  1  0.10073948  0.50738993  0.52543344  1.0
  N  N66  1  0.06889405  0.57168688  0.86693570  1.0
  N  N67  1  0.46716305  0.37381455  0.02542632  1.0
  N  N68  1  0.93863476  0.93581639  0.63304581  1.0
  N  N69  1  0.92830466  0.56136061  0.50282161  1.0
  N  N70  1  0.89924249  0.49259092  0.47458437  1.0
  N  N71  1  0.43581572  0.56885138  0.00282658  1.0
  O  O72  1  0.25503486  0.29082021  0.08479758  1.0
  O  O73  1  0.79520805  0.74326995  0.73801632  1.0
  O  O74  1  0.12437953  0.66013449  0.58480818  1.0
  O  O75  1  0.74495574  0.70917916  0.91518916  1.0
  O  O76  1  0.03319344  0.29520685  0.44804668  1.0
  O  O77  1  0.20479413  0.25672501  0.26196524  1.0
  O  O78  1  0.98129503  0.53322651  0.76197940  1.0
  O  O79  1  0.16013730  0.24494786  0.46417906  1.0
  O  O80  1  0.24324712  0.48124393  0.05195307  1.0
  O  O81  1  0.01871123  0.46679338  0.23801895  1.0
  O  O82  1  0.75675523  0.51875432  0.94803629  1.0
  O  O83  1  0.96679049  0.70478168  0.55196965  1.0
  O  O84  1  0.79084834  0.37566937  0.96420561  1.0
  O  O85  1  0.20913866  0.62434040  0.03580194  1.0
  O  O86  1  0.87560873  0.33985420  0.41520686  1.0
  O  O87  1  0.83987326  0.75504472  0.53579552  1.0
