# generated using pymatgen
data_AlH21(C6O)6
_symmetry_space_group_name_H-M   'P 1'
_cell_length_a   3.97654141
_cell_length_b   20.40473392
_cell_length_c   20.46014057
_cell_angle_alpha   60.09972586
_cell_angle_beta   86.18194087
_cell_angle_gamma   86.12257329
_symmetry_Int_Tables_number   1
_chemical_formula_structural   AlH21(C6O)6
_chemical_formula_sum   'Al1 H21 C36 O6'
_cell_volume   1434.83501911
_cell_formula_units_Z   1
loop_
 _symmetry_equiv_pos_site_id
 _symmetry_equiv_pos_as_xyz
  1  'x, y, z'
loop_
 _atom_site_type_symbol
 _atom_site_label
 _atom_site_symmetry_multiplicity
 _atom_site_fract_x
 _atom_site_fract_y
 _atom_site_fract_z
 _atom_site_occupancy
  Al  Al0  1  0.04168691  0.49912669  0.50020638  1.0
  H  H1  1  0.84167261  0.30744273  0.70615642  1.0
  H  H2  1  0.82169870  0.23447408  0.84713526  1.0
  H  H3  1  0.24436590  0.70918162  0.30829317  1.0
  H  H4  1  0.24134288  0.85056022  0.23690016  1.0
  H  H5  1  0.28746664  0.31064029  0.48311373  1.0
  H  H6  1  0.30014714  0.23938310  0.41295218  1.0
  H  H7  1  0.78077053  0.70629828  0.48524086  1.0
  H  H8  1  0.75726928  0.84766723  0.41729219  1.0
  H  H9  1  0.18376761  0.48117273  0.71048481  1.0
  H  H10  1  0.18246631  0.41173893  0.85150344  1.0
  H  H11  1  0.88796614  0.48174189  0.30501458  1.0
  H  H12  1  0.88232686  0.41392055  0.23160961  1.0
  H  H13  1  0.78982031  0.09553067  0.34754976  1.0
  H  H14  1  0.50094525  0.02839936  0.35601493  1.0
  H  H15  1  0.35432737  0.11427327  0.35405681  1.0
  H  H16  1  0.75401671  0.34667108  0.03273547  1.0
  H  H17  1  0.61719427  0.35475388  0.11380445  1.0
  H  H18  1  0.32081604  0.35735684  0.05094727  1.0
  H  H19  1  0.65418548  0.03713327  0.10292025  1.0
  H  H20  1  0.43950277  0.11646852  0.02855915  1.0
  H  H21  1  0.21362454  0.04838914  0.11041382  1.0
  C  C22  1  0.52333763  0.44091201  0.61635229  1.0
  C  C23  1  0.57728790  0.44143657  0.44114580  1.0
  C  C24  1  0.52295813  0.61559016  0.44231014  1.0
  C  C25  1  0.69319824  0.32887903  0.73870324  1.0
  C  C26  1  0.68258839  0.28852191  0.81697220  1.0
  C  C27  1  0.36051518  0.74019615  0.33090164  1.0
  C  C28  1  0.35786489  0.81867573  0.29144301  1.0
  C  C29  1  0.42255914  0.33176889  0.42870536  1.0
  C  C30  1  0.42927809  0.29233016  0.38965090  1.0
  C  C31  1  0.65790409  0.73861575  0.43151945  1.0
  C  C32  1  0.64534403  0.81709952  0.39365591  1.0
  C  C33  1  0.32694236  0.42776594  0.74109957  1.0
  C  C34  1  0.32536121  0.38904302  0.81937916  1.0
  C  C35  1  0.75602830  0.42924087  0.32748602  1.0
  C  C36  1  0.75364788  0.39140067  0.28686761  1.0
  C  C37  1  0.51347545  0.39843692  0.70014608  1.0
  C  C38  1  0.50121068  0.31842678  0.85862808  1.0
  C  C39  1  0.49806601  0.27835766  0.93845238  1.0
  C  C40  1  0.49932427  0.24327928  0.00727680  1.0
  C  C41  1  0.50711061  0.20426158  0.08711517  1.0
  C  C42  1  0.51307472  0.69954053  0.40086148  1.0
  C  C43  1  0.49777222  0.85845621  0.32252340  1.0
  C  C44  1  0.49283641  0.93840338  0.28289165  1.0
  C  C45  1  0.49318076  0.00742480  0.24910130  1.0
  C  C46  1  0.50185330  0.08737849  0.20809726  1.0
  C  C47  1  0.58764486  0.40019143  0.39830220  1.0
  C  C48  1  0.59169633  0.32203175  0.31753203  1.0
  C  C49  1  0.58583173  0.28296529  0.27674483  1.0
  C  C50  1  0.57052423  0.24900382  0.24201723  1.0
  C  C51  1  0.54655002  0.20806395  0.20345095  1.0
  C  C52  1  0.48631258  0.12483364  0.12843830  1.0
  C  C53  1  0.52974767  0.12827203  0.24628543  1.0
  C  C54  1  0.53823647  0.24661078  0.12396703  1.0
  C  C55  1  0.54316084  0.08894216  0.33054331  1.0
  C  C56  1  0.56018549  0.33088788  0.07842573  1.0
  C  C57  1  0.44703250  0.07988429  0.08987175  1.0
  O  O58  1  0.30328780  0.58248453  0.42744614  1.0
  O  O59  1  0.28225501  0.48894271  0.58358740  1.0
  O  O60  1  0.33615732  0.42692318  0.49045397  1.0
  O  O61  1  0.75175290  0.58161992  0.49055011  1.0
  O  O62  1  0.80624590  0.48830530  0.42663455  1.0
  O  O63  1  0.77401530  0.42649509  0.58241594  1.0
