# generated using pymatgen
data_YbH9C15O7
_symmetry_space_group_name_H-M   'P 1'
_cell_length_a   14.47873430
_cell_length_b   14.73765643
_cell_length_c   14.73761468
_cell_angle_alpha   89.99919583
_cell_angle_beta   89.99956079
_cell_angle_gamma   89.99949684
_symmetry_Int_Tables_number   1
_chemical_formula_structural   YbH9C15O7
_chemical_formula_sum   'Yb4 H36 C60 O28'
_cell_volume   3144.75070946
_cell_formula_units_Z   4
loop_
 _symmetry_equiv_pos_site_id
 _symmetry_equiv_pos_as_xyz
  1  'x, y, z'
loop_
 _atom_site_type_symbol
 _atom_site_label
 _atom_site_symmetry_multiplicity
 _atom_site_fract_x
 _atom_site_fract_y
 _atom_site_fract_z
 _atom_site_occupancy
  Yb  Yb0  1  0.48251634  0.63001445  0.41333541  1.0
  Yb  Yb1  1  0.98251564  0.36998195  0.58666191  1.0
  Yb  Yb2  1  0.23251594  0.58666180  0.63001487  1.0
  Yb  Yb3  1  0.73252138  0.41333879  0.36998162  1.0
  H  H4  1  0.59696643  0.57598680  0.25618917  1.0
  H  H5  1  0.09696363  0.42401497  0.74380563  1.0
  H  H6  1  0.34696261  0.74380743  0.57598424  1.0
  H  H7  1  0.84697179  0.25619218  0.42401478  1.0
  H  H8  1  0.57444674  0.68275832  0.25039313  1.0
  H  H9  1  0.07444208  0.31724432  0.74960862  1.0
  H  H10  1  0.32443810  0.74960281  0.68275530  1.0
  H  H11  1  0.82444747  0.25039427  0.31724458  1.0
  H  H12  1  0.10044732  0.52872358  0.45564495  1.0
  H  H13  1  0.60044950  0.47127544  0.54435457  1.0
  H  H14  1  0.85045244  0.54436139  0.52872169  1.0
  H  H15  1  0.35045563  0.45564089  0.47127120  1.0
  H  H16  1  0.97891481  0.49025962  0.19254099  1.0
  H  H17  1  0.47890937  0.50973885  0.80745839  1.0
  H  H18  1  0.72892077  0.80746644  0.49025206  1.0
  H  H19  1  0.22892186  0.19254029  0.50974513  1.0
  H  H20  1  0.24947747  0.61222567  0.21859323  1.0
  H  H21  1  0.74947648  0.38777750  0.78140653  1.0
  H  H22  1  0.99948066  0.78140667  0.61223569  1.0
  H  H23  1  0.49948592  0.21858958  0.38776965  1.0
  H  H24  1  0.18059654  0.69678299  0.09880146  1.0
  H  H25  1  0.68059882  0.30321534  0.90119949  1.0
  H  H26  1  0.93059394  0.90119204  0.69678746  1.0
  H  H27  1  0.43059817  0.09879938  0.30321636  1.0
  H  H28  1  0.21288890  0.70483730  0.93264043  1.0
  H  H29  1  0.71289499  0.29516482  0.06735825  1.0
  H  H30  1  0.96288015  0.06735235  0.70484470  1.0
  H  H31  1  0.46288390  0.93264014  0.29516634  1.0
  H  H32  1  0.10270933  0.43620982  0.89902060  1.0
  H  H33  1  0.60271414  0.56379393  0.10097619  1.0
  H  H34  1  0.85270981  0.10098286  0.43621117  1.0
  H  H35  1  0.35271108  0.89901941  0.56379798  1.0
  H  H36  1  0.07066148  0.42729445  0.06419369  1.0
  H  H37  1  0.57066108  0.57270686  0.93580470  1.0
  H  H38  1  0.82066257  0.93580982  0.42729694  1.0
  H  H39  1  0.32066501  0.06419205  0.57271042  1.0
  C  C40  1  0.18152370  0.57634829  0.34262942  1.0
  C  C41  1  0.68152404  0.42365343  0.65736950  1.0
  C  C42  1  0.93152514  0.65737189  0.57635313  1.0
  C  C43  1  0.43153109  0.34262630  0.42364594  1.0
  C  C44  1  0.10410812  0.53618592  0.38239898  1.0
  C  C45  1  0.60410910  0.46381511  0.61760256  1.0
  C  C46  1  0.85411263  0.61760703  0.53618641  1.0
  C  C47  1  0.35411445  0.38239726  0.46381120  1.0
  C  C48  1  0.03200548  0.50435862  0.32801075  1.0
  C  C49  1  0.53200576  0.49564167  0.67198997  1.0
  C  C50  1  0.78200745  0.67199477  0.50435211  1.0
  C  C51  1  0.28201089  0.32800675  0.49564672  1.0
  C  C52  1  0.03691093  0.51367010  0.23352319  1.0
  C  C53  1  0.53690779  0.48633082  0.76647613  1.0
  C  C54  1  0.78691764  0.76648054  0.51366908  1.0
  C  C55  1  0.28692131  0.23352502  0.48633107  1.0
  C  C56  1  0.11473125  0.55320144  0.19265780  1.0
  C  C57  1  0.61472953  0.44680017  0.80734297  1.0
  C  C58  1  0.86473419  0.80734192  0.55320340  1.0
  C  C59  1  0.36473784  0.19265822  0.44680092  1.0
  C  C60  1  0.18684908  0.58397293  0.24831286  1.0
  C  C61  1  0.68684945  0.41602806  0.75168601  1.0
  C  C62  1  0.93685112  0.75168600  0.58397851  1.0
  C  C63  1  0.43685521  0.24831215  0.41602594  1.0
  C  C64  1  0.26067390  0.60645409  0.40027392  1.0
  C  C65  1  0.76067427  0.39354626  0.59972643  1.0
  C  C66  1  0.01067130  0.59971859  0.60645278  1.0
  C  C67  1  0.51067322  0.40028052  0.39354539  1.0
  C  C68  1  0.94980879  0.46131290  0.37201947  1.0
  C  C69  1  0.44980864  0.53868649  0.62797810  1.0
  C  C70  1  0.69981071  0.62798572  0.46130234  1.0
  C  C71  1  0.19980790  0.37201923  0.53869032  1.0
  C  C72  1  0.12486509  0.56085121  0.09320335  1.0
  C  C73  1  0.62486335  0.43914896  0.90679463  1.0
  C  C74  1  0.87486858  0.90679589  0.56085315  1.0
  C  C75  1  0.37486835  0.09320211  0.43915109  1.0
  C  C76  1  0.16415493  0.63937804  0.05496241  1.0
  C  C77  1  0.66415704  0.36062111  0.94503596  1.0
  C  C78  1  0.91415192  0.94503327  0.63938173  1.0
  C  C79  1  0.41415333  0.05496304  0.36062629  1.0
  C  C80  1  0.18199339  0.64441310  0.96252776  1.0
  C  C81  1  0.68199780  0.35558793  0.03747115  1.0
  C  C82  1  0.93198901  0.03746621  0.64442141  1.0
  C  C83  1  0.43199064  0.96252792  0.35558783  1.0
  C  C84  1  0.16143759  0.57065423  0.90586858  1.0
  C  C85  1  0.66144020  0.42934697  0.09412981  1.0
  C  C86  1  0.91143407  0.09412847  0.57065745  1.0
  C  C87  1  0.41143425  0.90586787  0.42934991  1.0
  C  C88  1  0.11939475  0.49333657  0.94291326  1.0
  C  C89  1  0.61939696  0.50666636  0.05708544  1.0
  C  C90  1  0.86939357  0.05708531  0.49334142  1.0
  C  C91  1  0.36939489  0.94291207  0.50666761  1.0
  C  C92  1  0.10080000  0.48875409  0.03543883  1.0
  C  C93  1  0.60079854  0.51124628  0.96456069  1.0
  C  C94  1  0.85080158  0.96456553  0.48875772  1.0
  C  C95  1  0.35080199  0.03543540  0.51124941  1.0
  C  C96  1  0.18743124  0.57489021  0.80864579  1.0
  C  C97  1  0.68743313  0.42511281  0.19135307  1.0
  C  C98  1  0.93742898  0.19135070  0.57489481  1.0
  C  C99  1  0.43743214  0.80864405  0.42510896  1.0
  O  O100  1  0.33823533  0.61940317  0.36160785  1.0
  O  O101  1  0.83823690  0.38059380  0.63838988  1.0
  O  O102  1  0.08824416  0.63839392  0.61939257  1.0
  O  O103  1  0.58824998  0.36160317  0.38060297  1.0
  O  O104  1  0.24777185  0.61606227  0.48498300  1.0
  O  O105  1  0.74777366  0.38394362  0.51501406  1.0
  O  O106  1  0.99778141  0.51501695  0.61606451  1.0
  O  O107  1  0.49778294  0.48497932  0.38393406  1.0
  O  O108  1  0.87410277  0.45954799  0.32813478  1.0
  O  O109  1  0.37409949  0.54045341  0.67186065  1.0
  O  O110  1  0.62410915  0.67185463  0.45952931  1.0
  O  O111  1  0.12410810  0.32814486  0.54046054  1.0
  O  O112  1  0.95908775  0.42922376  0.45164584  1.0
  O  O113  1  0.45909138  0.57077420  0.54835234  1.0
  O  O114  1  0.70910828  0.54835520  0.42920609  1.0
  O  O115  1  0.20910036  0.45164560  0.57077905  1.0
  O  O116  1  0.22588814  0.64587374  0.77638009  1.0
  O  O117  1  0.72589042  0.35412826  0.22361781  1.0
  O  O118  1  0.97588358  0.22361636  0.64587879  1.0
  O  O119  1  0.47589103  0.77638145  0.35412876  1.0
  O  O120  1  0.17311075  0.50658942  0.75546947  1.0
  O  O121  1  0.67311162  0.49341304  0.24453018  1.0
  O  O122  1  0.92311215  0.24452591  0.50658968  1.0
  O  O123  1  0.42311111  0.75546761  0.49341284  1.0
  O  O124  1  0.55038404  0.62462692  0.27053597  1.0
  O  O125  1  0.05038179  0.37537456  0.72945986  1.0
  O  O126  1  0.30037899  0.72945833  0.62462468  1.0
  O  O127  1  0.80039050  0.27054575  0.37537401  1.0
