# generated using pymatgen
data_AgH14C16S(NO)2
_symmetry_space_group_name_H-M   'P 1'
_cell_length_a   7.52430948
_cell_length_b   11.97726643
_cell_length_c   13.02309693
_cell_angle_alpha   73.02390468
_cell_angle_beta   84.90485022
_cell_angle_gamma   72.90886083
_symmetry_Int_Tables_number   1
_chemical_formula_structural   AgH14C16S(NO)2
_chemical_formula_sum   'Ag2 H28 C32 S2 N4 O4'
_cell_volume   1072.93267811
_cell_formula_units_Z   2
loop_
 _symmetry_equiv_pos_site_id
 _symmetry_equiv_pos_as_xyz
  1  'x, y, z'
loop_
 _atom_site_type_symbol
 _atom_site_label
 _atom_site_symmetry_multiplicity
 _atom_site_fract_x
 _atom_site_fract_y
 _atom_site_fract_z
 _atom_site_occupancy
  Ag  Ag0  1  0.30259378  0.25865483  0.10160230  1.0
  Ag  Ag1  1  0.69740657  0.74134138  0.89840161  1.0
  H  H2  1  0.27778243  0.77227188  0.82460431  1.0
  H  H3  1  0.72221924  0.22772795  0.17538706  1.0
  H  H4  1  0.08020251  0.64908026  0.80160160  1.0
  H  H5  1  0.91980025  0.35091684  0.19839274  1.0
  H  H6  1  0.56274646  0.33558384  0.87274702  1.0
  H  H7  1  0.43726468  0.66441228  0.12725026  1.0
  H  H8  1  0.74133741  0.47158671  0.89724375  1.0
  H  H9  1  0.25866450  0.52841220  0.10275860  1.0
  H  H10  1  0.08123104  0.44925891  0.76565847  1.0
  H  H11  1  0.91876820  0.55074003  0.23434322  1.0
  H  H12  1  0.28181248  0.31994434  0.80223832  1.0
  H  H13  1  0.71818450  0.68005372  0.19776065  1.0
  H  H14  1  0.91259050  0.27194630  0.85543624  1.0
  H  H15  1  0.08741618  0.72805075  0.14456638  1.0
  H  H16  1  0.91151130  0.20553970  0.99813391  1.0
  H  H17  1  0.08849062  0.79445922  0.00186767  1.0
  H  H18  1  0.17716999  0.17509600  0.74432132  1.0
  H  H19  1  0.82283078  0.82490564  0.25568189  1.0
  H  H20  1  0.43283630  0.98764262  0.73985064  1.0
  H  H21  1  0.56716586  0.01235902  0.26014867  1.0
  H  H22  1  0.41712719  0.84983976  0.06996664  1.0
  H  H23  1  0.58287205  0.15015284  0.93003214  1.0
  H  H24  1  0.16158501  0.03221629  0.08923305  1.0
  H  H25  1  0.83842280  0.96777804  0.91076947  1.0
  H  H26  1  0.14590608  0.16889624  0.46570288  1.0
  H  H27  1  0.85406610  0.83111654  0.53429872  1.0
  H  H28  1  0.93723444  0.93561394  0.34535142  1.0
  H  H29  1  0.06275206  0.06439960  0.65465313  1.0
  C  C30  1  0.33789320  0.67488197  0.83560338  1.0
  C  C31  1  0.66211037  0.32511966  0.16439049  1.0
  C  C32  1  0.22663605  0.60520774  0.82226292  1.0
  C  C33  1  0.77336693  0.39479207  0.17773146  1.0
  C  C34  1  0.30561080  0.48066895  0.83528524  1.0
  C  C35  1  0.69438981  0.51932998  0.16471410  1.0
  C  C36  1  0.49444823  0.43207648  0.86151110  1.0
  C  C37  1  0.50555582  0.56792061  0.13848703  1.0
  C  C38  1  0.59488872  0.50754987  0.87450902  1.0
  C  C39  1  0.40512198  0.49244082  0.12548973  1.0
  C  C40  1  0.19314833  0.40006679  0.82481320  1.0
  C  C41  1  0.80685435  0.59993030  0.17518730  1.0
  C  C42  1  0.99929738  0.22910916  0.92787344  1.0
  C  C43  1  0.00070378  0.77089158  0.07212922  1.0
  C  C44  1  0.15001323  0.11882101  0.91799426  1.0
  C  C45  1  0.84998967  0.88117880  0.08200626  1.0
  C  C46  1  0.22803739  0.10582078  0.81906741  1.0
  C  C47  1  0.77196721  0.89417811  0.18093405  1.0
  C  C48  1  0.36927473  0.00089829  0.81570850  1.0
  C  C49  1  0.63072414  0.99910155  0.18429298  1.0
  C  C50  1  0.35880929  0.92364007  0.99918925  1.0
  C  C51  1  0.64118595  0.07635891  0.00081186  1.0
  C  C52  1  0.21798073  0.02435425  0.01038374  1.0
  C  C53  1  0.78202056  0.97563652  0.98961774  1.0
  C  C54  1  0.09456546  0.11983126  0.28176690  1.0
  C  C55  1  0.90543517  0.88017400  0.71823458  1.0
  C  C56  1  0.04600704  0.05803557  0.39483427  1.0
  C  C57  1  0.95399021  0.94197154  0.60516382  1.0
  C  C58  1  0.08176003  0.09480388  0.48191653  1.0
  C  C59  1  0.91822914  0.90520330  0.51808498  1.0
  C  C60  1  0.96398712  0.96273768  0.41410695  1.0
  C  C61  1  0.03599775  0.03727680  0.58589052  1.0
  S  S62  1  0.08369155  0.34692426  0.95453624  1.0
  S  S63  1  0.91631208  0.65307373  0.04546550  1.0
  N  N64  1  0.51883419  0.62728334  0.86214839  1.0
  N  N65  1  0.48116605  0.37271650  0.13785072  1.0
  N  N66  1  0.43478592  0.91066950  0.90433620  1.0
  N  N67  1  0.56521335  0.08932945  0.09566319  1.0
  O  O68  1  0.20400796  0.18674209  0.27281519  1.0
  O  O69  1  0.79598903  0.81326230  0.72718594  1.0
  O  O70  1  0.02433831  0.10317773  0.20459999  1.0
  O  O71  1  0.97567163  0.89681477  0.79539908  1.0
