# generated using pymatgen
data_Zn2Fe2H97C97(N2O3)4
_symmetry_space_group_name_H-M   'P 1'
_cell_length_a   14.05265582
_cell_length_b   20.22992818
_cell_length_c   27.06160177
_cell_angle_alpha   86.97080536
_cell_angle_beta   81.22666471
_cell_angle_gamma   69.66342442
_symmetry_Int_Tables_number   1
_chemical_formula_structural   Zn2Fe2H97C97(N2O3)4
_chemical_formula_sum   'Zn4 Fe4 H194 C194 N16 O24'
_cell_volume   7129.24539657
_cell_formula_units_Z   2
loop_
 _symmetry_equiv_pos_site_id
 _symmetry_equiv_pos_as_xyz
  1  'x, y, z'
loop_
 _atom_site_type_symbol
 _atom_site_label
 _atom_site_symmetry_multiplicity
 _atom_site_fract_x
 _atom_site_fract_y
 _atom_site_fract_z
 _atom_site_occupancy
  Zn  Zn0  1  0.70213061  0.19172869  0.24182432  1.0
  Zn  Zn1  1  0.10595509  0.19166258  0.75820548  1.0
  Zn  Zn2  1  0.83493140  0.75988010  0.24891149  1.0
  Zn  Zn3  1  0.40529635  0.75975855  0.75106073  1.0
  Fe  Fe4  1  0.53669080  0.68920115  0.98506445  1.0
  Fe  Fe5  1  0.77365941  0.68933742  0.01496642  1.0
  Fe  Fe6  1  0.74893690  0.26136550  0.48262767  1.0
  Fe  Fe7  1  0.98977615  0.26142470  0.51727764  1.0
  H  H8  1  0.94480421  0.75545842  0.16791689  1.0
  H  H9  1  0.29992765  0.75531099  0.83206227  1.0
  H  H10  1  0.49530244  0.59037017  0.89349688  1.0
  H  H11  1  0.91370260  0.59068245  0.10662669  1.0
  H  H12  1  0.68647610  0.62909343  0.89025654  1.0
  H  H13  1  0.68384512  0.62935885  0.10973226  1.0
  H  H14  1  0.53316581  0.65337909  0.81584137  1.0
  H  H15  1  0.81284666  0.65370531  0.18413656  1.0
  H  H16  1  0.63769443  0.68436785  0.80776006  1.0
  H  H17  1  0.67730027  0.68477642  0.19226451  1.0
  H  H18  1  0.68329647  0.57159661  0.76125074  1.0
  H  H19  1  0.74451770  0.57207857  0.23881455  1.0
  H  H20  1  0.76285899  0.56318593  0.80765632  1.0
  H  H21  1  0.67333136  0.56357056  0.19246037  1.0
  H  H22  1  0.70954714  0.45872904  0.81065663  1.0
  H  H23  1  0.83113656  0.45911489  0.18942843  1.0
  H  H24  1  0.57900510  0.51276542  0.81514250  1.0
  H  H25  1  0.90761133  0.51312407  0.18494007  1.0
  H  H26  1  0.61889783  0.46605967  0.89826008  1.0
  H  H27  1  0.91451997  0.46635334  0.10183369  1.0
  H  H28  1  0.72141761  0.49931679  0.89387827  1.0
  H  H29  1  0.77874177  0.49963024  0.10617507  1.0
  H  H30  1  0.51150437  0.76601059  0.84507325  1.0
  H  H31  1  0.72165779  0.76642694  0.15488929  1.0
  H  H32  1  0.41560468  0.87722673  0.83903299  1.0
  H  H33  1  0.70682952  0.87756737  0.16080410  1.0
  H  H34  1  0.28839604  0.01644472  0.96574628  1.0
  H  H35  1  0.69489054  0.01655639  0.03401682  1.0
  H  H36  1  0.18953344  0.19107344  0.85686199  1.0
  H  H37  1  0.61915021  0.19133991  0.14316287  1.0
  H  H38  1  0.28174451  0.09921667  0.91373869  1.0
  H  H39  1  0.61879067  0.09962448  0.08614357  1.0
  H  H40  1  0.29512661  0.94383385  0.80632209  1.0
  H  H41  1  0.76079252  0.94400457  0.19343427  1.0
  H  H42  1  0.20863673  0.04272464  0.75273311  1.0
  H  H43  1  0.74847915  0.04276069  0.24713209  1.0
  H  H44  1  0.21957775  0.02058030  0.04310849  1.0
  H  H45  1  0.75948352  0.02059261  0.95667543  1.0
  H  H46  1  0.33927916  0.03505895  0.03594738  1.0
  H  H47  1  0.62528557  0.03508447  0.96381338  1.0
  H  H48  1  0.28855659  0.00825422  0.09440133  1.0
  H  H49  1  0.70294403  0.00809864  0.90540624  1.0
  H  H50  1  0.21342573  0.89784512  0.05507381  1.0
  H  H51  1  0.88839995  0.89785271  0.94483961  1.0
  H  H52  1  0.27952043  0.88709984  0.10769583  1.0
  H  H53  1  0.83317245  0.88694048  0.89222250  1.0
  H  H54  1  0.32699154  0.82373692  0.05894444  1.0
  H  H55  1  0.84905941  0.82369644  0.94102526  1.0
  H  H56  1  0.44542345  0.90708980  0.10137674  1.0
  H  H57  1  0.64717331  0.90703815  0.89851140  1.0
  H  H58  1  0.50187241  0.93540508  0.04488856  1.0
  H  H59  1  0.56231848  0.93552836  0.95497226  1.0
  H  H60  1  0.50560400  0.84668830  0.05131513  1.0
  H  H61  1  0.64724374  0.84675976  0.94860663  1.0
  H  H62  1  0.61412451  0.48169895  0.97499899  1.0
  H  H63  1  0.90392162  0.48186233  0.02515508  1.0
  H  H64  1  0.63967618  0.43054416  0.05040477  1.0
  H  H65  1  0.92945512  0.43058074  0.94973065  1.0
  H  H66  1  0.50274450  0.54253723  0.18837260  1.0
  H  H67  1  0.95464348  0.54241142  0.81175060  1.0
  H  H68  1  0.54169375  0.32894684  0.25614226  1.0
  H  H69  1  0.12908747  0.32897741  0.74389688  1.0
  H  H70  1  0.48262381  0.44419407  0.21167944  1.0
  H  H71  1  0.07288206  0.44415791  0.78842844  1.0
  H  H72  1  0.75013954  0.36169073  0.10012930  1.0
  H  H73  1  0.88777888  0.36166580  0.89985188  1.0
  H  H74  1  0.79567219  0.24879253  0.14926965  1.0
  H  H75  1  0.95516736  0.24880812  0.85063460  1.0
  H  H76  1  0.47694142  0.64396593  0.22249155  1.0
  H  H77  1  0.87865623  0.64382168  0.77757106  1.0
  H  H78  1  0.36253571  0.62481219  0.22079695  1.0
  H  H79  1  0.01223254  0.62467802  0.77924800  1.0
  H  H80  1  0.35645554  0.71290898  0.22785143  1.0
  H  H81  1  0.93017449  0.71274662  0.77221177  1.0
  H  H82  1  0.26407003  0.66379676  0.14726742  1.0
  H  H83  1  0.07180432  0.66375366  0.85266540  1.0
  H  H84  1  0.30497048  0.71326663  0.09737215  1.0
  H  H85  1  0.98148795  0.71322241  0.90259955  1.0
  H  H86  1  0.25755201  0.75134941  0.15795138  1.0
  H  H87  1  0.99066031  0.75130468  0.84202834  1.0
  H  H88  1  0.41534843  0.78021300  0.16086650  1.0
  H  H89  1  0.80394701  0.78010537  0.83923926  1.0
  H  H90  1  0.47276506  0.74346156  0.10074494  1.0
  H  H91  1  0.78344717  0.74337194  0.89936900  1.0
  H  H92  1  0.53845463  0.71420367  0.15343030  1.0
  H  H93  1  0.74688851  0.71409996  0.84672557  1.0
  H  H94  1  0.64605173  0.33191539  0.37668427  1.0
  H  H95  1  0.02199793  0.33221473  0.62306139  1.0
  H  H96  1  0.83003665  0.35852325  0.40646510  1.0
  H  H97  1  0.81123485  0.35872169  0.59350441  1.0
  H  H98  1  0.72346602  0.48521670  0.40229499  1.0
  H  H99  1  0.79118694  0.48544035  0.59756236  1.0
  H  H100  1  0.62220733  0.46235754  0.38483180  1.0
  H  H101  1  0.91537418  0.46253627  0.61497205  1.0
  H  H102  1  0.72185325  0.49564793  0.31001210  1.0
  H  H103  1  0.78239381  0.49598498  0.68983518  1.0
  H  H104  1  0.83729649  0.43408652  0.32567613  1.0
  H  H105  1  0.72860100  0.43434395  0.67423274  1.0
  H  H106  1  0.77879180  0.38383581  0.25939619  1.0
  H  H107  1  0.83753878  0.38423689  0.74047100  1.0
  H  H108  1  0.65833623  0.39848815  0.29612566  1.0
  H  H109  1  0.94323685  0.39892831  0.70368927  1.0
  H  H110  1  0.76891382  0.27390523  0.30165160  1.0
  H  H111  1  0.95764489  0.27430174  0.69822233  1.0
  H  H112  1  0.86527097  0.29828545  0.32252633  1.0
  H  H113  1  0.83675414  0.29847565  0.67749529  1.0
  H  H114  1  0.66295118  0.47348464  0.47602561  1.0
  H  H115  1  0.86343537  0.47362603  0.52387798  1.0
  H  H116  1  0.53751528  0.41439179  0.68436498  1.0
  H  H117  1  0.04829794  0.41434004  0.31556782  1.0
  H  H118  1  0.60477353  0.52617679  0.55186944  1.0
  H  H119  1  0.86919752  0.52633668  0.44804098  1.0
  H  H120  1  0.38216227  0.62599127  0.75795324  1.0
  H  H121  1  0.99233624  0.62605414  0.24198486  1.0
  H  H122  1  0.43107252  0.51399240  0.70975955  1.0
  H  H123  1  0.05540352  0.51403624  0.29018942  1.0
  H  H124  1  0.63383145  0.59202779  0.60579747  1.0
  H  H125  1  0.77436965  0.59210925  0.39405690  1.0
  H  H126  1  0.57426329  0.70063258  0.65838319  1.0
  H  H127  1  0.72540057  0.70068104  0.34147572  1.0
  H  H128  1  0.74466620  0.24259992  0.65410839  1.0
  H  H129  1  0.01292128  0.24214178  0.34623078  1.0
  H  H130  1  0.71995335  0.21375412  0.59794217  1.0
  H  H131  1  0.06694394  0.21350830  0.40229782  1.0
  H  H132  1  0.68553937  0.17776129  0.65643009  1.0
  H  H133  1  0.13715488  0.17755616  0.34374091  1.0
  H  H134  1  0.52692831  0.24753679  0.58299872  1.0
  H  H135  1  0.22583930  0.24771569  0.41692491  1.0
  H  H136  1  0.42778922  0.29864055  0.62901778  1.0
  H  H137  1  0.27352084  0.29880057  0.37077735  1.0
  H  H138  1  0.50097036  0.21019328  0.64221772  1.0
  H  H139  1  0.28901644  0.21027697  0.35770595  1.0
  H  H140  1  0.47036096  0.33401557  0.70949357  1.0
  H  H141  1  0.19532918  0.33369625  0.29033083  1.0
  H  H142  1  0.60093423  0.31169162  0.71902699  1.0
  H  H143  1  0.08692281  0.31138675  0.28106050  1.0
  H  H144  1  0.54653733  0.24482115  0.71814807  1.0
  H  H145  1  0.20826290  0.24448433  0.28184945  1.0
  H  H146  1  0.79826234  0.18821980  0.34209670  1.0
  H  H147  1  0.01357404  0.18847311  0.65787073  1.0
  H  H148  1  0.84526831  0.93344607  0.45842596  1.0
  H  H149  1  0.22218988  0.93356245  0.54163572  1.0
  H  H150  1  0.83895779  0.07460614  0.33340020  1.0
  H  H151  1  0.08680941  0.07482579  0.66666667  1.0
  H  H152  1  0.78644919  0.79200074  0.35601708  1.0
  H  H153  1  0.42194100  0.79187500  0.64397520  1.0
  H  H154  1  0.78106314  0.88291655  0.41435199  1.0
  H  H155  1  0.33680049  0.88294242  0.58566021  1.0
  H  H156  1  0.92553920  0.97587126  0.29073142  1.0
  H  H157  1  0.09910380  0.97602182  0.70921654  1.0
  H  H158  1  0.92630682  0.87968057  0.23760849  1.0
  H  H159  1  0.19412274  0.87960982  0.76230629  1.0
  H  H160  1  0.95448771  0.02460980  0.54247625  1.0
  H  H161  1  0.02161130  0.02445858  0.45757299  1.0
  H  H162  1  0.86617199  0.04640695  0.59833010  1.0
  H  H163  1  0.08812443  0.04610403  0.40167717  1.0
  H  H164  1  0.85968177  0.11005615  0.54987312  1.0
  H  H165  1  0.03085092  0.10990896  0.45005395  1.0
  H  H166  1  0.68378266  0.05341419  0.60129100  1.0
  H  H167  1  0.26328353  0.05335062  0.39866111  1.0
  H  H168  1  0.63597389  0.04361865  0.54603459  1.0
  H  H169  1  0.32108175  0.04355727  0.45384707  1.0
  H  H170  1  0.66419699  0.12086443  0.55496160  1.0
  H  H171  1  0.21550915  0.12081037  0.44500659  1.0
  H  H172  1  0.82718814  0.93976472  0.58741836  1.0
  H  H173  1  0.23392452  0.93953443  0.41268543  1.0
  H  H174  1  0.90800177  0.91760266  0.52935762  1.0
  H  H175  1  0.17526895  0.91750267  0.47078502  1.0
  H  H176  1  0.77650047  0.92469760  0.53477340  1.0
  H  H177  1  0.29959876  0.92470953  0.46533472  1.0
  H  H178  1  0.99557464  0.12278632  0.30390252  1.0
  H  H179  1  0.88140466  0.12254776  0.69609961  1.0
  H  H180  1  0.17054272  0.04699761  0.31833256  1.0
  H  H181  1  0.78198964  0.04687412  0.68186206  1.0
  H  H182  1  0.22330186  0.95699328  0.17148757  1.0
  H  H183  1  0.81997633  0.95680600  0.82862017  1.0
  H  H184  1  0.05191887  0.03923314  0.15551734  1.0
  H  H185  1  0.90919585  0.03904566  0.84445559  1.0
  H  H186  1  0.55315118  0.87537999  0.18810193  1.0
  H  H187  1  0.57155872  0.87516614  0.81210374  1.0
  H  H188  1  0.37801657  0.95197700  0.17582505  1.0
  H  H189  1  0.67011767  0.95172212  0.82439267  1.0
  H  H190  1  0.27621304  0.93997843  0.33340128  1.0
  H  H191  1  0.78367682  0.93993392  0.66679900  1.0
  H  H192  1  0.45464715  0.86575175  0.34551833  1.0
  H  H193  1  0.67949817  0.86570687  0.65466724  1.0
  H  H194  1  0.56426234  0.06730810  0.37650774  1.0
  H  H195  1  0.36901951  0.06743456  0.62372017  1.0
  H  H196  1  0.46564223  0.06898222  0.46141724  1.0
  H  H197  1  0.46607052  0.06902841  0.53883225  1.0
  H  H198  1  0.42587227  0.28859155  0.47609508  1.0
  H  H199  1  0.28588729  0.28855746  0.52405413  1.0
  H  H200  1  0.51608740  0.28722844  0.38925283  1.0
  H  H201  1  0.19688153  0.28729735  0.61088652  1.0
  C  C202  1  0.57194873  0.58017228  0.90436876  1.0
  C  C203  1  0.84731913  0.58044218  0.09571831  1.0
  C  C204  1  0.60810684  0.64052360  0.88116085  1.0
  C  C205  1  0.75071590  0.64081874  0.11886761  1.0
  C  C206  1  0.61159845  0.64171797  0.82444889  1.0
  C  C207  1  0.74602294  0.64208206  0.17557069  1.0
  C  C208  1  0.68366245  0.57083574  0.80193923  1.0
  C  C209  1  0.74488872  0.57123946  0.19813544  1.0
  C  C210  1  0.65351589  0.50921141  0.82556585  1.0
  C  C211  1  0.83667300  0.50957278  0.17450951  1.0
  C  C212  1  0.64524367  0.50919199  0.88279648  1.0
  C  C213  1  0.84501155  0.50949467  0.11728919  1.0
  C  C214  1  0.50252229  0.76400381  0.88609444  1.0
  C  C215  1  0.73276085  0.76432699  0.11386101  1.0
  C  C216  1  0.37179186  0.91028488  0.98398366  1.0
  C  C217  1  0.71746070  0.91041118  0.01588000  1.0
  C  C218  1  0.42691503  0.84083288  0.96370206  1.0
  C  C219  1  0.73161309  0.84101781  0.03619823  1.0
  C  C220  1  0.44302967  0.83047816  0.91055840  1.0
  C  C221  1  0.72587916  0.83074038  0.08933278  1.0
  C  C222  1  0.40132727  0.88721521  0.87922158  1.0
  C  C223  1  0.71105521  0.88751570  0.12062248  1.0
  C  C224  1  0.34515183  0.95425230  0.89852002  1.0
  C  C225  1  0.70028017  0.95452456  0.10130022  1.0
  C  C226  1  0.33313324  0.96408312  0.95077034  1.0
  C  C227  1  0.70241101  0.96425151  0.04904204  1.0
  C  C228  1  0.21533581  0.13536578  0.84702093  1.0
  C  C229  1  0.64910192  0.13560697  0.15292772  1.0
  C  C230  1  0.26581170  0.08353270  0.87888546  1.0
  C  C231  1  0.65043218  0.08385229  0.12098771  1.0
  C  C232  1  0.29632172  0.01190791  0.86574657  1.0
  C  C233  1  0.69151463  0.01219286  0.13407484  1.0
  C  C234  1  0.27466272  0.99778382  0.81913651  1.0
  C  C235  1  0.72731255  0.99797786  0.18068484  1.0
  C  C236  1  0.22514945  0.05229265  0.78914093  1.0
  C  C237  1  0.72236721  0.05241252  0.21073573  1.0
  C  C238  1  0.35451238  0.92314112  0.04058700  1.0
  C  C239  1  0.72198363  0.92315363  0.95928790  1.0
  C  C240  1  0.29706795  0.00128415  0.05377351  1.0
  C  C241  1  0.70131792  0.00126141  0.94604051  1.0
  C  C242  1  0.28976103  0.88009797  0.06697286  1.0
  C  C243  1  0.82985396  0.88004700  0.93295365  1.0
  C  C244  1  0.45840550  0.90143932  0.06049612  1.0
  C  C245  1  0.63975675  0.90148242  0.93939803  1.0
  C  C246  1  0.57756597  0.53588819  0.98950701  1.0
  C  C247  1  0.88632177  0.53602705  0.01059890  1.0
  C  C248  1  0.55801649  0.54153023  0.04347250  1.0
  C  C249  1  0.90033118  0.54155484  0.95662789  1.0
  C  C250  1  0.59644107  0.47954839  0.07086237  1.0
  C  C251  1  0.92382877  0.47954242  0.92926106  1.0
  C  C252  1  0.57613542  0.47898016  0.12284313  1.0
  C  C253  1  0.94474705  0.47889287  0.87727696  1.0
  C  C254  1  0.51613524  0.54321892  0.14765516  1.0
  C  C255  1  0.94054609  0.54310777  0.85246481  1.0
  C  C256  1  0.47614752  0.60654122  0.12322869  1.0
  C  C257  1  0.91711774  0.60647256  0.87684478  1.0
  C  C258  1  0.49644137  0.60643661  0.06933122  1.0
  C  C259  1  0.89694030  0.60642798  0.93074014  1.0
  C  C260  1  0.58444152  0.33922088  0.22120238  1.0
  C  C261  1  0.07600904  0.33922850  0.77882102  1.0
  C  C262  1  0.55339855  0.40310223  0.19646714  1.0
  C  C263  1  0.04318233  0.40307805  0.80359673  1.0
  C  C264  1  0.61057543  0.41341356  0.15106871  1.0
  C  C265  1  0.97573438  0.41335992  0.84899905  1.0
  C  C266  1  0.70023725  0.35675042  0.13407847  1.0
  C  C267  1  0.94264849  0.35672891  0.86591679  1.0
  C  C268  1  0.72685674  0.29416750  0.16079179  1.0
  C  C269  1  0.97861803  0.29417306  0.83916181  1.0
  C  C270  1  0.41221566  0.67469748  0.15213430  1.0
  C  C271  1  0.91270121  0.67461174  0.84791258  1.0
  C  C272  1  0.40200502  0.66264850  0.20898536  1.0
  C  C273  1  0.93490235  0.66249966  0.79107619  1.0
  C  C274  1  0.30311169  0.70230017  0.13748944  1.0
  C  C275  1  0.99423945  0.70224776  0.86247936  1.0
  C  C276  1  0.46305048  0.73138080  0.14067403  1.0
  C  C277  1  0.80515266  0.73128267  0.85943573  1.0
  C  C278  1  0.72968263  0.31627563  0.37708984  1.0
  C  C279  1  0.95402733  0.31650859  0.62277320  1.0
  C  C280  1  0.74629632  0.37344668  0.40677170  1.0
  C  C281  1  0.88007754  0.37363017  0.59312117  1.0
  C  C282  1  0.70643030  0.44576064  0.38214664  1.0
  C  C283  1  0.84771120  0.44599216  0.61770494  1.0
  C  C284  1  0.75479138  0.44375266  0.32728460  1.0
  C  C285  1  0.80140776  0.44406159  0.67258363  1.0
  C  C286  1  0.74051760  0.38597683  0.29823409  1.0
  C  C287  1  0.87363232  0.38633967  0.70161947  1.0
  C  C288  1  0.78174036  0.31381881  0.32299886  1.0
  C  C289  1  0.90468132  0.31412010  0.67690945  1.0
  C  C290  1  0.66566302  0.42055143  0.48937368  1.0
  C  C291  1  0.91367565  0.42067300  0.51054219  1.0
  C  C292  1  0.62858209  0.41653074  0.54194315  1.0
  C  C293  1  0.95489381  0.41664948  0.45799316  1.0
  C  C294  1  0.62007645  0.35259982  0.56505854  1.0
  C  C295  1  0.02737312  0.35268865  0.43492000  1.0
  C  C296  1  0.58691680  0.35209023  0.61808987  1.0
  C  C297  1  0.06100983  0.35207800  0.38187651  1.0
  C  C298  1  0.56080113  0.41458561  0.64410378  1.0
  C  C299  1  0.02475543  0.41456586  0.35583416  1.0
  C  C300  1  0.56590947  0.47856118  0.62186018  1.0
  C  C301  1  0.95576652  0.47861434  0.37805887  1.0
  C  C302  1  0.60064288  0.47792269  0.57076366  1.0
  C  C303  1  0.92158440  0.47804402  0.42915803  1.0
  C  C304  1  0.43733743  0.61526351  0.72362330  1.0
  C  C305  1  0.94783295  0.61531259  0.27628219  1.0
  C  C306  1  0.46609884  0.55322644  0.69667618  1.0
  C  C307  1  0.98108061  0.55327315  0.30323474  1.0
  C  C308  1  0.53630980  0.54256125  0.65214109  1.0
  C  C309  1  0.92145570  0.54260243  0.34775216  1.0
  C  C310  1  0.57629740  0.59697797  0.63865386  1.0
  C  C311  1  0.82698819  0.59702467  0.36120949  1.0
  C  C312  1  0.54443608  0.65758531  0.66746486  1.0
  C  C313  1  0.79828491  0.65761755  0.33239569  1.0
  C  C314  1  0.58245866  0.28390515  0.64441375  1.0
  C  C315  1  0.13362637  0.28379792  0.35560899  1.0
  C  C316  1  0.68984168  0.22620303  0.63735575  1.0
  C  C317  1  0.08428244  0.22593955  0.36286070  1.0
  C  C318  1  0.50502448  0.25866561  0.62308939  1.0
  C  C319  1  0.23641908  0.25875787  0.37682207  1.0
  C  C320  1  0.54796334  0.29494705  0.70096029  1.0
  C  C321  1  0.15678899  0.29467134  0.29901353  1.0
  C  C322  1  0.78756495  0.18961701  0.38309812  1.0
  C  C323  1  0.02292760  0.18981301  0.61686658  1.0
  C  C324  1  0.80724172  0.04079732  0.47864315  1.0
  C  C325  1  0.15253674  0.04086592  0.52136565  1.0
  C  C326  1  0.83166783  0.98690885  0.44434527  1.0
  C  C327  1  0.18215093  0.98703500  0.55569372  1.0
  C  C328  1  0.84183580  0.99667779  0.39173315  1.0
  C  C329  1  0.16215549  0.99686231  0.60830411  1.0
  C  C330  1  0.83250746  0.06391575  0.37346229  1.0
  C  C331  1  0.10401543  0.06409853  0.62657738  1.0
  C  C332  1  0.80568265  0.12135275  0.40615027  1.0
  C  C333  1  0.07322394  0.12148557  0.59385988  1.0
  C  C334  1  0.78779682  0.11124080  0.45929109  1.0
  C  C335  1  0.10129457  0.11132120  0.54071410  1.0
  C  C336  1  0.81929814  0.83242216  0.34335967  1.0
  C  C337  1  0.34872198  0.83238639  0.65662343  1.0
  C  C338  1  0.81638253  0.88398197  0.37573405  1.0
  C  C339  1  0.30029583  0.88405425  0.62426509  1.0
  C  C340  1  0.85258574  0.93905493  0.35835683  1.0
  C  C341  1  0.20903621  0.93920093  0.64164559  1.0
  C  C342  1  0.89379854  0.93627512  0.30721304  1.0
  C  C343  1  0.17046073  0.93638793  0.69276429  1.0
  C  C344  1  0.89468481  0.88245738  0.27720514  1.0
  C  C345  1  0.22316854  0.88244849  0.72274703  1.0
  C  C346  1  0.80011797  0.02679969  0.53521589  1.0
  C  C347  1  0.17374293  0.02675498  0.46480431  1.0
  C  C348  1  0.87445747  0.05394789  0.55755415  1.0
  C  C349  1  0.07226235  0.05378692  0.44243975  1.0
  C  C350  1  0.68924069  0.06377040  0.56080623  1.0
  C  C351  1  0.24757832  0.06371564  0.43915011  1.0
  C  C352  1  0.82968445  0.94758503  0.54683546  1.0
  C  C353  1  0.22351207  0.94750151  0.45325696  1.0
  C  C354  1  0.90979902  0.13293114  0.21861543  1.0
  C  C355  1  0.95739440  0.13273245  0.78129577  1.0
  C  C356  1  0.04658283  0.08688349  0.27483068  1.0
  C  C357  1  0.86636526  0.08668902  0.72520567  1.0
  C  C358  1  0.14409986  0.04351286  0.28301821  1.0
  C  C359  1  0.81208380  0.04337534  0.71713066  1.0
  C  C360  1  0.20996327  0.99655482  0.24581190  1.0
  C  C361  1  0.79335533  0.99642867  0.75436727  1.0
  C  C362  1  0.17470717  0.99473189  0.20011357  1.0
  C  C363  1  0.83068510  0.99456397  0.79999736  1.0
  C  C364  1  0.07870092  0.03964775  0.19121283  1.0
  C  C365  1  0.88187690  0.03945662  0.80879551  1.0
  C  C366  1  0.01360250  0.08602290  0.22860836  1.0
  C  C367  1  0.90045980  0.08582413  0.77137203  1.0
  C  C368  1  0.51483114  0.86596298  0.26771192  1.0
  C  C369  1  0.61915600  0.86586466  0.73246106  1.0
  C  C370  1  0.49233267  0.88974375  0.21986815  1.0
  C  C371  1  0.61791568  0.88956361  0.78032659  1.0
  C  C372  1  0.39358602  0.93202078  0.21304611  1.0
  C  C373  1  0.67435249  0.93183638  0.78716601  1.0
  C  C374  1  0.31408415  0.95122364  0.25367769  1.0
  C  C375  1  0.73453937  0.95111906  0.74653469  1.0
  C  C376  1  0.33721852  0.92667317  0.30154503  1.0
  C  C377  1  0.73598178  0.92662409  0.69864670  1.0
  C  C378  1  0.43615811  0.88481471  0.30850565  1.0
  C  C379  1  0.67895137  0.88475727  0.69167700  1.0
  C  C380  1  0.62124371  0.82174397  0.27619307  1.0
  C  C381  1  0.55706821  0.82165332  0.72391975  1.0
  C  C382  1  0.60478079  0.17343308  0.32748958  1.0
  C  C383  1  0.22205546  0.17346430  0.67264248  1.0
  C  C384  1  0.54516383  0.17715640  0.37804648  1.0
  C  C385  1  0.27808210  0.17726220  0.62214012  1.0
  C  C386  1  0.53205566  0.11542650  0.39874190  1.0
  C  C387  1  0.35305107  0.11553502  0.60147774  1.0
  C  C388  1  0.47845764  0.11664187  0.44626660  1.0
  C  C389  1  0.40552430  0.11668457  0.55396818  1.0
  C  C390  1  0.43856193  0.17895889  0.47480659  1.0
  C  C391  1  0.38300608  0.17896597  0.52541254  1.0
  C  C392  1  0.45335654  0.24041346  0.45392032  1.0
  C  C393  1  0.30661023  0.24041442  0.54625467  1.0
  C  C394  1  0.50494819  0.23970269  0.40579028  1.0
  C  C395  1  0.25563311  0.23977773  0.59437345  1.0
  N  N396  1  0.55535068  0.58833895  0.95877473  1.0
  N  N397  1  0.85598350  0.58851784  0.04130374  1.0
  N  N398  1  0.54467031  0.70525368  0.90851262  1.0
  N  N399  1  0.74940689  0.70552603  0.09149809  1.0
  N  N400  1  0.75837664  0.25003531  0.40572102  1.0
  N  N401  1  0.99162673  0.25019117  0.59419542  1.0
  N  N402  1  0.70284869  0.36775381  0.45882919  1.0
  N  N403  1  0.92917208  0.36786115  0.54105812  1.0
  N  N404  1  0.19493917  0.12056897  0.80273128  1.0
  N  N405  1  0.68428074  0.12070945  0.19721412  1.0
  N  N406  1  0.66922432  0.28510478  0.20358378  1.0
  N  N407  1  0.04533256  0.28511557  0.79638009  1.0
  N  N408  1  0.47462486  0.66752587  0.70913784  1.0
  N  N409  1  0.85820150  0.66756897  0.29074958  1.0
  N  N410  1  0.85715221  0.83107776  0.29433799  1.0
  N  N411  1  0.31202676  0.83098264  0.70561535  1.0
  O  O412  1  0.46193977  0.78818856  0.99364576  1.0
  O  O413  1  0.74905982  0.78833419  0.00629219  1.0
  O  O414  1  0.45832574  0.66423043  0.04454729  1.0
  O  O415  1  0.87707399  0.66427688  0.95551783  1.0
  O  O416  1  0.66666667  0.66627024  0.00005548  1.0
  O  O417  1  0.75363605  0.16479831  0.48967304  1.0
  O  O418  1  0.08169434  0.16485192  0.51032403  1.0
  O  O419  1  0.64130821  0.29588297  0.53870254  1.0
  O  O420  1  0.06291253  0.29600540  0.46129776  1.0
  O  O421  1  0.87092940  0.25844764  0.49988435  1.0
  O  O422  1  0.84291633  0.15608391  0.25854347  1.0
  O  O423  1  0.00119988  0.15575562  0.74133695  1.0
  O  O424  1  0.89092574  0.14626063  0.17480093  1.0
  O  O425  1  0.96283991  0.14620413  0.82509984  1.0
  O  O426  1  0.65415387  0.11435286  0.30758119  1.0
  O  O427  1  0.23180041  0.11434445  0.69245980  1.0
  O  O428  1  0.60562912  0.23212640  0.30546303  1.0
  O  O429  1  0.16230327  0.23210384  0.69468941  1.0
  O  O430  1  0.63807575  0.79941233  0.31915715  1.0
  O  O431  1  0.56270488  0.79930613  0.68094469  1.0
  O  O432  1  0.69099903  0.80975721  0.23674091  1.0
  O  O433  1  0.49917112  0.80969410  0.76331997  1.0
  O  O434  1  0.92772222  0.72126344  0.19066342  1.0
  O  O435  1  0.35106626  0.72110733  0.80925594  1.0
