# generated using pymatgen
data_NiH21C27N7O5
_symmetry_space_group_name_H-M   'P 1'
_cell_length_a   9.65401701
_cell_length_b   13.66227989
_cell_length_c   13.66065823
_cell_angle_alpha   84.33995756
_cell_angle_beta   78.36690910
_cell_angle_gamma   78.30206795
_symmetry_Int_Tables_number   1
_chemical_formula_structural   NiH21C27N7O5
_chemical_formula_sum   'Ni2 H42 C54 N14 O10'
_cell_volume   1724.98530781
_cell_formula_units_Z   2
loop_
 _symmetry_equiv_pos_site_id
 _symmetry_equiv_pos_as_xyz
  1  'x, y, z'
loop_
 _atom_site_type_symbol
 _atom_site_label
 _atom_site_symmetry_multiplicity
 _atom_site_fract_x
 _atom_site_fract_y
 _atom_site_fract_z
 _atom_site_occupancy
  Ni  Ni0  1  0.13995082  0.78750986  0.78816385  1.0
  Ni  Ni1  1  0.86035716  0.21170062  0.21294583  1.0
  H  H2  1  0.91774033  0.78882078  0.66517752  1.0
  H  H3  1  0.08434474  0.33354383  0.21084576  1.0
  H  H4  1  0.08167346  0.20865218  0.33672349  1.0
  H  H5  1  0.91930966  0.66322570  0.79060899  1.0
  H  H6  1  0.77312865  0.90959791  0.55650035  1.0
  H  H7  1  0.22865288  0.44178605  0.08966743  1.0
  H  H8  1  0.22883546  0.08635844  0.44269985  1.0
  H  H9  1  0.77292574  0.55678638  0.91261568  1.0
  H  H10  1  0.79161852  0.09319044  0.54858714  1.0
  H  H11  1  0.20858146  0.45004524  0.90631872  1.0
  H  H12  1  0.21172844  0.90275663  0.44785502  1.0
  H  H13  1  0.78935552  0.55197221  0.09636022  1.0
  H  H14  1  0.94250010  0.14470009  0.65367404  1.0
  H  H15  1  0.05614217  0.34563707  0.85544821  1.0
  H  H16  1  0.05922174  0.85278447  0.34285100  1.0
  H  H17  1  0.94057526  0.65762608  0.14667439  1.0
  H  H18  1  0.31923143  0.93821060  0.17093322  1.0
  H  H19  1  0.68077446  0.82870376  0.06194068  1.0
  H  H20  1  0.68047013  0.06365283  0.82823677  1.0
  H  H21  1  0.31970744  0.17171565  0.93578327  1.0
  H  H22  1  0.46250153  0.02376382  0.25604153  1.0
  H  H23  1  0.53836780  0.74330318  0.97594003  1.0
  H  H24  1  0.53780783  0.97839591  0.74225815  1.0
  H  H25  1  0.46284338  0.25736144  0.02086764  1.0
  H  H26  1  0.53676762  0.18262063  0.18022390  1.0
  H  H27  1  0.46423620  0.81901521  0.81696767  1.0
  H  H28  1  0.51896152  0.83802283  0.42589458  1.0
  H  H29  1  0.48206918  0.57467967  0.16283522  1.0
  H  H30  1  0.47621777  0.16394410  0.57399146  1.0
  H  H31  1  0.52017519  0.42560792  0.83811559  1.0
  H  H32  1  0.33977642  0.03290546  0.66541114  1.0
  H  H33  1  0.65816816  0.33422680  0.96867259  1.0
  H  H34  1  0.65594795  0.96896953  0.33464898  1.0
  H  H35  1  0.34391656  0.66599690  0.03228857  1.0
  H  H36  1  0.21500926  0.62537450  0.71531542  1.0
  H  H37  1  0.78491374  0.28529743  0.37470945  1.0
  H  H38  1  0.09989051  0.09990493  0.76163634  1.0
  H  H39  1  0.89845401  0.23821471  0.90073532  1.0
  H  H40  1  0.89790120  0.89949140  0.23767938  1.0
  H  H41  1  0.10138567  0.76296116  0.10029035  1.0
  H  H42  1  0.21494915  0.71425253  0.62639852  1.0
  H  H43  1  0.78727760  0.37396006  0.28582718  1.0
  C  C44  1  0.91688780  0.86894206  0.66168684  1.0
  C  C45  1  0.08433816  0.33717567  0.13081981  1.0
  C  C46  1  0.08316029  0.12851104  0.33898010  1.0
  C  C47  1  0.91763234  0.66105728  0.87077931  1.0
  C  C48  1  0.83946784  0.93593103  0.60022677  1.0
  C  C49  1  0.16161582  0.39841757  0.06361364  1.0
  C  C50  1  0.16196187  0.06066668  0.39892696  1.0
  C  C51  1  0.83919997  0.60088193  0.93846776  1.0
  C  C52  1  0.84917442  0.03703095  0.59599783  1.0
  C  C53  1  0.15107547  0.40280934  0.96261713  1.0
  C  C54  1  0.15305962  0.95953099  0.40157358  1.0
  C  C55  1  0.84776754  0.59838512  0.03968367  1.0
  C  C56  1  0.93340386  0.06627856  0.65471186  1.0
  C  C57  1  0.06597784  0.34452798  0.93375939  1.0
  C  C58  1  0.06778026  0.93118436  0.34306831  1.0
  C  C59  1  0.93233555  0.65724061  0.06821300  1.0
  C  C60  1  0.00557386  0.99430478  0.71691452  1.0
  C  C61  1  0.99396289  0.28254945  0.00592675  1.0
  C  C62  1  0.99394071  0.00404898  0.28256987  1.0
  C  C63  1  0.00588459  0.71789433  0.99548829  1.0
  C  C64  1  0.13416313  0.98427468  0.86065497  1.0
  C  C65  1  0.86499731  0.13909322  0.01627354  1.0
  C  C66  1  0.86461742  0.01564693  0.13911441  1.0
  C  C67  1  0.13474740  0.86142133  0.98411197  1.0
  C  C68  1  0.22899913  0.99789782  0.99675343  1.0
  C  C69  1  0.77053005  0.00295906  0.00246448  1.0
  C  C70  1  0.30988008  0.04984105  0.04828038  1.0
  C  C71  1  0.69011332  0.95130150  0.95026272  1.0
  C  C72  1  0.35083623  0.00831561  0.13881955  1.0
  C  C73  1  0.64937190  0.86073613  0.99170597  1.0
  C  C74  1  0.64920781  0.99328952  0.85983113  1.0
  C  C75  1  0.35106166  0.14006831  0.00614619  1.0
  C  C76  1  0.43118017  0.05623460  0.18591576  1.0
  C  C77  1  0.56949604  0.81347127  0.94355302  1.0
  C  C78  1  0.56921496  0.94553851  0.81225277  1.0
  C  C79  1  0.43139281  0.18745527  0.05379055  1.0
  C  C80  1  0.47221380  0.14590278  0.14376649  1.0
  C  C81  1  0.52862189  0.85553433  0.85375402  1.0
  C  C82  1  0.33761414  0.85025988  0.60463902  1.0
  C  C83  1  0.66324782  0.39585774  0.15038470  1.0
  C  C84  1  0.65960385  0.15080986  0.39575763  1.0
  C  C85  1  0.33883209  0.60433130  0.85066535  1.0
  C  C86  1  0.42213013  0.92761222  0.55128996  1.0
  C  C87  1  0.57759219  0.44898165  0.07347375  1.0
  C  C88  1  0.57363092  0.07412790  0.44880419  1.0
  C  C89  1  0.42465211  0.55128188  0.92751670  1.0
  C  C90  1  0.51109383  0.90949596  0.45780196  1.0
  C  C91  1  0.48896843  0.54263268  0.09157122  1.0
  C  C92  1  0.48427343  0.09240744  0.54212582  1.0
  C  C93  1  0.51335619  0.45766744  0.90936194  1.0
  C  C94  1  0.40928736  0.01974842  0.59270440  1.0
  C  C95  1  0.58918783  0.40715826  0.98170056  1.0
  C  C96  1  0.58627509  0.98205991  0.40729710  1.0
  C  C97  1  0.41307704  0.59311581  0.01924645  1.0
  N  N98  1  0.99924128  0.89641863  0.71916946  1.0
  N  N99  1  0.00120849  0.28008526  0.10370360  1.0
  N  N100  1  0.99996226  0.10187903  0.28158099  1.0
  N  N101  1  0.00016228  0.71878337  0.89759809  1.0
  N  N102  1  0.08670145  0.02776000  0.77605923  1.0
  N  N103  1  0.91212466  0.22372671  0.97281149  1.0
  N  N104  1  0.91143683  0.97160838  0.22373800  1.0
  N  N105  1  0.08789866  0.77689601  0.02813706  1.0
  N  N106  1  0.11633805  0.89000799  0.88982369  1.0
  N  N107  1  0.88297110  0.10992366  0.11055085  1.0
  N  N108  1  0.19232347  0.04067336  0.90975087  1.0
  N  N109  1  0.80693268  0.08999917  0.95980830  1.0
  N  N110  1  0.80662160  0.95970656  0.08945010  1.0
  N  N111  1  0.19286943  0.91101054  0.04004971  1.0
  O  O112  1  0.29969144  0.85545073  0.69956863  1.0
  O  O113  1  0.70061747  0.30085145  0.14549603  1.0
  O  O114  1  0.69924238  0.14483455  0.30100015  1.0
  O  O115  1  0.30079961  0.69930500  0.85561270  1.0
  O  O116  1  0.30805114  0.78849603  0.55211575  1.0
  O  O117  1  0.69423476  0.44853448  0.21137872  1.0
  O  O118  1  0.68898002  0.21251920  0.44843401  1.0
  O  O119  1  0.30838633  0.55147216  0.78957862  1.0
  O  O120  1  0.15126893  0.68384050  0.68484750  1.0
  O  O121  1  0.84990420  0.31507023  0.31655362  1.0
