# generated using pymatgen
data_ZnH12C24(NO3)2
_symmetry_space_group_name_H-M   'P 1'
_cell_length_a   13.08591710
_cell_length_b   13.13945422
_cell_length_c   22.32559313
_cell_angle_alpha   95.94268467
_cell_angle_beta   91.94054901
_cell_angle_gamma   114.44147089
_symmetry_Int_Tables_number   1
_chemical_formula_structural   ZnH12C24(NO3)2
_chemical_formula_sum   'Zn4 H48 C96 N8 O24'
_cell_volume   3463.42206374
_cell_formula_units_Z   4
loop_
 _symmetry_equiv_pos_site_id
 _symmetry_equiv_pos_as_xyz
  1  'x, y, z'
loop_
 _atom_site_type_symbol
 _atom_site_label
 _atom_site_symmetry_multiplicity
 _atom_site_fract_x
 _atom_site_fract_y
 _atom_site_fract_z
 _atom_site_occupancy
  Zn  Zn0  1  0.86014307  0.76097069  0.29751775  1.0
  Zn  Zn1  1  0.85300789  0.71454594  0.16909202  1.0
  Zn  Zn2  1  0.13985289  0.23902674  0.70248139  1.0
  Zn  Zn3  1  0.14698372  0.28544639  0.83090762  1.0
  H  H4  1  0.70450152  0.63078613  0.38070745  1.0
  H  H5  1  0.69855606  0.62083609  0.49286798  1.0
  H  H6  1  0.02436037  0.90485287  0.51767360  1.0
  H  H7  1  0.01743798  0.90292991  0.40542729  1.0
  H  H8  1  0.84256683  0.00500001  0.69722781  1.0
  H  H9  1  0.84473246  0.00126478  0.80947998  1.0
  H  H10  1  0.87359854  0.49762094  0.77174999  1.0
  H  H11  1  0.87522209  0.50327208  0.65941169  1.0
  H  H12  1  0.19910328  0.80681440  0.34510306  1.0
  H  H13  1  0.38017594  0.78694480  0.35712879  1.0
  H  H14  1  0.53249734  0.74666174  0.31030175  1.0
  H  H15  1  0.50212240  0.63946461  0.11996955  1.0
  H  H16  1  0.31529605  0.64905641  0.10871127  1.0
  H  H17  1  0.16917229  0.70091379  0.15431133  1.0
  H  H18  1  0.86229599  0.09483404  0.31783736  1.0
  H  H19  1  0.84183533  0.26872062  0.35979523  1.0
  H  H20  1  0.82597044  0.44672717  0.34284493  1.0
  H  H21  1  0.84308011  0.37861378  0.15215051  1.0
  H  H22  1  0.85968087  0.20315117  0.11013239  1.0
  H  H23  1  0.87644992  0.02482330  0.12720345  1.0
  H  H24  1  0.70077498  0.58536727  0.05962493  1.0
  H  H25  1  0.69534524  0.59506966  0.94737752  1.0
  H  H26  1  0.01871412  0.88210859  0.97957714  1.0
  H  H27  1  0.01155338  0.85969298  0.08961171  1.0
  H  H28  1  0.29549565  0.36921047  0.61929167  1.0
  H  H29  1  0.30144042  0.37915883  0.50713102  1.0
  H  H30  1  0.97563876  0.09514292  0.48232461  1.0
  H  H31  1  0.98255927  0.09706502  0.59457173  1.0
  H  H32  1  0.15744025  0.99500597  0.30277296  1.0
  H  H33  1  0.15527771  0.99874879  0.19052175  1.0
  H  H34  1  0.12640119  0.50238577  0.22825247  1.0
  H  H35  1  0.12477892  0.49673213  0.34058930  1.0
  H  H36  1  0.80089107  0.19317714  0.65489883  1.0
  H  H37  1  0.61982131  0.21305013  0.64287022  1.0
  H  H38  1  0.46749785  0.25333567  0.68969648  1.0
  H  H39  1  0.49787510  0.36054036  0.88002784  1.0
  H  H40  1  0.68469649  0.35094012  0.89128730  1.0
  H  H41  1  0.83081453  0.29907429  0.84569020  1.0
  H  H42  1  0.13771632  0.90516783  0.68216103  1.0
  H  H43  1  0.15817278  0.73128035  0.64020391  1.0
  H  H44  1  0.17403349  0.55327290  0.65715407  1.0
  H  H45  1  0.15691903  0.62138202  0.84784815  1.0
  H  H46  1  0.14032117  0.79684803  0.88986653  1.0
  H  H47  1  0.12355255  0.97517507  0.87279453  1.0
  H  H48  1  0.29922732  0.41463444  0.94037504  1.0
  H  H49  1  0.30465638  0.40493791  0.05262368  1.0
  H  H50  1  0.98129126  0.11789319  0.02042558  1.0
  H  H51  1  0.98845269  0.14030295  0.91039113  1.0
  C  C52  1  0.88168251  0.94494770  0.23317457  1.0
  C  C53  1  0.06733405  0.76957349  0.24170965  1.0
  C  C54  1  0.82691224  0.53032807  0.23746989  1.0
  C  C55  1  0.64247484  0.69450708  0.22189798  1.0
  C  C56  1  0.77278364  0.68969606  0.41311671  1.0
  C  C57  1  0.76995841  0.68468606  0.47490163  1.0
  C  C58  1  0.86104914  0.76275803  0.51322546  1.0
  C  C59  1  0.95185538  0.84289319  0.48898636  1.0
  C  C60  1  0.94817956  0.84225356  0.42656901  1.0
  C  C61  1  0.85074124  0.85029710  0.61288178  1.0
  C  C62  1  0.84923437  0.84478425  0.67855772  1.0
  C  C63  1  0.84423925  0.93294949  0.71663739  1.0
  C  C64  1  0.84557285  0.93083553  0.77940691  1.0
  C  C65  1  0.85099327  0.84007253  0.80405496  1.0
  C  C66  1  0.85597247  0.84132369  0.87046553  1.0
  C  C67  1  0.86419651  0.65178338  0.85573601  1.0
  C  C68  1  0.86145304  0.65537607  0.78989437  1.0
  C  C69  1  0.86779680  0.56760592  0.75195946  1.0
  C  C70  1  0.86844226  0.57068476  0.68941102  1.0
  C  C71  1  0.86203249  0.66111854  0.66477582  1.0
  C  C72  1  0.86568688  0.66383953  0.59890072  1.0
  C  C73  1  0.85459057  0.75107741  0.70245099  1.0
  C  C74  1  0.85451985  0.74828386  0.76607124  1.0
  C  C75  1  0.17577781  0.75724638  0.24838655  1.0
  C  C76  1  0.23460580  0.77997149  0.30636664  1.0
  C  C77  1  0.33403920  0.76832663  0.31276822  1.0
  C  C78  1  0.37931125  0.73287339  0.26187433  1.0
  C  C79  1  0.48349597  0.72450084  0.26665893  1.0
  C  C80  1  0.52696258  0.69218337  0.21622771  1.0
  C  C81  1  0.46519821  0.66393557  0.15880114  1.0
  C  C82  1  0.36314938  0.67048067  0.15270264  1.0
  C  C83  1  0.31837703  0.70690106  0.20348435  1.0
  C  C84  1  0.21673583  0.72032218  0.19822465  1.0
  C  C85  1  0.87184115  0.05174027  0.22394849  1.0
  C  C86  1  0.86193521  0.11995940  0.27277585  1.0
  C  C87  1  0.85063718  0.22027662  0.26486321  1.0
  C  C88  1  0.84102683  0.29213944  0.31432075  1.0
  C  C89  1  0.83204226  0.39018902  0.30526269  1.0
  C  C90  1  0.83211226  0.42092690  0.24610342  1.0
  C  C91  1  0.84146129  0.35257324  0.19708035  1.0
  C  C92  1  0.85046438  0.25115941  0.20496060  1.0
  C  C93  1  0.86040570  0.17925103  0.15553206  1.0
  C  C94  1  0.87016850  0.08157021  0.16466095  1.0
  C  C95  1  0.76951022  0.64856634  0.03944163  1.0
  C  C96  1  0.76647535  0.65482670  0.97775091  1.0
  C  C97  1  0.85727795  0.73891801  0.95556383  1.0
  C  C98  1  0.94714907  0.81478439  0.99534104  1.0
  C  C99  1  0.94364299  0.80253509  0.05650812  1.0
  C  C100  1  0.11831996  0.05505067  0.76682431  1.0
  C  C101  1  0.93265918  0.23041721  0.75829307  1.0
  C  C102  1  0.17308543  0.46966603  0.76252819  1.0
  C  C103  1  0.35752002  0.30548949  0.77809974  1.0
  C  C104  1  0.22721190  0.31030219  0.58688247  1.0
  C  C105  1  0.23003875  0.31531054  0.52509749  1.0
  C  C106  1  0.13894648  0.23723855  0.48677407  1.0
  C  C107  1  0.04814179  0.15710342  0.51101275  1.0
  C  C108  1  0.05181794  0.15774389  0.57343016  1.0
  C  C109  1  0.14925927  0.14970207  0.38711755  1.0
  C  C110  1  0.15077161  0.15522088  0.32144343  1.0
  C  C111  1  0.15576629  0.06705647  0.28336380  1.0
  C  C112  1  0.15443475  0.06917548  0.22059417  1.0
  C  C113  1  0.14901468  0.15993933  0.19594708  1.0
  C  C114  1  0.14403343  0.15869065  0.12953661  1.0
  C  C115  1  0.13580519  0.34823006  0.14426689  1.0
  C  C116  1  0.13855183  0.34463574  0.21010805  1.0
  C  C117  1  0.13220696  0.43240504  0.24804333  1.0
  C  C118  1  0.13155910  0.42932030  0.31059092  1.0
  C  C119  1  0.13796998  0.33888736  0.33522485  1.0
  C  C120  1  0.13430311  0.33615446  0.40109988  1.0
  C  C121  1  0.14541421  0.24892854  0.29755063  1.0
  C  C122  1  0.14548706  0.25172547  0.23393018  1.0
  C  C123  1  0.82421577  0.24274515  0.75161487  1.0
  C  C124  1  0.76538923  0.22002174  0.69363447  1.0
  C  C125  1  0.66595882  0.23166832  0.68723171  1.0
  C  C126  1  0.62068335  0.26712067  0.73812458  1.0
  C  C127  1  0.51649923  0.27549656  0.73333840  1.0
  C  C128  1  0.47303321  0.30781739  0.78376939  1.0
  C  C129  1  0.53479724  0.33606435  0.84119635  1.0
  C  C130  1  0.63684385  0.32951754  0.84729605  1.0
  C  C131  1  0.68161526  0.29309295  0.79651540  1.0
  C  C132  1  0.78325543  0.27966931  0.80177583  1.0
  C  C133  1  0.12816773  0.94826071  0.77605022  1.0
  C  C134  1  0.13807589  0.88004329  0.72722346  1.0
  C  C135  1  0.14937248  0.77972438  0.73513552  1.0
  C  C136  1  0.15898129  0.70786153  0.68567884  1.0
  C  C137  1  0.16796363  0.60981024  0.69473631  1.0
  C  C138  1  0.16788679  0.57907057  0.75389579  1.0
  C  C139  1  0.15854349  0.64742517  0.80291903  1.0
  C  C140  1  0.14954185  0.74884070  0.79503846  1.0
  C  C141  1  0.13960019  0.82074823  0.84446694  1.0
  C  C142  1  0.12983739  0.91842905  0.83533805  1.0
  C  C143  1  0.23049122  0.35143704  0.96055887  1.0
  C  C144  1  0.23352746  0.34518005  0.02225027  1.0
  C  C145  1  0.14272451  0.26108790  0.04443774  1.0
  C  C146  1  0.05285502  0.18521987  0.00466136  1.0
  C  C147  1  0.05636059  0.19746414  0.94349397  1.0
  N  N148  1  0.86013094  0.76724902  0.38958671  1.0
  N  N149  1  0.86048884  0.75974819  0.57735730  1.0
  N  N150  1  0.85729892  0.74414517  0.89170386  1.0
  N  N151  1  0.85683526  0.72048107  0.07789887  1.0
  N  N152  1  0.13986546  0.23274757  0.61041149  1.0
  N  N153  1  0.13950892  0.24025178  0.42264202  1.0
  N  N154  1  0.14270295  0.25586491  0.10829794  1.0
  N  N155  1  0.14316789  0.27951899  0.92210236  1.0
  O  O156  1  0.89016523  0.92446276  0.28727092  1.0
  O  O157  1  0.87985048  0.88181429  0.18553832  1.0
  O  O158  1  0.02623040  0.78887385  0.29043174  1.0
  O  O159  1  0.02368118  0.75914857  0.18832786  1.0
  O  O160  1  0.82321929  0.59061678  0.28505840  1.0
  O  O161  1  0.82943330  0.55581638  0.18380642  1.0
  O  O162  1  0.69286504  0.72090793  0.27482368  1.0
  O  O163  1  0.68274000  0.67358963  0.17334764  1.0
  O  O164  1  0.84332738  0.92734582  0.58869281  1.0
  O  O165  1  0.85802703  0.92021184  0.90614295  1.0
  O  O166  1  0.87273898  0.57530296  0.87964794  1.0
  O  O167  1  0.87345451  0.58988454  0.56346925  1.0
  O  O168  1  0.10983271  0.07553386  0.71272866  1.0
  O  O169  1  0.12015020  0.11818154  0.81446172  1.0
  O  O170  1  0.97376925  0.21112700  0.70957261  1.0
  O  O171  1  0.97630667  0.24083450  0.81167563  1.0
  O  O172  1  0.17678317  0.40938158  0.71493868  1.0
  O  O173  1  0.17055266  0.44417334  0.81619027  1.0
  O  O174  1  0.30712922  0.27908527  0.72517473  1.0
  O  O175  1  0.31725391  0.32641026  0.82664937  1.0
  O  O176  1  0.15667218  0.07264915  0.41130760  1.0
  O  O177  1  0.14198271  0.07981012  0.09386376  1.0
  O  O178  1  0.12726255  0.42471381  0.12035158  1.0
  O  O179  1  0.12651810  0.41009492  0.43653059  1.0
