# generated using pymatgen
data_Cu4H16C29(N2O)4
_symmetry_space_group_name_H-M   'P 1'
_cell_length_a   21.34287771
_cell_length_b   22.38638700
_cell_length_c   23.25843717
_cell_angle_alpha   89.10559433
_cell_angle_beta   89.97373789
_cell_angle_gamma   89.49690943
_symmetry_Int_Tables_number   1
_chemical_formula_structural   Cu4H16C29(N2O)4
_chemical_formula_sum   'Cu12 H48 C87 N24 O12'
_cell_volume   11110.86398357
_cell_formula_units_Z   3
loop_
 _symmetry_equiv_pos_site_id
 _symmetry_equiv_pos_as_xyz
  1  'x, y, z'
loop_
 _atom_site_type_symbol
 _atom_site_label
 _atom_site_symmetry_multiplicity
 _atom_site_fract_x
 _atom_site_fract_y
 _atom_site_fract_z
 _atom_site_occupancy
  Cu  Cu0  1  0.19248407  0.78592549  0.86251898  1.0
  Cu  Cu1  1  0.17412440  0.90831351  0.79992734  1.0
  Cu  Cu2  1  0.09881690  0.80619418  0.74919001  1.0
  Cu  Cu3  1  0.80620489  0.74301443  0.11502992  1.0
  Cu  Cu4  1  0.79971121  0.86205272  0.19729977  1.0
  Cu  Cu5  1  0.90916440  0.76981994  0.20266630  1.0
  Cu  Cu6  1  0.28538669  0.23492561  0.14924527  1.0
  Cu  Cu7  1  0.24547125  0.13706769  0.24518002  1.0
  Cu  Cu8  1  0.15095123  0.23738655  0.19449001  1.0
  Cu  Cu9  1  0.75105783  0.19816249  0.88176421  1.0
  Cu  Cu10  1  0.72913889  0.14149463  0.76856203  1.0
  Cu  Cu11  1  0.85625410  0.21375525  0.77807871  1.0
  H  H12  1  0.30352517  0.82191821  0.95483729  1.0
  H  H13  1  0.25007819  0.99218106  0.87745493  1.0
  H  H14  1  0.02741481  0.68532676  0.75430610  1.0
  H  H15  1  0.14711136  0.65963485  0.90309135  1.0
  H  H16  1  0.15148931  0.01211027  0.71003572  1.0
  H  H17  1  0.04285194  0.87214359  0.63205278  1.0
  H  H18  1  0.66614701  0.74258092  0.07320655  1.0
  H  H19  1  0.66941672  0.91386471  0.15713167  1.0
  H  H20  1  0.01554831  0.67939910  0.16748726  1.0
  H  H21  1  0.87568138  0.63936119  0.03889708  1.0
  H  H22  1  0.83903924  0.94908542  0.30383122  1.0
  H  H23  1  0.97412054  0.80388153  0.31750589  1.0
  H  H24  1  0.42513330  0.20227740  0.13171478  1.0
  H  H25  1  0.36401986  0.04845888  0.23119513  1.0
  H  H26  1  0.08368259  0.32634238  0.10279176  1.0
  H  H27  1  0.27315103  0.31860372  0.03584629  1.0
  H  H28  1  0.15661638  0.07873206  0.34325352  1.0
  H  H29  1  0.03866428  0.22301464  0.27813708  1.0
  H  H30  1  0.65259766  0.12448683  0.96451154  1.0
  H  H31  1  0.61867706  0.05174011  0.79578253  1.0
  H  H32  1  0.93969542  0.31618196  0.83552732  1.0
  H  H33  1  0.79506928  0.29317496  0.96450138  1.0
  H  H34  1  0.73814002  0.09124933  0.64834307  1.0
  H  H35  1  0.92591790  0.16168102  0.66169611  1.0
  H  H36  1  0.28524144  0.04238630  0.97751101  1.0
  H  H37  1  0.38958926  0.07135931  0.03830974  1.0
  H  H38  1  0.51856493  0.76497468  0.08829488  1.0
  H  H39  1  0.42757732  0.84401537  0.05074390  1.0
  H  H40  1  0.56089287  0.12825831  0.15596333  1.0
  H  H41  1  0.59707785  0.05123713  0.07128924  1.0
  H  H42  1  0.57826346  0.94894934  0.85287922  1.0
  H  H43  1  0.50855070  0.89350070  0.93687087  1.0
  H  H44  1  0.97634992  0.57030382  0.77972517  1.0
  H  H45  1  0.94845468  0.47685073  0.85229511  1.0
  H  H46  1  0.83869209  0.38523152  0.02239088  1.0
  H  H47  1  0.92035163  0.47373784  0.05001356  1.0
  H  H48  1  0.09384477  0.59854095  0.12051042  1.0
  H  H49  1  0.12883722  0.50831514  0.04912121  1.0
  H  H50  1  0.22195661  0.38030786  0.93292606  1.0
  H  H51  1  0.14014725  0.46126790  0.88356643  1.0
  H  H52  1  0.15264134  0.06783829  0.59955726  1.0
  H  H53  1  0.08810016  0.10753237  0.50431809  1.0
  H  H54  1  0.95736668  0.20346394  0.36294100  1.0
  H  H55  1  0.89908069  0.13903616  0.44816224  1.0
  H  H56  1  0.76346629  0.04300104  0.55051220  1.0
  H  H57  1  0.83856549  0.99199995  0.46899707  1.0
  H  H58  1  0.98068576  0.82465427  0.43006755  1.0
  H  H59  1  0.01792797  0.90339083  0.51171906  1.0
  C  C60  1  0.28363765  0.85862048  0.92969903  1.0
  C  C61  1  0.29469793  0.92030444  0.93289762  1.0
  C  C62  1  0.25552648  0.94569116  0.89050746  1.0
  C  C63  1  0.06191111  0.68801986  0.78840294  1.0
  C  C64  1  0.07448465  0.64791453  0.83407495  1.0
  C  C65  1  0.12312914  0.67505395  0.86446016  1.0
  C  C66  1  0.12789855  0.97128898  0.69849181  1.0
  C  C67  1  0.09093765  0.95928706  0.65024822  1.0
  C  C68  1  0.07196948  0.89976402  0.65884430  1.0
  C  C69  1  0.67706793  0.78218239  0.09747083  1.0
  C  C70  1  0.63980216  0.83267121  0.10840069  1.0
  C  C71  1  0.67923435  0.87009740  0.13972653  1.0
  C  C72  1  0.97458100  0.67674509  0.14011254  1.0
  C  C73  1  0.96381065  0.64058884  0.09238713  1.0
  C  C74  1  0.90288024  0.65627440  0.07440493  1.0
  C  C75  1  0.86814528  0.90954981  0.29871740  1.0
  C  C76  1  0.91662897  0.88674250  0.33387803  1.0
  C  C77  1  0.93670399  0.83485506  0.30584514  1.0
  C  C78  1  0.40117993  0.17050030  0.15957441  1.0
  C  C79  1  0.41995689  0.11259051  0.17630806  1.0
  C  C80  1  0.36976397  0.09145539  0.20977391  1.0
  C  C81  1  0.13295985  0.31806481  0.09445033  1.0
  C  C82  1  0.17011790  0.33838252  0.04833588  1.0
  C  C83  1  0.22980685  0.31405370  0.05985016  1.0
  C  C84  1  0.13561292  0.11656510  0.32056795  1.0
  C  C85  1  0.07700437  0.14422237  0.32893423  1.0
  C  C86  1  0.07538438  0.19049200  0.28745809  1.0
  C  C87  1  0.65122127  0.11385110  0.91919929  1.0
  C  C88  1  0.61749638  0.06933794  0.89098603  1.0
  C  C89  1  0.63409796  0.07643161  0.83287429  1.0
  C  C90  1  0.89984046  0.30291549  0.86155673  1.0
  C  C91  1  0.87928857  0.32515393  0.91462423  1.0
  C  C92  1  0.82595706  0.29124350  0.92749423  1.0
  C  C93  1  0.78106441  0.11369806  0.65987850  1.0
  C  C94  1  0.83931988  0.11380676  0.63194385  1.0
  C  C95  1  0.87719313  0.14935177  0.66700829  1.0
  C  C96  1  0.97398435  0.02975784  0.48274684  1.0
  C  C97  1  0.48571326  0.97093398  0.03769552  1.0
  C  C98  1  0.02691615  0.48170472  0.96249117  1.0
  C  C99  1  0.33346663  0.95608180  0.96928143  1.0
  C  C100  1  0.32583581  0.01418354  0.98619644  1.0
  C  C101  1  0.37997550  0.02905648  0.01839209  1.0
  C  C102  1  0.41768162  0.97919558  0.02005288  1.0
  C  C103  1  0.57637046  0.84552180  0.09027372  1.0
  C  C104  1  0.52320455  0.81277013  0.08136502  1.0
  C  C105  1  0.47534861  0.85402173  0.06270811  1.0
  C  C106  1  0.50199335  0.90938714  0.06150588  1.0
  C  C107  1  0.47191208  0.08046916  0.15018170  1.0
  C  C108  1  0.53316729  0.09314368  0.13720557  1.0
  C  C109  1  0.55209916  0.05306756  0.09283953  1.0
  C  C110  1  0.50136492  0.01825672  0.08116485  1.0
  C  C111  1  0.57885845  0.02250828  0.91417514  1.0
  C  C112  1  0.56380497  0.96711097  0.89383878  1.0
  C  C113  1  0.52837718  0.93788573  0.93767235  1.0
  C  C114  1  0.52345414  0.97700482  0.98218422  1.0
  C  C115  1  0.04282971  0.59302999  0.84794460  1.0
  C  C116  1  0.99724284  0.56037594  0.82135120  1.0
  C  C117  1  0.98252518  0.51160084  0.85916867  1.0
  C  C118  1  0.01998185  0.51687652  0.90652879  1.0
  C  C119  1  0.90303420  0.37225507  0.94975634  1.0
  C  C120  1  0.88091764  0.39769998  0.99931973  1.0
  C  C121  1  0.92348628  0.44388617  0.01389191  1.0
  C  C122  1  0.96909138  0.44431693  0.97259489  1.0
  C  C123  1  0.00708682  0.59735580  0.06972085  1.0
  C  C124  1  0.06660653  0.58001246  0.08578050  1.0
  C  C125  1  0.08488679  0.53289573  0.04861050  1.0
  C  C126  1  0.03582472  0.52401324  0.01199714  1.0
  C  C127  1  0.15098051  0.37710201  0.00137937  1.0
  C  C128  1  0.17731810  0.39526961  0.95008248  1.0
  C  C129  1  0.13450776  0.43712925  0.92399299  1.0
  C  C130  1  0.08465944  0.44199859  0.96057193  1.0
  C  C131  1  0.07911735  0.99992441  0.60278631  1.0
  C  C132  1  0.11008749  0.04930372  0.58193994  1.0
  C  C133  1  0.07680245  0.06974656  0.53199290  1.0
  C  C134  1  0.02765632  0.03180214  0.52507228  1.0
  C  C135  1  0.02795087  0.13168223  0.36977397  1.0
  C  C136  1  0.97349124  0.16191203  0.38270892  1.0
  C  C137  1  0.94312834  0.12856128  0.42720617  1.0
  C  C138  1  0.98052389  0.08005193  0.43911965  1.0
  C  C139  1  0.85210423  0.08111925  0.58029926  1.0
  C  C140  1  0.81372312  0.04795040  0.54577308  1.0
  C  C141  1  0.85270706  0.02103060  0.50346874  1.0
  C  C142  1  0.91244014  0.03948817  0.51408326  1.0
  C  C143  1  0.94236090  0.90535230  0.38797424  1.0
  C  C144  1  0.97347536  0.87268867  0.42972068  1.0
  C  C145  1  0.99293485  0.91358114  0.47226585  1.0
  C  C146  1  0.97245471  0.96900403  0.45464874  1.0
  N  N147  1  0.22349505  0.90253185  0.86428877  1.0
  N  N148  1  0.24063875  0.84845419  0.88831780  1.0
  N  N149  1  0.13820115  0.72747229  0.83874972  1.0
  N  N150  1  0.10010614  0.73559846  0.79157196  1.0
  N  N151  1  0.09641213  0.87808099  0.70860501  1.0
  N  N152  1  0.13085045  0.92251689  0.73295456  1.0
  N  N153  1  0.73566438  0.84357171  0.14725637  1.0
  N  N154  1  0.73441002  0.78904046  0.12083213  1.0
  N  N155  1  0.87936477  0.69873791  0.10920768  1.0
  N  N156  1  0.92388352  0.71129881  0.14970142  1.0
  N  N157  1  0.90265280  0.82721059  0.25798741  1.0
  N  N158  1  0.86006533  0.87335617  0.25328247  1.0
  N  N159  1  0.32449032  0.13378390  0.21252522  1.0
  N  N160  1  0.34395238  0.18290992  0.18113068  1.0
  N  N161  1  0.22809206  0.28176340  0.10927453  1.0
  N  N162  1  0.16813840  0.28411799  0.13055271  1.0
  N  N163  1  0.12889064  0.19037712  0.25682782  1.0
  N  N164  1  0.16642751  0.14461472  0.27721682  1.0
  N  N165  1  0.67502451  0.12153815  0.82709397  1.0
  N  N166  1  0.68580555  0.14471093  0.88040823  1.0
  N  N167  1  0.81551396  0.25200120  0.88539621  1.0
  N  N168  1  0.86122395  0.25898788  0.84427021  1.0
  N  N169  1  0.84351378  0.16857456  0.71263221  1.0
  N  N170  1  0.78397395  0.14635049  0.70782486  1.0
  O  O171  1  0.38982008  0.93391252  0.98997778  1.0
  O  O172  1  0.56350691  0.90487754  0.07860032  1.0
  O  O173  1  0.45305581  0.03302592  0.11725185  1.0
  O  O174  1  0.55375421  0.02919240  0.96851520  1.0
  O  O175  1  0.05740274  0.56633189  0.90019121  1.0
  O  O176  1  0.95749826  0.40038152  0.93307964  1.0
  O  O177  1  0.98786736  0.56350952  0.02401994  1.0
  O  O178  1  0.09370403  0.40522816  0.00781083  1.0
  O  O179  1  0.02807614  0.98909566  0.56834273  1.0
  O  O180  1  0.03280758  0.08110255  0.40426433  1.0
  O  O181  1  0.91290856  0.07660065  0.56077865  1.0
  O  O182  1  0.94093745  0.96482300  0.40303809  1.0
