# generated using pymatgen
data_Zn3H8C35Br4(ClO2)6
_symmetry_space_group_name_H-M   'P 1'
_cell_length_a   17.72438492
_cell_length_b   18.86999517
_cell_length_c   18.54469845
_cell_angle_alpha   109.79995830
_cell_angle_beta   107.28771801
_cell_angle_gamma   108.89711529
_symmetry_Int_Tables_number   1
_chemical_formula_structural   Zn3H8C35Br4(ClO2)6
_chemical_formula_sum   'Zn6 H16 C70 Br8 Cl12 O24'
_cell_volume   4910.72145939
_cell_formula_units_Z   2
loop_
 _symmetry_equiv_pos_site_id
 _symmetry_equiv_pos_as_xyz
  1  'x, y, z'
loop_
 _atom_site_type_symbol
 _atom_site_label
 _atom_site_symmetry_multiplicity
 _atom_site_fract_x
 _atom_site_fract_y
 _atom_site_fract_z
 _atom_site_occupancy
  Zn  Zn0  1  0.05895733  0.55727514  0.99038759  1.0
  Zn  Zn1  1  0.92732202  0.43887287  0.99626137  1.0
  Zn  Zn2  1  0.95909716  0.00226750  0.45142056  1.0
  Zn  Zn3  1  0.07819382  0.99930275  0.58241282  1.0
  Zn  Zn4  1  0.47769758  0.56002142  0.55568836  1.0
  Zn  Zn5  1  0.50429618  0.44987494  0.44122158  1.0
  H  H6  1  0.12360081  0.20027923  0.15294613  1.0
  H  H7  1  0.33037119  0.63177640  0.39007852  1.0
  H  H8  1  0.94596797  0.20880337  0.84008463  1.0
  H  H9  1  0.92069098  0.41472910  0.75575177  1.0
  H  H10  1  0.93419450  0.44861977  0.64119808  1.0
  H  H11  1  0.99371231  0.37652842  0.55041965  1.0
  H  H12  1  0.95807250  0.61162979  0.27617016  1.0
  H  H13  1  0.97154109  0.70198677  0.94507364  1.0
  H  H14  1  0.72257014  0.70648406  0.73641284  1.0
  H  H15  1  0.90669052  0.75137215  0.55339039  1.0
  H  H16  1  0.82110909  0.97011148  0.56645408  1.0
  H  H17  1  0.67838150  0.97519472  0.52482225  1.0
  H  H18  1  0.53340093  0.83874872  0.44140938  1.0
  H  H19  1  0.76552912  0.62462566  0.51148324  1.0
  H  H20  1  0.22528712  0.25611740  0.60620146  1.0
  H  H21  1  0.32411076  0.98264914  0.35523476  1.0
  C  C22  1  0.13126826  0.50653451  0.09970499  1.0
  C  C23  1  0.98942968  0.79836019  0.23050569  1.0
  C  C24  1  0.90963525  0.70505243  0.17056078  1.0
  C  C25  1  0.97785495  0.66758608  0.18372338  1.0
  C  C26  1  0.15301574  0.34981745  0.08540750  1.0
  C  C27  1  0.13335590  0.27099938  0.08225348  1.0
  C  C28  1  0.14780933  0.26330028  0.15759408  1.0
  C  C29  1  0.19197848  0.33624234  0.23626408  1.0
  C  C30  1  0.22312131  0.41916451  0.24354081  1.0
  C  C31  1  0.19085997  0.42498271  0.16619982  1.0
  C  C32  1  0.19516963  0.50480879  0.17334110  1.0
  C  C33  1  0.97617804  0.59655076  0.11489251  1.0
  C  C34  1  0.24012499  0.57554319  0.25450787  1.0
  C  C35  1  0.28738481  0.57307987  0.32888637  1.0
  C  C36  1  0.28111476  0.49672356  0.32376333  1.0
  C  C37  1  0.93995966  0.37917534  0.71164522  1.0
  C  C38  1  0.94833414  0.39867446  0.64846796  1.0
  C  C39  1  0.97974450  0.35670603  0.59578918  1.0
  C  C40  1  0.99620563  0.29199108  0.60286486  1.0
  C  C41  1  0.97745918  0.26157672  0.65993179  1.0
  C  C42  1  0.95544407  0.31255945  0.71987207  1.0
  C  C43  1  0.94839194  0.29414243  0.78721114  1.0
  C  C44  1  0.90243629  0.53759841  0.89081632  1.0
  C  C45  1  0.95155646  0.22287899  0.78904549  1.0
  C  C46  1  0.96630634  0.16949734  0.72658812  1.0
  C  C47  1  0.98055589  0.18746537  0.66333815  1.0
  C  C48  1  0.91625995  0.70134010  0.89886692  1.0
  C  C49  1  0.92449772  0.77786368  0.90235431  1.0
  C  C50  1  0.85429662  0.77932910  0.84160638  1.0
  C  C51  1  0.77669785  0.70424195  0.78105865  1.0
  C  C52  1  0.76584953  0.62507320  0.77745313  1.0
  C  C53  1  0.83823200  0.62281740  0.83601087  1.0
  C  C54  1  0.82893598  0.54230229  0.82971607  1.0
  C  C55  1  0.95212575  0.35902838  0.86417950  1.0
  C  C56  1  0.74846855  0.46784648  0.76947914  1.0
  C  C57  1  0.67542719  0.47146119  0.71575021  1.0
  C  C58  1  0.68470778  0.54775278  0.71693646  1.0
  C  C59  1  0.92283857  0.89758312  0.55485885  1.0
  C  C60  1  0.98533509  0.87035726  0.38132477  1.0
  C  C61  1  0.16853161  0.09347802  0.52779132  1.0
  C  C62  1  0.99202819  0.12379782  0.59824778  1.0
  C  C63  1  0.39659531  0.35814442  0.48142450  1.0
  C  C64  1  0.35243100  0.50234256  0.39733449  1.0
  C  C65  1  0.60635246  0.60969129  0.47808576  1.0
  C  C66  1  0.96730664  0.66562290  0.26377439  1.0
  C  C67  1  0.61252394  0.54540481  0.64665247  1.0
  C  C68  1  0.75862147  0.91199204  0.53719873  1.0
  C  C69  1  0.67868895  0.91462037  0.51288675  1.0
  C  C70  1  0.59693157  0.83847644  0.46800401  1.0
  C  C71  1  0.59710085  0.76198561  0.45464296  1.0
  C  C72  1  0.67820606  0.75789583  0.48915176  1.0
  C  C73  1  0.76047245  0.83408241  0.52399943  1.0
  C  C74  1  0.84252361  0.82871595  0.54426090  1.0
  C  C75  1  0.84385324  0.75431262  0.53880421  1.0
  C  C76  1  0.76407353  0.68225242  0.51252221  1.0
  C  C77  1  0.90059898  0.70308720  0.25204558  1.0
  C  C78  1  0.68276037  0.68330773  0.48844657  1.0
  C  C79  1  0.28344898  0.05938100  0.43323924  1.0
  C  C80  1  0.31579158  0.03967210  0.37443486  1.0
  C  C81  1  0.32994041  0.08966439  0.33359000  1.0
  C  C82  1  0.32316689  0.16488497  0.35947530  1.0
  C  C83  1  0.31322212  0.19801234  0.43656088  1.0
  C  C84  1  0.27824397  0.13698398  0.46418195  1.0
  C  C85  1  0.24004015  0.15772375  0.52102373  1.0
  C  C86  1  0.25408232  0.23993834  0.56265013  1.0
  C  C87  1  0.30597825  0.30491765  0.55049652  1.0
  C  C88  1  0.98163131  0.79733680  0.31274627  1.0
  C  C89  1  0.33470896  0.28620142  0.48663361  1.0
  C  C90  1  0.04747330  0.75782846  0.32356551  1.0
  C  C91  1  0.05705549  0.76158047  0.24270850  1.0
  Br  Br92  1  0.19543820  0.32392892  0.33452905  1.0
  Br  Br93  1  0.05606913  0.25569182  0.53939425  1.0
  Br  Br94  1  0.73488787  0.35806407  0.75052411  1.0
  Br  Br95  1  0.56291001  0.37169425  0.64292683  1.0
  Br  Br96  1  0.16506669  0.81216533  0.23697061  1.0
  Br  Br97  1  0.81471778  0.66746414  0.06311232  1.0
  Br  Br98  1  0.23700111  0.67940012  0.27209279  1.0
  Br  Br99  1  0.08234560  0.16996193  0.97678581  1.0
  Cl  Cl100  1  0.80139930  0.66708388  0.25849114  1.0
  Cl  Cl101  1  0.96466338  0.07967605  0.73323106  1.0
  Cl  Cl102  1  0.02033600  0.87125318  0.98074493  1.0
  Cl  Cl103  1  0.86501143  0.87400922  0.84350926  1.0
  Cl  Cl104  1  0.49601778  0.66939655  0.38576565  1.0
  Cl  Cl105  1  0.13380013  0.78362484  0.41778205  1.0
  Cl  Cl106  1  0.25241129  0.98746187  0.46962426  1.0
  Cl  Cl107  1  0.35028251  0.05112986  0.24700316  1.0
  Cl  Cl108  1  0.31287692  0.20581557  0.28934963  1.0
  Cl  Cl109  1  0.32818183  0.40502755  0.62103955  1.0
  Cl  Cl110  1  0.00393533  0.88191215  0.20859180  1.0
  Cl  Cl111  1  0.13765717  0.35822983  0.99329331  1.0
  O  O112  1  0.16037307  0.55651630  0.07067683  1.0
  O  O113  1  0.00278583  0.91982227  0.60848673  1.0
  O  O114  1  0.93435720  0.90064073  0.35402345  1.0
  O  O115  1  0.03845046  0.89725174  0.45863309  1.0
  O  O116  1  0.09008263  0.06691044  0.47114425  1.0
  O  O117  1  0.18837710  0.07668142  0.58999762  1.0
  O  O118  1  0.93375800  0.08735647  0.51865676  1.0
  O  O119  1  0.05457355  0.10675725  0.62568395  1.0
  O  O120  1  0.40136815  0.43092015  0.51701899  1.0
  O  O121  1  0.44514836  0.34478719  0.44396541  1.0
  O  O122  1  0.37341045  0.55479947  0.47456560  1.0
  O  O123  1  0.04936584  0.45976657  0.07669647  1.0
  O  O124  1  0.39306519  0.46076100  0.37616275  1.0
  O  O125  1  0.57030355  0.62840236  0.52656377  1.0
  O  O126  1  0.58837829  0.53370298  0.42727060  1.0
  O  O127  1  0.56707801  0.58329517  0.66572251  1.0
  O  O128  1  0.60361927  0.50590420  0.57200432  1.0
  O  O129  1  0.02914652  0.61873503  0.08425220  1.0
  O  O130  1  0.92183047  0.52000525  0.09292652  1.0
  O  O131  1  0.98414438  0.57961434  0.90631541  1.0
  O  O132  1  0.87827785  0.49165672  0.92421592  1.0
  O  O133  1  0.01158900  0.43529436  0.89496015  1.0
  O  O134  1  0.90018571  0.33511871  0.89658481  1.0
  O  O135  1  0.90745226  0.92898779  0.50495762  1.0
