# generated using pymatgen
data_AlH9C15N2O5F
_symmetry_space_group_name_H-M   'P 1'
_cell_length_a   6.64120843
_cell_length_b   16.95405366
_cell_length_c   17.69666062
_cell_angle_alpha   87.36513700
_cell_angle_beta   80.98582311
_cell_angle_gamma   82.54148183
_symmetry_Int_Tables_number   1
_chemical_formula_structural   AlH9C15N2O5F
_chemical_formula_sum   'Al2 H18 C30 N4 O10 F2'
_cell_volume   1950.63451550
_cell_formula_units_Z   2
loop_
 _symmetry_equiv_pos_site_id
 _symmetry_equiv_pos_as_xyz
  1  'x, y, z'
loop_
 _atom_site_type_symbol
 _atom_site_label
 _atom_site_symmetry_multiplicity
 _atom_site_fract_x
 _atom_site_fract_y
 _atom_site_fract_z
 _atom_site_occupancy
  Al  Al0  1  0.49820348  0.49996601  0.49830789  1.0
  Al  Al1  1  0.99897851  0.49948885  0.49564733  1.0
  H  H2  1  0.76994757  0.54469941  0.40523059  1.0
  H  H3  1  0.21379903  0.46611530  0.59146076  1.0
  H  H4  1  0.14213008  0.26313666  0.45741100  1.0
  H  H5  1  0.20837952  0.11365120  0.45600367  1.0
  H  H6  1  0.56482864  0.10371869  0.53364573  1.0
  H  H7  1  0.39764683  0.89392160  0.53380193  1.0
  H  H8  1  0.81450540  0.88953077  0.45813437  1.0
  H  H9  1  0.88186647  0.74000810  0.45589612  1.0
  H  H10  1  0.68191284  0.44566227  0.27252538  1.0
  H  H11  1  0.76754911  0.44911394  0.13037822  1.0
  H  H12  1  0.12572767  0.52341453  0.11612206  1.0
  H  H13  1  0.90046928  0.47511569  0.87435767  1.0
  H  H14  1  0.32737359  0.55469261  0.72616719  1.0
  H  H15  1  0.25502918  0.55098261  0.86863502  1.0
  H  H16  1  0.42281318  0.31843167  0.53787435  1.0
  H  H17  1  0.33929067  0.22408559  0.55215896  1.0
  H  H18  1  0.54522433  0.67995984  0.52590684  1.0
  H  H19  1  0.61090473  0.77122453  0.54872120  1.0
  C  C20  1  0.31907652  0.48315426  0.36006631  1.0
  C  C21  1  0.19662222  0.64482742  0.49265545  1.0
  C  C22  1  0.68256229  0.51653004  0.63445482  1.0
  C  C23  1  0.80018716  0.35541506  0.50136605  1.0
  C  C24  1  0.82092403  0.26807208  0.49926120  1.0
  C  C25  1  0.01834791  0.22692087  0.47575241  1.0
  C  C26  1  0.05620403  0.14500117  0.47483776  1.0
  C  C27  1  0.88813878  0.10130332  0.49755906  1.0
  C  C28  1  0.69036692  0.13989118  0.51808522  1.0
  C  C29  1  0.65023072  0.22391351  0.52034901  1.0
  C  C30  1  0.28478075  0.85884027  0.51782222  1.0
  C  C31  1  0.10257719  0.89885795  0.49836212  1.0
  C  C32  1  0.95242388  0.85682529  0.47575353  1.0
  C  C33  1  0.99090045  0.77484386  0.47460534  1.0
  C  C34  1  0.17216434  0.73242593  0.49522153  1.0
  C  C35  1  0.32504495  0.77486968  0.51720595  1.0
  C  C36  1  0.35929738  0.48089335  0.27487519  1.0
  C  C37  1  0.56166689  0.46163553  0.23719429  1.0
  C  C38  1  0.60954998  0.46401469  0.15809078  1.0
  C  C39  1  0.45361041  0.48733888  0.11278755  1.0
  C  C40  1  0.24952836  0.50516596  0.14925373  1.0
  C  C41  1  0.20610035  0.50123661  0.22836838  1.0
  C  C42  1  0.49833415  0.49494739  0.03219465  1.0
  C  C43  1  0.53196061  0.50395474  0.96271247  1.0
  C  C44  1  0.57146954  0.51179559  0.88203731  1.0
  C  C45  1  0.77292373  0.49378782  0.84311516  1.0
  C  C46  1  0.80882603  0.49789676  0.76387449  1.0
  C  C47  1  0.65074764  0.51857194  0.71959551  1.0
  C  C48  1  0.45127219  0.53819186  0.75970909  1.0
  C  C49  1  0.41084451  0.53570442  0.83895193  1.0
  N  N50  1  0.90449925  0.01727622  0.49919565  1.0
  N  N51  1  0.08507121  0.98286962  0.50041515  1.0
  N  N52  1  0.45512697  0.25834840  0.54350237  1.0
  N  N53  1  0.50150981  0.73785052  0.53969496  1.0
  O  O54  1  0.47544646  0.47594992  0.39460532  1.0
  O  O55  1  0.03502864  0.61054420  0.49681311  1.0
  O  O56  1  0.86612424  0.50558907  0.59979933  1.0
  O  O57  1  0.61761529  0.39331982  0.51465809  1.0
  O  O58  1  0.52200892  0.52441956  0.60225502  1.0
  O  O59  1  0.96354688  0.38937233  0.49138117  1.0
  O  O60  1  0.13327928  0.49369708  0.39234921  1.0
  O  O61  1  0.38024499  0.60798645  0.48538370  1.0
  O  O62  1  0.75209763  0.53229820  0.45971698  1.0
  O  O63  1  0.24238760  0.46805859  0.53589377  1.0
  F  F64  1  0.00585259  0.52044247  0.25920310  1.0
  F  F65  1  0.00724763  0.47862885  0.73059323  1.0
