# generated using pymatgen
data_Zn4H26C36N8O13
_symmetry_space_group_name_H-M   'P 1'
_cell_length_a   15.17558085
_cell_length_b   20.15646202
_cell_length_c   22.54704008
_cell_angle_alpha   91.10847573
_cell_angle_beta   91.42044844
_cell_angle_gamma   91.35100049
_symmetry_Int_Tables_number   1
_chemical_formula_structural   Zn4H26C36N8O13
_chemical_formula_sum   'Zn8 H52 C72 N16 O26'
_cell_volume   6891.41774530
_cell_formula_units_Z   2
loop_
 _symmetry_equiv_pos_site_id
 _symmetry_equiv_pos_as_xyz
  1  'x, y, z'
loop_
 _atom_site_type_symbol
 _atom_site_label
 _atom_site_symmetry_multiplicity
 _atom_site_fract_x
 _atom_site_fract_y
 _atom_site_fract_z
 _atom_site_occupancy
  Zn  Zn0  1  0.57439269  0.58020755  0.99083948  1.0
  Zn  Zn1  1  0.56934681  0.07981506  0.49028545  1.0
  Zn  Zn2  1  0.58388644  0.42001081  0.00378589  1.0
  Zn  Zn3  1  0.58061710  0.91935417  0.50423715  1.0
  Zn  Zn4  1  0.42541826  0.49412292  0.93356072  1.0
  Zn  Zn5  1  0.43744320  0.49594450  0.07264104  1.0
  Zn  Zn6  1  0.42059953  0.99295659  0.43447993  1.0
  Zn  Zn7  1  0.43304847  0.99405713  0.57270225  1.0
  H  H8  1  0.99981781  0.61863551  0.94039011  1.0
  H  H9  1  0.99624179  0.11850619  0.43896917  1.0
  H  H10  1  0.17132822  0.38782655  0.05166108  1.0
  H  H11  1  0.16561919  0.89313614  0.56013964  1.0
  H  H12  1  0.47042053  0.35047169  0.66130071  1.0
  H  H13  1  0.30598515  0.24182800  0.24794159  1.0
  H  H14  1  0.47520817  0.85297979  0.16151631  1.0
  H  H15  1  0.30898104  0.75192621  0.75759277  1.0
  H  H16  1  0.51649919  0.61972976  0.21867873  1.0
  H  H17  1  0.60258780  0.68160715  0.82827631  1.0
  H  H18  1  0.51925576  0.11861873  0.71976935  1.0
  H  H19  1  0.59854639  0.17714348  0.32576813  1.0
  H  H20  1  0.85783039  0.42155627  0.03035830  1.0
  H  H21  1  0.85251056  0.92201313  0.52832772  1.0
  H  H22  1  0.83829319  0.61052278  0.94851083  1.0
  H  H23  1  0.83477818  0.11156946  0.44731036  1.0
  H  H24  1  0.42114406  0.40245327  0.72583442  1.0
  H  H25  1  0.44750277  0.43236899  0.79645961  1.0
  H  H26  1  0.31309996  0.32971470  0.21124370  1.0
  H  H27  1  0.35898595  0.36946400  0.15250110  1.0
  H  H28  1  0.44173419  0.93099278  0.29774711  1.0
  H  H29  1  0.41941986  0.90196745  0.22634761  1.0
  H  H30  1  0.30632604  0.80403347  0.68967828  1.0
  H  H31  1  0.35759004  0.86218624  0.64495056  1.0
  H  H32  1  0.13093086  0.63065193  0.96373321  1.0
  H  H33  1  0.22500553  0.58926712  0.95837585  1.0
  H  H34  1  0.12795389  0.12835127  0.45687013  1.0
  H  H35  1  0.22097916  0.08465727  0.45196856  1.0
  H  H36  1  0.55056810  0.25004566  0.90124328  1.0
  H  H37  1  0.65694430  0.31445712  0.15629405  1.0
  H  H38  1  0.55391992  0.74970437  0.40048409  1.0
  H  H39  1  0.66098766  0.82551611  0.66416141  1.0
  H  H40  1  0.57819439  0.63811093  0.37094918  1.0
  H  H41  1  0.58818886  0.61549789  0.29973811  1.0
  H  H42  1  0.74701184  0.77435995  0.73937781  1.0
  H  H43  1  0.70371585  0.74163529  0.79993210  1.0
  H  H44  1  0.55172498  0.13534234  0.87569034  1.0
  H  H45  1  0.51690095  0.10439762  0.80970004  1.0
  H  H46  1  0.70154607  0.22730958  0.29068382  1.0
  H  H47  1  0.74382519  0.26150428  0.23027997  1.0
  H  H48  1  0.48768115  0.81883468  0.06171296  1.0
  H  H49  1  0.50530778  0.73721157  0.04146453  1.0
  H  H50  1  0.24580368  0.67205851  0.81841153  1.0
  H  H51  1  0.30870924  0.62190077  0.86244405  1.0
  H  H52  1  0.47723211  0.31512530  0.56205218  1.0
  H  H53  1  0.49642138  0.23376565  0.54213496  1.0
  H  H54  1  0.24245807  0.16290720  0.31012708  1.0
  H  H55  1  0.30522343  0.11471486  0.35622290  1.0
  H  H56  1  0.04155991  0.32251608  0.06399033  1.0
  H  H57  1  0.94127905  0.34457928  0.04006505  1.0
  H  H58  1  0.03464693  0.83746184  0.58904578  1.0
  H  H59  1  0.93422125  0.87046518  0.58204038  1.0
  C  C60  1  0.51543989  0.37181675  0.11498271  1.0
  C  C61  1  0.50851507  0.37418378  0.88747500  1.0
  C  C62  1  0.51704356  0.87265153  0.61567251  1.0
  C  C63  1  0.50348779  0.87242049  0.38866689  1.0
  C  C64  1  0.51218171  0.72095010  0.25242827  1.0
  C  C65  1  0.53529443  0.74274299  0.76403545  1.0
  C  C66  1  0.50868186  0.21963966  0.75341269  1.0
  C  C67  1  0.53211727  0.23621042  0.25940830  1.0
  C  C68  1  0.49022647  0.28606373  0.73602239  1.0
  C  C69  1  0.44682424  0.25719886  0.23949466  1.0
  C  C70  1  0.49321130  0.78744692  0.23566723  1.0
  C  C71  1  0.44977117  0.76290893  0.74385031  1.0
  C  C72  1  0.48480044  0.33831836  0.78034547  1.0
  C  C73  1  0.43947636  0.30535639  0.19326626  1.0
  C  C74  1  0.48404416  0.83840274  0.28079702  1.0
  C  C75  1  0.44188618  0.80918681  0.69594105  1.0
  C  C76  1  0.53252165  0.25819939  0.85492178  1.0
  C  C77  1  0.59979532  0.29846791  0.18116608  1.0
  C  C78  1  0.53456271  0.75806765  0.35442436  1.0
  C  C79  1  0.60349885  0.80764102  0.68773154  1.0
  C  C80  1  0.52935890  0.20608018  0.81457429  1.0
  C  C81  1  0.60980075  0.25801016  0.22926585  1.0
  C  C82  1  0.53429232  0.70682448  0.31323003  1.0
  C  C83  1  0.61328433  0.76726371  0.73581292  1.0
  C  C84  1  0.83951870  0.51467538  0.99005133  1.0
  C  C85  1  0.83509138  0.01585922  0.48916040  1.0
  C  C86  1  0.16882626  0.48172082  0.00758043  1.0
  C  C87  1  0.16417398  0.98224848  0.50896774  1.0
  C  C88  1  0.03812771  0.41660682  0.03331345  1.0
  C  C89  1  0.03270054  0.92062515  0.53904883  1.0
  C  C90  1  0.12884177  0.42545566  0.03285110  1.0
  C  C91  1  0.12339043  0.92890822  0.53832591  1.0
  C  C92  1  0.11928475  0.53183031  0.98230453  1.0
  C  C93  1  0.11501642  0.03112673  0.48117996  1.0
  C  C94  1  0.47772683  0.62301230  0.88522743  1.0
  C  C95  1  0.50204131  0.63012751  0.10408749  1.0
  C  C96  1  0.47303173  0.12088605  0.38357939  1.0
  C  C97  1  0.49807938  0.12755628  0.60530974  1.0
  C  C98  1  0.02536849  0.52576560  0.98447313  1.0
  C  C99  1  0.02102109  0.02643374  0.48461431  1.0
  C  C100  1  0.98439892  0.46816798  0.00997250  1.0
  C  C101  1  0.97953312  0.97027376  0.51198460  1.0
  C  C102  1  0.89140119  0.46414131  0.01119774  1.0
  C  C103  1  0.88652370  0.96563136  0.51133795  1.0
  C  C104  1  0.87986743  0.57139524  0.96527747  1.0
  C  C105  1  0.87594601  0.07238944  0.46445612  1.0
  C  C106  1  0.97023208  0.57579504  0.96177596  1.0
  C  C107  1  0.96636551  0.07619226  0.46094253  1.0
  C  C108  1  0.74179000  0.50951393  0.99350117  1.0
  C  C109  1  0.73724599  0.01031211  0.49162727  1.0
  C  C110  1  0.26714338  0.48625445  0.00730484  1.0
  C  C111  1  0.26224562  0.98593629  0.50879378  1.0
  C  C112  1  0.50902967  0.32384085  0.83934970  1.0
  C  C113  1  0.51654468  0.32384892  0.16356969  1.0
  C  C114  1  0.50688741  0.82305265  0.33986450  1.0
  C  C115  1  0.51954020  0.82914047  0.66727599  1.0
  C  C116  1  0.49989045  0.68605358  0.14757419  1.0
  C  C117  1  0.46474319  0.67160747  0.83747497  1.0
  C  C118  1  0.49545746  0.18356424  0.64877730  1.0
  C  C119  1  0.46062116  0.16753080  0.33423164  1.0
  C  C120  1  0.48391198  0.80177636  0.17498606  1.0
  C  C121  1  0.37470997  0.73646709  0.77130445  1.0
  C  C122  1  0.47901022  0.29945808  0.67530232  1.0
  C  C123  1  0.37118573  0.22969214  0.26548919  1.0
  C  C124  1  0.49010853  0.75355861  0.13005769  1.0
  C  C125  1  0.37892804  0.68994778  0.81632249  1.0
  C  C126  1  0.48350849  0.25066622  0.63079011  1.0
  C  C127  1  0.37499831  0.18391558  0.31109853  1.0
  C  C128  1  0.50995910  0.67171916  0.20742166  1.0
  C  C129  1  0.53927097  0.69850689  0.81141212  1.0
  C  C130  1  0.50757461  0.17006586  0.70864996  1.0
  C  C131  1  0.53553484  0.19342812  0.30787803  1.0
  N  N132  1  0.46062623  0.40031966  0.76254285  1.0
  N  N133  1  0.35711165  0.32842300  0.17820685  1.0
  N  N134  1  0.45777107  0.90014525  0.26361636  1.0
  N  N135  1  0.36019201  0.83205256  0.68063964  1.0
  N  N136  1  0.15824161  0.58623884  0.95447043  1.0
  N  N137  1  0.15407523  0.08299445  0.45029919  1.0
  N  N138  1  0.55216628  0.64150831  0.32921517  1.0
  N  N139  1  0.69654836  0.74653822  0.75532285  1.0
  N  N140  1  0.55168987  0.14172527  0.83110816  1.0
  N  N141  1  0.69266155  0.23470911  0.24654518  1.0
  N  N142  1  0.48140228  0.77015024  0.07132025  1.0
  N  N143  1  0.30303887  0.66584395  0.84143872  1.0
  N  N144  1  0.47204116  0.26646867  0.57202112  1.0
  N  N145  1  0.29877001  0.15816800  0.33455388  1.0
  N  N146  1  0.99967747  0.36063029  0.05876383  1.0
  N  N147  1  0.99357101  0.86426248  0.56322046  1.0
  O  O148  1  0.50736442  0.49759190  0.00123177  1.0
  O  O149  1  0.50357656  0.99683105  0.50147952  1.0
  O  O150  1  0.44802788  0.40955186  0.10993290  1.0
  O  O151  1  0.47009055  0.42983964  0.87704302  1.0
  O  O152  1  0.44610160  0.90558995  0.60590947  1.0
  O  O153  1  0.46211709  0.92689303  0.37862437  1.0
  O  O154  1  0.55084715  0.62499342  0.91460994  1.0
  O  O155  1  0.53016522  0.64249020  0.05189644  1.0
  O  O156  1  0.54480684  0.12514850  0.41444619  1.0
  O  O157  1  0.52602415  0.14023550  0.55318922  1.0
  O  O158  1  0.70730637  0.45158969  0.99858378  1.0
  O  O159  1  0.70310120  0.95225183  0.49608368  1.0
  O  O160  1  0.30162938  0.48550495  0.95610387  1.0
  O  O161  1  0.30828765  0.49109628  0.05715657  1.0
  O  O162  1  0.29687620  0.98945929  0.45770048  1.0
  O  O163  1  0.30386880  0.98599681  0.55859350  1.0
  O  O164  1  0.54509381  0.36052808  0.93748748  1.0
  O  O165  1  0.58115470  0.37453317  0.08042923  1.0
  O  O166  1  0.54054780  0.85917430  0.43861720  1.0
  O  O167  1  0.58416321  0.87623754  0.58225002  1.0
  O  O168  1  0.47652526  0.57298004  0.12160370  1.0
  O  O169  1  0.41449800  0.58088884  0.89412138  1.0
  O  O170  1  0.47247779  0.07032067  0.62269525  1.0
  O  O171  1  0.41069737  0.07803741  0.39230895  1.0
  O  O172  1  0.70060176  0.56425123  0.99094651  1.0
  O  O173  1  0.69583998  0.06495865  0.48927368  1.0
