# generated using pymatgen
data_Zn3H21(C16O9)2
_symmetry_space_group_name_H-M   'P 1'
_cell_length_a   18.50176421
_cell_length_b   18.55879396
_cell_length_c   18.67064587
_cell_angle_alpha   109.25662470
_cell_angle_beta   109.48363403
_cell_angle_gamma   109.32957528
_symmetry_Int_Tables_number   1
_chemical_formula_structural   Zn3H21(C16O9)2
_chemical_formula_sum   'Zn6 H42 C64 O36'
_cell_volume   4955.96529615
_cell_formula_units_Z   2
loop_
 _symmetry_equiv_pos_site_id
 _symmetry_equiv_pos_as_xyz
  1  'x, y, z'
loop_
 _atom_site_type_symbol
 _atom_site_label
 _atom_site_symmetry_multiplicity
 _atom_site_fract_x
 _atom_site_fract_y
 _atom_site_fract_z
 _atom_site_occupancy
  Zn  Zn0  1  0.92911213  0.49113026  0.93416470  1.0
  Zn  Zn1  1  0.05382662  0.48700737  0.05798817  1.0
  Zn  Zn2  1  0.49585016  0.06223565  0.07044865  1.0
  Zn  Zn3  1  0.49044520  0.93234085  0.94345490  1.0
  Zn  Zn4  1  0.94470473  0.93818239  0.50198811  1.0
  Zn  Zn5  1  0.06963199  0.06368196  0.49910687  1.0
  H  H6  1  0.33320594  0.68150028  0.97461655  1.0
  H  H7  1  0.87506530  0.16039204  0.41515866  1.0
  H  H8  1  0.74595801  0.16076890  0.31365901  1.0
  H  H9  1  0.29352325  0.91358160  0.75132639  1.0
  H  H10  1  0.34705642  0.16672900  0.92689883  1.0
  H  H11  1  0.30655674  0.87534364  0.11992762  1.0
  H  H12  1  0.28360325  0.71053908  0.10651724  1.0
  H  H13  1  0.99149553  0.23764653  0.63261922  1.0
  H  H14  1  0.77639729  0.36292597  0.18659688  1.0
  H  H15  1  0.67079040  0.27273551  0.14303115  1.0
  H  H16  1  0.75978749  0.30578838  0.24474004  1.0
  H  H17  1  0.00020643  0.35809465  0.75342641  1.0
  H  H18  1  0.73545978  0.17144205  0.12796703  1.0
  H  H19  1  0.83898179  0.26132131  0.16796694  1.0
  H  H20  1  0.59648368  0.15887842  0.67573527  1.0
  H  H21  1  0.18942139  0.90856197  0.27182713  1.0
  H  H22  1  0.25097636  0.90500284  0.36541420  1.0
  H  H23  1  0.27638213  0.88516626  0.27968832  1.0
  H  H24  1  0.19226417  0.74294748  0.27152379  1.0
  H  H25  1  0.13608117  0.74704951  0.17804194  1.0
  H  H26  1  0.66870598  0.78028919  0.09318417  1.0
  H  H27  1  0.74788223  0.84038748  0.07186085  1.0
  H  H28  1  0.85875108  0.34436450  0.09129612  1.0
  H  H29  1  0.75639527  0.75907501  0.09858708  1.0
  H  H30  1  0.86678791  0.90429215  0.22884018  1.0
  H  H31  1  0.78652997  0.84852470  0.24943619  1.0
  H  H32  1  0.14957165  0.77890555  0.53705190  1.0
  H  H33  1  0.28683488  0.30622670  0.89580761  1.0
  H  H34  1  0.05821189  0.63594313  0.74343942  1.0
  H  H35  1  0.03309025  0.71429601  0.79841897  1.0
  H  H36  1  0.05761690  0.71823137  0.71508869  1.0
  H  H37  1  0.18800319  0.83555198  0.86312296  1.0
  H  H38  1  0.21364696  0.75867447  0.80808149  1.0
  H  H39  1  0.59361137  0.08567705  0.82201525  1.0
  H  H40  1  0.05985088  0.82353239  0.06470338  1.0
  H  H41  1  0.95015394  0.21274793  0.98268987  1.0
  H  H42  1  0.94678374  0.98768049  0.80037942  1.0
  H  H43  1  0.12046305  0.88162012  0.35784771  1.0
  H  H44  1  0.86543077  0.68530078  0.28360785  1.0
  H  H45  1  0.87457993  0.57358693  0.17223869  1.0
  H  H46  1  0.66704521  0.90676077  0.11524950  1.0
  H  H47  1  0.15169138  0.59772487  0.84621453  1.0
  C  C48  1  0.01484447  0.37121012  0.90312448  1.0
  C  C49  1  0.00596291  0.29572268  0.83217353  1.0
  C  C50  1  0.79926368  0.28753413  0.03255343  1.0
  C  C51  1  0.08913120  0.61047849  0.97966489  1.0
  C  C52  1  0.74348607  0.22206177  0.04024571  1.0
  C  C53  1  0.66833367  0.14889011  0.96229414  1.0
  C  C54  1  0.65139202  0.14347821  0.88128160  1.0
  C  C55  1  0.70688162  0.21099178  0.87515500  1.0
  C  C56  1  0.78205393  0.28424098  0.95241398  1.0
  C  C57  1  0.07665659  0.75145994  0.25860606  1.0
  C  C58  1  0.06804013  0.81335387  0.31708185  1.0
  C  C59  1  0.27352814  0.81301505  0.05960767  1.0
  C  C60  1  0.99288223  0.79001697  0.32644719  1.0
  C  C61  1  0.92362358  0.70300438  0.27594927  1.0
  C  C62  1  0.92940643  0.64090947  0.21471961  1.0
  C  C63  1  0.00732924  0.59730699  0.13703034  1.0
  C  C64  1  0.00514367  0.66454397  0.20653498  1.0
  C  C65  1  0.62156715  0.02898575  0.14469609  1.0
  C  C66  1  0.37486525  0.86336364  0.99100344  1.0
  C  C67  1  0.38341064  0.03231982  0.91894008  1.0
  C  C68  1  0.60248474  0.07968443  0.96626394  1.0
  C  C69  1  0.91154519  0.02757829  0.38696098  1.0
  C  C70  1  0.26105544  0.72275647  0.05197264  1.0
  C  C71  1  0.98318881  0.08980849  0.61988967  1.0
  C  C72  1  0.15366997  0.04180642  0.62562025  1.0
  C  C73  1  0.98796863  0.85977122  0.38952192  1.0
  C  C74  1  0.71278595  0.96092981  0.18185271  1.0
  C  C75  1  0.84789376  0.36143960  0.95709739  1.0
  C  C76  1  0.78216055  0.95782954  0.23793934  1.0
  C  C77  1  0.84001672  0.03118436  0.32285106  1.0
  C  C78  1  0.82834881  0.10435397  0.34945896  1.0
  C  C79  1  0.75677591  0.10492299  0.29321038  1.0
  C  C80  1  0.69858039  0.03263634  0.20887011  1.0
  C  C81  1  0.16227992  0.67726771  0.98136873  1.0
  C  C82  1  0.28432700  0.97032789  0.76152620  1.0
  C  C83  1  0.23232515  0.97390595  0.69054747  1.0
  C  C84  1  0.22041854  0.04753646  0.70380317  1.0
  C  C85  1  0.26229030  0.11719506  0.78976281  1.0
  C  C86  1  0.31511756  0.11287466  0.86064079  1.0
  C  C87  1  0.18842806  0.66014520  0.90741672  1.0
  C  C88  1  0.32614042  0.03965347  0.84676351  1.0
  C  C89  1  0.28726209  0.70536068  0.97872313  1.0
  C  C90  1  0.30120035  0.79682329  0.98835346  1.0
  C  C91  1  0.20078675  0.75046049  0.91398011  1.0
  C  C92  1  0.00429615  0.22194991  0.83870861  1.0
  C  C93  1  0.17373188  0.76742810  0.98679992  1.0
  C  C94  1  0.76720105  0.23446034  0.13071515  1.0
  C  C95  1  0.74203444  0.29779211  0.17923970  1.0
  C  C96  1  0.68968825  0.19983202  0.78710909  1.0
  C  C97  1  0.15777129  0.77581173  0.24831718  1.0
  C  C98  1  0.22200740  0.87407754  0.29405392  1.0
  C  C99  1  0.79659466  0.87976572  0.21003173  1.0
  C  C100  1  0.73916264  0.81132716  0.11308143  1.0
  C  C101  1  0.19202384  0.90049253  0.60040658  1.0
  C  C102  1  0.24708262  0.19370432  0.80671899  1.0
  C  C103  1  0.99733368  0.15357495  0.77015521  1.0
  C  C104  1  0.17269764  0.76661962  0.83827022  1.0
  C  C105  1  0.07472505  0.70518938  0.76996470  1.0
  C  C106  1  0.11519009  0.80377375  0.99666641  1.0
  C  C107  1  0.01006437  0.21504051  0.91809458  1.0
  C  C108  1  0.00248667  0.07787463  0.77983870  1.0
  C  C109  1  0.99211458  0.16002657  0.69594106  1.0
  C  C110  1  0.99442806  0.23404884  0.69050187  1.0
  C  C111  1  0.00004411  0.30084167  0.75749815  1.0
  O  O112  1  0.97102495  0.40685552  0.87908876  1.0
  O  O113  1  0.99215938  0.08018407  0.41285043  1.0
  O  O114  1  0.93215330  0.00915442  0.59525345  1.0
  O  O115  1  0.06744846  0.39613727  0.98297007  1.0
  O  O116  1  0.02446176  0.11491338  0.58311076  1.0
  O  O117  1  0.07527095  0.98459860  0.59653122  1.0
  O  O118  1  0.17842001  0.09001371  0.59340711  1.0
  O  O119  1  0.93429719  0.83519262  0.41767086  1.0
  O  O120  1  0.03597687  0.93889820  0.41129729  1.0
  O  O121  1  0.00885744  0.58520552  0.92650803  1.0
  O  O122  1  0.11263671  0.58197392  0.03156046  1.0
  O  O123  1  0.58426221  0.96965052  0.06537301  1.0
  O  O124  1  0.95523021  0.57269215  0.05856775  1.0
  O  O125  1  0.06174312  0.57001442  0.16138489  1.0
  O  O126  1  0.82226556  0.39312537  0.90831466  1.0
  O  O127  1  0.92729387  0.39317965  0.01448504  1.0
  O  O128  1  0.59671627  0.08489985  0.17183916  1.0
  O  O129  1  0.74518530  0.21569601  0.76466204  1.0
  O  O130  1  0.60205686  0.16615430  0.73209225  1.0
  O  O131  1  0.17766519  0.90794774  0.53523623  1.0
  O  O132  1  0.17405064  0.82202940  0.59816136  1.0
  O  O133  1  0.19069366  0.19778257  0.75373430  1.0
  O  O134  1  0.40581812  0.94360566  0.04494762  1.0
  O  O135  1  0.30427445  0.26117396  0.89061009  1.0
  O  O136  1  0.08725961  0.83762584  0.95653761  1.0
  O  O137  1  0.09751238  0.79743062  0.06064622  1.0
  O  O138  1  0.06805076  0.20814953  0.96562187  1.0
  O  O139  1  0.94093958  0.21475496  0.92870331  1.0
  O  O140  1  0.06094751  0.06089845  0.78138600  1.0
  O  O141  1  0.93536377  0.03204212  0.78939049  1.0
  O  O142  1  0.40057933  0.83457004  0.93682114  1.0
  O  O143  1  0.41383983  0.08836515  0.99901093  1.0
  O  O144  1  0.39924733  0.96945784  0.89535978  1.0
  O  O145  1  0.58017130  0.10731362  0.02238300  1.0
  O  O146  1  0.57167979  0.99794384  0.91347297  1.0
  O  O147  1  0.88601639  0.97178475  0.41063312  1.0
