# generated using pymatgen
data_Zn4H11C23Br5O16
_symmetry_space_group_name_H-M   'P 1'
_cell_length_a   13.06654567
_cell_length_b   13.12209050
_cell_length_c   16.07064911
_cell_angle_alpha   79.29216188
_cell_angle_beta   80.58257861
_cell_angle_gamma   89.23448847
_symmetry_Int_Tables_number   1
_chemical_formula_structural   Zn4H11C23Br5O16
_chemical_formula_sum   'Zn4 H11 C23 Br5 O16'
_cell_volume   2670.59648819
_cell_formula_units_Z   1
loop_
 _symmetry_equiv_pos_site_id
 _symmetry_equiv_pos_as_xyz
  1  'x, y, z'
loop_
 _atom_site_type_symbol
 _atom_site_label
 _atom_site_symmetry_multiplicity
 _atom_site_fract_x
 _atom_site_fract_y
 _atom_site_fract_z
 _atom_site_occupancy
  Zn  Zn0  1  0.43413682  0.41509697  0.43736444  1.0
  Zn  Zn1  1  0.58955887  0.41996317  0.57392657  1.0
  Zn  Zn2  1  0.39034596  0.56666200  0.57064132  1.0
  Zn  Zn3  1  0.58574039  0.60722851  0.41200590  1.0
  H  H4  1  0.56298809  0.61001697  0.96574831  1.0
  H  H5  1  0.92881314  0.64985049  0.30407386  1.0
  H  H6  1  0.99756764  0.74308893  0.34426642  1.0
  H  H7  1  0.06334440  0.48986736  0.56666667  1.0
  H  H8  1  0.41707422  0.27977235  0.97104869  1.0
  H  H9  1  0.30342800  0.35872714  0.97294975  1.0
  H  H10  1  0.32373915  0.26920524  0.06781750  1.0
  H  H11  1  0.12842277  0.38104470  0.26165398  1.0
  H  H12  1  0.01935262  0.45596582  0.29685060  1.0
  H  H13  1  0.01618049  0.31746593  0.33079945  1.0
  H  H14  1  0.85849722  0.73035707  0.37156384  1.0
  C  C15  1  0.77830890  0.52596302  0.47014171  1.0
  C  C16  1  0.46086318  0.93503763  0.55473901  1.0
  C  C17  1  0.53903162  0.11207674  0.53469944  1.0
  C  C18  1  0.22368981  0.46734246  0.51360534  1.0
  C  C19  1  0.45637659  0.04724064  0.55071180  1.0
  C  C20  1  0.53441089  0.22823577  0.52394228  1.0
  C  C21  1  0.47572470  0.77481603  0.48622323  1.0
  C  C22  1  0.47771001  0.48612240  0.72886096  1.0
  C  C23  1  0.52278507  0.53353422  0.26721451  1.0
  C  C24  1  0.47198055  0.48312720  0.82002873  1.0
  C  C25  1  0.46847307  0.47578464  0.98534852  1.0
  C  C26  1  0.52382123  0.54633047  0.10062267  1.0
  C  C27  1  0.52139733  0.54863194  0.01397448  1.0
  C  C28  1  0.36171600  0.32224540  0.01060709  1.0
  C  C29  1  0.06595623  0.38750177  0.31476706  1.0
  C  C30  1  0.93116950  0.68898534  0.35857931  1.0
  C  C31  1  0.46975225  0.47998902  0.89654026  1.0
  C  C32  1  0.52579824  0.54384164  0.17678976  1.0
  C  C33  1  0.11218949  0.46207619  0.51431601  1.0
  C  C34  1  0.06409702  0.43177879  0.45358879  1.0
  C  C35  1  0.89530472  0.52294802  0.45436782  1.0
  C  C36  1  0.94958795  0.43420503  0.46461527  1.0
  C  C37  1  0.46888567  0.88940576  0.48565760  1.0
  Br  Br38  1  0.47551547  0.97157822  0.37459168  1.0
  Br  Br39  1  0.88426733  0.30036536  0.49815148  1.0
  Br  Br40  1  0.31863168  0.09739613  0.57281551  1.0
  Br  Br41  1  0.45491749  0.85481625  0.66741439  1.0
  Br  Br42  1  0.67514663  0.05914177  0.52059084  1.0
  O  O43  1  0.50227989  0.50334699  0.50022837  1.0
  O  O44  1  0.54719129  0.42986421  0.69576977  1.0
  O  O45  1  0.56483634  0.60628897  0.29435557  1.0
  O  O46  1  0.41328761  0.54408764  0.69206838  1.0
  O  O47  1  0.47764054  0.45129902  0.31330184  1.0
  O  O48  1  0.41454792  0.39851448  0.04286451  1.0
  O  O49  1  0.11783956  0.39786927  0.38524180  1.0
  O  O50  1  0.94952681  0.61519504  0.43334580  1.0
  O  O51  1  0.48167137  0.27156242  0.46823530  1.0
  O  O52  1  0.55521759  0.74605797  0.43994676  1.0
  O  O53  1  0.73302434  0.47430582  0.54107944  1.0
  O  O54  1  0.25218443  0.51777833  0.56793507  1.0
  O  O55  1  0.73603883  0.58128347  0.41162923  1.0
  O  O56  1  0.28469479  0.42313103  0.46093660  1.0
  O  O57  1  0.58448535  0.27086101  0.57023131  1.0
  O  O58  1  0.40112238  0.71928412  0.53196468  1.0
