# generated using pymatgen
data_Al6H62C99O31
_symmetry_space_group_name_H-M   'P 1'
_cell_length_a   12.55890481
_cell_length_b   12.81221129
_cell_length_c   27.68390261
_cell_angle_alpha   89.29011085
_cell_angle_beta   89.98215311
_cell_angle_gamma   60.75149234
_symmetry_Int_Tables_number   1
_chemical_formula_structural   Al6H62C99O31
_chemical_formula_sum   'Al6 H62 C99 O31'
_cell_volume   3886.24534574
_cell_formula_units_Z   1
loop_
 _symmetry_equiv_pos_site_id
 _symmetry_equiv_pos_as_xyz
  1  'x, y, z'
loop_
 _atom_site_type_symbol
 _atom_site_label
 _atom_site_symmetry_multiplicity
 _atom_site_fract_x
 _atom_site_fract_y
 _atom_site_fract_z
 _atom_site_occupancy
  Al  Al0  1  0.14759762  0.42710516  0.49680074  1.0
  Al  Al1  1  0.40259239  0.42519846  0.49644060  1.0
  Al  Al2  1  0.40723702  0.18906051  0.49864260  1.0
  Al  Al3  1  0.16914765  0.92792740  0.98415538  1.0
  Al  Al4  1  0.91176760  0.93122309  0.98183441  1.0
  Al  Al5  1  0.90865326  0.16675657  0.98420140  1.0
  H  H6  1  0.57045666  0.06840900  0.19464915  1.0
  H  H7  1  0.04546200  0.35785534  0.20148431  1.0
  H  H8  1  0.33434416  0.61681257  0.18519015  1.0
  H  H9  1  0.44862216  0.23725846  0.27181260  1.0
  H  H10  1  0.24227173  0.28623776  0.27316538  1.0
  H  H11  1  0.32360899  0.47906043  0.26752443  1.0
  H  H12  1  0.47976053  0.22519693  0.18818761  1.0
  H  H13  1  0.20386251  0.28735128  0.19026060  1.0
  H  H14  1  0.28477434  0.50946688  0.18427598  1.0
  H  H15  1  0.73706631  0.29226108  0.20052209  1.0
  H  H16  1  0.25677537  0.97383248  0.20212648  1.0
  H  H17  1  0.95440078  0.72790417  0.20547763  1.0
  H  H18  1  0.75761734  0.96143901  0.85682542  1.0
  H  H19  1  0.91753539  0.29012313  0.85096321  1.0
  H  H20  1  0.25084985  0.81658481  0.85148011  1.0
  H  H21  1  0.74268439  0.87829337  0.77801218  1.0
  H  H22  1  0.83926876  0.37740765  0.76903772  1.0
  H  H23  1  0.36126042  0.79743341  0.77439950  1.0
  H  H24  1  0.70742665  0.90027936  0.69056665  1.0
  H  H25  1  0.87366906  0.38990570  0.68248059  1.0
  H  H26  1  0.39551888  0.74235556  0.68893828  1.0
  H  H27  1  0.68316109  0.32579634  0.86498926  1.0
  H  H28  1  0.29161139  0.01871570  0.87022832  1.0
  H  H29  1  0.95397233  0.74018748  0.85562565  1.0
  H  H30  1  0.61411904  0.45775037  0.79145488  1.0
  H  H31  1  0.43458697  0.95518641  0.80052839  1.0
  H  H32  1  0.89566901  0.66984720  0.78172787  1.0
  H  H33  1  0.57665563  0.48201477  0.70322662  1.0
  H  H34  1  0.47052927  0.96731538  0.71306590  1.0
  H  H35  1  0.92644233  0.61835349  0.69487918  1.0
  H  H36  1  0.54770920  0.08198490  0.27871278  1.0
  H  H37  1  0.08399088  0.35811524  0.28434315  1.0
  H  H38  1  0.36212837  0.59441001  0.26923096  1.0
  H  H39  1  0.56626216  0.39695664  0.62474421  1.0
  H  H40  1  0.39339114  0.05732618  0.63244990  1.0
  H  H41  1  0.04517032  0.58617728  0.62041626  1.0
  H  H42  1  0.83350001  0.10104046  0.29377806  1.0
  H  H43  1  0.06297713  0.07916032  0.30142621  1.0
  H  H44  1  0.04443244  0.84194678  0.29101972  1.0
  H  H45  1  0.77321718  0.00209922  0.29566388  1.0
  H  H46  1  0.97864212  0.23707275  0.30017197  1.0
  H  H47  1  0.19865489  0.80766709  0.28791839  1.0
  H  H48  1  0.79549968  0.97656620  0.21189645  1.0
  H  H49  1  0.94256099  0.23255308  0.21734585  1.0
  H  H50  1  0.18563972  0.83136114  0.20355639  1.0
  H  H51  1  0.86671455  0.06615038  0.21107537  1.0
  H  H52  1  0.03116380  0.07484566  0.21842670  1.0
  H  H53  1  0.02798956  0.88024145  0.20756989  1.0
  H  H54  1  0.53723917  0.37919318  0.27132856  1.0
  H  H55  1  0.36529181  0.05809886  0.27483677  1.0
  H  H56  1  0.10378425  0.52928723  0.27376933  1.0
  H  H57  1  0.69378291  0.32361105  0.28315145  1.0
  H  H58  1  0.29070119  0.97382960  0.28550244  1.0
  H  H59  1  0.98937010  0.67531224  0.28785426  1.0
  H  H60  1  0.57937289  0.35689240  0.18854104  1.0
  H  H61  1  0.32921786  0.05998471  0.19163250  1.0
  H  H62  1  0.05652975  0.57733160  0.19172760  1.0
  H  H63  1  0.54848050  0.01837876  0.59296699  1.0
  H  H64  1  0.99444809  0.43609526  0.58887941  1.0
  H  H65  1  0.44436149  0.55620867  0.59225063  1.0
  H  H66  1  0.94081933  0.49991243  0.47494878  1.0
  H  H67  1  0.36889937  0.80912948  0.01277569  1.0
  C  C68  1  0.22783091  0.22142656  0.43124624  1.0
  C  C69  1  0.23386637  0.55678400  0.42722982  1.0
  C  C70  1  0.54494573  0.23408292  0.43035160  1.0
  C  C71  1  0.65486470  0.28675677  0.20979690  1.0
  C  C72  1  0.25740461  0.05578953  0.21284874  1.0
  C  C73  1  0.04760560  0.65439286  0.21198865  1.0
  C  C74  1  0.62854337  0.30378093  0.26457749  1.0
  C  C75  1  0.28067612  0.05535030  0.26771614  1.0
  C  C76  1  0.07233024  0.62439841  0.26646735  1.0
  C  C77  1  0.69787292  0.14732819  0.14250325  1.0
  C  C78  1  0.11035759  0.16246338  0.14739682  1.0
  C  C79  1  0.12019838  0.71622419  0.13991562  1.0
  C  C80  1  0.61444527  0.20287016  0.33913587  1.0
  C  C81  1  0.19421200  0.17046000  0.34245704  1.0
  C  C82  1  0.19161156  0.62909912  0.33596969  1.0
  C  C83  1  0.59324546  0.21395633  0.38221193  1.0
  C  C84  1  0.20891669  0.18400604  0.38481008  1.0
  C  C85  1  0.20848155  0.60529047  0.37885596  1.0
  C  C86  1  0.08274505  0.81739040  0.90960401  1.0
  C  C87  1  0.76523886  0.11946200  0.91676232  1.0
  C  C88  1  0.07990196  0.13796303  0.91639942  1.0
  C  C89  1  0.08464944  0.78907542  0.04879187  1.0
  C  C90  1  0.77189483  0.11205092  0.05169615  1.0
  C  C91  1  0.07970758  0.12742267  0.05567804  1.0
  C  C92  1  0.62972312  0.10643900  0.63712299  1.0
  C  C93  1  0.09190682  0.27010257  0.63577854  1.0
  C  C94  1  0.27728574  0.65003700  0.63582872  1.0
  C  C95  1  0.65957850  0.08847270  0.68706576  1.0
  C  C96  1  0.06767716  0.25927220  0.68501483  1.0
  C  C97  1  0.25266041  0.69310148  0.68396294  1.0
  C  C98  1  0.70502753  0.06040584  0.78907627  1.0
  C  C99  1  0.02619196  0.24391731  0.78589690  1.0
  C  C100  1  0.21210434  0.75924299  0.78352471  1.0
  C  C101  1  0.24092670  0.21470632  0.56764203  1.0
  C  C102  1  0.22469040  0.55464695  0.56524454  1.0
  C  C103  1  0.54776300  0.24748711  0.56480652  1.0
  C  C104  1  0.71577130  0.96397888  0.76019815  1.0
  C  C105  1  0.93002736  0.32309584  0.75403972  1.0
  C  C106  1  0.30540672  0.76591832  0.75628155  1.0
  C  C107  1  0.69522363  0.97650317  0.71156650  1.0
  C  C108  1  0.94920548  0.33041525  0.70592765  1.0
  C  C109  1  0.32502471  0.73468865  0.70885726  1.0
  C  C110  1  0.72918889  0.04725075  0.83883632  1.0
  C  C111  1  0.00759333  0.23567615  0.83538831  1.0
  C  C112  1  0.19381950  0.78767869  0.83256283  1.0
  C  C113  1  0.72213312  0.14228681  0.86574166  1.0
  C  C114  1  0.10333225  0.15510370  0.86512612  1.0
  C  C115  1  0.10146978  0.78034632  0.85815206  1.0
  C  C116  1  0.59020483  0.31231861  0.64277303  1.0
  C  C117  1  0.30381986  0.11411014  0.64786263  1.0
  C  C118  1  0.10339180  0.61391424  0.63907016  1.0
  C  C119  1  0.61474753  0.29910249  0.69241439  1.0
  C  C120  1  0.28407700  0.10364309  0.69691700  1.0
  C  C121  1  0.07980386  0.65094553  0.68699111  1.0
  C  C122  1  0.64841917  0.18649036  0.71519714  1.0
  C  C123  1  0.16514304  0.17793045  0.71606144  1.0
  C  C124  1  0.15618988  0.68905819  0.71019758  1.0
  C  C125  1  0.60364189  0.39627404  0.72114092  1.0
  C  C126  1  0.38033863  0.02256572  0.72844584  1.0
  C  C127  1  0.98387345  0.64716027  0.71360853  1.0
  C  C128  1  0.62454803  0.38277718  0.76978786  1.0
  C  C129  1  0.36054997  0.01587933  0.77653213  1.0
  C  C130  1  0.96675543  0.67607257  0.76130479  1.0
  C  C131  1  0.66039094  0.27051075  0.79381929  1.0
  C  C132  1  0.24231211  0.08885304  0.79700508  1.0
  C  C133  1  0.04184462  0.71424458  0.78600024  1.0
  C  C134  1  0.54004379  0.16452105  0.26293132  1.0
  C  C135  1  0.15877747  0.28089942  0.26658209  1.0
  C  C136  1  0.29193863  0.57276379  0.25710115  1.0
  C  C137  1  0.67110875  0.17255750  0.76588096  1.0
  C  C138  1  0.14457750  0.17023813  0.76617847  1.0
  C  C139  1  0.13628094  0.72142035  0.75968761  1.0
  C  C140  1  0.68733404  0.25325055  0.84342481  1.0
  C  C141  1  0.21958757  0.08191654  0.84612905  1.0
  C  C142  1  0.02569830  0.74464439  0.83500706  1.0
  C  C143  1  0.59290833  0.21975248  0.61557017  1.0
  C  C144  1  0.21094199  0.19788309  0.61797949  1.0
  C  C145  1  0.20271355  0.60866253  0.61422516  1.0
  C  C146  1  0.76482184  0.08247870  0.27745195  1.0
  C  C147  1  0.05441641  0.15940717  0.28300100  1.0
  C  C148  1  0.13137099  0.78557652  0.27270969  1.0
  C  C149  1  0.78411169  0.06390024  0.22233881  1.0
  C  C150  1  0.03154369  0.15744285  0.22820993  1.0
  C  C151  1  0.11872699  0.80678926  0.21738389  1.0
  C  C152  1  0.72232041  0.13364947  0.09971358  1.0
  C  C153  1  0.09524153  0.15591794  0.10442124  1.0
  C  C154  1  0.10539869  0.73939103  0.09693038  1.0
  C  C155  1  0.63653859  0.18928359  0.28748941  1.0
  C  C156  1  0.17338560  0.16511236  0.29132589  1.0
  C  C157  1  0.17203402  0.65281613  0.28450567  1.0
  C  C158  1  0.55890139  0.15409452  0.20753092  1.0
  C  C159  1  0.13378441  0.28106659  0.21190895  1.0
  C  C160  1  0.27065383  0.59160363  0.20193669  1.0
  C  C161  1  0.67369785  0.16324965  0.19400523  1.0
  C  C162  1  0.13271926  0.16463421  0.19865839  1.0
  C  C163  1  0.13857251  0.69200907  0.19136295  1.0
  C  C164  1  0.63533430  0.00372899  0.60942328  1.0
  C  C165  1  0.98833452  0.35874752  0.60414258  1.0
  C  C166  1  0.38630376  0.64176566  0.61070488  1.0
  O  O167  1  0.15469957  0.53844849  0.44772018  1.0
  O  O168  1  0.52915585  0.32776374  0.45215735  1.0
  O  O169  1  0.32008367  0.14583907  0.45661512  1.0
  O  O170  1  0.15589670  0.02416636  0.04167485  1.0
  O  O171  1  0.98392678  0.81021792  0.02790453  1.0
  O  O172  1  0.79381290  0.19194442  0.03343979  1.0
  O  O173  1  0.15392204  0.32843040  0.44230257  1.0
  O  O174  1  0.33964941  0.53095649  0.44466404  1.0
  O  O175  1  0.51516338  0.15781509  0.44670747  1.0
  O  O176  1  0.15649662  0.51325587  0.55214248  1.0
  O  O177  1  0.51304198  0.35352953  0.54833858  1.0
  O  O178  1  0.35090707  0.14447535  0.55270043  1.0
  O  O179  1  0.16020823  0.29974495  0.54273863  1.0
  O  O180  1  0.31323431  0.54907245  0.53955487  1.0
  O  O181  1  0.53808646  0.16779108  0.54080454  1.0
  O  O182  1  0.32112629  0.34596168  0.49682882  1.0
  O  O183  1  0.16115369  0.04812097  0.93903176  1.0
  O  O184  1  0.98771609  0.82546296  0.93121909  1.0
  O  O185  1  0.78393943  0.19747580  0.93776186  1.0
  O  O186  1  0.15914208  0.84217428  0.92834846  1.0
  O  O187  1  0.78873561  0.01875502  0.93596890  1.0
  O  O188  1  0.97499930  0.21323681  0.93403308  1.0
  O  O189  1  0.99411129  0.00948883  0.98395949  1.0
  O  O190  1  0.16361061  0.81289291  0.03170237  1.0
  O  O191  1  0.79576294  0.01344743  0.03203559  1.0
  O  O192  1  0.98767324  0.20722321  0.03121684  1.0
  O  O193  1  0.72842832  0.90678115  0.60710179  1.0
  O  O194  1  0.89760804  0.34827768  0.59746363  1.0
  O  O195  1  0.41543539  0.72025819  0.61121889  1.0
  O  O196  1  0.98851061  0.50531365  0.50115384  1.0
  O  O197  1  0.32928605  0.85424283  0.98378282  1.0
