# generated using pymatgen
data_Al2H21C30NO12
_symmetry_space_group_name_H-M   'P 1'
_cell_length_a   6.68087911
_cell_length_b   22.23927273
_cell_length_c   24.70819880
_cell_angle_alpha   96.29604068
_cell_angle_beta   89.99827006
_cell_angle_gamma   89.99911159
_symmetry_Int_Tables_number   1
_chemical_formula_structural   Al2H21C30NO12
_chemical_formula_sum   'Al4 H42 C60 N2 O24'
_cell_volume   3648.95004579
_cell_formula_units_Z   2
loop_
 _symmetry_equiv_pos_site_id
 _symmetry_equiv_pos_as_xyz
  1  'x, y, z'
loop_
 _atom_site_type_symbol
 _atom_site_label
 _atom_site_symmetry_multiplicity
 _atom_site_fract_x
 _atom_site_fract_y
 _atom_site_fract_z
 _atom_site_occupancy
  Al  Al0  1  0.13923198  0.49975994  0.49993408  1.0
  Al  Al1  1  0.63923202  0.50023890  0.50006602  1.0
  Al  Al2  1  0.65511271  0.00024340  0.00024914  1.0
  Al  Al3  1  0.15511208  0.99975630  0.99975122  1.0
  H  H4  1  0.22565018  0.80910672  0.18524932  1.0
  H  H5  1  0.72566233  0.19089585  0.81475120  1.0
  H  H6  1  0.22580596  0.88135402  0.11417496  1.0
  H  H7  1  0.72581040  0.11864800  0.88582475  1.0
  H  H8  1  0.58451129  0.88853351  0.11913314  1.0
  H  H9  1  0.08451951  0.11146312  0.88086543  1.0
  H  H10  1  0.58115381  0.81668430  0.19053188  1.0
  H  H11  1  0.08116679  0.18331090  0.80946591  1.0
  H  H12  1  0.21636119  0.68235156  0.30933205  1.0
  H  H13  1  0.71635497  0.31765131  0.69066693  1.0
  H  H14  1  0.21134970  0.61103015  0.38113870  1.0
  H  H15  1  0.71134383  0.38897310  0.61885951  1.0
  H  H16  1  0.56996825  0.61833745  0.38516135  1.0
  H  H17  1  0.06996458  0.38165581  0.61483491  1.0
  H  H18  1  0.57178253  0.69015341  0.31371823  1.0
  H  H19  1  0.07177857  0.30983894  0.68627802  1.0
  H  H20  1  0.64263599  0.75170489  0.67660238  1.0
  H  H21  1  0.14258461  0.24831167  0.32339200  1.0
  H  H22  1  0.67726935  0.83498332  0.74312839  1.0
  H  H23  1  0.17710233  0.16504172  0.25685184  1.0
  H  H24  1  0.20884700  0.79703265  0.77307191  1.0
  H  H25  1  0.70880078  0.20291432  0.22694420  1.0
  H  H26  1  0.05891031  0.84870155  0.74130927  1.0
  H  H27  1  0.55873503  0.15127501  0.25870460  1.0
  H  H28  1  0.00174562  0.77796585  0.66521867  1.0
  H  H29  1  0.50164829  0.22202361  0.33478840  1.0
  H  H30  1  0.19667349  0.73513617  0.69015521  1.0
  H  H31  1  0.69664964  0.26482927  0.30985329  1.0
  H  H32  1  0.79396492  0.71997746  0.83852531  1.0
  H  H33  1  0.29412151  0.28003001  0.16146602  1.0
  H  H34  1  0.05800175  0.72896407  0.83642259  1.0
  H  H35  1  0.55814529  0.27101254  0.16359169  1.0
  H  H36  1  0.82227095  0.64305036  0.76710252  1.0
  H  H37  1  0.32238138  0.35694875  0.23289506  1.0
  H  H38  1  0.56822421  0.78964864  0.78968980  1.0
  H  H39  1  0.06821208  0.21040757  0.21029146  1.0
  H  H40  1  0.57481588  0.70375773  0.72606681  1.0
  H  H41  1  0.07484171  0.29627622  0.27393514  1.0
  H  H42  1  0.38819593  0.57738450  0.52084876  1.0
  H  H43  1  0.88820703  0.42261601  0.47914780  1.0
  H  H44  1  0.40633670  0.92223734  0.98041645  1.0
  H  H45  1  0.90632496  0.07776337  0.01958239  1.0
  C  C46  1  0.38984888  0.42372917  0.42199896  1.0
  C  C47  1  0.88982909  0.57626997  0.57800125  1.0
  C  C48  1  0.38939806  0.43044725  0.56902606  1.0
  C  C49  1  0.88940728  0.56954981  0.43097171  1.0
  C  C50  1  0.08573920  0.82681967  0.17076355  1.0
  C  C51  1  0.58574786  0.17318110  0.82923583  1.0
  C  C52  1  0.08606191  0.86676420  0.13135213  1.0
  C  C53  1  0.58606878  0.13323617  0.86864766  1.0
  C  C54  1  0.90515205  0.88894770  0.11256955  1.0
  C  C55  1  0.40515962  0.11105077  0.88742929  1.0
  C  C56  1  0.72339244  0.87078031  0.13414085  1.0
  C  C57  1  0.22340270  0.12921708  0.86585766  1.0
  C  C58  1  0.72179444  0.83100651  0.17364034  1.0
  C  C59  1  0.22180651  0.16899039  0.82635777  1.0
  C  C60  1  0.90322383  0.80817150  0.19255950  1.0
  C  C61  1  0.40323655  0.19182867  0.80743855  1.0
  C  C62  1  0.90116033  0.76731284  0.23253583  1.0
  C  C63  1  0.40117185  0.23268240  0.76746590  1.0
  C  C64  1  0.89717206  0.73196421  0.26701986  1.0
  C  C65  1  0.39717464  0.26803675  0.73297336  1.0
  C  C66  1  0.07537627  0.66836157  0.32625639  1.0
  C  C67  1  0.57537100  0.33163811  0.67374105  1.0
  C  C68  1  0.07284275  0.62885158  0.36597389  1.0
  C  C69  1  0.57283633  0.37114762  0.63402317  1.0
  C  C70  1  0.89055190  0.61097133  0.38745318  1.0
  C  C71  1  0.39054655  0.38902468  0.61254335  1.0
  C  C72  1  0.71008949  0.63295946  0.36823908  1.0
  C  C73  1  0.21008340  0.36703501  0.63175711  1.0
  C  C74  1  0.71134623  0.67265949  0.32863164  1.0
  C  C75  1  0.21134281  0.32733502  0.67136493  1.0
  C  C76  1  0.89441104  0.69118447  0.30706873  1.0
  C  C77  1  0.39440795  0.30881156  0.69292818  1.0
  C  C78  1  0.69200126  0.79191945  0.76071988  1.0
  C  C79  1  0.19194137  0.20810771  0.23926713  1.0
  C  C80  1  0.06627089  0.80211338  0.75198627  1.0
  C  C81  1  0.56619286  0.19785915  0.24802427  1.0
  C  C82  1  0.05110768  0.75603711  0.70067653  1.0
  C  C83  1  0.55105317  0.24394325  0.29933130  1.0
  C  C84  1  0.89084773  0.62155663  0.62455057  1.0
  C  C85  1  0.39088088  0.37844376  0.37544882  1.0
  C  C86  1  0.89330999  0.79195932  0.79178666  1.0
  C  C87  1  0.39329522  0.20803896  0.20821392  1.0
  C  C88  1  0.68514074  0.73745464  0.71618989  1.0
  C  C89  1  0.18512855  0.26256600  0.28380614  1.0
  C  C90  1  0.89415787  0.70670243  0.70930186  1.0
  C  C91  1  0.39417316  0.29329420  0.29069994  1.0
  C  C92  1  0.93136052  0.67926097  0.76399327  1.0
  C  C93  1  0.43144275  0.32073330  0.23600899  1.0
  C  C94  1  0.92044189  0.72903791  0.81223332  1.0
  C  C95  1  0.42054389  0.27095661  0.18777067  1.0
  C  C96  1  0.89248364  0.65983262  0.66355965  1.0
  C  C97  1  0.39251550  0.34016576  0.33644176  1.0
  C  C98  1  0.89661275  0.83831028  0.83793077  1.0
  C  C99  1  0.39658890  0.16168727  0.16207141  1.0
  C  C100  1  0.90172874  0.87713613  0.87653795  1.0
  C  C101  1  0.40170359  0.12286346  0.12346256  1.0
  C  C102  1  0.40530227  0.06928545  0.93067439  1.0
  C  C103  1  0.90529379  0.93071397  0.06932486  1.0
  C  C104  1  0.40421892  0.07710583  0.07736891  1.0
  C  C105  1  0.90423821  0.92289419  0.92263158  1.0
  N  N106  1  0.13214039  0.64653542  0.76196829  1.0
  N  N107  1  0.63223714  0.35344550  0.23804326  1.0
  O  O108  1  0.55920099  0.44649565  0.55193036  1.0
  O  O109  1  0.05920024  0.55350442  0.44806968  1.0
  O  O110  1  0.21920822  0.44115520  0.44047570  1.0
  O  O111  1  0.71918683  0.55884586  0.55952325  1.0
  O  O112  1  0.21913351  0.44567982  0.55159997  1.0
  O  O113  1  0.71913281  0.55431609  0.44839735  1.0
  O  O114  1  0.05983650  0.55845289  0.55937460  1.0
  O  O115  1  0.55985648  0.44154256  0.44062828  1.0
  O  O116  1  0.38893895  0.53659118  0.50247253  1.0
  O  O117  1  0.88894285  0.46340743  0.49752688  1.0
  O  O118  1  0.23451967  0.05895012  0.05865670  1.0
  O  O119  1  0.73453451  0.94104946  0.94134536  1.0
  O  O120  1  0.57526148  0.05385749  0.94813577  1.0
  O  O121  1  0.07525828  0.94614094  0.05186249  1.0
  O  O122  1  0.57517390  0.05936705  0.05925798  1.0
  O  O123  1  0.07519318  0.94063363  0.94074028  1.0
  O  O124  1  0.73516539  0.94692630  0.05255983  1.0
  O  O125  1  0.23516857  0.05307407  0.94744141  1.0
  O  O126  1  0.40538416  0.96345061  0.99783007  1.0
  O  O127  1  0.90537955  0.03654895  0.00217041  1.0
  O  O128  1  0.28534033  0.67717640  0.77313448  1.0
  O  O129  1  0.12961754  0.59159650  0.74815592  1.0
  O  O130  1  0.78542801  0.32279204  0.22688704  1.0
  O  O131  1  0.62974418  0.40838389  0.25185118  1.0
