# generated using pymatgen
data_Zn2H5C14I3(NO4)2
_symmetry_space_group_name_H-M   'P 1'
_cell_length_a   9.98383422
_cell_length_b   11.12056441
_cell_length_c   11.89511758
_cell_angle_alpha   94.94778431
_cell_angle_beta   92.94788352
_cell_angle_gamma   90.59906907
_symmetry_Int_Tables_number   1
_chemical_formula_structural   Zn2H5C14I3(NO4)2
_chemical_formula_sum   'Zn2 H5 C14 I3 N2 O8'
_cell_volume   1313.85635055
_cell_formula_units_Z   1
loop_
 _symmetry_equiv_pos_site_id
 _symmetry_equiv_pos_as_xyz
  1  'x, y, z'
loop_
 _atom_site_type_symbol
 _atom_site_label
 _atom_site_symmetry_multiplicity
 _atom_site_fract_x
 _atom_site_fract_y
 _atom_site_fract_z
 _atom_site_occupancy
  Zn  Zn0  1  0.64122244  0.50901135  0.50066895  1.0
  Zn  Zn1  1  0.35966048  0.49105334  0.48523294  1.0
  H  H2  1  0.55961885  0.91440571  0.56765896  1.0
  H  H3  1  0.32035614  0.11900745  0.45197560  1.0
  H  H4  1  0.62722437  0.09100087  0.45950820  1.0
  H  H5  1  0.89112070  0.46346498  0.56210818  1.0
  H  H6  1  0.14030164  0.65999826  0.48020668  1.0
  C  C7  1  0.52738185  0.26749843  0.47283184  1.0
  C  C8  1  0.49401627  0.49990550  0.83293992  1.0
  C  C9  1  0.49443893  0.50226551  0.93602764  1.0
  C  C10  1  0.49387859  0.50423962  0.04964696  1.0
  C  C11  1  0.49261182  0.50515031  0.15256713  1.0
  C  C12  1  0.40267974  0.93791752  0.44987751  1.0
  C  C13  1  0.48235058  0.86793001  0.51092447  1.0
  C  C14  1  0.41387565  0.06881473  0.45535031  1.0
  C  C15  1  0.52935001  0.13340523  0.46243309  1.0
  C  C16  1  0.93189933  0.58850973  0.46526520  1.0
  C  C17  1  0.07961610  0.57607563  0.47508894  1.0
  C  C18  1  0.49367753  0.49798452  0.71127216  1.0
  C  C19  1  0.48342324  0.73449702  0.50951343  1.0
  C  C20  1  0.48886740  0.50364388  0.27363068  1.0
  I  I21  1  0.24668731  0.86989757  0.33376205  1.0
  I  I22  1  0.87255983  0.71938463  0.35726651  1.0
  I  I23  1  0.06256929  0.30713922  0.45759062  1.0
  N  N24  1  0.84723586  0.52597250  0.51319050  1.0
  N  N25  1  0.14851014  0.47908622  0.47397602  1.0
  O  O26  1  0.63971499  0.32296682  0.47139965  1.0
  O  O27  1  0.41322053  0.31692191  0.48316051  1.0
  O  O28  1  0.60728682  0.48673609  0.66774407  1.0
  O  O29  1  0.37976837  0.50793684  0.65970410  1.0
  O  O30  1  0.59771622  0.68961335  0.53191998  1.0
  O  O31  1  0.37370313  0.67543429  0.48755220  1.0
  O  O32  1  0.60018168  0.52271485  0.33028964  1.0
  O  O33  1  0.37491189  0.48354522  0.31199562  1.0
