# generated using pymatgen
data_Cd3H24C38O15
_symmetry_space_group_name_H-M   'P 1'
_cell_length_a   18.48417215
_cell_length_b   19.99147140
_cell_length_c   22.61375558
_cell_angle_alpha   64.60185456
_cell_angle_beta   89.91524896
_cell_angle_gamma   62.46672824
_symmetry_Int_Tables_number   1
_chemical_formula_structural   Cd3H24C38O15
_chemical_formula_sum   'Cd12 H96 C152 O60'
_cell_volume   6488.63318665
_cell_formula_units_Z   4
loop_
 _symmetry_equiv_pos_site_id
 _symmetry_equiv_pos_as_xyz
  1  'x, y, z'
loop_
 _atom_site_type_symbol
 _atom_site_label
 _atom_site_symmetry_multiplicity
 _atom_site_fract_x
 _atom_site_fract_y
 _atom_site_fract_z
 _atom_site_occupancy
  Cd  Cd0  1  0.67826667  0.41257494  0.69841600  1.0
  Cd  Cd1  1  0.09065005  0.58771082  0.80121050  1.0
  Cd  Cd2  1  0.32173652  0.58742198  0.30159181  1.0
  Cd  Cd3  1  0.90935365  0.41229119  0.19878550  1.0
  Cd  Cd4  1  0.55315557  0.64481011  0.67892522  1.0
  Cd  Cd5  1  0.19743604  0.35531886  0.82068222  1.0
  Cd  Cd6  1  0.44684095  0.35519611  0.32107634  1.0
  Cd  Cd7  1  0.80256391  0.64467851  0.17931626  1.0
  Cd  Cd8  1  0.63052319  0.63108296  0.54213854  1.0
  Cd  Cd9  1  0.26132535  0.36903249  0.95720598  1.0
  Cd  Cd10  1  0.36946890  0.36892405  0.45786469  1.0
  Cd  Cd11  1  0.73867388  0.63096430  0.04279186  1.0
  H  H12  1  0.67966201  0.72437895  0.43811176  1.0
  H  H13  1  0.40270577  0.27532414  0.06133043  1.0
  H  H14  1  0.32034406  0.27561403  0.56189398  1.0
  H  H15  1  0.59728747  0.72468182  0.93867078  1.0
  H  H16  1  0.66174398  0.75112758  0.49429593  1.0
  H  H17  1  0.41238748  0.24898015  0.00493637  1.0
  H  H18  1  0.33825859  0.24887171  0.50570615  1.0
  H  H19  1  0.58761405  0.75101732  0.99506895  1.0
  H  H20  1  0.64555452  0.52469962  0.79479912  1.0
  H  H21  1  0.16997274  0.47567126  0.70486640  1.0
  H  H22  1  0.35444298  0.47529880  0.20520012  1.0
  H  H23  1  0.83002137  0.52433144  0.29512948  1.0
  H  H24  1  0.70067598  0.56807485  0.78735464  1.0
  H  H25  1  0.26840577  0.43225014  0.71213682  1.0
  H  H26  1  0.29931957  0.43192484  0.21264701  1.0
  H  H27  1  0.73158741  0.56774465  0.28785243  1.0
  H  H28  1  0.53652608  0.68829922  0.42026802  1.0
  H  H29  1  0.22504404  0.31186075  0.07966232  1.0
  H  H30  1  0.46346783  0.31170090  0.57973444  1.0
  H  H31  1  0.77494608  0.68814557  0.92033092  1.0
  H  H32  1  0.47233405  0.77475876  0.41799965  1.0
  H  H33  1  0.24792400  0.22461927  0.08313510  1.0
  H  H34  1  0.52765901  0.22524629  0.58199496  1.0
  H  H35  1  0.75207857  0.77537878  0.91686833  1.0
  H  H36  1  0.92628570  0.43345334  0.74355076  1.0
  H  H37  1  0.35967483  0.56688595  0.75589980  1.0
  H  H38  1  0.07371660  0.56655071  0.25644366  1.0
  H  H39  1  0.64033571  0.43310779  0.24409438  1.0
  H  H40  1  0.93579204  0.66616569  0.66716764  1.0
  H  H41  1  0.60167536  0.33415486  0.83279094  1.0
  H  H42  1  0.06420223  0.33383678  0.33282989  1.0
  H  H43  1  0.39833386  0.66583485  0.16721454  1.0
  H  H44  1  0.69856993  0.68055498  0.63536556  1.0
  H  H45  1  0.37859256  0.31976148  0.86388143  1.0
  H  H46  1  0.30142772  0.31944532  0.36463607  1.0
  H  H47  1  0.62141151  0.68023385  0.13610787  1.0
  H  H48  1  0.86062924  0.78740311  0.55657279  1.0
  H  H49  1  0.64697806  0.21364484  0.94327254  1.0
  H  H50  1  0.13936633  0.21260258  0.44342871  1.0
  H  H51  1  0.35302518  0.78635029  0.05672899  1.0
  H  H52  1  0.77671916  0.94565558  0.48393244  1.0
  H  H53  1  0.72167330  0.05540730  0.01609748  1.0
  H  H54  1  0.22327996  0.05435021  0.51607211  1.0
  H  H55  1  0.27832877  0.94458693  0.98390502  1.0
  H  H56  1  0.63937109  0.08357973  0.44239617  1.0
  H  H57  1  0.72291771  0.91703310  0.05789576  1.0
  H  H58  1  0.36062839  0.91642955  0.55760841  1.0
  H  H59  1  0.27708309  0.08296308  0.94210652  1.0
  H  H60  1  0.44467012  0.09145356  0.54845197  1.0
  H  H61  1  0.53739574  0.90771651  0.95224518  1.0
  H  H62  1  0.55532260  0.90855274  0.45154382  1.0
  H  H63  1  0.46260878  0.09227706  0.04775613  1.0
  H  H64  1  0.53214502  0.93407457  0.62583237  1.0
  H  H65  1  0.46713257  0.06506558  0.87470205  1.0
  H  H66  1  0.46784602  0.06592992  0.37416032  1.0
  H  H67  1  0.53287088  0.93492629  0.12529920  1.0
  H  H68  1  0.66099231  0.79458482  0.65723545  1.0
  H  H69  1  0.45583917  0.20501193  0.84294018  1.0
  H  H70  1  0.33899593  0.20542127  0.34275677  1.0
  H  H71  1  0.54416394  0.79498411  0.15705909  1.0
  H  H72  1  0.54624251  0.51793840  0.43682752  1.0
  H  H73  1  0.06402979  0.48205126  0.06278584  1.0
  H  H74  1  0.45374284  0.48206050  0.56318700  1.0
  H  H75  1  0.93597427  0.51794853  0.93721318  1.0
  H  H76  1  0.62447730  0.25596440  0.49478327  1.0
  H  H77  1  0.88074984  0.74394189  0.00518268  1.0
  H  H78  1  0.37552413  0.74403261  0.50522444  1.0
  H  H79  1  0.11925023  0.25605747  0.99481491  1.0
  H  H80  1  0.75629491  0.31219666  0.60745167  1.0
  H  H81  1  0.06893863  0.68796906  0.89225076  1.0
  H  H82  1  0.24370429  0.68780346  0.39255395  1.0
  H  H83  1  0.93106062  0.31203218  0.10774543  1.0
  H  H84  1  0.66767662  0.14015315  0.59388804  1.0
  H  H85  1  0.80836132  0.85959695  0.90644636  1.0
  H  H86  1  0.33232353  0.85984584  0.40611943  1.0
  H  H87  1  0.19163586  0.14040801  0.09355150  1.0
  H  H88  1  0.69912295  0.99007752  0.64448753  1.0
  H  H89  1  0.68977401  0.00963436  0.85625495  1.0
  H  H90  1  0.30087906  0.00992057  0.35551901  1.0
  H  H91  1  0.31023069  0.99036500  0.14375085  1.0
  H  H92  1  0.80470650  0.83301282  0.70429077  1.0
  H  H93  1  0.63831135  0.16672410  0.79654810  1.0
  H  H94  1  0.19529635  0.16698701  0.29571642  1.0
  H  H95  1  0.36169172  0.83327694  0.20345715  1.0
  H  H96  1  0.00219809  0.88426912  0.72351454  1.0
  H  H97  1  0.88660924  0.11605884  0.77601504  1.0
  H  H98  1  0.99780706  0.11573279  0.27647271  1.0
  H  H99  1  0.11339108  0.88394285  0.22398256  1.0
  H  H100  1  0.96836896  0.03646928  0.67707701  1.0
  H  H101  1  0.00490813  0.96405966  0.82228845  1.0
  H  H102  1  0.03163576  0.96353092  0.32291651  1.0
  H  H103  1  0.99509146  0.03593991  0.17770702  1.0
  H  H104  1  0.86555101  0.19250502  0.61391739  1.0
  H  H105  1  0.05826704  0.80793234  0.88552669  1.0
  H  H106  1  0.13444994  0.80749626  0.38608698  1.0
  H  H107  1  0.94173183  0.19206875  0.11446588  1.0
  C  C108  1  0.80681492  0.55265108  0.69090482  1.0
  C  C109  1  0.35914918  0.44767532  0.80837063  1.0
  C  C110  1  0.19318471  0.44735200  0.30909318  1.0
  C  C111  1  0.64085632  0.55231950  0.19162175  1.0
  C  C112  1  0.89407253  0.50350275  0.71708350  1.0
  C  C113  1  0.39740325  0.49683795  0.78237494  1.0
  C  C114  1  0.10592803  0.49650169  0.28291366  1.0
  C  C115  1  0.60260485  0.50315601  0.21762089  1.0
  C  C116  1  0.93976924  0.54545127  0.70733825  1.0
  C  C117  1  0.48504600  0.45488621  0.79233918  1.0
  C  C118  1  0.06022877  0.45455545  0.29266025  1.0
  C  C119  1  0.51496213  0.54510596  0.20766175  1.0
  C  C120  1  0.89875491  0.63551310  0.67262587  1.0
  C  C121  1  0.53395519  0.36483684  0.82716387  1.0
  C  C122  1  0.10124112  0.36449334  0.32737356  1.0
  C  C123  1  0.46605294  0.63515492  0.17283750  1.0
  C  C124  1  0.81109239  0.68521586  0.64811747  1.0
  C  C125  1  0.49590833  0.31511543  0.85159552  1.0
  C  C126  1  0.18890316  0.31478504  0.35188163  1.0
  C  C127  1  0.50409779  0.68487826  0.14840124  1.0
  C  C128  1  0.76615038  0.64271653  0.65731792  1.0
  C  C129  1  0.40845355  0.35760341  0.84206417  1.0
  C  C130  1  0.23384762  0.35728614  0.34268178  1.0
  C  C131  1  0.59155195  0.64239141  0.15792821  1.0
  C  C132  1  0.75614673  0.51142018  0.69494838  1.0
  C  C133  1  0.26726756  0.48880537  0.80434846  1.0
  C  C134  1  0.24385384  0.48858218  0.30505103  1.0
  C  C135  1  0.73273772  0.51118824  0.19564586  1.0
  C  C136  1  0.03311190  0.49407414  0.73403130  1.0
  C  C137  1  0.52716874  0.50622518  0.76570498  1.0
  C  C138  1  0.96688657  0.50593373  0.26596468  1.0
  C  C139  1  0.47284119  0.49376510  0.23430115  1.0
  C  C140  1  0.76490640  0.78022026  0.61052938  1.0
  C  C141  1  0.54471547  0.22012572  0.88944800  1.0
  C  C142  1  0.23508645  0.21978511  0.38946867  1.0
  C  C143  1  0.45528833  0.77986853  0.11055132  1.0
  C  C144  1  0.79824403  0.82445674  0.56236336  1.0
  C  C145  1  0.62200841  0.17627363  0.93760644  1.0
  C  C146  1  0.20175048  0.17554850  0.43763673  1.0
  C  C147  1  0.37799447  0.82372162  0.06239432  1.0
  C  C148  1  0.75147738  0.91236010  0.52178838  1.0
  C  C149  1  0.66334830  0.08837904  0.97827693  1.0
  C  C150  1  0.24851866  0.08764509  0.47821240  1.0
  C  C151  1  0.33665436  0.91161625  0.02172442  1.0
  C  C152  1  0.66923499  0.96120040  0.52753211  1.0
  C  C153  1  0.63040426  0.03912178  0.97270156  1.0
  C  C154  1  0.33076010  0.03880593  0.47246681  1.0
  C  C155  1  0.36959804  0.96087324  0.02729946  1.0
  C  C156  1  0.61707523  0.05039522  0.48322608  1.0
  C  C157  1  0.66765620  0.94990003  0.01710137  1.0
  C  C158  1  0.38292212  0.94961316  0.51677567  1.0
  C  C159  1  0.33234600  0.05009578  0.98290069  1.0
  C  C160  1  0.53708032  0.09638707  0.49012838  1.0
  C  C161  1  0.63414890  0.90347757  0.01035395  1.0
  C  C162  1  0.46291700  0.90361936  0.50987232  1.0
  C  C163  1  0.36585457  0.09651668  0.98964789  1.0
  C  C164  1  0.50758959  0.05433290  0.54365959  1.0
  C  C165  1  0.56284801  0.94515470  0.95690025  1.0
  C  C166  1  0.49240420  0.94567385  0.45633760  1.0
  C  C167  1  0.43715709  0.05483871  0.04310124  1.0
  C  C168  1  0.55620208  0.96715211  0.58655543  1.0
  C  C169  1  0.52405960  0.03234119  0.91392635  1.0
  C  C170  1  0.44378935  0.03285378  0.41343953  1.0
  C  C171  1  0.47594433  0.96765297  0.08607432  1.0
  C  C172  1  0.63720200  0.91790516  0.57896811  1.0
  C  C173  1  0.55532996  0.08201535  0.92133455  1.0
  C  C174  1  0.36279037  0.08210086  0.42102735  1.0
  C  C175  1  0.44467256  0.91797962  0.07866589  1.0
  C  C176  1  0.68634131  0.82743598  0.61910772  1.0
  C  C177  1  0.51380253  0.17250157  0.88105902  1.0
  C  C178  1  0.31364976  0.17256879  0.38088782  1.0
  C  C179  1  0.48620081  0.82749317  0.11894102  1.0
  C  C180  1  0.48197025  0.18941844  0.44036671  1.0
  C  C181  1  0.67219767  0.81043160  0.06020378  1.0
  C  C182  1  0.51802627  0.81058863  0.55963394  1.0
  C  C183  1  0.32780547  0.18956392  0.93979923  1.0
  C  C184  1  0.65381484  0.42088714  0.52231759  1.0
  C  C185  1  0.07484841  0.57919311  0.97734248  1.0
  C  C186  1  0.34617646  0.57911426  0.47769234  1.0
  C  C187  1  0.92515282  0.42080674  0.02265458  1.0
  C  C188  1  0.58887122  0.44945496  0.47014108  1.0
  C  C189  1  0.03835214  0.55054644  0.02956105  1.0
  C  C190  1  0.41111891  0.55054428  0.52987118  1.0
  C  C191  1  0.96165017  0.44945427  0.97043697  1.0
  C  C192  1  0.57723952  0.38935713  0.46229563  1.0
  C  C193  1  0.96674897  0.61058713  0.03758140  1.0
  C  C194  1  0.42275329  0.61064184  0.53771440  1.0
  C  C195  1  0.03325357  0.38941271  0.96241694  1.0
  C  C196  1  0.63286464  0.30122611  0.50435119  1.0
  C  C197  1  0.93438887  0.69872301  0.99555539  1.0
  C  C198  1  0.36713317  0.69877232  0.49565689  1.0
  C  C199  1  0.06561214  0.30127731  0.00444180  1.0
  C  C200  1  0.69943968  0.27127710  0.55621534  1.0
  C  C201  1  0.97109910  0.72875255  0.94362796  1.0
  C  C202  1  0.30055907  0.72872394  0.44379055  1.0
  C  C203  1  0.02890003  0.27124753  0.05636822  1.0
  C  C204  1  0.70817635  0.33259295  0.56557924  1.0
  C  C205  1  0.04114544  0.66751044  0.93417094  1.0
  C  C206  1  0.29182042  0.66740781  0.43442758  1.0
  C  C207  1  0.95885332  0.33248977  0.06582447  1.0
  C  C208  1  0.66139224  0.48633381  0.53253492  1.0
  C  C209  1  0.14770207  0.51382634  0.96691472  1.0
  C  C210  1  0.33860081  0.51366748  0.46747512  1.0
  C  C211  1  0.85229858  0.48617410  0.03308170  1.0
  C  C212  1  0.50339430  0.41956508  0.41078760  1.0
  C  C213  1  0.92317108  0.58029073  0.08929739  1.0
  C  C214  1  0.49660071  0.58043371  0.58922136  1.0
  C  C215  1  0.07682947  0.41971091  0.91069963  1.0
  C  C216  1  0.75889812  0.17771746  0.59833477  1.0
  C  C217  1  0.93699177  0.82235685  0.90153130  1.0
  C  C218  1  0.24110271  0.82228348  0.40166870  1.0
  C  C219  1  0.06300687  0.17764304  0.09846320  1.0
  C  C220  1  0.73348269  0.11827805  0.61195084  1.0
  C  C221  1  0.85219120  0.88163838  0.88815722  1.0
  C  C222  1  0.26651837  0.88172243  0.38805249  1.0
  C  C223  1  0.14780805  0.11836328  0.11183852  1.0
  C  C224  1  0.79060040  0.02842157  0.64853538  1.0
  C  C225  1  0.81940897  0.97153380  0.85159176  1.0
  C  C226  1  0.20940216  0.97157940  0.35146490  1.0
  C  C227  1  0.18059181  0.02846697  0.14840557  1.0
  C  C228  1  0.76534982  0.96709219  0.66202220  1.0
  C  C229  1  0.73294598  0.03273192  0.83847404  1.0
  C  C230  1  0.23465160  0.03290858  0.33798145  1.0
  C  C231  1  0.26705648  0.96726942  0.16152773  1.0
  C  C232  1  0.82346995  0.88015237  0.69516978  1.0
  C  C233  1  0.70412701  0.11970705  0.80537227  1.0
  C  C234  1  0.17653228  0.11984901  0.30483258  1.0
  C  C235  1  0.29587545  0.88029388  0.19462995  1.0
  C  C236  1  0.90994319  0.84998793  0.71721414  1.0
  C  C237  1  0.76027521  0.15008054  0.78295013  1.0
  C  C238  1  0.09005992  0.15001424  0.28278168  1.0
  C  C239  1  0.23972687  0.84991939  0.21704937  1.0
  C  C240  1  0.93573584  0.90842751  0.70602249  1.0
  C  C241  1  0.84439465  0.09177134  0.79379618  1.0
  C  C242  1  0.06426830  0.09157411  0.29396950  1.0
  C  C243  1  0.15560694  0.90822880  0.20620120  1.0
  C  C244  1  0.87762687  0.99807925  0.67170772  1.0
  C  C245  1  0.87595151  0.00209437  0.82811490  1.0
  C  C246  1  0.12237670  0.00192200  0.32828783  1.0
  C  C247  1  0.12404878  0.99790620  0.17188075  1.0
  C  C248  1  0.90232623  0.05956316  0.65878231  1.0
  C  C249  1  0.96207316  0.94077827  0.84079882  1.0
  C  C250  1  0.09767758  0.94043763  0.34121310  1.0
  C  C251  1  0.03792571  0.05922156  0.15919510  1.0
  C  C252  1  0.84496101  0.14652202  0.62367234  1.0
  C  C253  1  0.99174099  0.85377879  0.87594797  1.0
  C  C254  1  0.15504073  0.85347958  0.37632789  1.0
  C  C255  1  0.00825775  0.14622071  0.12404504  1.0
  C  C256  1  0.97387533  0.75587303  0.75017064  1.0
  C  C257  1  0.73004338  0.24424434  0.74987642  1.0
  C  C258  1  0.02612766  0.24412881  0.24982427  1.0
  C  C259  1  0.26996255  0.75575372  0.25012257  1.0
  O  O260  1  0.78556905  0.43222878  0.73188361  1.0
  O  O261  1  0.21757186  0.56799554  0.76744601  1.0
  O  O262  1  0.21443606  0.56777200  0.26811308  1.0
  O  O263  1  0.78243260  0.43199829  0.23254870  1.0
  O  O264  1  0.67848463  0.56187237  0.65785991  1.0
  O  O265  1  0.24003550  0.43827097  0.84149355  1.0
  O  O266  1  0.32151434  0.43812946  0.34214449  1.0
  O  O267  1  0.75997132  0.56172328  0.15850386  1.0
  O  O268  1  0.06749712  0.41200445  0.76621414  1.0
  O  O269  1  0.47964106  0.58829800  0.73351372  1.0
  O  O270  1  0.93250193  0.58800325  0.23378203  1.0
  O  O271  1  0.52036945  0.41169252  0.26649215  1.0
  O  O272  1  0.07459257  0.53303133  0.72373970  1.0
  O  O273  1  0.60756452  0.46725381  0.77601970  1.0
  O  O274  1  0.92540459  0.46697739  0.27625411  1.0
  O  O275  1  0.39244683  0.53273553  0.22398997  1.0
  O  O276  1  0.41829439  0.23613432  0.45531936  1.0
  O  O277  1  0.65526678  0.76356925  0.04546859  1.0
  O  O278  1  0.58169846  0.76387147  0.54467824  1.0
  O  O279  1  0.34473614  0.23642380  0.95453771  1.0
  O  O280  1  0.50203118  0.21685152  0.38407487  1.0
  O  O281  1  0.71971589  0.78310697  0.11634637  1.0
  O  O282  1  0.49797203  0.78315514  0.61592874  1.0
  O  O283  1  0.28028900  0.21688927  0.88365585  1.0
  O  O284  1  0.62100484  0.56483790  0.48466292  1.0
  O  O285  1  0.18562321  0.43524364  0.01468323  1.0
  O  O286  1  0.37898528  0.43516384  0.51534664  1.0
  O  O287  1  0.81437602  0.56475564  0.98531191  1.0
  O  O288  1  0.70484379  0.46577192  0.58755944  1.0
  O  O289  1  0.17061871  0.53452616  0.91182319  1.0
  O  O290  1  0.29515486  0.53422949  0.41244794  1.0
  O  O291  1  0.82938359  0.46547539  0.08817393  1.0
  O  O292  1  0.46038884  0.49821103  0.36800337  1.0
  O  O293  1  0.95871596  0.50162873  0.13203755  1.0
  O  O294  1  0.53960747  0.50178815  0.63200642  1.0
  O  O295  1  0.04128400  0.49837309  0.86795928  1.0
  O  O296  1  0.48745452  0.36053325  0.41591155  1.0
  O  O297  1  0.84834236  0.63929874  0.08440379  1.0
  O  O298  1  0.51253978  0.63946621  0.58409542  1.0
  O  O299  1  0.15165724  0.36070363  0.91559182  1.0
  O  O300  1  0.05023512  0.72996282  0.77377257  1.0
  O  O301  1  0.78022093  0.27038509  0.72567501  1.0
  O  O302  1  0.94977175  0.27003995  0.22621060  1.0
  O  O303  1  0.21978316  0.72961136  0.27431624  1.0
  O  O304  1  0.95097245  0.70334135  0.75275800  1.0
  O  O305  1  0.65477339  0.29661057  0.74771921  1.0
  O  O306  1  0.04902666  0.29665915  0.24724911  1.0
  O  O307  1  0.34523612  0.70338900  0.25228763  1.0
  O  O308  1  0.70058129  0.70373275  0.48571075  1.0
  O  O309  1  0.40377375  0.29615935  0.01382859  1.0
  O  O310  1  0.29941976  0.29626244  0.51429513  1.0
  O  O311  1  0.59622344  0.70384188  0.98617331  1.0
  O  O312  1  0.64342398  0.57908442  0.78634886  1.0
  O  O313  1  0.22211008  0.42130688  0.71317128  1.0
  O  O314  1  0.35657202  0.42091476  0.21365208  1.0
  O  O315  1  0.77787942  0.57869278  0.28682283  1.0
  O  O316  1  0.53167738  0.73831733  0.42203450  1.0
  O  O317  1  0.27034634  0.26171977  0.07813058  1.0
  O  O318  1  0.46831711  0.26168304  0.57796769  1.0
  O  O319  1  0.72965039  0.73828279  0.92187114  1.0
