# generated using pymatgen
data_GaH4C8O5
_symmetry_space_group_name_H-M   'P 1'
_cell_length_a   6.72557481
_cell_length_b   11.35392315
_cell_length_c   11.35960349
_cell_angle_alpha   67.88033180
_cell_angle_beta   72.81489543
_cell_angle_gamma   72.78315897
_symmetry_Int_Tables_number   1
_chemical_formula_structural   GaH4C8O5
_chemical_formula_sum   'Ga2 H8 C16 O10'
_cell_volume   750.80741118
_cell_formula_units_Z   2
loop_
 _symmetry_equiv_pos_site_id
 _symmetry_equiv_pos_as_xyz
  1  'x, y, z'
loop_
 _atom_site_type_symbol
 _atom_site_label
 _atom_site_symmetry_multiplicity
 _atom_site_fract_x
 _atom_site_fract_y
 _atom_site_fract_z
 _atom_site_occupancy
  Ga  Ga0  1  0.49981344  0.50001774  0.49997575  1.0
  Ga  Ga1  1  0.00019104  0.50001965  0.49997960  1.0
  H  H2  1  0.62000746  0.50814463  0.11349156  1.0
  H  H3  1  0.88005484  0.88648593  0.49190103  1.0
  H  H4  1  0.74152467  0.49180039  0.88649606  1.0
  H  H5  1  0.75839363  0.11355657  0.50815831  1.0
  H  H6  1  0.37997359  0.49192922  0.88652127  1.0
  H  H7  1  0.11996327  0.11348167  0.50804849  1.0
  H  H8  1  0.25845289  0.50826956  0.11352123  1.0
  H  H9  1  0.24163122  0.88641005  0.49179290  1.0
  C  C10  1  0.78562066  0.50450744  0.06251655  1.0
  C  C11  1  0.71442112  0.93745609  0.49552468  1.0
  C  C12  1  0.85254360  0.49547906  0.93750399  1.0
  C  C13  1  0.64742002  0.06252550  0.50450528  1.0
  C  C14  1  0.21435971  0.49556351  0.93749575  1.0
  C  C15  1  0.28559816  0.06251242  0.50443237  1.0
  C  C16  1  0.14744162  0.50458897  0.06251005  1.0
  C  C17  1  0.35259613  0.93744204  0.49545241  1.0
  C  C18  1  0.93303344  0.50873316  0.12542154  1.0
  C  C19  1  0.86207868  0.51492737  0.26157829  1.0
  C  C20  1  0.56702546  0.87454984  0.49132731  1.0
  C  C21  1  0.63800935  0.73837853  0.48515791  1.0
  C  C22  1  0.06695397  0.49131738  0.87459710  1.0
  C  C23  1  0.13790951  0.48506178  0.73847961  1.0
  C  C24  1  0.43298793  0.12541174  0.50864938  1.0
  C  C25  1  0.36200161  0.26154778  0.51487047  1.0
  O  O26  1  0.66597237  0.51725567  0.31357810  1.0
  O  O27  1  0.83416532  0.68639944  0.48280720  1.0
  O  O28  1  0.99587570  0.48274822  0.68659259  1.0
  O  O29  1  0.50401332  0.31346528  0.51714883  1.0
  O  O30  1  0.33403294  0.48270361  0.68644984  1.0
  O  O31  1  0.16583214  0.31355972  0.51723942  1.0
  O  O32  1  0.00414097  0.51721977  0.31344005  1.0
  O  O33  1  0.49596692  0.68648902  0.48289949  1.0
  O  O34  1  0.74999519  0.43496194  0.56501485  1.0
  O  O35  1  0.25001424  0.56507849  0.43492206  1.0
