# generated using pymatgen
data_Zn4H48C76N12O13
_symmetry_space_group_name_H-M   'P 1'
_cell_length_a   15.03337351
_cell_length_b   17.54188035
_cell_length_c   19.89100383
_cell_angle_alpha   115.11304843
_cell_angle_beta   92.59104547
_cell_angle_gamma   105.27478836
_symmetry_Int_Tables_number   1
_chemical_formula_structural   Zn4H48C76N12O13
_chemical_formula_sum   'Zn8 H96 C152 N24 O26'
_cell_volume   4507.25556920
_cell_formula_units_Z   2
loop_
 _symmetry_equiv_pos_site_id
 _symmetry_equiv_pos_as_xyz
  1  'x, y, z'
loop_
 _atom_site_type_symbol
 _atom_site_label
 _atom_site_symmetry_multiplicity
 _atom_site_fract_x
 _atom_site_fract_y
 _atom_site_fract_z
 _atom_site_occupancy
  Zn  Zn0  1  0.73549190  0.64144401  0.34314044  1.0
  Zn  Zn1  1  0.79612121  0.70067309  0.94578382  1.0
  Zn  Zn2  1  0.86028391  0.77765609  0.67878421  1.0
  Zn  Zn3  1  0.66832407  0.56392514  0.60962011  1.0
  Zn  Zn4  1  0.26450736  0.35855481  0.65685817  1.0
  Zn  Zn5  1  0.20387539  0.29932774  0.05421595  1.0
  Zn  Zn6  1  0.13971489  0.22234736  0.32121309  1.0
  Zn  Zn7  1  0.33167807  0.43607235  0.39037709  1.0
  H  H8  1  0.51783664  0.59743868  0.58827152  1.0
  H  H9  1  0.51358907  0.57081107  0.65722385  1.0
  H  H10  1  0.68780669  0.20196269  0.17037197  1.0
  H  H11  1  0.60660157  0.67577435  0.99079209  1.0
  H  H12  1  0.52975155  0.59975813  0.27722451  1.0
  H  H13  1  0.41917636  0.68550551  0.28905776  1.0
  H  H14  1  0.34216521  0.12170247  0.42027770  1.0
  H  H15  1  0.62317611  0.12107687  0.47115179  1.0
  H  H16  1  0.57388951  0.98836514  0.40422003  1.0
  H  H17  1  0.40265003  0.28490311  0.46253536  1.0
  H  H18  1  0.64496571  0.06619706  0.10987339  1.0
  H  H19  1  0.77576702  0.06289194  0.73676341  1.0
  H  H20  1  0.67913629  0.56058764  0.77277936  1.0
  H  H21  1  0.33109114  0.76315737  0.34916418  1.0
  H  H22  1  0.87980365  0.96757099  0.70779319  1.0
  H  H23  1  0.73055568  0.36540015  0.23630047  1.0
  H  H24  1  0.46811588  0.90138765  0.71051121  1.0
  H  H25  1  0.81843595  0.89086376  0.00541027  1.0
  H  H26  1  0.69892064  0.14404067  0.81139092  1.0
  H  H27  1  0.89587517  0.80155821  0.84995412  1.0
  H  H28  1  0.64670989  0.92149098  0.43607938  1.0
  H  H29  1  0.67435330  0.76414649  0.71881899  1.0
  H  H30  1  0.56345887  0.84914324  0.74781227  1.0
  H  H31  1  0.64150326  0.53086433  0.43616591  1.0
  H  H32  1  0.86077148  0.77123841  0.51390402  1.0
  H  H33  1  0.40779064  0.82905799  0.02223000  1.0
  H  H34  1  0.39724762  0.18387908  0.13017346  1.0
  H  H35  1  0.73585471  0.27006052  0.82523448  1.0
  H  H36  1  0.49989571  0.76510888  0.03689881  1.0
  H  H37  1  0.44893032  0.25843942  0.84473032  1.0
  H  H38  1  0.09329465  0.72413524  0.98654537  1.0
  H  H39  1  0.68120363  0.28341019  0.52012199  1.0
  H  H40  1  0.44095291  0.34875657  0.19838134  1.0
  H  H41  1  0.25867798  0.04643680  0.09029945  1.0
  H  H42  1  0.74944812  0.82597444  0.41305152  1.0
  H  H43  1  0.77953601  0.43262685  0.87203120  1.0
  H  H44  1  0.49284756  0.42204474  0.88594822  1.0
  H  H45  1  0.26676144  0.77930619  0.01376393  1.0
  H  H46  1  0.71863654  0.98894136  0.04678856  1.0
  H  H47  1  0.08353351  0.98878063  0.05471715  1.0
  H  H48  1  0.15680585  0.80293541  0.71575253  1.0
  H  H49  1  0.33073149  0.86607784  0.74365050  1.0
  H  H50  1  0.30895781  0.08877719  0.71178045  1.0
  H  H51  1  0.13400703  0.01982951  0.67627600  1.0
  H  H52  1  0.02442158  0.93154897  0.44304487  1.0
  H  H53  1  0.19636568  0.98622170  0.44517506  1.0
  H  H54  1  0.18882634  0.71946302  0.29696567  1.0
  H  H55  1  0.01721916  0.66699599  0.29291520  1.0
  H  H56  1  0.48217082  0.40256477  0.41172957  1.0
  H  H57  1  0.48642037  0.42919635  0.34277728  1.0
  H  H58  1  0.31219302  0.79803946  0.82962940  1.0
  H  H59  1  0.39339969  0.32422646  0.00920783  1.0
  H  H60  1  0.47024793  0.40024136  0.72277385  1.0
  H  H61  1  0.58082271  0.31449268  0.71094513  1.0
  H  H62  1  0.65783917  0.87829570  0.57972435  1.0
  H  H63  1  0.37682388  0.87891802  0.52885392  1.0
  H  H64  1  0.42611069  0.01163241  0.59578617  1.0
  H  H65  1  0.59735744  0.71509236  0.53746025  1.0
  H  H66  1  0.35503224  0.93380577  0.89013019  1.0
  H  H67  1  0.22423223  0.93711087  0.26323668  1.0
  H  H68  1  0.32086141  0.43940653  0.22721395  1.0
  H  H69  1  0.66890349  0.23683950  0.65083808  1.0
  H  H70  1  0.12019981  0.03243644  0.29220724  1.0
  H  H71  1  0.26943915  0.63460533  0.76370298  1.0
  H  H72  1  0.53188583  0.09861251  0.28948948  1.0
  H  H73  1  0.18156262  0.10913903  0.99458627  1.0
  H  H74  1  0.30108152  0.85596281  0.18861202  1.0
  H  H75  1  0.10411524  0.19844197  0.15004672  1.0
  H  H76  1  0.35328850  0.07850919  0.56392322  1.0
  H  H77  1  0.32565285  0.23585499  0.28118334  1.0
  H  H78  1  0.43655061  0.15086222  0.25219416  1.0
  H  H79  1  0.35849867  0.46913251  0.56383305  1.0
  H  H80  1  0.13922223  0.22876373  0.48609363  1.0
  H  H81  1  0.59221126  0.17094279  0.97776540  1.0
  H  H82  1  0.60275166  0.81611975  0.86982666  1.0
  H  H83  1  0.26414439  0.72993571  0.17477321  1.0
  H  H84  1  0.50010731  0.23489524  0.96310139  1.0
  H  H85  1  0.55106631  0.74156144  0.15527549  1.0
  H  H86  1  0.90670660  0.27586157  0.01344954  1.0
  H  H87  1  0.31880299  0.71658467  0.47988141  1.0
  H  H88  1  0.55904058  0.65124293  0.80161684  1.0
  H  H89  1  0.74132037  0.95356133  0.90969284  1.0
  H  H90  1  0.25055071  0.17402307  0.58694810  1.0
  H  H91  1  0.22046419  0.56737268  0.12797625  1.0
  H  H92  1  0.50715152  0.57795744  0.11405817  1.0
  H  H93  1  0.73324070  0.22069328  0.98623401  1.0
  H  H94  1  0.28136290  0.01106407  0.95320698  1.0
  H  H95  1  0.91646727  0.01121683  0.94527396  1.0
  H  H96  1  0.84319764  0.19706009  0.28424548  1.0
  H  H97  1  0.66926842  0.13392295  0.25634585  1.0
  H  H98  1  0.69103928  0.91122898  0.28822988  1.0
  H  H99  1  0.86598650  0.98017202  0.32372997  1.0
  H  H100  1  0.97557635  0.06844986  0.55695370  1.0
  H  H101  1  0.80363362  0.01377915  0.55483134  1.0
  H  H102  1  0.81117028  0.28053982  0.70303836  1.0
  H  H103  1  0.98277766  0.33300748  0.70708506  1.0
  C  C104  1  0.52279816  0.81252300  0.36340728  1.0
  C  C105  1  0.63265344  0.23292094  0.17596451  1.0
  C  C106  1  0.62917669  0.74622419  0.00615521  1.0
  C  C107  1  0.55291485  0.67150588  0.31082839  1.0
  C  C108  1  0.54588529  0.29457846  0.49389631  1.0
  C  C109  1  0.47786961  0.10949823  0.44124851  1.0
  C  C110  1  0.49123253  0.72028858  0.31894030  1.0
  C  C111  1  0.61217937  0.46476000  0.27274397  1.0
  C  C112  1  0.41667856  0.15758959  0.44046141  1.0
  C  C113  1  0.57387507  0.15596247  0.46878823  1.0
  C  C114  1  0.49900194  0.95927738  0.39910841  1.0
  C  C115  1  0.59272651  0.01614078  0.75950773  1.0
  C  C116  1  0.45041497  0.24850881  0.46473570  1.0
  C  C117  1  0.56978068  0.03310073  0.09683399  1.0
  C  C118  1  0.75069047  0.99792243  0.73518909  1.0
  C  C119  1  0.53479876  0.94044459  0.06465795  1.0
  C  C120  1  0.44016721  0.01246513  0.41468575  1.0
  C  C121  1  0.73240560  0.61686575  0.77399991  1.0
  C  C122  1  0.36340799  0.83317073  0.36530435  1.0
  C  C123  1  0.80966287  0.94571237  0.71898484  1.0
  C  C124  1  0.65739863  0.32509056  0.21339424  1.0
  C  C125  1  0.55913295  0.15518022  0.80142166  1.0
  C  C126  1  0.27531147  0.91756994  0.05249282  1.0
  C  C127  1  0.46084825  0.86820229  0.37520241  1.0
  C  C128  1  0.58863395  0.25285743  0.83243992  1.0
  C  C129  1  0.58810947  0.36708490  0.22412483  1.0
  C  C130  1  0.50718387  0.08248481  0.11200810  1.0
  C  C131  1  0.49581316  0.97342082  0.73905782  1.0
  C  C132  1  0.58160597  0.39253584  0.52217736  1.0
  C  C133  1  0.53815548  0.18075583  0.14713781  1.0
  C  C134  1  0.74706472  0.86682040  0.01359399  1.0
  C  C135  1  0.62427195  0.10870321  0.79213667  1.0
  C  C136  1  0.84196254  0.73974827  0.81293035  1.0
  C  C137  1  0.61746656  0.85095862  0.39814948  1.0
  C  C138  1  0.69520907  0.83119815  0.72428483  1.0
  C  C139  1  0.63261240  0.87923044  0.73989607  1.0
  C  C140  1  0.69861757  0.59045255  0.47154762  1.0
  C  C141  1  0.80978153  0.71274783  0.51143351  1.0
  C  C142  1  0.43756374  0.90086170  0.04930504  1.0
  C  C143  1  0.47001306  0.22424063  0.15437045  1.0
  C  C144  1  0.65938888  0.96488714  0.74556287  1.0
  C  C145  1  0.68210888  0.30261521  0.84029892  1.0
  C  C146  1  0.37882583  0.95431146  0.06678658  1.0
  C  C147  1  0.43458760  0.02420976  0.75139477  1.0
  C  C148  1  0.07807245  0.85284954  0.01802895  1.0
  C  C149  1  0.30828669  0.88990827  0.38071307  1.0
  C  C150  1  0.56931360  0.79673595  0.03033372  1.0
  C  C151  1  0.52124987  0.29745349  0.85131570  1.0
  C  C152  1  0.13026390  0.79467123  0.00836387  1.0
  C  C153  1  0.60721043  0.24750573  0.49638507  1.0
  C  C154  1  0.49429185  0.31584596  0.19281772  1.0
  C  C155  1  0.22169142  0.97579556  0.06638133  1.0
  C  C156  1  0.67535039  0.79866130  0.38723308  1.0
  C  C157  1  0.70710697  0.39377057  0.86544063  1.0
  C  C158  1  0.54572164  0.38808904  0.87428959  1.0
  C  C159  1  0.22789249  0.82646175  0.02417353  1.0
  C  C160  1  0.69056070  0.92074063  0.03738628  1.0
  C  C161  1  0.90921211  0.76412011  0.37284666  1.0
  C  C162  1  0.59846520  0.88600732  0.04499535  1.0
  C  C163  1  0.63877263  0.43693311  0.88107891  1.0
  C  C164  1  0.12461340  0.94397785  0.04787246  1.0
  C  C165  1  0.66425794  0.53320887  0.89971666  1.0
  C  C166  1  0.97392681  0.81926629  0.99264581  1.0
  C  C167  1  0.13493326  0.90790824  0.69494389  1.0
  C  C168  1  0.19093545  0.86467378  0.71355721  1.0
  C  C169  1  0.28815738  0.90060071  0.72944502  1.0
  C  C170  1  0.33161148  0.98241829  0.73010939  1.0
  C  C171  1  0.27509389  0.02533396  0.71119026  1.0
  C  C172  1  0.17803943  0.98764371  0.69230736  1.0
  C  C173  1  0.03023547  0.87076412  0.67971991  1.0
  C  C174  1  0.06130708  0.88602909  0.41077068  1.0
  C  C175  1  0.15694558  0.91623228  0.41233412  1.0
  C  C176  1  0.20520837  0.85676970  0.37325610  1.0
  C  C177  1  0.15368627  0.76670656  0.32947262  1.0
  C  C178  1  0.05742708  0.73668675  0.32668496  1.0
  C  C179  1  0.01080916  0.79579592  0.36865467  1.0
  C  C180  1  0.47720046  0.18747386  0.63659460  1.0
  C  C181  1  0.36734692  0.76708119  0.82403385  1.0
  C  C182  1  0.37082367  0.25377595  0.99384241  1.0
  C  C183  1  0.44708355  0.32849231  0.68917397  1.0
  C  C184  1  0.45412197  0.70542035  0.50610456  1.0
  C  C185  1  0.52213235  0.89050062  0.55875673  1.0
  C  C186  1  0.50876233  0.27970697  0.68106248  1.0
  C  C187  1  0.38781855  0.53524280  0.72725456  1.0
  C  C188  1  0.58332804  0.84240924  0.55954045  1.0
  C  C189  1  0.42612713  0.84403508  0.53121955  1.0
  C  C190  1  0.50099471  0.04071751  0.60089569  1.0
  C  C191  1  0.40727386  0.98386137  0.24049265  1.0
  C  C192  1  0.54959472  0.75148933  0.53526399  1.0
  C  C193  1  0.43021860  0.96690010  0.90316838  1.0
  C  C194  1  0.24931300  0.00208103  0.26481188  1.0
  C  C195  1  0.46520028  0.05955557  0.93534215  1.0
  C  C196  1  0.55983366  0.98753440  0.58532172  1.0
  C  C197  1  0.26759300  0.38313109  0.22599744  1.0
  C  C198  1  0.63659110  0.16682349  0.63469958  1.0
  C  C199  1  0.19033973  0.05429044  0.28101687  1.0
  C  C200  1  0.34259840  0.67491157  0.78660302  1.0
  C  C201  1  0.44086589  0.84481929  0.19858071  1.0
  C  C202  1  0.72468843  0.08242886  0.94750026  1.0
  C  C203  1  0.53914973  0.13179260  0.62480123  1.0
  C  C204  1  0.41136514  0.74714476  0.16756949  1.0
  C  C205  1  0.41188334  0.63291458  0.77586929  1.0
  C  C206  1  0.49281385  0.91751535  0.88799247  1.0
  C  C207  1  0.50418789  0.02657935  0.26094386  1.0
  C  C208  1  0.41839972  0.60746031  0.47781946  1.0
  C  C209  1  0.46184489  0.81924432  0.85286082  1.0
  C  C210  1  0.25293495  0.13318172  0.98640083  1.0
  C  C211  1  0.37572710  0.89129694  0.20786343  1.0
  C  C212  1  0.15803584  0.26025188  0.18706923  1.0
  C  C213  1  0.38253183  0.14904155  0.60185363  1.0
  C  C214  1  0.30479618  0.16880066  0.27571396  1.0
  C  C215  1  0.36738951  0.12077036  0.26010134  1.0
  C  C216  1  0.30138369  0.40954626  0.52845004  1.0
  C  C217  1  0.19021240  0.28725299  0.48856416  1.0
  C  C218  1  0.56243508  0.09913778  0.95069330  1.0
  C  C219  1  0.52998596  0.77575950  0.84562562  1.0
  C  C220  1  0.34061392  0.03511432  0.25443583  1.0
  C  C221  1  0.31789131  0.69738433  0.15970853  1.0
  C  C222  1  0.62117186  0.04569067  0.93321019  1.0
  C  C223  1  0.56541100  0.97578908  0.24860483  1.0
  C  C224  1  0.92193033  0.14714792  0.98196373  1.0
  C  C225  1  0.69171417  0.11008926  0.61929265  1.0
  C  C226  1  0.43069055  0.20326752  0.96966929  1.0
  C  C227  1  0.47874921  0.70254870  0.14869169  1.0
  C  C228  1  0.86973711  0.20532490  0.99162776  1.0
  C  C229  1  0.39279397  0.75249047  0.50361876  1.0
  C  C230  1  0.50570672  0.68415483  0.80717707  1.0
  C  C231  1  0.77830936  0.02420189  0.93360928  1.0
  C  C232  1  0.32464491  0.20133755  0.61276893  1.0
  C  C233  1  0.29289412  0.60622964  0.13456961  1.0
  C  C234  1  0.45427944  0.61191314  0.12571837  1.0
  C  C235  1  0.77210742  0.17353706  0.97582157  1.0
  C  C236  1  0.30944098  0.07926348  0.96261135  1.0
  C  C237  1  0.09078269  0.23588335  0.62715051  1.0
  C  C238  1  0.40153649  0.11399680  0.95500480  1.0
  C  C239  1  0.36122799  0.56306574  0.11892578  1.0
  C  C240  1  0.87538605  0.05602160  0.95211935  1.0
  C  C241  1  0.33574401  0.46678997  0.10028657  1.0
  C  C242  1  0.02607444  0.18072654  0.00734712  1.0
  C  C243  1  0.86506423  0.09209125  0.30505542  1.0
  C  C244  1  0.80906269  0.13532370  0.28643835  1.0
  C  C245  1  0.71184011  0.09939680  0.27055304  1.0
  C  C246  1  0.66838779  0.01758253  0.26989147  1.0
  C  C247  1  0.72490340  0.97466887  0.28881431  1.0
  C  C248  1  0.82195786  0.01235913  0.30769720  1.0
  C  C249  1  0.96976176  0.12923866  0.32027406  1.0
  C  C250  1  0.93869129  0.11397106  0.58922739  1.0
  C  C251  1  0.84305259  0.08376723  0.58766773  1.0
  C  C252  1  0.79479181  0.14322981  0.62674833  1.0
  C  C253  1  0.84631012  0.23329560  0.67052965  1.0
  C  C254  1  0.94257152  0.26331805  0.67331635  1.0
  C  C255  1  0.98918721  0.20420622  0.63134408  1.0
  N  N256  1  0.64393025  0.70987606  0.34424699  1.0
  N  N257  1  0.72622749  0.61750536  0.54479801  1.0
  N  N258  1  0.46620277  0.11306704  0.78137970  1.0
  N  N259  1  0.78247682  0.86325020  0.71351655  1.0
  N  N260  1  0.81777682  0.70917680  0.73879566  1.0
  N  N261  1  0.34681197  0.97797339  0.40591524  1.0
  N  N262  1  0.41405801  0.04292661  0.09694616  1.0
  N  N263  1  0.74738426  0.63004902  0.71371738  1.0
  N  N264  1  0.79781812  0.69618876  0.57038807  1.0
  N  N265  1  0.71660984  0.78009549  0.99678342  1.0
  N  N266  1  0.74902983  0.64797690  0.44845282  1.0
  N  N267  1  0.79001808  0.68407161  0.83725451  1.0
  N  N268  1  0.35606835  0.29012476  0.65575435  1.0
  N  N269  1  0.27377444  0.38249346  0.45520017  1.0
  N  N270  1  0.53379830  0.88693314  0.21862600  1.0
  N  N271  1  0.21752887  0.13675391  0.28648473  1.0
  N  N272  1  0.18222555  0.29082136  0.26120330  1.0
  N  N273  1  0.65318779  0.02202482  0.59409170  1.0
  N  N274  1  0.58594147  0.95707486  0.90305244  1.0
  N  N275  1  0.25262077  0.36994713  0.28627891  1.0
  N  N276  1  0.20218025  0.30381139  0.42960899  1.0
  N  N277  1  0.28339074  0.21990729  0.00321419  1.0
  N  N278  1  0.25096477  0.35202392  0.55154588  1.0
  N  N279  1  0.20997364  0.31592856  0.16274486  1.0
  O  O280  1  0.64791782  0.43694664  0.58067055  1.0
  O  O281  1  0.68996189  0.51422063  0.26933231  1.0
  O  O282  1  0.55645728  0.60595939  0.63515532  1.0
  O  O283  1  0.55643808  0.49317009  0.31601802  1.0
  O  O284  1  0.74852944  0.58072508  0.93693033  1.0
  O  O285  1  0.93009186  0.74411422  0.99100868  1.0
  O  O286  1  0.54754485  0.42997930  0.49029598  1.0
  O  O287  1  0.86204256  0.68349156  0.32410055  1.0
  O  O288  1  0.93594438  0.86409897  0.97279819  1.0
  O  O289  1  0.60592769  0.56043457  0.87684934  1.0
  O  O290  1  0.87633004  0.81516014  0.42356174  1.0
  O  O291  1  0.99633367  0.81171628  0.70322032  1.0
  O  O292  1  0.97953055  0.89623444  0.64744758  1.0
  O  O293  1  0.35208786  0.56304950  0.41932476  1.0
  O  O294  1  0.31003537  0.48577819  0.73066523  1.0
  O  O295  1  0.44355018  0.39404207  0.36484352  1.0
  O  O296  1  0.44355983  0.50683669  0.68398150  1.0
  O  O297  1  0.25147471  0.41927639  0.06307093  1.0
  O  O298  1  0.06991004  0.25588059  0.00898349  1.0
  O  O299  1  0.45245886  0.57001686  0.50970279  1.0
  O  O300  1  0.13795427  0.31650993  0.67589998  1.0
  O  O301  1  0.06405290  0.13589588  0.02719989  1.0
  O  O302  1  0.39407359  0.43955829  0.12314812  1.0
  O  O303  1  0.12366297  0.18484397  0.57643210  1.0
  O  O304  1  0.00366422  0.18828051  0.29676995  1.0
  O  O305  1  0.02046867  0.10377032  0.35254771  1.0
