# generated using pymatgen
data_ZnH17C25NO5
_symmetry_space_group_name_H-M   'P 1'
_cell_length_a   11.02941135
_cell_length_b   18.26293892
_cell_length_c   19.15056647
_cell_angle_alpha   89.72140052
_cell_angle_beta   89.70914051
_cell_angle_gamma   89.73340057
_symmetry_Int_Tables_number   1
_chemical_formula_structural   ZnH17C25NO5
_chemical_formula_sum   'Zn2 H34 C50 N2 O10'
_cell_volume   3857.35174977
_cell_formula_units_Z   2
loop_
 _symmetry_equiv_pos_site_id
 _symmetry_equiv_pos_as_xyz
  1  'x, y, z'
loop_
 _atom_site_type_symbol
 _atom_site_label
 _atom_site_symmetry_multiplicity
 _atom_site_fract_x
 _atom_site_fract_y
 _atom_site_fract_z
 _atom_site_occupancy
  Zn  Zn0  1  0.48483687  0.42308031  0.50188907  1.0
  Zn  Zn1  1  0.48461201  0.57520101  0.49734473  1.0
  H  H2  1  0.09497970  0.56591366  0.41764587  1.0
  H  H3  1  0.86824980  0.56540099  0.42091155  1.0
  H  H4  1  0.64938408  0.30719467  0.55500266  1.0
  H  H5  1  0.32824873  0.30600732  0.44483193  1.0
  H  H6  1  0.65822247  0.17047324  0.55948794  1.0
  H  H7  1  0.32769903  0.16931624  0.43864442  1.0
  H  H8  1  0.29862185  0.06620174  0.49627077  1.0
  H  H9  1  0.68933192  0.06581606  0.50318540  1.0
  H  H10  1  0.29957935  0.93151555  0.49478870  1.0
  H  H11  1  0.68988413  0.93101336  0.50285966  1.0
  H  H12  1  0.64561236  0.82525729  0.56799375  1.0
  H  H13  1  0.34275844  0.83148706  0.42540803  1.0
  H  H14  1  0.63540745  0.68826123  0.56292533  1.0
  H  H15  1  0.34394900  0.69437624  0.42838666  1.0
  H  H16  1  0.21632588  0.42736001  0.61931719  1.0
  H  H17  1  0.76426188  0.42845220  0.62680787  1.0
  H  H18  1  0.10809122  0.37096676  0.71844221  1.0
  H  H19  1  0.88106256  0.37191137  0.72257099  1.0
  H  H20  1  0.63765908  0.60250832  0.69702426  1.0
  H  H21  1  0.63007051  0.60576792  0.29848513  1.0
  H  H22  1  0.71674341  0.60686280  0.81849837  1.0
  H  H23  1  0.70665682  0.61059507  0.17602775  1.0
  H  H24  1  0.52982969  0.40495096  0.86315999  1.0
  H  H25  1  0.54166221  0.40060960  0.13915712  1.0
  H  H26  1  0.70796040  0.39427137  0.93472932  1.0
  H  H27  1  0.70844537  0.39430116  0.06378782  1.0
  H  H28  1  0.62351488  0.62463524  0.06285423  1.0
  H  H29  1  0.62466390  0.62473978  0.93402735  1.0
  H  H30  1  0.54794095  0.30087186  0.76534165  1.0
  H  H31  1  0.54566976  0.32988404  0.67511762  1.0
  H  H32  1  0.41716038  0.28393270  0.71233499  1.0
  H  H33  1  0.56824578  0.32655956  0.33008793  1.0
  H  H34  1  0.57909893  0.30104666  0.23928542  1.0
  H  H35  1  0.44796153  0.27605429  0.28967551  1.0
  C  C36  1  0.50971356  0.50031567  0.36394675  1.0
  C  C37  1  0.50258967  0.50212194  0.63603831  1.0
  C  C38  1  0.63068055  0.50551980  0.84993473  1.0
  C  C39  1  0.63158630  0.50529269  0.14837181  1.0
  C  C40  1  0.55895068  0.44739720  0.82659418  1.0
  C  C41  1  0.56728887  0.44471890  0.17423342  1.0
  C  C42  1  0.51457485  0.44511053  0.75854836  1.0
  C  C43  1  0.52609284  0.44166420  0.24318751  1.0
  C  C44  1  0.54301263  0.50150110  0.71072264  1.0
  C  C45  1  0.54873272  0.50012794  0.28884249  1.0
  C  C46  1  0.68852880  0.44484855  0.96284284  1.0
  C  C47  1  0.68861480  0.44485277  0.03540025  1.0
  C  C48  1  0.66002234  0.50870006  0.07299012  1.0
  C  C49  1  0.66048466  0.50879752  0.92491805  1.0
  C  C50  1  0.64512688  0.57417876  0.03504480  1.0
  C  C51  1  0.64567435  0.57427431  0.96229527  1.0
  C  C52  1  0.57922549  0.27371540  0.53124677  1.0
  C  C53  1  0.39976543  0.27313331  0.46883402  1.0
  C  C54  1  0.58417380  0.19772042  0.53219221  1.0
  C  C55  1  0.39960298  0.19714042  0.46670649  1.0
  C  C56  1  0.49279979  0.15722563  0.49942942  1.0
  C  C57  1  0.24859842  0.49778942  0.50238210  1.0
  C  C58  1  0.72239778  0.49671299  0.50725693  1.0
  C  C59  1  0.38496960  0.03694330  0.49633675  1.0
  C  C60  1  0.60328816  0.03668050  0.50238582  1.0
  C  C61  1  0.38540638  0.96087860  0.49561471  1.0
  C  C62  1  0.60368503  0.96050842  0.50210007  1.0
  C  C63  1  0.49474211  0.92117442  0.49828549  1.0
  C  C64  1  0.49393411  0.07644979  0.49934888  1.0
  C  C65  1  0.57808720  0.79879794  0.53548433  1.0
  C  C66  1  0.40832559  0.80221522  0.45761865  1.0
  C  C67  1  0.57263528  0.72286532  0.53366348  1.0
  C  C68  1  0.40870691  0.72619636  0.45841890  1.0
  C  C69  1  0.49410197  0.84046073  0.49710886  1.0
  C  C70  1  0.11749998  0.42719284  0.62024724  1.0
  C  C71  1  0.86290608  0.42761927  0.62450001  1.0
  C  C72  1  0.05673231  0.39544612  0.67567123  1.0
  C  C73  1  0.92854508  0.39588933  0.67788128  1.0
  C  C74  1  0.92229897  0.46104361  0.56652596  1.0
  C  C75  1  0.05277929  0.46109973  0.56465875  1.0
  C  C76  1  0.11304688  0.49833794  0.50871634  1.0
  C  C77  1  0.85770761  0.49799698  0.51209124  1.0
  C  C78  1  0.04721571  0.53636919  0.45897165  1.0
  C  C79  1  0.91989626  0.53616351  0.46072090  1.0
  C  C80  1  0.61603962  0.55916176  0.73427298  1.0
  C  C81  1  0.61328135  0.56062727  0.26284130  1.0
  C  C82  1  0.65973792  0.56149042  0.80215716  1.0
  C  C83  1  0.65523909  0.56330784  0.19430846  1.0
  C  C84  1  0.49077609  0.32244488  0.72273955  1.0
  C  C85  1  0.51711548  0.31826673  0.28157749  1.0
  N  N86  1  0.48805989  0.31078430  0.50064054  1.0
  N  N87  1  0.48911940  0.68728328  0.49603588  1.0
  O  O88  1  0.51152150  0.43944358  0.39664811  1.0
  O  O89  1  0.47514767  0.44117991  0.60829067  1.0
  O  O90  1  0.48231160  0.56226499  0.39015450  1.0
  O  O91  1  0.50326269  0.56391217  0.60478049  1.0
  O  O92  1  0.30024391  0.43568840  0.49577032  1.0
  O  O93  1  0.67008616  0.43526062  0.51574507  1.0
  O  O94  1  0.30085841  0.55974483  0.50319303  1.0
  O  O95  1  0.67004402  0.55729491  0.49314057  1.0
  O  O96  1  0.43418887  0.39002641  0.74222822  1.0
  O  O97  1  0.45295011  0.38386685  0.26295832  1.0
