# generated using pymatgen
data_Al6H82(C7O3)13
_symmetry_space_group_name_H-M   'P 1'
_cell_length_a   13.01945135
_cell_length_b   13.03666565
_cell_length_c   28.34151215
_cell_angle_alpha   89.88726191
_cell_angle_beta   88.98705261
_cell_angle_gamma   60.59032552
_symmetry_Int_Tables_number   1
_chemical_formula_structural   Al6H82(C7O3)13
_chemical_formula_sum   'Al6 H82 C91 O39'
_cell_volume   4189.71881534
_cell_formula_units_Z   1
loop_
 _symmetry_equiv_pos_site_id
 _symmetry_equiv_pos_as_xyz
  1  'x, y, z'
loop_
 _atom_site_type_symbol
 _atom_site_label
 _atom_site_symmetry_multiplicity
 _atom_site_fract_x
 _atom_site_fract_y
 _atom_site_fract_z
 _atom_site_occupancy
  Al  Al0  1  0.41459982  0.40546469  0.50244571  1.0
  Al  Al1  1  0.41897071  0.64975402  0.50102195  1.0
  Al  Al2  1  0.65076137  0.42591049  0.49980670  1.0
  Al  Al3  1  0.92529780  0.92299825  0.99826282  1.0
  Al  Al4  1  0.68149089  0.91657235  0.00170123  1.0
  Al  Al5  1  0.90759686  0.68605130  0.00267946  1.0
  H  H6  1  0.86704834  0.03517914  0.69530598  1.0
  H  H7  1  0.56806926  0.89000055  0.70660313  1.0
  H  H8  1  0.33213343  0.49710783  0.71329562  1.0
  H  H9  1  0.00862032  0.65917075  0.69417676  1.0
  H  H10  1  0.13191939  0.52009599  0.70530504  1.0
  H  H11  1  0.06115663  0.54652684  0.78390268  1.0
  H  H12  1  0.96112228  0.69709998  0.77522676  1.0
  H  H13  1  0.01451845  0.82919932  0.71464131  1.0
  H  H14  1  0.18301413  0.79879453  0.79255237  1.0
  H  H15  1  0.34840910  0.61973846  0.72707006  1.0
  H  H16  1  0.32119990  0.58701703  0.80661511  1.0
  H  H17  1  0.87293413  0.03844252  0.77828766  1.0
  H  H18  1  0.02924416  0.85428861  0.79564267  1.0
  H  H19  1  0.76927174  0.48344729  0.20437196  1.0
  H  H20  1  0.74042136  0.46974328  0.28548849  1.0
  H  H21  1  0.74522544  0.75272341  0.30236141  1.0
  H  H22  1  0.83423873  0.59763375  0.29678401  1.0
  H  H23  1  0.85142697  0.62290383  0.21562447  1.0
  H  H24  1  0.75399063  0.77595536  0.22180169  1.0
  H  H25  1  0.45598461  0.76433658  0.28668352  1.0
  H  H26  1  0.52939169  0.84793491  0.28955982  1.0
  H  H27  1  0.47878040  0.74888609  0.20530655  1.0
  H  H28  1  0.81969580  0.93759005  0.77636564  1.0
  H  H29  1  0.80041124  0.50479797  0.78152130  1.0
  H  H30  1  0.58634483  0.53569551  0.27763313  1.0
  H  H31  1  0.61590867  0.54051800  0.19689795  1.0
  H  H32  1  0.47857636  0.28092099  0.20298256  1.0
  H  H33  1  0.47689725  0.25557608  0.28446048  1.0
  H  H34  1  0.79282879  0.00391983  0.28382951  1.0
  H  H35  1  0.70969677  0.31573090  0.26953835  1.0
  H  H36  1  0.87316696  0.58836646  0.70360287  1.0
  H  H37  1  0.79467515  0.22878503  0.19619598  1.0
  H  H38  1  0.51835814  0.36561795  0.28820336  1.0
  H  H39  1  0.49190471  0.25462370  0.71509158  1.0
  H  H40  1  0.56198894  0.35437304  0.20703644  1.0
  H  H41  1  0.85540141  0.08293353  0.21720773  1.0
  H  H42  1  0.23107652  0.79474278  0.27940831  1.0
  H  H43  1  0.01101470  0.69810981  0.30181773  1.0
  H  H44  1  0.03455094  0.81999474  0.30612533  1.0
  H  H45  1  0.01947911  0.84849754  0.22458833  1.0
  H  H46  1  0.78556992  0.81033899  0.74925113  1.0
  H  H47  1  0.97120665  0.74527730  0.22209093  1.0
  H  H48  1  0.32394068  0.47348953  0.27663684  1.0
  H  H49  1  0.18675383  0.49002237  0.29608849  1.0
  H  H50  1  0.49794949  0.17067108  0.78907816  1.0
  H  H51  1  0.25647201  0.47646645  0.20039774  1.0
  H  H52  1  0.35968082  0.65407251  0.28067660  1.0
  H  H53  1  0.10835204  0.53683463  0.21981619  1.0
  H  H54  1  0.74052520  0.24786413  0.80413200  1.0
  H  H55  1  0.77367448  0.25320286  0.72244967  1.0
  H  H56  1  0.77224657  0.97370816  0.69566569  1.0
  H  H57  1  0.42358794  0.98790139  0.77467852  1.0
  H  H58  1  0.49191494  0.93088678  0.83060322  1.0
  H  H59  1  0.34270414  0.96442495  0.82149415  1.0
  H  H60  1  0.52831398  0.11831989  0.65613041  1.0
  H  H61  1  0.62038302  0.34685514  0.71879252  1.0
  H  H62  1  0.31525138  0.77411793  0.68382019  1.0
  H  H63  1  0.29517961  0.81880339  0.74477478  1.0
  H  H64  1  0.26152474  0.92479522  0.69937653  1.0
  H  H65  1  0.48833197  0.61625263  0.80605486  1.0
  H  H66  1  0.62890788  0.48413624  0.80236401  1.0
  H  H67  1  0.50155759  0.48602881  0.77871227  1.0
  H  H68  1  0.51850823  0.88848326  0.17317591  1.0
  H  H69  1  0.46984303  0.08961835  0.30027776  1.0
  H  H70  1  0.51842678  0.13559259  0.35121839  1.0
  H  H71  1  0.52596338  0.99558912  0.35058069  1.0
  H  H72  1  0.58710280  0.30777465  0.79740669  1.0
  H  H73  1  0.56030010  0.99167163  0.22492490  1.0
  H  H74  1  0.75144275  0.95168558  0.17551689  1.0
  H  H75  1  0.96184610  0.01115111  0.27959710  1.0
  H  H76  1  0.89168773  0.04875085  0.33714848  1.0
  H  H77  1  0.01293430  0.07231268  0.32374803  1.0
  H  H78  1  0.13500769  0.93132754  0.22631092  1.0
  H  H79  1  0.09928739  0.89929388  0.16887790  1.0
  H  H80  1  0.20152465  0.95253514  0.17439017  1.0
  H  H81  1  0.37688407  0.63625014  0.13336298  1.0
  H  H82  1  0.34254114  0.51976558  0.14141023  1.0
  H  H83  1  0.59358779  0.02697213  0.76707825  1.0
  H  H84  1  0.48904256  0.49271243  0.15077384  1.0
  H  H85  1  0.27793108  0.48241758  0.79155497  1.0
  H  H86  1  0.30259896  0.32155347  0.47631796  1.0
  H  H87  1  0.02262097  0.02179122  0.02489226  1.0
  C  C88  1  0.28438144  0.61339956  0.56832663  1.0
  C  C89  1  0.64605415  0.66277096  0.65004928  1.0
  C  C90  1  0.68792355  0.25930128  0.73033786  1.0
  C  C91  1  0.60132503  0.61336225  0.56481305  1.0
  C  C92  1  0.78708475  0.04179326  0.71182169  1.0
  C  C93  1  0.80004399  0.02644427  0.76581357  1.0
  C  C94  1  0.69837473  0.07756217  0.88346888  1.0
  C  C95  1  0.67987302  0.16323274  0.70101966  1.0
  C  C96  1  0.67356871  0.24124386  0.78337369  1.0
  C  C97  1  0.68481061  0.11857099  0.79108837  1.0
  C  C98  1  0.57865332  0.11753446  0.76796393  1.0
  C  C99  1  0.62933793  0.64374318  0.60957277  1.0
  C  C100  1  0.56475141  0.16277404  0.71708518  1.0
  C  C101  1  0.68953457  0.09526159  0.84123092  1.0
  C  C102  1  0.67222049  0.19265468  0.65144899  1.0
  C  C103  1  0.62379419  0.28361574  0.56589061  1.0
  C  C104  1  0.65704623  0.22531081  0.61070259  1.0
  C  C105  1  0.28874264  0.58340990  0.73113601  1.0
  C  C106  1  0.08708371  0.61323261  0.71606688  1.0
  C  C107  1  0.05300120  0.62816568  0.76918014  1.0
  C  C108  1  0.09667110  0.67434811  0.88918326  1.0
  C  C109  1  0.17148913  0.66317182  0.70535044  1.0
  C  C110  1  0.73982010  0.75932633  0.74716566  1.0
  C  C111  1  0.26349709  0.57109297  0.78366741  1.0
  C  C112  1  0.13437136  0.66201229  0.79633943  1.0
  C  C113  1  0.11156385  0.78478306  0.77980461  1.0
  C  C114  1  0.10666381  0.79165278  0.72563728  1.0
  C  C115  1  0.28936581  0.60856258  0.43446998  1.0
  C  C116  1  0.11425718  0.66475919  0.84676907  1.0
  C  C117  1  0.19720125  0.65861929  0.65531803  1.0
  C  C118  1  0.22756723  0.64556635  0.61399534  1.0
  C  C119  1  0.66403297  0.54581385  0.27017050  1.0
  C  C120  1  0.75506597  0.67467062  0.28355178  1.0
  C  C121  1  0.69998144  0.71199771  0.79179827  1.0
  C  C122  1  0.76458897  0.68894342  0.22971041  1.0
  C  C123  1  0.69048128  0.70306413  0.11149788  1.0
  C  C124  1  0.64656695  0.65949365  0.29507710  1.0
  C  C125  1  0.68157781  0.55254716  0.21629737  1.0
  C  C126  1  0.66876314  0.67389310  0.20369927  1.0
  C  C127  1  0.60252388  0.61051002  0.43474117  1.0
  C  C128  1  0.54361440  0.76903030  0.22117681  1.0
  C  C129  1  0.53577815  0.76666548  0.27528852  1.0
  C  C130  1  0.68094821  0.68624222  0.15328194  1.0
  C  C131  1  0.63449172  0.64926871  0.34563205  1.0
  C  C132  1  0.78816633  0.63718064  0.72203581  1.0
  C  C133  1  0.62490637  0.63700759  0.38776350  1.0
  C  C134  1  0.54445554  0.27805470  0.27362997  1.0
  C  C135  1  0.69696560  0.05936958  0.28139148  1.0
  C  C136  1  0.66827345  0.05713736  0.22814335  1.0
  C  C137  1  0.68556589  0.11274014  0.11159766  1.0
  C  C138  1  0.66502100  0.18816079  0.29518356  1.0
  C  C139  1  0.62138726  0.28712813  0.43336459  1.0
  C  C140  1  0.55559785  0.27779950  0.21935055  1.0
  C  C141  1  0.66832756  0.16484951  0.20302665  1.0
  C  C142  1  0.77774855  0.17126419  0.21953966  1.0
  C  C143  1  0.66500759  0.68174866  0.69747231  1.0
  C  C144  1  0.75564574  0.21904020  0.27039266  1.0
  C  C145  1  0.67356083  0.14404713  0.15267312  1.0
  C  C146  1  0.66119779  0.20790912  0.34550869  1.0
  C  C147  1  0.65241439  0.23520590  0.38693610  1.0
  C  C148  1  0.26723401  0.70136561  0.27001496  1.0
  C  C149  1  0.06286227  0.73677957  0.28709216  1.0
  C  C150  1  0.04428065  0.75779486  0.23362640  1.0
  C  C151  1  0.61752957  0.80470139  0.72380234  1.0
  C  C152  1  0.09111481  0.69949141  0.11540321  1.0
  C  C153  1  0.19502622  0.65235117  0.29602154  1.0
  C  C154  1  0.74757322  0.59034521  0.76494144  1.0
  C  C155  1  0.26529052  0.68811622  0.21613075  1.0
  C  C156  1  0.15680408  0.66938613  0.20491073  1.0
  C  C157  1  0.18815648  0.54487943  0.22300282  1.0
  C  C158  1  0.22822235  0.53046994  0.27464866  1.0
  C  C159  1  0.12639614  0.68349475  0.15561113  1.0
  C  C160  1  0.21905555  0.64331046  0.34604990  1.0
  C  C161  1  0.24201058  0.63371201  0.38774798  1.0
  C  C162  1  0.72489097  0.03852749  0.93141586  1.0
  C  C163  1  0.57443205  0.75869957  0.76674473  1.0
  C  C164  1  0.73186845  0.74062410  0.93280808  1.0
  C  C165  1  0.62414923  0.63506351  0.74195474  1.0
  C  C166  1  0.05076433  0.70634645  0.93643010  1.0
  C  C167  1  0.71413439  0.05645107  0.06585168  1.0
  C  C168  1  0.71834811  0.73001678  0.06541009  1.0
  C  C169  1  0.03704617  0.72815971  0.07003312  1.0
  C  C170  1  0.71744198  0.72672212  0.88359067  1.0
  C  C171  1  0.42969428  0.93149155  0.80466899  1.0
  C  C172  1  0.25931154  0.84446820  0.70911304  1.0
  C  C173  1  0.54507231  0.53817784  0.78433443  1.0
  C  C174  1  0.53453462  0.06049991  0.32864760  1.0
  C  C175  1  0.93430307  0.07466613  0.30925793  1.0
  C  C176  1  0.71314511  0.72229867  0.84065214  1.0
  C  C177  1  0.16982804  0.89653991  0.19060765  1.0
  C  C178  1  0.39537105  0.55843033  0.15433466  1.0
  O  O179  1  0.52490748  0.30527309  0.55043813  1.0
  O  O180  1  0.82555848  0.66188245  0.95216180  1.0
  O  O181  1  0.03099596  0.63177384  0.95944590  1.0
  O  O182  1  0.31677685  0.51020982  0.55394447  1.0
  O  O183  1  0.01639523  0.82526636  0.05215489  1.0
  O  O184  1  0.81136873  0.03414384  0.04691942  1.0
  O  O185  1  0.63931599  0.02816491  0.04947597  1.0
  O  O186  1  0.64698104  0.83034558  0.04806373  1.0
  O  O187  1  0.81621228  0.65376437  0.04625252  1.0
  O  O188  1  0.01084117  0.65302931  0.05232273  1.0
  O  O189  1  0.83677974  0.84117097  0.00169459  1.0
  O  O190  1  0.50501937  0.68416836  0.45485487  1.0
  O  O191  1  0.30180426  0.69113308  0.54679629  1.0
  O  O192  1  0.50004960  0.68400083  0.54813562  1.0
  O  O193  1  0.67751999  0.51567760  0.54576640  1.0
  O  O194  1  0.69621830  0.31263622  0.54659275  1.0
  O  O195  1  0.52141543  0.31022652  0.44969422  1.0
  O  O196  1  0.31112452  0.51126780  0.45237683  1.0
  O  O197  1  0.31016653  0.68635865  0.45328939  1.0
  O  O198  1  0.46562607  0.81355661  0.78857414  1.0
  O  O199  1  0.53915664  0.08857177  0.68839778  1.0
  O  O200  1  0.13847730  0.87347655  0.70664341  1.0
  O  O201  1  0.67895612  0.51220823  0.45214916  1.0
  O  O202  1  0.56558359  0.57204462  0.73820116  1.0
  O  O203  1  0.51622855  0.88589608  0.20761624  1.0
  O  O204  1  0.65388048  0.99984544  0.31065469  1.0
  O  O205  1  0.55696497  0.06857608  0.22084050  1.0
  O  O206  1  0.76000427  0.94841299  0.20986580  1.0
  O  O207  1  0.86032136  0.19276955  0.29457839  1.0
  O  O208  1  0.27004999  0.78147090  0.19166678  1.0
  O  O209  1  0.37407972  0.58692848  0.20383235  1.0
  O  O210  1  0.69607103  0.31017519  0.45339303  1.0
  O  O211  1  0.49565729  0.49452063  0.50077229  1.0
  O  O212  1  0.02808784  0.80669870  0.95108846  1.0
  O  O213  1  0.82674465  0.01072902  0.94532312  1.0
  O  O214  1  0.64399316  0.03115248  0.95582412  1.0
  O  O215  1  0.65208449  0.83402973  0.95358960  1.0
  O  O216  1  0.34183201  0.32273250  0.50476962  1.0
  O  O217  1  0.00469732  0.99900230  0.99506240  1.0
