# generated using pymatgen
data_ZnH4C20NCl2O4F5
_symmetry_space_group_name_H-M   'P 1'
_cell_length_a   11.08590418
_cell_length_b   11.86553332
_cell_length_c   13.01706018
_cell_angle_alpha   92.46338696
_cell_angle_beta   114.66381682
_cell_angle_gamma   93.70051726
_symmetry_Int_Tables_number   1
_chemical_formula_structural   ZnH4C20NCl2O4F5
_chemical_formula_sum   'Zn2 H8 C40 N2 Cl4 O8 F10'
_cell_volume   1548.19380981
_cell_formula_units_Z   2
loop_
 _symmetry_equiv_pos_site_id
 _symmetry_equiv_pos_as_xyz
  1  'x, y, z'
loop_
 _atom_site_type_symbol
 _atom_site_label
 _atom_site_symmetry_multiplicity
 _atom_site_fract_x
 _atom_site_fract_y
 _atom_site_fract_z
 _atom_site_occupancy
  Zn  Zn0  1  0.42347927  0.55140234  0.55476003  1.0
  Zn  Zn1  1  0.57675769  0.44849105  0.44537009  1.0
  H  H2  1  0.20854384  0.69421352  0.42921087  1.0
  H  H3  1  0.79186123  0.30580219  0.57124486  1.0
  H  H4  1  0.54522860  0.07083267  0.33951659  1.0
  H  H5  1  0.45498713  0.92923187  0.66105268  1.0
  H  H6  1  0.97682164  0.20717084  0.40101603  1.0
  H  H7  1  0.02338094  0.79295823  0.59942447  1.0
  H  H8  1  0.24980455  0.44062310  0.64956296  1.0
  H  H9  1  0.75067488  0.55937225  0.35088877  1.0
  C  C10  1  0.32179469  0.45998819  0.28874306  1.0
  C  C11  1  0.67838063  0.54005283  0.71140351  1.0
  C  C12  1  0.94016672  0.13108114  0.42579237  1.0
  C  C13  1  0.06005151  0.86897442  0.57453745  1.0
  C  C14  1  0.80676496  0.11332934  0.39527326  1.0
  C  C15  1  0.19347540  0.88673633  0.60516809  1.0
  C  C16  1  0.80221353  0.54669162  0.82137080  1.0
  C  C17  1  0.19792119  0.45334548  0.17879733  1.0
  C  C18  1  0.00630743  0.34698635  0.03017685  1.0
  C  C19  1  0.99376551  0.65305187  0.97004563  1.0
  C  C20  1  0.12159841  0.34910966  0.12915710  1.0
  C  C21  1  0.87849721  0.65093024  0.87104987  1.0
  C  C22  1  0.15535947  0.55117327  0.12705889  1.0
  C  C23  1  0.84474009  0.44885059  0.87309593  1.0
  C  C24  1  0.03867073  0.55334037  0.02510070  1.0
  C  C25  1  0.96139279  0.44667907  0.97507946  1.0
  C  C26  1  0.97872527  0.38472917  0.58360691  1.0
  C  C27  1  0.02170962  0.61537503  0.41695971  1.0
  C  C28  1  0.84236355  0.36788346  0.53987186  1.0
  C  C29  1  0.15806320  0.63217551  0.46064686  1.0
  C  C30  1  0.81841568  0.50955337  0.41481433  1.0
  C  C31  1  0.18203764  0.49051312  0.58573105  1.0
  C  C32  1  0.55998538  0.70282924  0.46318211  1.0
  C  C33  1  0.44025096  0.29706972  0.53696465  1.0
  C  C34  1  0.95792967  0.53167012  0.45592483  1.0
  C  C35  1  0.04252050  0.46847763  0.54469287  1.0
  C  C36  1  0.62084557  0.81602959  0.45143730  1.0
  C  C37  1  0.37941903  0.18388849  0.54879808  1.0
  C  C38  1  0.60452251  0.00319836  0.38168547  1.0
  C  C39  1  0.39570763  0.99683855  0.61878052  1.0
  C  C40  1  0.54396789  0.90469385  0.39814253  1.0
  C  C41  1  0.45629329  0.09529065  0.60225887  1.0
  C  C42  1  0.75837106  0.83279287  0.48927073  1.0
  C  C43  1  0.24187696  0.16711170  0.51087526  1.0
  C  C44  1  0.82867566  0.93130750  0.47644760  1.0
  C  C45  1  0.17154034  0.06866268  0.52377949  1.0
  C  C46  1  0.74392820  0.01596970  0.41826086  1.0
  C  C47  1  0.25629893  0.98405632  0.58211432  1.0
  C  C48  1  0.97210048  0.94944935  0.51300441  1.0
  C  C49  1  0.02810416  0.05053332  0.48718745  1.0
  N  N50  1  0.23568114  0.56854665  0.54360088  1.0
  N  N51  1  0.76475195  0.43148606  0.45688307  1.0
  Cl  Cl52  1  0.62779138  0.11136407  0.65362315  1.0
  Cl  Cl53  1  0.37247623  0.88863281  0.34683372  1.0
  Cl  Cl54  1  0.83052805  0.77440446  0.80765413  1.0
  Cl  Cl55  1  0.16958803  0.22563177  0.19252880  1.0
  O  O56  1  0.30937293  0.50033142  0.37504150  1.0
  O  O57  1  0.69085493  0.49977337  0.62510100  1.0
  O  O58  1  0.42597507  0.42519292  0.28555936  1.0
  O  O59  1  0.57417184  0.57476641  0.71457741  1.0
  O  O60  1  0.48599007  0.70151988  0.51589890  1.0
  O  O61  1  0.51422294  0.29836370  0.48421325  1.0
  O  O62  1  0.58981226  0.61813656  0.41890827  1.0
  O  O63  1  0.41042501  0.38176659  0.58121236  1.0
  F  F64  1  0.72665550  0.19272271  0.33665293  1.0
  F  F65  1  0.27359974  0.80741678  0.66394879  1.0
  F  F66  1  0.05432702  0.32128353  0.66623123  1.0
  F  F67  1  0.94611054  0.67869949  0.33421798  1.0
  F  F68  1  0.17248479  0.25485191  0.45869518  1.0
  F  F69  1  0.82777201  0.74498144  0.54126166  1.0
  F  F70  1  0.76978486  0.35018594  0.82273378  1.0
  F  F71  1  0.23030499  0.64984482  0.17739909  1.0
  F  F72  1  0.93459879  0.24639406  0.98541789  1.0
  F  F73  1  0.06546431  0.75364438  0.01480934  1.0
