# generated using pymatgen
data_Zn4H30C36Cl2O13
_symmetry_space_group_name_H-M   'P 1'
_cell_length_a   17.80597444
_cell_length_b   18.64705218
_cell_length_c   23.39570500
_cell_angle_alpha   66.58183045
_cell_angle_beta   69.60351056
_cell_angle_gamma   89.96246557
_symmetry_Int_Tables_number   1
_chemical_formula_structural   Zn4H30C36Cl2O13
_chemical_formula_sum   'Zn8 H60 C72 Cl4 O26'
_cell_volume   6594.89196785
_cell_formula_units_Z   2
loop_
 _symmetry_equiv_pos_site_id
 _symmetry_equiv_pos_as_xyz
  1  'x, y, z'
loop_
 _atom_site_type_symbol
 _atom_site_label
 _atom_site_symmetry_multiplicity
 _atom_site_fract_x
 _atom_site_fract_y
 _atom_site_fract_z
 _atom_site_occupancy
  Zn  Zn0  1  0.11858415  0.53138304  0.94131368  1.0
  Zn  Zn1  1  0.97192092  0.55962763  0.05094280  1.0
  Zn  Zn2  1  0.97644523  0.38919202  0.05023612  1.0
  Zn  Zn3  1  0.93882708  0.53048244  0.93444565  1.0
  Zn  Zn4  1  0.38518176  0.97735473  0.04967655  1.0
  Zn  Zn5  1  0.52980157  0.11616589  0.93661787  1.0
  Zn  Zn6  1  0.52386155  0.94640559  0.93650886  1.0
  Zn  Zn7  1  0.56745687  0.97252325  0.05051302  1.0
  H  H8  1  0.49688778  0.86734933  0.26337545  1.0
  H  H9  1  0.43222710  0.80424929  0.38921070  1.0
  H  H10  1  0.26059660  0.87494269  0.25273642  1.0
  H  H11  1  0.25119505  0.63110948  0.73763274  1.0
  H  H12  1  0.01711541  0.63802578  0.72278032  1.0
  H  H13  1  0.08443016  0.70085720  0.59711508  1.0
  H  H14  1  0.63080850  0.02084106  0.72825887  1.0
  H  H15  1  0.70021484  0.08520641  0.60257487  1.0
  H  H16  1  0.62719933  0.25019344  0.73069556  1.0
  H  H17  1  0.87084613  0.25527077  0.25716916  1.0
  H  H18  1  0.86811830  0.48506964  0.25876697  1.0
  H  H19  1  0.80948232  0.42112418  0.38491487  1.0
  H  H20  1  0.19907393  0.30231810  0.91064117  1.0
  H  H21  1  0.12711689  0.23055049  0.98701631  1.0
  H  H22  1  0.21639684  0.13884632  0.98435051  1.0
  H  H23  1  0.28816514  0.21140733  0.90832921  1.0
  H  H24  1  0.21583472  0.12479766  0.09571530  1.0
  H  H25  1  0.28772228  0.18585703  0.09968354  1.0
  H  H26  1  0.12753922  0.21772569  0.09836801  1.0
  H  H27  1  0.20072372  0.27887300  0.10088999  1.0
  H  H28  1  0.30355282  0.39196113  0.91365510  1.0
  H  H29  1  0.30414459  0.38341071  0.99101982  1.0
  H  H30  1  0.39254273  0.29078694  0.99013935  1.0
  H  H31  1  0.39273319  0.30031106  0.91239093  1.0
  H  H32  1  0.89029803  0.80024762  0.90472009  1.0
  H  H33  1  0.88707263  0.78742333  0.98467531  1.0
  H  H34  1  0.79781861  0.87944538  0.98601783  1.0
  H  H35  1  0.80121546  0.89126550  0.90624036  1.0
  H  H36  1  0.69432861  0.77571017  0.09161212  1.0
  H  H37  1  0.62249031  0.71411167  0.08807322  1.0
  H  H38  1  0.78222243  0.68235942  0.09047649  1.0
  H  H39  1  0.71056586  0.62226907  0.08528992  1.0
  H  H40  1  0.78911407  0.71246252  0.89676343  1.0
  H  H41  1  0.71613499  0.63927800  0.97015624  1.0
  H  H42  1  0.62635235  0.73045340  0.97275061  1.0
  H  H43  1  0.69899471  0.80327885  0.89907051  1.0
  H  H44  1  0.16249355  0.79308285  0.93680653  1.0
  H  H45  1  0.24689780  0.75688039  0.89622783  1.0
  H  H46  1  0.33384443  0.85280719  0.89385736  1.0
  H  H47  1  0.24894465  0.88753725  0.93558427  1.0
  H  H48  1  0.39399137  0.74379779  0.96084537  1.0
  H  H49  1  0.35284575  0.70257410  0.04962466  1.0
  H  H50  1  0.30558458  0.64785911  0.96410846  1.0
  H  H51  1  0.26434771  0.60801544  0.05289055  1.0
  H  H52  1  0.10172267  0.73518947  0.06501458  1.0
  H  H53  1  0.14268277  0.65921608  0.11240289  1.0
  H  H54  1  0.23166421  0.75334755  0.11008305  1.0
  H  H55  1  0.18982935  0.82927192  0.06353310  1.0
  H  H56  1  0.89897543  0.26784251  0.92950148  1.0
  H  H57  1  0.85423563  0.34357624  0.88466868  1.0
  H  H58  1  0.76846288  0.24749322  0.88613190  1.0
  H  H59  1  0.81208091  0.17216538  0.93261706  1.0
  H  H60  1  0.64885779  0.29774022  0.94603492  1.0
  H  H61  1  0.60567390  0.25660948  0.03473597  1.0
  H  H62  1  0.73536115  0.39229222  0.94620404  1.0
  H  H63  1  0.69276894  0.34942752  0.03496414  1.0
  H  H64  1  0.83888746  0.20530540  0.05776047  1.0
  H  H65  1  0.75580352  0.23918467  0.10115482  1.0
  H  H66  1  0.66654632  0.14641061  0.10235210  1.0
  H  H67  1  0.74973411  0.11099395  0.06071148  1.0
  C  C68  1  0.14161699  0.63499937  0.00331159  1.0
  C  C69  1  0.90833814  0.41155543  0.17565513  1.0
  C  C70  1  0.14550717  0.36485323  0.00052775  1.0
  C  C71  1  0.86061553  0.36583691  0.99048077  1.0
  C  C72  1  0.09109537  0.59324286  0.81286149  1.0
  C  C73  1  0.86086380  0.64322946  0.98864008  1.0
  C  C74  1  0.36133277  0.14274256  0.99653643  1.0
  C  C75  1  0.58394766  0.09393780  0.81148412  1.0
  C  C76  1  0.35583083  0.86326522  0.99800678  1.0
  C  C77  1  0.64348538  0.86455985  0.99198053  1.0
  C  C78  1  0.41958959  0.91300413  0.17530535  1.0
  C  C79  1  0.64690945  0.13948931  0.99242428  1.0
  C  C80  1  0.38258155  0.87491098  0.25062127  1.0
  C  C81  1  0.43111399  0.85484450  0.28907485  1.0
  C  C82  1  0.39517173  0.81982445  0.35883859  1.0
  C  C83  1  0.30972468  0.80328733  0.39258588  1.0
  C  C84  1  0.26189816  0.82380124  0.35270554  1.0
  C  C85  1  0.29784204  0.85924726  0.28287176  1.0
  C  C86  1  0.27377509  0.76762551  0.46352386  1.0
  C  C87  1  0.24312215  0.73695209  0.52495020  1.0
  C  C88  1  0.20599914  0.70166428  0.59583303  1.0
  C  C89  1  0.25240859  0.68134326  0.63685134  1.0
  C  C90  1  0.21500272  0.64645852  0.70662751  1.0
  C  C91  1  0.13014308  0.63082155  0.73764457  1.0
  C  C92  1  0.08300431  0.65049678  0.69802517  1.0
  C  C93  1  0.12040241  0.68531577  0.62836954  1.0
  C  C94  1  0.62476880  0.13179311  0.73659953  1.0
  C  C95  1  0.64547408  0.08500031  0.70069288  1.0
  C  C96  1  0.68391167  0.12065582  0.63121441  1.0
  C  C97  1  0.70302368  0.20400800  0.59538334  1.0
  C  C98  1  0.68209513  0.25011577  0.63268940  1.0
  C  C99  1  0.64330526  0.21444827  0.70235295  1.0
  C  C100  1  0.74085980  0.23908072  0.52467708  1.0
  C  C101  1  0.77220317  0.26726571  0.46336481  1.0
  C  C102  1  0.80650936  0.30211427  0.39252286  1.0
  C  C103  1  0.82444309  0.25575096  0.35534531  1.0
  C  C104  1  0.85717117  0.29121687  0.28540314  1.0
  C  C105  1  0.87272276  0.37390009  0.25079370  1.0
  C  C106  1  0.85548978  0.42089888  0.28662864  1.0
  C  C107  1  0.82307134  0.38547321  0.35636993  1.0
  C  C108  1  0.19057283  0.26016947  0.96207868  1.0
  C  C109  1  0.24977417  0.19935443  0.96054641  1.0
  C  C110  1  0.30465581  0.20370998  0.99826388  1.0
  C  C111  1  0.24954403  0.18513864  0.07164373  1.0
  C  C112  1  0.19114786  0.24663553  0.07289584  1.0
  C  C113  1  0.20543997  0.30654411  0.00041876  1.0
  C  C114  1  0.29381333  0.34892297  0.96496355  1.0
  C  C115  1  0.35256300  0.28795354  0.96411377  1.0
  C  C116  1  0.84909961  0.78625433  0.95667977  1.0
  C  C117  1  0.78977460  0.84710212  0.95769787  1.0
  C  C118  1  0.70103580  0.80408154  0.99063864  1.0
  C  C119  1  0.68603693  0.74371332  0.06315810  1.0
  C  C120  1  0.74467559  0.68251267  0.06189264  1.0
  C  C121  1  0.80098249  0.70167243  0.98856987  1.0
  C  C122  1  0.74910990  0.69957956  0.94867739  1.0
  C  C123  1  0.68967446  0.75994964  0.95020342  1.0
  C  C124  1  0.21910920  0.77118035  0.93951080  1.0
  C  C125  1  0.27692166  0.83427812  0.93821831  1.0
  C  C126  1  0.29684136  0.80037542  0.00241996  1.0
  C  C127  1  0.33688958  0.72619985  0.00488154  1.0
  C  C128  1  0.27828073  0.66308988  0.00686962  1.0
  C  C129  1  0.19846699  0.69436441  0.00508751  1.0
  C  C130  1  0.15899080  0.71390841  0.06584011  1.0
  C  C131  1  0.21753495  0.77640442  0.06449861  1.0
  C  C132  1  0.84076396  0.28803726  0.93011526  1.0
  C  C133  1  0.78311703  0.22459863  0.93142769  1.0
  C  C134  1  0.70323570  0.19934539  0.99424011  1.0
  C  C135  1  0.66358289  0.27389359  0.99123869  1.0
  C  C136  1  0.72133973  0.33617046  0.99110451  1.0
  C  C137  1  0.80105666  0.30490433  0.99292937  1.0
  C  C138  1  0.78194940  0.22699985  0.05651080  1.0
  C  C139  1  0.72323882  0.16492301  0.05771560  1.0
  Cl  Cl140  1  0.15731819  0.80464271  0.39105955  1.0
  Cl  Cl141  1  0.35709117  0.69996269  0.59996742  1.0
  Cl  Cl142  1  0.70483351  0.35206960  0.59131948  1.0
  Cl  Cl143  1  0.80533532  0.15375155  0.39724627  1.0
  O  O144  1  0.00099577  0.50334111  0.99309509  1.0
  O  O145  1  0.17177914  0.60745775  0.95957524  1.0
  O  O146  1  0.91859528  0.48704360  0.14687017  1.0
  O  O147  1  0.07155383  0.33567418  0.03945583  1.0
  O  O148  1  0.06797980  0.61864186  0.04428511  1.0
  O  O149  1  0.17280882  0.43768614  0.96096240  1.0
  O  O150  1  0.92563020  0.36515129  0.14652913  1.0
  O  O151  1  0.90040748  0.33934443  0.02841542  1.0
  O  O152  1  0.01359229  0.57954818  0.83888207  1.0
  O  O153  1  0.86760853  0.43814261  0.94998183  1.0
  O  O154  1  0.13895517  0.57807570  0.84457628  1.0
  O  O155  1  0.90020544  0.63546911  0.02661828  1.0
  O  O156  1  0.86780774  0.60717522  0.95123717  1.0
  O  O157  1  0.50181524  0.00228288  0.99458282  1.0
  O  O158  1  0.32933306  0.06980388  0.03105306  1.0
  O  O159  1  0.56496896  0.14020053  0.84062691  1.0
  O  O160  1  0.42704830  0.87987046  0.95260596  1.0
  O  O161  1  0.43633740  0.16892755  0.96028654  1.0
  O  O162  1  0.33005263  0.89524695  0.03881602  1.0
  O  O163  1  0.57165802  0.01837478  0.84017175  1.0
  O  O164  1  0.60319459  0.87671670  0.95436699  1.0
  O  O165  1  0.49681062  0.92201519  0.14745296  1.0
  O  O166  1  0.64017873  0.89863005  0.03046877  1.0
  O  O167  1  0.37017539  0.93329488  0.14530799  1.0
  O  O168  1  0.61860362  0.16610908  0.94603191  1.0
  O  O169  1  0.63268958  0.06797617  0.03626416  1.0
