# generated using pymatgen
data_ZnH12C26N3(ClO)4
_symmetry_space_group_name_H-M   'P 1'
_cell_length_a   18.76411109
_cell_length_b   19.38636332
_cell_length_c   19.60138525
_cell_angle_alpha   88.37533342
_cell_angle_beta   89.82984119
_cell_angle_gamma   89.77370126
_symmetry_Int_Tables_number   1
_chemical_formula_structural   ZnH12C26N3(ClO)4
_chemical_formula_sum   'Zn2 H24 C52 N6 Cl8 O8'
_cell_volume   7127.40314563
_cell_formula_units_Z   2
loop_
 _symmetry_equiv_pos_site_id
 _symmetry_equiv_pos_as_xyz
  1  'x, y, z'
loop_
 _atom_site_type_symbol
 _atom_site_label
 _atom_site_symmetry_multiplicity
 _atom_site_fract_x
 _atom_site_fract_y
 _atom_site_fract_z
 _atom_site_occupancy
  Zn  Zn0  1  0.42140638  0.50020411  0.50022153  1.0
  Zn  Zn1  1  0.57858818  0.49979308  0.49978425  1.0
  H  H2  1  0.38547913  0.72015430  0.49766475  1.0
  H  H3  1  0.38528316  0.49698873  0.15715594  1.0
  H  H4  1  0.61473463  0.50373220  0.15642070  1.0
  H  H5  1  0.38527536  0.49627569  0.84358910  1.0
  H  H6  1  0.41789182  0.42253778  0.93951360  1.0
  H  H7  1  0.58211019  0.57746309  0.06048859  1.0
  H  H8  1  0.41782184  0.42288434  0.06565189  1.0
  H  H9  1  0.58218391  0.57711595  0.93435233  1.0
  H  H10  1  0.16594729  0.41977375  0.57876464  1.0
  H  H11  1  0.83404673  0.58022865  0.42123908  1.0
  H  H12  1  0.16592053  0.58024535  0.42099917  1.0
  H  H13  1  0.61451276  0.27985243  0.50233028  1.0
  H  H14  1  0.83408254  0.41975950  0.57900862  1.0
  H  H15  1  0.06590661  0.51679535  0.39068460  1.0
  H  H16  1  0.93409221  0.48321026  0.60931349  1.0
  H  H17  1  0.06560819  0.48326843  0.60917688  1.0
  H  H18  1  0.93439169  0.51673917  0.39082427  1.0
  H  H19  1  0.38562299  0.28086022  0.49692750  1.0
  H  H20  1  0.61436628  0.71914236  0.50304766  1.0
  H  H21  1  0.61417224  0.50377659  0.71544092  1.0
  H  H22  1  0.38583086  0.49621504  0.28455926  1.0
  H  H23  1  0.61408696  0.50324102  0.28379955  1.0
  H  H24  1  0.38591770  0.49676326  0.71621079  1.0
  H  H25  1  0.61472633  0.50300543  0.84284524  1.0
  C  C26  1  0.49997446  0.49928919  0.36808710  1.0
  C  C27  1  0.54685516  0.54229764  0.96307101  1.0
  C  C28  1  0.49998932  0.50019609  0.07244308  1.0
  C  C29  1  0.50002230  0.49979850  0.92756168  1.0
  C  C30  1  0.26664877  0.45806614  0.54250240  1.0
  C  C31  1  0.73334896  0.54194026  0.45750589  1.0
  C  C32  1  0.26662687  0.54221424  0.45775592  1.0
  C  C33  1  0.73337460  0.45779068  0.54224932  1.0
  C  C34  1  0.19244738  0.45628454  0.54414671  1.0
  C  C35  1  0.80755356  0.54372035  0.45585955  1.0
  C  C36  1  0.19242678  0.54380606  0.45575023  1.0
  C  C37  1  0.50003131  0.50069978  0.63191615  1.0
  C  C38  1  0.80757255  0.45620294  0.54425703  1.0
  C  C39  1  0.15373419  0.50002699  0.49990295  1.0
  C  C40  1  0.84626675  0.49997949  0.50010177  1.0
  C  C41  1  0.03712145  0.51050482  0.43886619  1.0
  C  C42  1  0.96288110  0.48950072  0.56113445  1.0
  C  C43  1  0.03694836  0.48953373  0.56105624  1.0
  C  C44  1  0.96305312  0.51047126  0.43894594  1.0
  C  C45  1  0.92482391  0.49998108  0.50007749  1.0
  C  C46  1  0.07517544  0.50002187  0.49992419  1.0
  C  C47  1  0.49998723  0.63466334  0.50050254  1.0
  C  C48  1  0.50000300  0.49969144  0.85225694  1.0
  C  C49  1  0.50000360  0.36533862  0.49949813  1.0
  C  C50  1  0.43531895  0.74859035  0.49890480  1.0
  C  C51  1  0.56467295  0.25141347  0.50108259  1.0
  C  C52  1  0.43547288  0.25198835  0.49835725  1.0
  C  C53  1  0.56451850  0.74801609  0.50162605  1.0
  C  C54  1  0.43576323  0.82038889  0.49853578  1.0
  C  C55  1  0.56422762  0.17961819  0.50144496  1.0
  C  C56  1  0.43594583  0.18018491  0.49870556  1.0
  C  C57  1  0.56404556  0.81981810  0.50127265  1.0
  C  C58  1  0.49990393  0.85760530  0.49979734  1.0
  C  C59  1  0.50000489  0.50030368  0.14774782  1.0
  C  C60  1  0.50008639  0.14240084  0.50017983  1.0
  C  C61  1  0.49991809  0.71245000  0.50052188  1.0
  C  C62  1  0.50007328  0.28755382  0.49946551  1.0
  C  C63  1  0.50007664  0.06597287  0.50014609  1.0
  C  C64  1  0.49991688  0.93403226  0.49983007  1.0
  C  C65  1  0.56443177  0.50249550  0.74428599  1.0
  C  C66  1  0.43557613  0.49749342  0.25571930  1.0
  C  C67  1  0.56434337  0.50224318  0.25528240  1.0
  C  C68  1  0.43566343  0.49775805  0.74472539  1.0
  C  C69  1  0.56433944  0.50242854  0.81525039  1.0
  C  C70  1  0.50004766  0.50041771  0.70831311  1.0
  C  C71  1  0.43567379  0.49756198  0.18475183  1.0
  C  C72  1  0.56432101  0.50291220  0.18430232  1.0
  C  C73  1  0.43568578  0.49709206  0.81570801  1.0
  C  C74  1  0.49995544  0.49957274  0.29169320  1.0
  C  C75  1  0.45317919  0.45750722  0.96592679  1.0
  C  C76  1  0.54682816  0.54249204  0.03407744  1.0
  C  C77  1  0.45315273  0.45769906  0.03693220  1.0
  N  N78  1  0.52445927  0.96747731  0.44327388  1.0
  N  N79  1  0.47553851  0.03252723  0.55670482  1.0
  N  N80  1  0.52455043  0.03581353  0.44343375  1.0
  N  N81  1  0.47544629  0.96419310  0.55654393  1.0
  N  N82  1  0.30467305  0.50020924  0.50022085  1.0
  N  N83  1  0.69532629  0.49979612  0.49978744  1.0
  Cl  Cl84  1  0.35530436  0.86442378  0.49431958  1.0
  Cl  Cl85  1  0.64468968  0.13558061  0.50566576  1.0
  Cl  Cl86  1  0.35545122  0.13696935  0.49521458  1.0
  Cl  Cl87  1  0.64454287  0.86302992  0.50474782  1.0
  Cl  Cl88  1  0.31124597  0.40289727  0.59724715  1.0
  Cl  Cl89  1  0.68875175  0.59710903  0.40276523  1.0
  Cl  Cl90  1  0.31123890  0.59754918  0.40327836  1.0
  Cl  Cl91  1  0.68876365  0.40244956  0.59672639  1.0
  O  O92  1  0.43941765  0.49925835  0.39772438  1.0
  O  O93  1  0.56058171  0.50073991  0.60227884  1.0
  O  O94  1  0.43945318  0.50051348  0.60265249  1.0
  O  O95  1  0.56054939  0.49947122  0.39735691  1.0
  O  O96  1  0.43938111  0.60566292  0.50036657  1.0
  O  O97  1  0.56060650  0.39434032  0.49964533  1.0
  O  O98  1  0.43931527  0.39461489  0.49981395  1.0
  O  O99  1  0.56067396  0.60538542  0.50019081  1.0
