# generated using pymatgen
data_ZnH8C16N3O5
_symmetry_space_group_name_H-M   'P 1'
_cell_length_a   14.36429118
_cell_length_b   15.91920441
_cell_length_c   17.09296946
_cell_angle_alpha   87.63383691
_cell_angle_beta   88.60872513
_cell_angle_gamma   87.94253874
_symmetry_Int_Tables_number   1
_chemical_formula_structural   ZnH8C16N3O5
_chemical_formula_sum   'Zn2 H16 C32 N6 O10'
_cell_volume   3901.74907396
_cell_formula_units_Z   2
loop_
 _symmetry_equiv_pos_site_id
 _symmetry_equiv_pos_as_xyz
  1  'x, y, z'
loop_
 _atom_site_type_symbol
 _atom_site_label
 _atom_site_symmetry_multiplicity
 _atom_site_fract_x
 _atom_site_fract_y
 _atom_site_fract_z
 _atom_site_occupancy
  Zn  Zn0  1  0.49840102  0.58907226  0.50360454  1.0
  Zn  Zn1  1  0.50160057  0.41093771  0.49639179  1.0
  H  H2  1  0.55847824  0.60598564  0.74398705  1.0
  H  H3  1  0.40283434  0.11276138  0.57087468  1.0
  H  H4  1  0.61406384  0.12778820  0.38737627  1.0
  H  H5  1  0.38591643  0.87220663  0.61264544  1.0
  H  H6  1  0.60494808  0.28637935  0.39768974  1.0
  H  H7  1  0.39504560  0.71361234  0.60232784  1.0
  H  H8  1  0.53502988  0.60465062  0.95326079  1.0
  H  H9  1  0.46498124  0.39536060  0.04674709  1.0
  H  H10  1  0.44153319  0.39405452  0.25601566  1.0
  H  H11  1  0.51871549  0.65889379  0.10708745  1.0
  H  H12  1  0.48131494  0.34112878  0.89290049  1.0
  H  H13  1  0.50140362  0.65716923  0.25412326  1.0
  H  H14  1  0.49863693  0.34286026  0.74586841  1.0
  H  H15  1  0.59977686  0.72828443  0.42832566  1.0
  H  H16  1  0.40021095  0.27173810  0.57167387  1.0
  H  H17  1  0.59713639  0.88726490  0.42914186  1.0
  C  C18  1  0.47171835  0.52051707  0.35092631  1.0
  C  C19  1  0.55158682  0.85056827  0.46791723  1.0
  C  C20  1  0.51028423  0.10936429  0.47963717  1.0
  C  C21  1  0.48968457  0.89065759  0.52038015  1.0
  C  C22  1  0.56671205  0.15808680  0.42913616  1.0
  C  C23  1  0.43327312  0.84192817  0.57087597  1.0
  C  C24  1  0.56158692  0.24512317  0.43438478  1.0
  C  C25  1  0.43840419  0.75488237  0.56562705  1.0
  C  C26  1  0.68062824  0.49990964  0.47283359  1.0
  C  C27  1  0.31937686  0.50006951  0.52714806  1.0
  C  C28  1  0.78115329  0.49839139  0.47424311  1.0
  C  C29  1  0.52829195  0.47951869  0.64907014  1.0
  C  C30  1  0.21885135  0.50155192  0.52572351  1.0
  C  C31  1  0.86569967  0.49868843  0.48304576  1.0
  C  C32  1  0.13430199  0.50122341  0.51692557  1.0
  C  C33  1  0.95777413  0.49940901  0.49417595  1.0
  C  C34  1  0.04222688  0.50048207  0.50580143  1.0
  C  C35  1  0.47174275  0.52502744  0.26309757  1.0
  C  C36  1  0.52828141  0.47499261  0.73689814  1.0
  C  C37  1  0.45742560  0.45211229  0.22331748  1.0
  C  C38  1  0.54259138  0.54791152  0.77668402  1.0
  C  C39  1  0.46539228  0.45203682  0.14160440  1.0
  C  C40  1  0.50112050  0.60172289  0.14086844  1.0
  C  C41  1  0.53462489  0.54797943  0.85840557  1.0
  C  C42  1  0.48974424  0.52792788  0.09937195  1.0
  C  C43  1  0.51027819  0.47208083  0.90063123  1.0
  C  C44  1  0.49890940  0.39829338  0.85912559  1.0
  C  C45  1  0.49177483  0.60091391  0.22154803  1.0
  C  C46  1  0.50825899  0.39910739  0.77845046  1.0
  C  C47  1  0.44694369  0.23651708  0.53280816  1.0
  C  C48  1  0.55303774  0.76350481  0.46720142  1.0
  C  C49  1  0.44838095  0.14946179  0.53210096  1.0
  N  N50  1  0.50478473  0.53385204  0.01910351  1.0
  N  N51  1  0.49523958  0.46616549  0.98088879  1.0
  N  N52  1  0.50304036  0.28318771  0.48539408  1.0
  N  N53  1  0.49694836  0.71680965  0.51461282  1.0
  N  N54  1  0.51957624  0.02091804  0.47249052  1.0
  N  N55  1  0.48038676  0.97907427  0.52752855  1.0
  O  O56  1  0.47420436  0.58939965  0.38598932  1.0
  O  O57  1  0.45213862  0.38070830  0.10464414  1.0
  O  O58  1  0.52585321  0.41062168  0.61400363  1.0
  O  O59  1  0.47167829  0.44715212  0.38379396  1.0
  O  O60  1  0.52827318  0.55287291  0.61620881  1.0
  O  O61  1  0.64010118  0.57223946  0.47467094  1.0
  O  O62  1  0.35992037  0.42772959  0.52536064  1.0
  O  O63  1  0.64252007  0.42892690  0.47171974  1.0
  O  O64  1  0.35746042  0.57105353  0.52822352  1.0
  O  O65  1  0.54787820  0.61931992  0.89535603  1.0
