# generated using pymatgen
data_Cu4SiH8(C5N2)4
_symmetry_space_group_name_H-M   'P 1'
_cell_length_a   21.58194037
_cell_length_b   21.64460325
_cell_length_c   22.30224234
_cell_angle_alpha   90.04370830
_cell_angle_beta   90.06101648
_cell_angle_gamma   89.69799972
_symmetry_Int_Tables_number   1
_chemical_formula_structural   Cu4SiH8(C5N2)4
_chemical_formula_sum   'Cu12 Si3 H24 C60 N24'
_cell_volume   10417.94942384
_cell_formula_units_Z   3
loop_
 _symmetry_equiv_pos_site_id
 _symmetry_equiv_pos_as_xyz
  1  'x, y, z'
loop_
 _atom_site_type_symbol
 _atom_site_label
 _atom_site_symmetry_multiplicity
 _atom_site_fract_x
 _atom_site_fract_y
 _atom_site_fract_z
 _atom_site_occupancy
  Cu  Cu0  1  0.24525936  0.75438836  0.15083210  1.0
  Cu  Cu1  1  0.13615605  0.75862314  0.24568017  1.0
  Cu  Cu2  1  0.24075030  0.86320115  0.24554118  1.0
  Cu  Cu3  1  0.24537131  0.24517713  0.85309442  1.0
  Cu  Cu4  1  0.13683788  0.24369194  0.75721209  1.0
  Cu  Cu5  1  0.23998531  0.13683314  0.75790613  1.0
  Cu  Cu6  1  0.75532416  0.75547975  0.85316217  1.0
  Cu  Cu7  1  0.86420140  0.76032682  0.75814789  1.0
  Cu  Cu8  1  0.75647214  0.86293919  0.75726717  1.0
  Cu  Cu9  1  0.76067752  0.23950962  0.13841358  1.0
  Cu  Cu10  1  0.86256091  0.24271875  0.24107923  1.0
  Cu  Cu11  1  0.75764472  0.13846745  0.24071421  1.0
  Si  Si12  1  0.99730494  0.00237652  0.50090662  1.0
  Si  Si13  1  0.00184125  0.50153760  0.00112416  1.0
  Si  Si14  1  0.49802801  0.99767778  0.00134392  1.0
  H  H15  1  0.20187338  0.64341400  0.06847273  1.0
  H  H16  1  0.04796426  0.65379716  0.19289987  1.0
  H  H17  1  0.34535328  0.95165161  0.19265796  1.0
  H  H18  1  0.35646108  0.79777451  0.06847409  1.0
  H  H19  1  0.05164981  0.80623658  0.35253756  1.0
  H  H20  1  0.19308261  0.94771649  0.35203363  1.0
  H  H21  1  0.20243731  0.35659366  0.93562322  1.0
  H  H22  1  0.04936857  0.34976286  0.80974244  1.0
  H  H23  1  0.34343572  0.04603920  0.81089314  1.0
  H  H24  1  0.35605698  0.19915293  0.93571007  1.0
  H  H25  1  0.05230835  0.19837541  0.64954220  1.0
  H  H26  1  0.19198124  0.05369786  0.65076906  1.0
  H  H27  1  0.80129022  0.64551280  0.93594318  1.0
  H  H28  1  0.95485443  0.65677324  0.81128921  1.0
  H  H29  1  0.64978320  0.95037110  0.80960661  1.0
  H  H30  1  0.64314178  0.79788985  0.93540261  1.0
  H  H31  1  0.94695601  0.80785071  0.65053516  1.0
  H  H32  1  0.80172182  0.94698469  0.64988973  1.0
  H  H33  1  0.80868394  0.34675415  0.05403808  1.0
  H  H34  1  0.94783106  0.35260740  0.19430308  1.0
  H  H35  1  0.64747027  0.05309547  0.19397902  1.0
  H  H36  1  0.65267274  0.19155175  0.05369998  1.0
  H  H37  1  0.94504596  0.19690720  0.35021631  1.0
  H  H38  1  0.80322748  0.05580130  0.34927729  1.0
  C  C39  1  0.16990710  0.65357977  0.10467884  1.0
  C  C40  1  0.11098715  0.62842445  0.11596408  1.0
  C  C41  1  0.09105427  0.65888701  0.16844692  1.0
  C  C42  1  0.34043416  0.90854110  0.16829819  1.0
  C  C43  1  0.37100928  0.88862483  0.11586212  1.0
  C  C44  1  0.34609264  0.82969867  0.10465272  1.0
  C  C45  1  0.09167741  0.83519601  0.34463429  1.0
  C  C46  1  0.10831671  0.89105094  0.37267322  1.0
  C  C47  1  0.16415437  0.90764077  0.34441487  1.0
  C  C48  1  0.17065087  0.34725674  0.89906443  1.0
  C  C49  1  0.11199023  0.37349195  0.88742877  1.0
  C  C50  1  0.09219921  0.34370120  0.83462007  1.0
  C  C51  1  0.33892403  0.08910606  0.83546378  1.0
  C  C52  1  0.36970821  0.10823344  0.88800707  1.0
  C  C53  1  0.34537341  0.16759825  0.89938951  1.0
  C  C54  1  0.09199560  0.16855623  0.65762263  1.0
  C  C55  1  0.10813351  0.11239790  0.62958261  1.0
  C  C56  1  0.16356984  0.09446038  0.65823083  1.0
  C  C57  1  0.83308021  0.65596862  0.89976549  1.0
  C  C58  1  0.89235098  0.63111541  0.88834575  1.0
  C  C59  1  0.91177609  0.66170125  0.83591740  1.0
  C  C60  1  0.65588644  0.90767469  0.83442671  1.0
  C  C61  1  0.62612862  0.88797820  0.88724016  1.0
  C  C62  1  0.65251809  0.82953255  0.89886825  1.0
  C  C63  1  0.90615614  0.83623848  0.65821839  1.0
  C  C64  1  0.88798430  0.89148536  0.62966653  1.0
  C  C65  1  0.83174858  0.90749209  0.65784316  1.0
  C  C66  1  0.83698634  0.34033342  0.09377651  1.0
  C  C67  1  0.89225936  0.37028260  0.11019593  1.0
  C  C68  1  0.90832865  0.34332067  0.16559928  1.0
  C  C69  1  0.65663298  0.09245684  0.16530240  1.0
  C  C70  1  0.62949572  0.10825472  0.10985350  1.0
  C  C71  1  0.65929622  0.16345948  0.09347082  1.0
  C  C72  1  0.90496557  0.16802029  0.34216739  1.0
  C  C73  1  0.88779531  0.11260851  0.37062399  1.0
  C  C74  1  0.83235440  0.09571841  0.34166939  1.0
  C  C75  1  0.07841689  0.58526571  0.08107283  1.0
  C  C76  1  0.04938491  0.54920417  0.04956952  1.0
  C  C77  1  0.07941961  0.41704182  0.92218521  1.0
  C  C78  1  0.05027366  0.45346481  0.95348418  1.0
  C  C79  1  0.92520913  0.58754328  0.92281804  1.0
  C  C80  1  0.95412231  0.55074544  0.95390055  1.0
  C  C81  1  0.92487466  0.41485635  0.07726486  1.0
  C  C82  1  0.95365861  0.45246829  0.04741230  1.0
  C  C83  1  0.41411648  0.92123260  0.08100131  1.0
  C  C84  1  0.45021900  0.95027532  0.04962065  1.0
  C  C85  1  0.58484835  0.07536660  0.07703810  1.0
  C  C86  1  0.54726896  0.04598857  0.04752708  1.0
  C  C87  1  0.41273717  0.07490164  0.92274912  1.0
  C  C88  1  0.44888857  0.04543864  0.95410013  1.0
  C  C89  1  0.58254038  0.92039263  0.92214171  1.0
  C  C90  1  0.54613445  0.94930557  0.95368405  1.0
  C  C91  1  0.07534926  0.92409265  0.41668895  1.0
  C  C92  1  0.04578460  0.95388451  0.45367940  1.0
  C  C93  1  0.92015933  0.92457932  0.58544699  1.0
  C  C94  1  0.94919194  0.95432740  0.54831814  1.0
  C  C95  1  0.92010904  0.08001403  0.41542733  1.0
  C  C96  1  0.94912751  0.05057248  0.45309550  1.0
  C  C97  1  0.07500175  0.07994262  0.58547073  1.0
  C  C98  1  0.04542794  0.05051208  0.54840140  1.0
  N  N99  1  0.13468575  0.69901547  0.18649460  1.0
  N  N100  1  0.18353398  0.69575210  0.14696463  1.0
  N  N101  1  0.30394696  0.81603447  0.14695114  1.0
  N  N102  1  0.30047169  0.86487134  0.18640743  1.0
  N  N103  1  0.17914206  0.86506184  0.30284417  1.0
  N  N104  1  0.13422099  0.82015277  0.30297946  1.0
  N  N105  1  0.13567229  0.30293517  0.81669906  1.0
  N  N106  1  0.18426063  0.30509132  0.85666139  1.0
  N  N107  1  0.30332339  0.18225240  0.85708118  1.0
  N  N108  1  0.29936299  0.13363970  0.81744974  1.0
  N  N109  1  0.17879796  0.13656415  0.70004157  1.0
  N  N110  1  0.13444530  0.18249450  0.69966249  1.0
  N  N111  1  0.86746220  0.70156611  0.81796767  1.0
  N  N112  1  0.81871879  0.69803647  0.85754703  1.0
  N  N113  1  0.69476046  0.81595171  0.85647150  1.0
  N  N114  1  0.69681057  0.86434648  0.81652042  1.0
  N  N115  1  0.81798266  0.86518629  0.69986432  1.0
  N  N116  1  0.86411843  0.82103032  0.70010789  1.0
  N  N117  1  0.86593651  0.30065384  0.18053643  1.0
  N  N118  1  0.82175240  0.29882114  0.13603231  1.0
  N  N119  1  0.70090467  0.17890515  0.13577218  1.0
  N  N120  1  0.69926535  0.13492454  0.18027710  1.0
  N  N121  1  0.81808188  0.13771145  0.29934154  1.0
  N  N122  1  0.86309706  0.18252619  0.29963850  1.0
