# generated using pymatgen
data_ZnH16C26N2O5
_symmetry_space_group_name_H-M   'P 1'
_cell_length_a   17.00081714
_cell_length_b   18.23997202
_cell_length_c   19.61370184
_cell_angle_alpha   89.76998058
_cell_angle_beta   89.27896750
_cell_angle_gamma   84.21520776
_symmetry_Int_Tables_number   1
_chemical_formula_structural   ZnH16C26N2O5
_chemical_formula_sum   'Zn2 H32 C52 N4 O10'
_cell_volume   6050.62436243
_cell_formula_units_Z   2
loop_
 _symmetry_equiv_pos_site_id
 _symmetry_equiv_pos_as_xyz
  1  'x, y, z'
loop_
 _atom_site_type_symbol
 _atom_site_label
 _atom_site_symmetry_multiplicity
 _atom_site_fract_x
 _atom_site_fract_y
 _atom_site_fract_z
 _atom_site_occupancy
  Zn  Zn0  1  0.50466273  0.57555449  0.50192376  1.0
  Zn  Zn1  1  0.49753214  0.42419462  0.50291518  1.0
  H  H2  1  0.73180328  0.56380740  0.41383993  1.0
  H  H3  1  0.58628097  0.16378337  0.42229747  1.0
  H  H4  1  0.41874858  0.69761023  0.57784039  1.0
  H  H5  1  0.58237124  0.30116847  0.42745304  1.0
  H  H6  1  0.37393178  0.94266624  0.52292811  1.0
  H  H7  1  0.62288279  0.05703426  0.47996652  1.0
  H  H8  1  0.37237841  0.07776455  0.52327860  1.0
  H  H9  1  0.62431537  0.92204480  0.47913524  1.0
  H  H10  1  0.87801946  0.56412640  0.39455986  1.0
  H  H11  1  0.12754399  0.43540829  0.39674352  1.0
  H  H12  1  0.08234382  0.62578231  0.52471702  1.0
  H  H13  1  0.27290526  0.43484891  0.41790762  1.0
  H  H14  1  0.91844095  0.37239451  0.52205040  1.0
  H  H15  1  0.48952189  0.38503654  0.28708048  1.0
  H  H16  1  0.49524360  0.61833590  0.71801575  1.0
  H  H17  1  0.49071881  0.38359246  0.15993514  1.0
  H  H18  1  0.49590280  0.61844846  0.84527085  1.0
  H  H19  1  0.50899422  0.61760755  0.15792489  1.0
  H  H20  1  0.50233814  0.38163862  0.84547622  1.0
  H  H21  1  0.51210016  0.61703900  0.28500535  1.0
  H  H22  1  0.50322291  0.38265443  0.71815885  1.0
  H  H23  1  0.58214469  0.58249355  0.06321364  1.0
  H  H24  1  0.58113860  0.58264576  0.93745689  1.0
  H  H25  1  0.41755328  0.41721990  0.94065354  1.0
  H  H26  1  0.17611678  0.67997146  0.57824751  1.0
  H  H27  1  0.82006534  0.31728451  0.57493726  1.0
  H  H28  1  0.41745825  0.41784345  0.06643469  1.0
  H  H29  1  0.58810329  0.68551163  0.42407953  1.0
  H  H30  1  0.40887639  0.31506772  0.57746387  1.0
  H  H31  1  0.58824536  0.82265113  0.41952427  1.0
  H  H32  1  0.40737765  0.17809549  0.58181058  1.0
  H  H33  1  0.41260500  0.83519786  0.58179477  1.0
  C  C34  1  0.49917302  0.50057049  0.63418269  1.0
  C  C35  1  0.50044738  0.43397569  0.74675101  1.0
  C  C36  1  0.50139258  0.50100003  0.29351845  1.0
  C  C37  1  0.49868990  0.50052033  0.71051556  1.0
  C  C38  1  0.54474867  0.54701684  0.03657955  1.0
  C  C39  1  0.45463726  0.45287188  0.96744441  1.0
  C  C40  1  0.54426124  0.54707836  0.96568008  1.0
  C  C41  1  0.45473621  0.45315587  0.03835326  1.0
  C  C42  1  0.49924263  0.49996051  0.92956255  1.0
  C  C43  1  0.49984152  0.50019240  0.07449709  1.0
  C  C44  1  0.55086802  0.72144089  0.45826923  1.0
  C  C45  1  0.50214388  0.50129767  0.36972724  1.0
  C  C46  1  0.44706741  0.27884747  0.54421906  1.0
  C  C47  1  0.55065178  0.79752195  0.45642351  1.0
  C  C48  1  0.44618226  0.20280110  0.54565152  1.0
  C  C49  1  0.34721819  0.51973793  0.49692732  1.0
  C  C50  1  0.65487566  0.47832780  0.49391056  1.0
  C  C51  1  0.50051183  0.84123519  0.50094615  1.0
  C  C52  1  0.49671620  0.15855115  0.50189118  1.0
  C  C53  1  0.45200283  0.80461285  0.54533836  1.0
  C  C54  1  0.54664283  0.19469666  0.45836107  1.0
  C  C55  1  0.45545485  0.72818531  0.54423810  1.0
  C  C56  1  0.49406811  0.43523995  0.18713184  1.0
  C  C57  1  0.54433816  0.27095187  0.46002427  1.0
  C  C58  1  0.42894072  0.96749965  0.51437909  1.0
  C  C59  1  0.56778429  0.03228372  0.48828329  1.0
  C  C60  1  0.42810570  0.04378866  0.51463246  1.0
  C  C61  1  0.56859910  0.95602646  0.48789699  1.0
  C  C62  1  0.49749605  0.07763077  0.50163720  1.0
  C  C63  1  0.49923570  0.92218402  0.50100619  1.0
  C  C64  1  0.25926081  0.52731473  0.48584397  1.0
  C  C65  1  0.74304880  0.47128297  0.48232446  1.0
  C  C66  1  0.23051244  0.47610992  0.44174000  1.0
  C  C67  1  0.49786263  0.56652419  0.81752608  1.0
  C  C68  1  0.77331557  0.52256019  0.43816085  1.0
  C  C69  1  0.15008165  0.47644508  0.42952159  1.0
  C  C70  1  0.85425887  0.52263514  0.42682603  1.0
  C  C71  1  0.09661593  0.53018164  0.46059513  1.0
  C  C72  1  0.90657780  0.46872001  0.45820648  1.0
  C  C73  1  0.12491824  0.58435720  0.50109777  1.0
  C  C74  1  0.87678578  0.41396850  0.49813923  1.0
  C  C75  1  0.20550095  0.58241326  0.51598145  1.0
  C  C76  1  0.79580733  0.41623970  0.51279600  1.0
  C  C77  1  0.49422533  0.43551533  0.25800797  1.0
  C  C78  1  0.50011130  0.50049377  0.14970118  1.0
  C  C79  1  0.49715377  0.56683347  0.74660803  1.0
  C  C80  1  0.22631829  0.63682169  0.56693432  1.0
  C  C81  1  0.77277939  0.36361415  0.56550365  1.0
  C  C82  1  0.49888207  0.50006659  0.85432806  1.0
  C  C83  1  0.50645733  0.56607149  0.18593552  1.0
  C  C84  1  0.49983405  0.43379946  0.81769121  1.0
  C  C85  1  0.50758553  0.56628156  0.25679902  1.0
  N  N86  1  0.01346562  0.53139516  0.45749395  1.0
  N  N87  1  0.98978984  0.46777127  0.45651094  1.0
  N  N88  1  0.50441175  0.68740691  0.50151370  1.0
  N  N89  1  0.49524209  0.31236622  0.50207900  1.0
  O  O90  1  0.48973928  0.56296783  0.60423908  1.0
  O  O91  1  0.71135087  0.36889643  0.59884887  1.0
  O  O92  1  0.48135813  0.44425280  0.40014246  1.0
  O  O93  1  0.50912369  0.43808991  0.60467339  1.0
  O  O94  1  0.52340174  0.55851548  0.39863150  1.0
  O  O95  1  0.38440544  0.57476534  0.48307961  1.0
  O  O96  1  0.61832073  0.42276120  0.48133050  1.0
  O  O97  1  0.37636051  0.45602114  0.51566586  1.0
  O  O98  1  0.62490106  0.54196488  0.51209966  1.0
  O  O99  1  0.28894091  0.63694889  0.59689648  1.0
