# generated using pymatgen
data_CdH20C29(N3O2)2
_symmetry_space_group_name_H-M   'P 1'
_cell_length_a   21.91304234
_cell_length_b   21.92016578
_cell_length_c   22.64166126
_cell_angle_alpha   118.95862107
_cell_angle_beta   118.94182371
_cell_angle_gamma   89.98523191
_symmetry_Int_Tables_number   1
_chemical_formula_structural   CdH20C29(N3O2)2
_chemical_formula_sum   'Cd8 H160 C232 N48 O32'
_cell_volume   7928.87595195
_cell_formula_units_Z   8
loop_
 _symmetry_equiv_pos_site_id
 _symmetry_equiv_pos_as_xyz
  1  'x, y, z'
loop_
 _atom_site_type_symbol
 _atom_site_label
 _atom_site_symmetry_multiplicity
 _atom_site_fract_x
 _atom_site_fract_y
 _atom_site_fract_z
 _atom_site_occupancy
  Cd  Cd0  1  0.58048196  0.35028363  0.49249681  1.0
  Cd  Cd1  1  0.10032772  0.16226761  0.99268569  1.0
  Cd  Cd2  1  0.91216870  0.14217629  0.49266432  1.0
  Cd  Cd3  1  0.89222580  0.83037990  0.99243231  1.0
  Cd  Cd4  1  0.23336603  0.52423958  0.79337102  1.0
  Cd  Cd5  1  0.27434015  0.80979942  0.29327144  1.0
  Cd  Cd6  1  0.55975484  0.26921777  0.79329988  1.0
  Cd  Cd7  1  0.01886525  0.48330768  0.29306407  1.0
  H  H8  1  0.21547809  0.53873151  0.11516926  1.0
  H  H9  1  0.28846548  0.14986477  0.61475525  1.0
  H  H10  1  0.89967423  0.57653690  0.11470273  1.0
  H  H11  1  0.32611329  0.46506369  0.61486900  1.0
  H  H12  1  0.34737387  0.44851024  0.97826851  1.0
  H  H13  1  0.19882348  0.88119622  0.47829937  1.0
  H  H14  1  0.63092143  0.52949887  0.97833228  1.0
  H  H15  1  0.27922740  0.59708647  0.47820149  1.0
  H  H16  1  0.37752284  0.43580154  0.09265759  1.0
  H  H17  1  0.18563969  0.96541960  0.59233109  1.0
  H  H18  1  0.71502227  0.65676425  0.09214996  1.0
  H  H19  1  0.40646961  0.62686446  0.59213320  1.0
  H  H20  1  0.31137059  0.48213132  0.16159473  1.0
  H  H21  1  0.23168291  0.10045380  0.66102253  1.0
  H  H22  1  0.85009080  0.67955366  0.16079598  1.0
  H  H23  1  0.42915209  0.56063053  0.66094161  1.0
  H  H24  1  0.63721977  0.59631743  0.77384036  1.0
  H  H25  1  0.34662153  0.38672321  0.27406966  1.0
  H  H26  1  0.13666717  0.17760829  0.77404811  1.0
  H  H27  1  0.92747693  0.88723244  0.27396547  1.0
  H  H28  1  0.48469467  0.29403557  0.54956957  1.0
  H  H29  1  0.04413327  0.31526292  0.05015399  1.0
  H  H30  1  0.06492301  0.25553091  0.54966616  1.0
  H  H31  1  0.00574239  0.73495547  0.04980129  1.0
  H  H32  1  0.49000545  0.38454030  0.69115395  1.0
  H  H33  1  0.13478703  0.45137124  0.19185482  1.0
  H  H34  1  0.20106468  0.30692435  0.69148181  1.0
  H  H35  1  0.05676453  0.74023167  0.19135208  1.0
  H  H36  1  0.57153190  0.51210153  0.63573071  1.0
  H  H37  1  0.26217411  0.31433089  0.13583829  1.0
  H  H38  1  0.06436939  0.12368453  0.63592735  1.0
  H  H39  1  0.87362975  0.82162907  0.13583673  1.0
  H  H40  1  0.45606402  0.48366017  0.74894314  1.0
  H  H41  1  0.23382622  0.54292629  0.24921749  1.0
  H  H42  1  0.29288153  0.26546940  0.74915944  1.0
  H  H43  1  0.01519477  0.70600439  0.24881224  1.0
  H  H44  1  0.57303803  0.71065436  0.94189333  1.0
  H  H45  1  0.46094275  0.61888074  0.44200517  1.0
  H  H46  1  0.36888182  0.23144587  0.94213910  1.0
  H  H47  1  0.98133868  0.82303574  0.44197461  1.0
  H  H48  1  0.35814285  0.53439750  0.75484421  1.0
  H  H49  1  0.28447443  0.64641388  0.25476908  1.0
  H  H50  1  0.39659937  0.22048542  0.75490681  1.0
  H  H51  1  0.97038097  0.60816270  0.25463277  1.0
  H  H52  1  0.99408989  0.42378635  0.49037845  1.0
  H  H53  1  0.17352479  0.74653712  0.99089658  1.0
  H  H54  1  0.49644084  0.06717782  0.49076169  1.0
  H  H55  1  0.81674538  0.24417111  0.99030280  1.0
  H  H56  1  0.75799233  0.34389472  0.32753803  1.0
  H  H57  1  0.09405134  0.81979082  0.82810466  1.0
  H  H58  1  0.56978308  0.98390455  0.32798344  1.0
  H  H59  1  0.73355254  0.00813469  0.82746721  1.0
  H  H60  1  0.75054121  0.38120076  0.53098814  1.0
  H  H61  1  0.13140193  0.03090147  0.03132351  1.0
  H  H62  1  0.78080880  0.14982192  0.53114187  1.0
  H  H63  1  0.89931653  0.00036717  0.03096363  1.0
  H  H64  1  0.86156395  0.33638949  0.53998457  1.0
  H  H65  1  0.08653251  0.92899960  0.04058395  1.0
  H  H66  1  0.67876184  0.20390136  0.54033403  1.0
  H  H67  1  0.95347873  0.11142010  0.03995000  1.0
  H  H68  1  0.12065509  0.46927765  0.87162681  1.0
  H  H69  1  0.21975232  0.00098348  0.37145784  1.0
  H  H70  1  0.75084841  0.40230109  0.87172720  1.0
  H  H71  1  0.15181179  0.37037784  0.37155940  1.0
  H  H72  1  0.66513911  0.44055634  0.73442649  1.0
  H  H73  1  0.19050075  0.31914380  0.23434938  1.0
  H  H74  1  0.06927463  0.29423007  0.73460162  1.0
  H  H75  1  0.04405246  0.91491119  0.23424814  1.0
  H  H76  1  0.71623936  0.51397429  0.88249381  1.0
  H  H77  1  0.26379071  0.41612581  0.38239105  1.0
  H  H78  1  0.16621578  0.36893253  0.88262331  1.0
  H  H79  1  0.11862671  0.96579422  0.38222024  1.0
  H  H80  1  0.90421540  0.63325829  0.92473098  1.0
  H  H81  1  0.38362059  0.27075110  0.42482829  1.0
  H  H82  1  0.02079447  0.29160686  0.92503756  1.0
  H  H83  1  0.04146018  0.15376023  0.42485828  1.0
  H  H84  1  0.83851244  0.61002125  0.97825081  1.0
  H  H85  1  0.36015139  0.38985003  0.47823130  1.0
  H  H86  1  0.13991832  0.36846416  0.97846587  1.0
  H  H87  1  0.11816485  0.08790130  0.47815122  1.0
  H  H88  1  0.96978237  0.71577457  0.80835998  1.0
  H  H89  1  0.46617014  0.08874449  0.30865764  1.0
  H  H90  1  0.83886842  0.09281061  0.80878005  1.0
  H  H91  1  0.84262914  0.21948614  0.30864570  1.0
  H  H92  1  0.10610520  0.39752374  0.75605395  1.0
  H  H93  1  0.14756298  0.90000459  0.25655396  1.0
  H  H94  1  0.64989555  0.35901767  0.75622556  1.0
  H  H95  1  0.10854176  0.35611502  0.25602141  1.0
  H  H96  1  0.06975506  0.49274328  0.62439889  1.0
  H  H97  1  0.24259769  0.80471657  0.12460200  1.0
  H  H98  1  0.55459335  0.13214423  0.62457397  1.0
  H  H99  1  0.88162230  0.31974852  0.12411792  1.0
  H  H100  1  0.01839596  0.51332133  0.81239339  1.0
  H  H101  1  0.26391787  0.04420224  0.31244175  1.0
  H  H102  1  0.79368695  0.29889333  0.81228047  1.0
  H  H103  1  0.04862625  0.26815255  0.31252389  1.0
  H  H104  1  0.99787675  0.42537327  0.39877386  1.0
  H  H105  1  0.17500468  0.65097688  0.89926863  1.0
  H  H106  1  0.40085757  0.97392621  0.39900355  1.0
  H  H107  1  0.72383445  0.24791749  0.89811867  1.0
  H  H108  1  0.00620996  0.62973055  0.90355572  1.0
  H  H109  1  0.38011138  0.14779169  0.40381467  1.0
  H  H110  1  0.89720461  0.27368698  0.90331496  1.0
  H  H111  1  0.02355637  0.25609346  0.40385179  1.0
  H  H112  1  0.96638231  0.32199548  0.61777264  1.0
  H  H113  1  0.07215503  0.90194813  0.11857311  1.0
  H  H114  1  0.65163371  0.29622437  0.61811089  1.0
  H  H115  1  0.04586918  0.21630353  0.11789927  1.0
  H  H116  1  0.91996600  0.48454676  0.64348727  1.0
  H  H117  1  0.23494842  0.97363380  0.14379884  1.0
  H  H118  1  0.72377928  0.15875554  0.64351979  1.0
  H  H119  1  0.90914315  0.17003968  0.14391223  1.0
  H  H120  1  0.98228946  0.61369919  0.70280012  1.0
  H  H121  1  0.36415554  0.97064904  0.20323433  1.0
  H  H122  1  0.72078500  0.08912675  0.70305938  1.0
  H  H123  1  0.83909957  0.23210668  0.20314133  1.0
  H  H124  1  0.84712557  0.45860849  0.68943940  1.0
  H  H125  1  0.20886287  0.09233812  0.18955344  1.0
  H  H126  1  0.84251688  0.23072664  0.68948691  1.0
  H  H127  1  0.98115501  0.09721054  0.18976394  1.0
  H  H128  1  0.67402377  0.22848751  0.28446894  1.0
  H  H129  1  0.97842107  0.86068274  0.78500485  1.0
  H  H130  1  0.61053371  0.05628028  0.28479523  1.0
  H  H131  1  0.80602784  0.92420809  0.78462892  1.0
  H  H132  1  0.53340020  0.66544560  0.00291480  1.0
  H  H133  1  0.41553718  0.71966771  0.50297745  1.0
  H  H134  1  0.46958466  0.33760180  0.00304997  1.0
  H  H135  1  0.08768232  0.78321301  0.50281201  1.0
  H  H136  1  0.40005512  0.63931304  0.98866829  1.0
  H  H137  1  0.38929340  0.83857409  0.48838054  1.0
  H  H138  1  0.58864063  0.34908199  0.98862378  1.0
  H  H139  1  0.09928795  0.64974740  0.48828570  1.0
  H  H140  1  0.55881861  0.22498291  0.30641936  1.0
  H  H141  1  0.97480228  0.99765219  0.80662516  1.0
  H  H142  1  0.74752105  0.08154236  0.30637299  1.0
  H  H143  1  0.83135500  0.80887298  0.80630272  1.0
  H  H144  1  0.83137930  0.45166993  0.22307644  1.0
  H  H145  1  0.20220164  0.64196705  0.72414654  1.0
  H  H146  1  0.39222510  0.77181304  0.22396341  1.0
  H  H147  1  0.52138393  0.08207510  0.72375260  1.0
  H  H148  1  0.77015217  0.40456593  0.28270629  1.0
  H  H149  1  0.15492767  0.76278062  0.78356868  1.0
  H  H150  1  0.51310710  0.87855893  0.28370209  1.0
  H  H151  1  0.62798396  0.02067914  0.78334193  1.0
  H  H152  1  0.74749747  0.68342615  0.87954071  1.0
  H  H153  1  0.43374853  0.38235127  0.38003453  1.0
  H  H154  1  0.13215678  0.19630384  0.87999833  1.0
  H  H155  1  0.94601084  0.99758423  0.37977446  1.0
  H  H156  1  0.09558234  0.69660615  0.05302536  1.0
  H  H157  1  0.44683952  0.20776053  0.55326410  1.0
  H  H158  1  0.95762814  0.35641927  0.05283911  1.0
  H  H159  1  0.10622704  0.34556943  0.55328971  1.0
  H  H160  1  0.75981077  0.90014433  0.03009312  1.0
  H  H161  1  0.65058137  0.52000713  0.52948963  1.0
  H  H162  1  0.27039412  0.12967610  0.03001927  1.0
  H  H163  1  0.87964269  0.00955683  0.53006817  1.0
  H  H164  1  0.62235968  0.80848028  0.95714975  1.0
  H  H165  1  0.55876442  0.58448170  0.45658759  1.0
  H  H166  1  0.33477224  0.14866106  0.95706810  1.0
  H  H167  1  0.89861727  0.87223925  0.45711152  1.0
  C  C168  1  0.23034036  0.53039763  0.02461764  1.0
  C  C169  1  0.28053219  0.04447093  0.52450735  1.0
  C  C170  1  0.79435256  0.49417295  0.02467506  1.0
  C  C171  1  0.24380018  0.48010931  0.52454939  1.0
  C  C172  1  0.25637924  0.51272293  0.91952197  1.0
  C  C173  1  0.26331347  0.91333869  0.41975901  1.0
  C  C174  1  0.66334456  0.40650633  0.92007496  1.0
  C  C175  1  0.15626388  0.50626196  0.41962744  1.0
  C  C176  1  0.26839492  0.50422639  0.98619296  1.0
  C  C177  1  0.25451630  0.96801490  0.48618591  1.0
  C  C178  1  0.71786999  0.48178737  0.98640644  1.0
  C  C179  1  0.23148023  0.51818686  0.48616809  1.0
  C  C180  1  0.24671157  0.52122824  0.08742461  1.0
  C  C181  1  0.27106373  0.09089976  0.58708321  1.0
  C  C182  1  0.84071119  0.56622148  0.08713327  1.0
  C  C183  1  0.31583125  0.49632255  0.58716139  1.0
  C  C184  1  0.32016916  0.46953697  0.01039775  1.0
  C  C185  1  0.21970186  0.94049225  0.51031133  1.0
  C  C186  1  0.69023190  0.54067699  0.01037636  1.0
  C  C187  1  0.29038225  0.56984147  0.51024515  1.0
  C  C188  1  0.33650398  0.46215200  0.07377354  1.0
  C  C189  1  0.21207526  0.98750995  0.57349380  1.0
  C  C190  1  0.73719842  0.61151269  0.07341123  1.0
  C  C191  1  0.36120330  0.58601280  0.57342040  1.0
  C  C192  1  0.29952383  0.48828527  0.11247578  1.0
  C  C193  1  0.23802234  0.06316585  0.61205731  1.0
  C  C194  1  0.81287132  0.62420554  0.11196677  1.0
  C  C195  1  0.37382993  0.54897745  0.61203890  1.0
  C  C196  1  0.60106436  0.59693968  0.79410460  1.0
  C  C197  1  0.34718733  0.44312558  0.29434541  1.0
  C  C198  1  0.19307919  0.19733814  0.79435125  1.0
  C  C199  1  0.94717796  0.85110348  0.29422513  1.0
  C  C200  1  0.50179410  0.35318708  0.58812777  1.0
  C  C201  1  0.10329990  0.33661038  0.08865449  1.0
  C  C202  1  0.08638451  0.23504677  0.58832852  1.0
  C  C203  1  0.98512988  0.75205132  0.08835559  1.0
  C  C204  1  0.61074135  0.66052769  0.86189125  1.0
  C  C205  1  0.41079742  0.50120128  0.36206309  1.0
  C  C206  1  0.25118606  0.20156767  0.86214503  1.0
  C  C207  1  0.95142229  0.86077788  0.36202574  1.0
  C  C208  1  0.54510931  0.53354344  0.75383334  1.0
  C  C209  1  0.28373975  0.45880023  0.25414420  1.0
  C  C210  1  0.20876305  0.22051115  0.75410677  1.0
  C  C211  1  0.97026823  0.79512601  0.25387372  1.0
  C  C212  1  0.50333211  0.39737423  0.65736838  1.0
  C  C213  1  0.14755098  0.40425451  0.15789919  1.0
  C  C214  1  0.15404034  0.26018809  0.65761648  1.0
  C  C215  1  0.01010691  0.75350414  0.15752533  1.0
  C  C216  1  0.54790803  0.46469114  0.63023553  1.0
  C  C217  1  0.21478262  0.33248611  0.13047195  1.0
  C  C218  1  0.08243278  0.16562541  0.63043177  1.0
  C  C219  1  0.91558387  0.79803679  0.13036143  1.0
  C  C220  1  0.49946346  0.53311182  0.78043541  1.0
  C  C221  1  0.28329857  0.53103206  0.28073295  1.0
  C  C222  1  0.28099680  0.24753144  0.78068528  1.0
  C  C223  1  0.99730627  0.74944847  0.28039212  1.0
  C  C224  1  0.50989559  0.59747677  0.84763201  1.0
  C  C225  1  0.34768743  0.58776723  0.34784894  1.0
  C  C226  1  0.33775168  0.25035621  0.84786957  1.0
  C  C227  1  0.00020182  0.75989529  0.34761947  1.0
  C  C228  1  0.56556683  0.66120123  0.88926618  1.0
  C  C229  1  0.41146655  0.57373817  0.38943799  1.0
  C  C230  1  0.32372907  0.22828878  0.88952858  1.0
  C  C231  1  0.97814159  0.81557959  0.38933833  1.0
  C  C232  1  0.38736346  0.56516099  0.82032179  1.0
  C  C233  1  0.31527269  0.68277696  0.32024040  1.0
  C  C234  1  0.43289142  0.25513513  0.82038778  1.0
  C  C235  1  0.00511713  0.63730571  0.32010134  1.0
  C  C236  1  0.89226508  0.70980698  0.86646003  1.0
  C  C237  1  0.46004597  0.22427116  0.36653746  1.0
  C  C238  1  0.97438178  0.15697477  0.86696076  1.0
  C  C239  1  0.90675878  0.14195955  0.36657428  1.0
  C  C240  1  0.94032049  0.40000143  0.47371411  1.0
  C  C241  1  0.14989785  0.78371460  0.97426532  1.0
  C  C242  1  0.53362493  0.07420201  0.47413512  1.0
  C  C243  1  0.82378581  0.19036686  0.97365209  1.0
  C  C244  1  0.80375976  0.33702675  0.43150009  1.0
  C  C245  1  0.08717283  0.87815739  0.93206817  1.0
  C  C246  1  0.62805217  0.09471959  0.43189901  1.0
  C  C247  1  0.84432635  0.05375963  0.93154706  1.0
  C  C248  1  0.80803056  0.35399817  0.38135932  1.0
  C  C249  1  0.10409825  0.82362673  0.88192951  1.0
  C  C250  1  0.57358593  0.02766196  0.38180149  1.0
  C  C251  1  0.77728908  0.05811013  0.88134402  1.0
  C  C252  1  0.71395958  0.33729642  0.46756655  1.0
  C  C253  1  0.08745085  0.00396424  0.96790221  1.0
  C  C254  1  0.75385803  0.13032244  0.46771059  1.0
  C  C255  1  0.87987103  0.96385558  0.96754003  1.0
  C  C256  1  0.86610063  0.35034061  0.50192549  1.0
  C  C257  1  0.10045137  0.88633138  0.00252550  1.0
  C  C258  1  0.63616631  0.15190748  0.50231733  1.0
  C  C259  1  0.90149807  0.11604712  0.00195234  1.0
  C  C260  1  0.93432680  0.38272430  0.52289483  1.0
  C  C261  1  0.13271657  0.83901825  0.02346835  1.0
  C  C262  1  0.58885044  0.14060365  0.52328051  1.0
  C  C263  1  0.89019133  0.18429571  0.02286067  1.0
  C  C264  1  0.87683971  0.38605725  0.40319813  1.0
  C  C265  1  0.13603495  0.77661447  0.90377187  1.0
  C  C266  1  0.52659963  0.01755187  0.40367229  1.0
  C  C267  1  0.76717107  0.12695658  0.90313067  1.0
  C  C268  1  0.16980570  0.56021069  0.99482986  1.0
  C  C269  1  0.31046684  0.07517126  0.49476489  1.0
  C  C270  1  0.82511578  0.43456950  0.99487229  1.0
  C  C271  1  0.18419695  0.41962447  0.49482298  1.0
  C  C272  1  0.11636768  0.52070033  0.91113356  1.0
  C  C273  1  0.27112746  0.04486275  0.41107099  1.0
  C  C274  1  0.79470847  0.39037313  0.91116132  1.0
  C  C275  1  0.13996937  0.36616216  0.41114912  1.0
  C  C276  1  0.71721386  0.48400708  0.77698968  1.0
  C  C277  1  0.23402674  0.30970760  0.27695473  1.0
  C  C278  1  0.05980075  0.29327416  0.77716873  1.0
  C  C279  1  0.04313689  0.96695340  0.27686732  1.0
  C  C280  1  0.75296614  0.49797022  0.74547621  1.0
  C  C281  1  0.24815450  0.24250681  0.24552763  1.0
  C  C282  1  0.99263294  0.24767893  0.74570800  1.0
  C  C283  1  0.99765475  0.00277323  0.24546850  1.0
  C  C284  1  0.71170791  0.45519921  0.65420343  1.0
  C  C285  1  0.20546056  0.19247829  0.15425920  1.0
  C  C286  1  0.94268734  0.19905560  0.65443050  1.0
  C  C287  1  0.94911855  0.96161749  0.15419625  1.0
  C  C288  1  0.74596093  0.52485203  0.85974190  1.0
  C  C289  1  0.27484259  0.36373905  0.35970240  1.0
  C  C290  1  0.11380702  0.33520719  0.85991416  1.0
  C  C291  1  0.08495516  0.99556182  0.35958390  1.0
  C  C292  1  0.89819933  0.64479954  0.80419653  1.0
  C  C293  1  0.39507716  0.15609496  0.30429944  1.0
  C  C294  1  0.90624689  0.15960150  0.80455965  1.0
  C  C295  1  0.90948445  0.14792201  0.30433204  1.0
  C  C296  1  0.82060189  0.55411115  0.79890959  1.0
  C  C297  1  0.30435206  0.22838000  0.29897580  1.0
  C  C298  1  0.97852190  0.24497132  0.79919975  1.0
  C  C299  1  0.99493683  0.07035449  0.29899289  1.0
  C  C300  1  0.85050531  0.59229102  0.88252618  1.0
  C  C301  1  0.34254728  0.28214630  0.38258226  1.0
  C  C302  1  0.03222169  0.29041162  0.88279914  1.0
  C  C303  1  0.04025375  0.10010160  0.38256535  1.0
  C  C304  1  0.86238184  0.57179168  0.77064025  1.0
  C  C305  1  0.32202299  0.15831213  0.27072117  1.0
  C  C306  1  0.90849247  0.19896538  0.77091532  1.0
  C  C307  1  0.94903129  0.11220757  0.27081011  1.0
  C  C308  1  0.81385780  0.57890668  0.91302707  1.0
  C  C309  1  0.32902797  0.34924518  0.41302505  1.0
  C  C310  1  0.09931750  0.33439347  0.91326270  1.0
  C  C311  1  0.08412777  0.06337451  0.41296595  1.0
  C  C312  1  0.94130398  0.65893144  0.77976130  1.0
  C  C313  1  0.40927771  0.08859004  0.28000863  1.0
  C  C314  1  0.83872072  0.12099145  0.78010226  1.0
  C  C315  1  0.87087439  0.19103522  0.27997557  1.0
  C  C316  1  0.07604737  0.40658280  0.70808059  1.0
  C  C317  1  0.15662374  0.88219726  0.20859783  1.0
  C  C318  1  0.63200977  0.30198901  0.70829895  1.0
  C  C319  1  0.05151008  0.32604632  0.20805151  1.0
  C  C320  1  0.06104112  0.45710031  0.64186014  1.0
  C  C321  1  0.20701591  0.83095697  0.14218227  1.0
  C  C322  1  0.58079530  0.18525158  0.64206108  1.0
  C  C323  1  0.93475861  0.31104757  0.14167800  1.0
  C  C324  1  0.05813600  0.54486963  0.87772849  1.0
  C  C325  1  0.29533470  0.06979280  0.37776774  1.0
  C  C326  1  0.81944391  0.33275341  0.87763584  1.0
  C  C327  1  0.08244960  0.30795392  0.37784259  1.0
  C  C328  1  0.94437015  0.42659473  0.35965307  1.0
  C  C329  1  0.17650557  0.66543075  0.86031582  1.0
  C  C330  1  0.41539299  0.93354629  0.36007319  1.0
  C  C331  1  0.68333174  0.19457227  0.85934425  1.0
  C  C332  1  0.05078848  0.60935124  0.92854275  1.0
  C  C333  1  0.35974346  0.12804574  0.42869806  1.0
  C  C334  1  0.87769434  0.31911125  0.92838830  1.0
  C  C335  1  0.06886623  0.30068908  0.42875294  1.0
  C  C336  1  0.00680882  0.36904268  0.63945254  1.0
  C  C337  1  0.11913110  0.88304632  0.14010247  1.0
  C  C338  1  0.63279317  0.27086995  0.63974563  1.0
  C  C339  1  0.02046221  0.25675848  0.13947801  1.0
  C  C340  1  0.91351101  0.52966117  0.68796783  1.0
  C  C341  1  0.28004105  0.02454971  0.18822412  1.0
  C  C342  1  0.77471435  0.15824587  0.68812127  1.0
  C  C343  1  0.90844551  0.16344548  0.18827961  1.0
  C  C344  1  0.94852792  0.60195897  0.72125906  1.0
  C  C345  1  0.35238148  0.02286723  0.22159766  1.0
  C  C346  1  0.77299931  0.11934584  0.72151743  1.0
  C  C347  1  0.86934352  0.19834822  0.22154526  1.0
  C  C348  1  0.87173897  0.51512942  0.71304825  1.0
  C  C349  1  0.26542267  0.09135932  0.21320288  1.0
  C  C350  1  0.84153819  0.19790041  0.71320934  1.0
  C  C351  1  0.94813588  0.12169273  0.21331606  1.0
  C  C352  1  0.67173054  0.25909386  0.33752529  1.0
  C  C353  1  0.00910791  0.91603106  0.83795284  1.0
  C  C354  1  0.66591129  0.07861405  0.33775016  1.0
  C  C355  1  0.82832347  0.92179392  0.83758288  1.0
  C  C356  1  0.47759929  0.63580129  0.95063021  1.0
  C  C357  1  0.38590172  0.72308196  0.45062373  1.0
  C  C358  1  0.47306255  0.31488101  0.95073948  1.0
  C  C359  1  0.06493279  0.72744888  0.45046772  1.0
  C  C360  1  0.41204108  0.62209120  0.94275360  1.0
  C  C361  1  0.37215578  0.78065824  0.44257741  1.0
  C  C362  1  0.53071586  0.32049809  0.94276837  1.0
  C  C363  1  0.07063524  0.66183937  0.44246254  1.0
  C  C364  1  0.61621870  0.25697597  0.34948495  1.0
  C  C365  1  0.00693695  0.98343322  0.84977089  1.0
  C  C366  1  0.73331673  0.09263319  0.34955084  1.0
  C  C367  1  0.84234590  0.86623383  0.84943438  1.0
  C  C368  1  0.85585405  0.43893045  0.26875427  1.0
  C  C369  1  0.18929688  0.66315592  0.76970666  1.0
  C  C370  1  0.41329979  0.83025103  0.26951688  1.0
  C  C371  1  0.57985345  0.10637742  0.76914299  1.0
  C  C372  1  0.82531008  0.41459953  0.29682213  1.0
  C  C373  1  0.16488108  0.72173659  0.79766380  1.0
  C  C374  1  0.47192449  0.88264664  0.29761497  1.0
  C  C375  1  0.63217597  0.07574056  0.79716901  1.0
  C  C376  1  0.16099617  0.62417826  0.04606021  1.0
  C  C377  1  0.37436295  0.13530334  0.54612067  1.0
  C  C378  1  0.88525045  0.42189332  0.04604273  1.0
  C  C379  1  0.17158472  0.41089812  0.54616935  1.0
  C  C380  1  0.21524671  0.67519150  0.13630763  1.0
  C  C381  1  0.42509352  0.17135910  0.63640125  1.0
  C  C382  1  0.92136031  0.46124403  0.13630361  1.0
  C  C383  1  0.21099052  0.46514731  0.63643896  1.0
  C  C384  1  0.73224110  0.73010952  0.91023694  1.0
  C  C385  1  0.48042876  0.42812848  0.41041807  1.0
  C  C386  1  0.17809693  0.18023370  0.91053244  1.0
  C  C387  1  0.93004345  0.98222989  0.41040448  1.0
  C  C388  1  0.10108863  0.64719398  0.01191812  1.0
  C  C389  1  0.39745764  0.16110497  0.51207554  1.0
  C  C390  1  0.91095379  0.36471276  0.01180175  1.0
  C  C391  1  0.11446376  0.35103008  0.51212292  1.0
  C  C392  1  0.73539496  0.84137736  0.98710005  1.0
  C  C393  1  0.59176882  0.50151987  0.48670818  1.0
  C  C394  1  0.25179750  0.14560045  0.98714604  1.0
  C  C395  1  0.89551031  0.98524662  0.48713768  1.0
  C  C396  1  0.66869384  0.79661096  0.95325989  1.0
  C  C397  1  0.54694774  0.53437609  0.45290069  1.0
  C  C398  1  0.28458712  0.15662056  0.95328415  1.0
  C  C399  1  0.90657081  0.91860475  0.45330516  1.0
  N  N400  1  0.35690465  0.57859423  0.86154129  1.0
  N  N401  1  0.32862517  0.75443064  0.36132633  1.0
  N  N402  1  0.50457239  0.28276293  0.86153822  1.0
  N  N403  1  0.03286593  0.60678541  0.36123299  1.0
  N  N404  1  0.46129468  0.59870666  0.87211376  1.0
  N  N405  1  0.34885764  0.66079858  0.37217508  1.0
  N  N406  1  0.41081177  0.27352542  0.87225952  1.0
  N  N407  1  0.02345437  0.71123123  0.37199539  1.0
  N  N408  1  0.52933605  0.39557079  0.57185794  1.0
  N  N409  1  0.14561811  0.29276598  0.07216012  1.0
  N  N410  1  0.04263745  0.17630485  0.57199622  1.0
  N  N411  1  0.92641783  0.77953920  0.07204761  1.0
  N  N412  1  0.53314855  0.46880010  0.68428413  1.0
  N  N413  1  0.21896376  0.40125825  0.18468064  1.0
  N  N414  1  0.15118383  0.21568452  0.68456187  1.0
  N  N415  1  0.96551764  0.78325446  0.18439863  1.0
  N  N416  1  0.10862402  0.46110190  0.70898095  1.0
  N  N417  1  0.21099805  0.85032287  0.20925170  1.0
  N  N418  1  0.60020424  0.24837356  0.70910524  1.0
  N  N419  1  0.99784743  0.35865057  0.20879607  1.0
  N  N420  1  0.99779371  0.40102883  0.59671626  1.0
  N  N421  1  0.15104210  0.84931942  0.09726503  1.0
  N  N422  1  0.59909686  0.19616366  0.59703195  1.0
  N  N423  1  0.94572938  0.24775129  0.09665384  1.0
  N  N424  1  0.73384951  0.31021316  0.41317078  1.0
  N  N425  1  0.06034874  0.92968138  0.91363297  1.0
  N  N426  1  0.67956844  0.10311007  0.41344504  1.0
  N  N427  1  0.85271951  0.98382620  0.91323028  1.0
  N  N428  1  0.88198967  0.40673474  0.35506664  1.0
  N  N429  1  0.15673019  0.72324137  0.85570974  1.0
  N  N430  1  0.47330071  0.94878756  0.35562436  1.0
  N  N431  1  0.69842599  0.13221884  0.85499068  1.0
  N  N432  1  0.92973499  0.44603402  0.30850970  1.0
  N  N433  1  0.19613803  0.62896127  0.80932011  1.0
  N  N434  1  0.37898666  0.86293874  0.30903868  1.0
  N  N435  1  0.61270378  0.18011283  0.80848658  1.0
  N  N436  1  0.64350598  0.30589253  0.43047066  1.0
  N  N437  1  0.05593072  0.03720440  0.93069146  1.0
  N  N438  1  0.78710056  0.12459633  0.43048324  1.0
  N  N439  1  0.87421598  0.89340923  0.93036120  1.0
  N  N440  1  0.66696276  0.72553650  0.90434749  1.0
  N  N441  1  0.47585117  0.48740547  0.40437425  1.0
  N  N442  1  0.23744118  0.17895195  0.90456682  1.0
  N  N443  1  0.92882336  0.91696736  0.40449826  1.0
  N  N444  1  0.77403086  0.79909992  0.95977975  1.0
  N  N445  1  0.54947168  0.43577471  0.45974705  1.0
  N  N446  1  0.18587050  0.16063449  0.95997285  1.0
  N  N447  1  0.91046722  0.02392546  0.45988105  1.0
  O  O448  1  0.68458569  0.38516702  0.61625600  1.0
  O  O449  1  0.13539934  0.18162662  0.11626254  1.0
  O  O450  1  0.93162315  0.23103045  0.61633518  1.0
  O  O451  1  0.98112653  0.93462644  0.11610182  1.0
  O  O452  1  0.70165178  0.48886804  0.62015059  1.0
  O  O453  1  0.23921491  0.16854115  0.12029104  1.0
  O  O454  1  0.91902103  0.13131431  0.62053705  1.0
  O  O455  1  0.88136350  0.95144821  0.12022723  1.0
  O  O456  1  0.95228044  0.75581703  0.93421141  1.0
  O  O457  1  0.50606836  0.23202508  0.43430091  1.0
  O  O458  1  0.98195526  0.17862964  0.93461695  1.0
  O  O459  1  0.92853120  0.20199607  0.43434033  1.0
  O  O460  1  0.82964762  0.71697637  0.84937360  1.0
  O  O461  1  0.46716475  0.26979110  0.34944932  1.0
  O  O462  1  0.02005170  0.13285258  0.85003778  1.0
  O  O463  1  0.88248905  0.07937892  0.34948235  1.0
  O  O464  1  0.26045835  0.57573805  0.93099382  1.0
  O  O465  1  0.32633907  0.92085057  0.43123226  1.0
  O  O466  1  0.67116543  0.35497882  0.93150820  1.0
  O  O467  1  0.10461021  0.51002279  0.43092202  1.0
  O  O468  1  0.24394727  0.45534937  0.85460303  1.0
  O  O469  1  0.20602930  0.86067132  0.35493039  1.0
  O  O470  1  0.61047638  0.39890630  0.85527762  1.0
  O  O471  1  0.14880224  0.49413312  0.35483814  1.0
  O  O472  1  0.28181974  0.69833690  0.16365433  1.0
  O  O473  1  0.44771449  0.13216620  0.66391308  1.0
  O  O474  1  0.88219506  0.46611544  0.16386363  1.0
  O  O475  1  0.21540216  0.53175562  0.66384706  1.0
  O  O476  1  0.18803655  0.69636923  0.17969024  1.0
  O  O477  1  0.44648318  0.24193135  0.67967291  1.0
  O  O478  1  0.99194119  0.48295063  0.17954496  1.0
  O  O479  1  0.23319163  0.43794971  0.67981555  1.0
