# generated using pymatgen
data_Zn2H20C29N8
_symmetry_space_group_name_H-M   'P 1'
_cell_length_a   14.70003742
_cell_length_b   15.10661700
_cell_length_c   24.59956602
_cell_angle_alpha   89.62355785
_cell_angle_beta   89.88170338
_cell_angle_gamma   76.06483610
_symmetry_Int_Tables_number   1
_chemical_formula_structural   Zn2H20C29N8
_chemical_formula_sum   'Zn8 H80 C116 N32'
_cell_volume   5301.88168935
_cell_formula_units_Z   4
loop_
 _symmetry_equiv_pos_site_id
 _symmetry_equiv_pos_as_xyz
  1  'x, y, z'
loop_
 _atom_site_type_symbol
 _atom_site_label
 _atom_site_symmetry_multiplicity
 _atom_site_fract_x
 _atom_site_fract_y
 _atom_site_fract_z
 _atom_site_occupancy
  Zn  Zn0  1  0.42900896  0.41602751  0.57527212  1.0
  Zn  Zn1  1  0.58401704  0.53427876  0.56353386  1.0
  Zn  Zn2  1  0.91998136  0.94968712  0.06204663  1.0
  Zn  Zn3  1  0.06652627  0.07528173  0.07916448  1.0
  Zn  Zn4  1  0.57723291  0.53562699  0.43066367  1.0
  Zn  Zn5  1  0.43667116  0.39844987  0.43993153  1.0
  Zn  Zn6  1  0.07204760  0.08840070  0.94360232  1.0
  Zn  Zn7  1  0.93143813  0.95249222  0.92884713  1.0
  H  H8  1  0.31179369  0.52682934  0.68564422  1.0
  H  H9  1  0.85685353  0.28799963  0.32832345  1.0
  H  H10  1  0.65195433  0.18779508  0.82796065  1.0
  H  H11  1  0.28531016  0.92594020  0.74490020  1.0
  H  H12  1  0.59020223  0.23356268  0.73692482  1.0
  H  H13  1  0.39257860  0.80507581  0.69243349  1.0
  H  H14  1  0.14017133  0.67991635  0.17824459  1.0
  H  H15  1  0.91489438  0.24112188  0.23664847  1.0
  H  H16  1  0.83527952  0.33228835  0.70032416  1.0
  H  H17  1  0.30159724  0.59961092  0.78524144  1.0
  H  H18  1  0.18560474  0.88076020  0.29155900  1.0
  H  H19  1  0.75440438  0.40883075  0.62244397  1.0
  H  H20  1  0.66185136  0.15531625  0.20291064  1.0
  H  H21  1  0.30169877  0.76041146  0.34085900  1.0
  H  H22  1  0.60375328  0.20258476  0.29440863  1.0
  H  H23  1  0.89745961  0.28548757  0.79110273  1.0
  H  H24  1  0.19523785  0.72085465  0.83843850  1.0
  H  H25  1  0.32431093  0.07023278  0.43248855  1.0
  H  H26  1  0.34528374  0.90398032  0.42737948  1.0
  H  H27  1  0.16139304  0.58220570  0.92693972  1.0
  H  H28  1  0.17970328  0.41628791  0.93382236  1.0
  H  H29  1  0.44792112  0.87696031  0.59203665  1.0
  H  H30  1  0.75185229  0.06384525  0.12881934  1.0
  H  H31  1  0.42699410  0.04292502  0.59708859  1.0
  H  H32  1  0.07788074  0.44633346  0.09870174  1.0
  H  H33  1  0.05893877  0.61191070  0.09163143  1.0
  H  H34  1  0.47559006  0.65966695  0.33007031  1.0
  H  H35  1  0.56923795  0.21920778  0.39262377  1.0
  H  H36  1  0.94041158  0.26332098  0.88666361  1.0
  H  H37  1  0.03673081  0.83394177  0.82903264  1.0
  H  H38  1  0.43578037  0.72081453  0.58954224  1.0
  H  H39  1  0.37497924  0.21389189  0.60156964  1.0
  H  H40  1  0.11751277  0.27863818  0.10491597  1.0
  H  H41  1  0.17708834  0.97083939  0.19214579  1.0
  H  H42  1  0.07254361  0.76562672  0.08779561  1.0
  H  H43  1  0.26163331  0.56612383  0.40994170  1.0
  H  H44  1  0.79139926  0.58373659  0.40609783  1.0
  H  H45  1  0.71518926  0.90511054  0.90215777  1.0
  H  H46  1  0.24796377  0.91453559  0.92105815  1.0
  H  H47  1  0.45234527  0.74766784  0.41462038  1.0
  H  H48  1  0.38578992  0.20264749  0.42602257  1.0
  H  H49  1  0.12549895  0.28229631  0.92921822  1.0
  H  H50  1  0.05409534  0.74033177  0.91324842  1.0
  H  H51  1  0.24480256  0.58166791  0.58559160  1.0
  H  H52  1  0.98120989  0.55034351  0.48210616  1.0
  H  H53  1  0.78709683  0.58230943  0.58164025  1.0
  H  H54  1  0.72277886  0.89337950  0.07775668  1.0
  H  H55  1  0.25021117  0.91526965  0.09717264  1.0
  H  H56  1  0.31061077  0.45850030  0.32800845  1.0
  H  H57  1  0.75083145  0.40603343  0.38647002  1.0
  H  H58  1  0.75454789  0.08037218  0.89003647  1.0
  H  H59  1  0.21485648  0.02282708  0.83943597  1.0
  H  H60  1  0.53767561  0.66399348  0.67387868  1.0
  H  H61  1  0.54283886  0.25645234  0.64628266  1.0
  H  H62  1  0.94522324  0.23805082  0.14130499  1.0
  H  H63  1  0.08498488  0.62930812  0.44848757  1.0
  H  H64  1  0.97562619  0.80817527  0.16786687  1.0
  H  H65  1  0.85694011  0.69355338  0.62061360  1.0
  H  H66  1  0.72583577  0.81928879  0.65078905  1.0
  H  H67  1  0.66599613  0.95368955  0.59023013  1.0
  H  H68  1  0.74119964  0.96225358  0.50037810  1.0
  H  H69  1  0.87274759  0.83592570  0.47010323  1.0
  H  H70  1  0.13943899  0.80767278  0.54482523  1.0
  H  H71  1  0.17887319  0.86656628  0.63414770  1.0
  H  H72  1  0.13692178  0.79859823  0.71983534  1.0
  H  H73  1  0.05933150  0.66961165  0.71713366  1.0
  H  H74  1  0.41551930  0.83259820  0.96188501  1.0
  H  H75  1  0.01915562  0.61170178  0.62775955  1.0
  H  H76  1  0.40235881  0.71300241  0.11221071  1.0
  H  H77  1  0.36451700  0.73466583  0.21066779  1.0
  H  H78  1  0.37045276  0.87983461  0.25568401  1.0
  H  H79  1  0.41416439  0.00423541  0.20203972  1.0
  H  H80  1  0.45400363  0.98107989  0.10378560  1.0
  H  H81  1  0.59408276  0.80564074  0.14428771  1.0
  H  H82  1  0.72943381  0.70317388  0.18897055  1.0
  H  H83  1  0.84859607  0.59396472  0.13428146  1.0
  H  H84  1  0.82741550  0.58596798  0.03408799  1.0
  H  H85  1  0.52933704  0.92247839  0.97105848  1.0
  H  H86  1  0.69047001  0.68861666  0.98918703  1.0
  H  H87  1  0.25628998  0.56012471  0.22717031  1.0
  C  C88  1  0.37535296  0.54878906  0.67656365  1.0
  C  C89  1  0.37663810  0.16654899  0.51459270  1.0
  C  C90  1  0.12219730  0.77776442  0.58279389  1.0
  C  C91  1  0.14396585  0.81055980  0.63270421  1.0
  C  C92  1  0.12042318  0.77238671  0.68098825  1.0
  C  C93  1  0.07646106  0.70021052  0.67932072  1.0
  C  C94  1  0.05383831  0.66787475  0.62942963  1.0
  C  C95  1  0.43062849  0.84548331  0.10179985  1.0
  C  C96  1  0.40482471  0.77664261  0.13215838  1.0
  C  C97  1  0.38383053  0.78887527  0.18734241  1.0
  C  C98  1  0.38726877  0.87056348  0.21258804  1.0
  C  C99  1  0.41176149  0.94018402  0.18249829  1.0
  C  C100  1  0.12594253  0.32192811  0.01735085  1.0
  C  C101  1  0.43394622  0.92741725  0.12745801  1.0
  C  C102  1  0.63205960  0.75482180  0.06312350  1.0
  C  C103  1  0.64373578  0.75686369  0.11976960  1.0
  C  C104  1  0.72105011  0.69931191  0.14504686  1.0
  C  C105  1  0.78776706  0.63812068  0.11451403  1.0
  C  C106  1  0.77588232  0.63370938  0.05833701  1.0
  C  C107  1  0.69878326  0.69114644  0.03315047  1.0
  C  C108  1  0.08029044  0.70979649  0.00263645  1.0
  C  C109  1  0.21145276  0.59943188  0.49573948  1.0
  C  C110  1  0.82941089  0.59058301  0.49433344  1.0
  C  C111  1  0.67874991  0.89130566  0.99040418  1.0
  C  C112  1  0.29169644  0.88953284  0.00872835  1.0
  C  C113  1  0.94783801  0.67705584  0.52122037  1.0
  C  C114  1  0.04811825  0.67594310  0.52758325  1.0
  C  C115  1  0.45671345  0.83248957  0.04343126  1.0
  C  C116  1  0.69505106  0.37775465  0.62067807  1.0
  C  C117  1  0.55794294  0.82090292  0.03193375  1.0
  C  C118  1  0.92412118  0.60487154  0.49750795  1.0
  C  C119  1  0.11220273  0.64009842  0.48865206  1.0
  C  C120  1  0.39073520  0.84565939  0.00372446  1.0
  C  C121  1  0.58436214  0.87730782  0.99489602  1.0
  C  C122  1  0.23971405  0.63014317  0.24193628  1.0
  C  C123  1  0.81314478  0.25967357  0.30079890  1.0
  C  C124  1  0.69317520  0.21893878  0.80003474  1.0
  C  C125  1  0.29021343  0.85436115  0.75465486  1.0
  C  C126  1  0.65839315  0.24448270  0.74821418  1.0
  C  C127  1  0.80642222  0.10067838  0.12387524  1.0
  C  C128  1  0.35055198  0.78627774  0.72521377  1.0
  C  C129  1  0.17411367  0.69754445  0.21465582  1.0
  C  C130  1  0.84565445  0.23373166  0.24872183  1.0
  C  C131  1  0.70820110  0.28531448  0.71048510  1.0
  C  C132  1  0.35304877  0.69356942  0.73407739  1.0
  C  C133  1  0.15567076  0.78932792  0.23089319  1.0
  C  C134  1  0.79226259  0.19649468  0.21166972  1.0
  C  C135  1  0.79408078  0.30084058  0.72805112  1.0
  C  C136  1  0.29764106  0.67124326  0.77618493  1.0
  C  C137  1  0.20151180  0.81049653  0.27729364  1.0
  C  C138  1  0.11856523  0.94288619  0.18032002  1.0
  C  C139  1  0.70561964  0.18390971  0.23020095  1.0
  C  C140  1  0.26694855  0.74335371  0.30459835  1.0
  C  C141  1  0.67303266  0.20985272  0.28226904  1.0
  C  C142  1  0.82903611  0.27515418  0.77981858  1.0
  C  C143  1  0.23781668  0.73907915  0.80579578  1.0
  C  C144  1  0.44576751  0.60113732  0.33616766  1.0
  C  C145  1  0.60476158  0.27396405  0.39758571  1.0
  C  C146  1  0.90399347  0.20975099  0.89403938  1.0
  C  C147  1  0.06947104  0.88952827  0.83783505  1.0
  C  C148  1  0.28928684  0.65243556  0.28650657  1.0
  C  C149  1  0.36254475  0.58566788  0.31482757  1.0
  C  C150  1  0.72503589  0.24995135  0.31863636  1.0
  C  C151  1  0.78019706  0.23242256  0.81704724  1.0
  C  C152  1  0.23008411  0.83198393  0.79411563  1.0
  C  C153  1  0.35204407  0.02802189  0.46766320  1.0
  C  C154  1  0.36370895  0.93400028  0.46480193  1.0
  C  C155  1  0.14239464  0.55281096  0.96472261  1.0
  C  C156  1  0.15264883  0.45901158  0.96863549  1.0
  C  C157  1  0.40017665  0.87685365  0.50894823  1.0
  C  C158  1  0.37632888  0.06978710  0.51467314  1.0
  C  C159  1  0.12765497  0.41824227  0.01623629  1.0
  C  C160  1  0.68279811  0.29012562  0.36958545  1.0
  C  C161  1  0.10656623  0.61057702  0.00834317  1.0
  C  C162  1  0.41879343  0.91921289  0.55713613  1.0
  C  C163  1  0.40724470  0.01319484  0.55992930  1.0
  C  C164  1  0.09778422  0.47533034  0.06103561  1.0
  C  C165  1  0.08749461  0.56904882  0.05712382  1.0
  C  C166  1  0.44720651  0.71246057  0.54611954  1.0
  C  C167  1  0.37923010  0.22592876  0.55814505  1.0
  C  C168  1  0.11789409  0.26474813  0.06162367  1.0
  C  C169  1  0.06051510  0.77445676  0.04444467  1.0
  C  C170  1  0.27241313  0.55983564  0.45354926  1.0
  C  C171  1  0.82431160  0.19356894  0.86802858  1.0
  C  C172  1  0.77516887  0.57998312  0.44903122  1.0
  C  C173  1  0.73189747  0.90586942  0.94514404  1.0
  C  C174  1  0.23390491  0.92488647  0.96414289  1.0
  C  C175  1  0.45396343  0.72555413  0.45677013  1.0
  C  C176  1  0.38301742  0.22068410  0.46877079  1.0
  C  C177  1  0.12334537  0.26615768  0.97222075  1.0
  C  C178  1  0.05278083  0.76207209  0.95527017  1.0
  C  C179  1  0.26347667  0.56795886  0.54328605  1.0
  C  C180  1  0.77240100  0.58016936  0.53852698  1.0
  C  C181  1  0.73657019  0.89916884  0.03467064  1.0
  C  C182  1  0.15772567  0.90039678  0.82144820  1.0
  C  C183  1  0.23606540  0.92536018  0.05410315  1.0
  C  C184  1  0.36267465  0.49790694  0.33390395  1.0
  C  C185  1  0.69796120  0.36846008  0.39500885  1.0
  C  C186  1  0.80852487  0.11739881  0.89619253  1.0
  C  C187  1  0.15955018  0.98646900  0.84182231  1.0
  C  C188  1  0.48947088  0.61994682  0.67002547  1.0
  C  C189  1  0.58689506  0.30084240  0.63306081  1.0
  C  C190  1  0.90575510  0.18834840  0.13074272  1.0
  C  C191  1  0.01730700  0.85862553  0.16713138  1.0
  C  C192  1  0.40506804  0.62353368  0.69758447  1.0
  C  C193  1  0.42717783  0.77754264  0.50402808  1.0
  C  C194  1  0.66859297  0.31604984  0.65703747  1.0
  C  C195  1  0.82946748  0.16678911  0.15775857  1.0
  C  C196  1  0.09771461  0.86082596  0.19711434  1.0
  C  C197  1  0.87355412  0.75496562  0.54280917  1.0
  C  C198  1  0.83164087  0.75210690  0.59389505  1.0
  C  C199  1  0.75782906  0.82314113  0.61102837  1.0
  C  C200  1  0.72448104  0.89864197  0.57733437  1.0
  C  C201  1  0.76670984  0.90329290  0.52684000  1.0
  C  C202  1  0.84076292  0.83228300  0.50987335  1.0
  C  C203  1  0.07589235  0.70676334  0.58065962  1.0
  N  N204  1  0.43657998  0.50527808  0.63905746  1.0
  N  N205  1  0.38623907  0.30830256  0.53958141  1.0
  N  N206  1  0.11140254  0.18209195  0.04408202  1.0
  N  N207  1  0.02246449  0.85785097  0.02349633  1.0
  N  N208  1  0.35232419  0.50762203  0.47435085  1.0
  N  N209  1  0.69187094  0.56632395  0.46527468  1.0
  N  N210  1  0.81506813  0.91960742  0.96138957  1.0
  N  N211  1  0.15279159  0.97957630  0.98163231  1.0
  N  N212  1  0.48872087  0.63733280  0.47038779  1.0
  N  N213  1  0.38886851  0.30459022  0.48377531  1.0
  N  N214  1  0.11468743  0.18329590  0.98825654  1.0
  N  N215  1  0.63207132  0.39981741  0.57976283  1.0
  N  N216  1  0.01799531  0.85006979  0.96865547  1.0
  N  N217  1  0.34627776  0.51238009  0.52955001  1.0
  N  N218  1  0.69069173  0.56565701  0.52098301  1.0
  N  N219  1  0.81703794  0.91639012  0.01719389  1.0
  N  N220  1  0.15442134  0.97925251  0.03688869  1.0
  N  N221  1  0.43823308  0.46501758  0.36566268  1.0
  N  N222  1  0.63167873  0.39854802  0.43321922  1.0
  N  N223  1  0.87600011  0.08831263  0.93410801  1.0
  N  N224  1  0.08036044  0.02221316  0.86987976  1.0
  N  N225  1  0.50794919  0.54943063  0.63519768  1.0
  N  N226  1  0.86670154  0.08203896  0.08160352  1.0
  N  N227  1  0.56503415  0.35192255  0.58749413  1.0
  N  N228  1  0.92856845  0.13645307  0.08578422  1.0
  N  N229  1  0.99306666  0.93261265  0.13465441  1.0
  N  N230  1  0.05642836  0.98506739  0.14265243  1.0
  N  N231  1  0.49057917  0.52944407  0.36645195  1.0
  N  N232  1  0.57418149  0.33971269  0.43500107  1.0
  N  N233  1  0.93475355  0.14594737  0.93283160  1.0
  N  N234  1  0.02365595  0.96177814  0.86688551  1.0
  N  N235  1  0.48460229  0.62920664  0.52529512  1.0
