# generated using pymatgen
data_ZnH11C20N(O2F)2
_symmetry_space_group_name_H-M   'P 1'
_cell_length_a   11.11996474
_cell_length_b   16.29279900
_cell_length_c   17.67432229
_cell_angle_alpha   95.61186794
_cell_angle_beta   90.29613199
_cell_angle_gamma   92.18865824
_symmetry_Int_Tables_number   1
_chemical_formula_structural   ZnH11C20N(O2F)2
_chemical_formula_sum   'Zn2 H22 C40 N2 O8 F4'
_cell_volume   3184.35175133
_cell_formula_units_Z   2
loop_
 _symmetry_equiv_pos_site_id
 _symmetry_equiv_pos_as_xyz
  1  'x, y, z'
loop_
 _atom_site_type_symbol
 _atom_site_label
 _atom_site_symmetry_multiplicity
 _atom_site_fract_x
 _atom_site_fract_y
 _atom_site_fract_z
 _atom_site_occupancy
  Zn  Zn0  1  0.49485875  0.41269805  0.49744439  1.0
  Zn  Zn1  1  0.50417169  0.58605984  0.50571074  1.0
  H  H2  1  0.37857149  0.71310647  0.42622842  1.0
  H  H3  1  0.38144731  0.86541409  0.42788594  1.0
  H  H4  1  0.66408991  0.87620040  0.59871821  1.0
  H  H5  1  0.64774402  0.72167886  0.58966461  1.0
  H  H6  1  0.33596357  0.12305060  0.40178113  1.0
  H  H7  1  0.62000189  0.13344735  0.57162552  1.0
  H  H8  1  0.62387178  0.28630338  0.57280238  1.0
  H  H9  1  0.35135413  0.27770598  0.41175841  1.0
  H  H10  1  0.60067955  0.00300444  0.56081550  1.0
  H  H11  1  0.39968805  0.99623400  0.43931459  1.0
  H  H12  1  0.50669460  0.61965965  0.26369121  1.0
  H  H13  1  0.50706516  0.61216354  0.12320935  1.0
  H  H14  1  0.49089321  0.34617157  0.11234567  1.0
  H  H15  1  0.49067316  0.35547981  0.25412101  1.0
  H  H16  1  0.50931000  0.65406724  0.89071753  1.0
  H  H17  1  0.49330364  0.38794676  0.87789560  1.0
  H  H18  1  0.49338372  0.38180725  0.73721189  1.0
  H  H19  1  0.50930636  0.64593968  0.74887853  1.0
  H  H20  1  0.49429815  0.40503509  0.99844547  1.0
  H  H21  1  0.50585479  0.59448231  0.00361736  1.0
  H  H22  1  0.78066642  0.60136545  0.40086175  1.0
  H  H23  1  0.22922382  0.59874799  0.40009943  1.0
  C  C24  1  0.49697711  0.49295295  0.35255002  1.0
  C  C25  1  0.26333593  0.49635032  0.50084634  1.0
  C  C26  1  0.50263910  0.50961788  0.64981493  1.0
  C  C27  1  0.73567756  0.49765497  0.50135236  1.0
  C  C28  1  0.43997509  0.75197386  0.46378289  1.0
  C  C29  1  0.44264831  0.83718707  0.46510298  1.0
  C  C30  1  0.52378354  0.88517997  0.51423618  1.0
  C  C31  1  0.59911618  0.84246611  0.55975194  1.0
  C  C32  1  0.59087268  0.75684949  0.55528746  1.0
  C  C33  1  0.53318906  0.97498584  0.51998993  1.0
  C  C34  1  0.46724812  0.02417916  0.48013847  1.0
  C  C35  1  0.40109675  0.15674568  0.44066119  1.0
  C  C36  1  0.47679839  0.11399930  0.48591587  1.0
  C  C37  1  0.55848411  0.16187875  0.53475988  1.0
  C  C38  1  0.56144796  0.24712368  0.53615358  1.0
  C  C39  1  0.40899113  0.24237556  0.44551526  1.0
  C  C40  1  0.49773057  0.48801602  0.26764177  1.0
  C  C41  1  0.50276750  0.56000894  0.22983440  1.0
  C  C42  1  0.50310010  0.55528013  0.15103687  1.0
  C  C43  1  0.49850024  0.47814614  0.10682568  1.0
  C  C44  1  0.49406518  0.40639122  0.14556328  1.0
  C  C45  1  0.49371837  0.41105566  0.22446834  1.0
  C  C46  1  0.49816307  0.46898766  0.02408707  1.0
  C  C47  1  0.50203713  0.53057380  0.97788465  1.0
  C  C48  1  0.50613091  0.59410324  0.85707628  1.0
  C  C49  1  0.50176247  0.52191397  0.89518106  1.0
  C  C50  1  0.49716505  0.44509641  0.85046667  1.0
  C  C51  1  0.49733101  0.44107542  0.77170200  1.0
  C  C52  1  0.50220274  0.51352151  0.73460920  1.0
  C  C53  1  0.50630159  0.59015233  0.77824586  1.0
  C  C54  1  0.87102412  0.49913160  0.49920126  1.0
  C  C55  1  0.93752151  0.54939360  0.45067685  1.0
  C  C56  1  0.93377267  0.45134588  0.54482938  1.0
  C  C57  1  0.87835653  0.59941910  0.40165695  1.0
  C  C58  1  0.94420459  0.64734269  0.35613969  1.0
  C  C59  1  0.12815630  0.49821661  0.49887698  1.0
  C  C60  1  0.06058363  0.45088569  0.54476585  1.0
  C  C61  1  0.06687628  0.54880398  0.45055099  1.0
  C  C62  1  0.13144671  0.59826962  0.40138355  1.0
  C  C63  1  0.07101171  0.64685823  0.35618268  1.0
  N  N64  1  0.51242439  0.71226567  0.50820312  1.0
  N  N65  1  0.48791651  0.28675479  0.49235776  1.0
  O  O66  1  0.49332704  0.42509418  0.38281936  1.0
  O  O67  1  0.50020056  0.56489420  0.38884867  1.0
  O  O68  1  0.31964525  0.56618620  0.50784866  1.0
  O  O69  1  0.30903097  0.42600166  0.49466494  1.0
  O  O70  1  0.50724439  0.57813877  0.62055427  1.0
  O  O71  1  0.49823657  0.43815812  0.61291372  1.0
  O  O72  1  0.68179561  0.42737792  0.49599788  1.0
  O  O73  1  0.68740171  0.56753343  0.50745674  1.0
  F  F74  1  0.11324439  0.40379654  0.59350729  1.0
  F  F75  1  0.87619876  0.40438567  0.59364800  1.0
  F  F76  1  0.88854822  0.69656312  0.31010045  1.0
  F  F77  1  0.13277947  0.69603717  0.31051308  1.0
