# generated using pymatgen
data_ZnH12C22N3O10
_symmetry_space_group_name_H-M   'P 1'
_cell_length_a   14.17804288
_cell_length_b   15.18894087
_cell_length_c   19.29519461
_cell_angle_alpha   87.64908457
_cell_angle_beta   89.11765412
_cell_angle_gamma   89.97016436
_symmetry_Int_Tables_number   1
_chemical_formula_structural   ZnH12C22N3O10
_chemical_formula_sum   'Zn2 H24 C44 N6 O20'
_cell_volume   4151.22004393
_cell_formula_units_Z   2
loop_
 _symmetry_equiv_pos_site_id
 _symmetry_equiv_pos_as_xyz
  1  'x, y, z'
loop_
 _atom_site_type_symbol
 _atom_site_label
 _atom_site_symmetry_multiplicity
 _atom_site_fract_x
 _atom_site_fract_y
 _atom_site_fract_z
 _atom_site_occupancy
  Zn  Zn0  1  0.60885189  0.50432847  0.50177291  1.0
  Zn  Zn1  1  0.39610593  0.50360572  0.50142185  1.0
  H  H2  1  0.63987103  0.54324999  0.85006851  1.0
  H  H3  1  0.41954088  0.59864104  0.14526723  1.0
  H  H4  1  0.59957937  0.36856693  0.16086884  1.0
  H  H5  1  0.35413667  0.44326406  0.85118885  1.0
  H  H6  1  0.62854050  0.21725527  0.56038220  1.0
  H  H7  1  0.36774737  0.77622264  0.54797939  1.0
  H  H8  1  0.63184631  0.78606566  0.43120635  1.0
  H  H9  1  0.37135195  0.23716954  0.44169802  1.0
  H  H10  1  0.06934779  0.36348281  0.53814803  1.0
  H  H11  1  0.93906668  0.56783899  0.40196366  1.0
  H  H12  1  0.06827492  0.63903488  0.46946209  1.0
  H  H13  1  0.93204961  0.43235666  0.60441940  1.0
  H  H14  1  0.64277016  0.61115188  0.66315274  1.0
  H  H15  1  0.41659776  0.63529922  0.33707387  1.0
  H  H16  1  0.60050528  0.35913463  0.35639744  1.0
  H  H17  1  0.34428934  0.40762072  0.66493505  1.0
  H  H18  1  0.62244004  0.98413958  0.55997087  1.0
  H  H19  1  0.36358077  0.00814664  0.55795389  1.0
  H  H20  1  0.62465007  0.01938780  0.41773025  1.0
  H  H21  1  0.36977496  0.00730517  0.41815755  1.0
  H  H22  1  0.31796243  0.35512561  0.53210984  1.0
  H  H23  1  0.69249782  0.55490294  0.38890004  1.0
  H  H24  1  0.31678754  0.64951240  0.46979818  1.0
  H  H25  1  0.68458344  0.44366151  0.61266685  1.0
  C  C26  1  0.50403594  0.33397894  0.50573527  1.0
  C  C27  1  0.50441706  0.67371257  0.49251736  1.0
  C  C28  1  0.50006904  0.23624831  0.50185336  1.0
  C  C29  1  0.50026991  0.77191980  0.48978815  1.0
  C  C30  1  0.49698192  0.05317642  0.49219398  1.0
  C  C31  1  0.49577759  0.95595875  0.48869078  1.0
  C  C32  1  0.10419727  0.42529754  0.52338455  1.0
  C  C33  1  0.90213208  0.53913603  0.44722574  1.0
  C  C34  1  0.10369031  0.57755497  0.48362959  1.0
  C  C35  1  0.89834225  0.46124523  0.55863150  1.0
  C  C36  1  0.20260023  0.42743942  0.52114708  1.0
  C  C37  1  0.80379944  0.53672047  0.44744270  1.0
  C  C38  1  0.20208767  0.57630132  0.48411159  1.0
  C  C39  1  0.80000059  0.46345141  0.55662781  1.0
  C  C40  1  0.05419041  0.50112459  0.50376502  1.0
  C  C41  1  0.94991692  0.50053124  0.50344560  1.0
  C  C42  1  0.49813216  0.50742962  0.63624223  1.0
  C  C43  1  0.50593293  0.49775640  0.36663721  1.0
  C  C44  1  0.57611243  0.53331472  0.75062108  1.0
  C  C45  1  0.46035338  0.55673423  0.24792024  1.0
  C  C46  1  0.55961395  0.42567733  0.25700368  1.0
  C  C47  1  0.41697170  0.47217680  0.75085616  1.0
  C  C48  1  0.57714319  0.52269829  0.82293871  1.0
  C  C49  1  0.45940361  0.54995775  0.17591145  1.0
  C  C50  1  0.56054146  0.42169963  0.18463303  1.0
  C  C51  1  0.41706482  0.46735177  0.82332785  1.0
  C  C52  1  0.49796193  0.48971169  0.85944548  1.0
  C  C53  1  0.50926688  0.48271680  0.14406191  1.0
  C  C54  1  0.49712246  0.50469116  0.71394508  1.0
  C  C55  1  0.50938933  0.49353190  0.28886191  1.0
  C  C56  1  0.50472503  0.47559058  0.06840404  1.0
  C  C57  1  0.49902620  0.47900114  0.93553493  1.0
  C  C58  1  0.56802051  0.09464789  0.53016152  1.0
  C  C59  1  0.42401452  0.90546940  0.52316205  1.0
  C  C60  1  0.56890007  0.91127897  0.45365064  1.0
  C  C61  1  0.42736228  0.10643375  0.45949542  1.0
  C  C62  1  0.57172717  0.18619489  0.53296664  1.0
  C  C63  1  0.42430177  0.81364701  0.52182517  1.0
  C  C64  1  0.57326675  0.81936890  0.45619582  1.0
  C  C65  1  0.42666377  0.19769309  0.46620140  1.0
  C  C66  1  0.65637654  0.58240806  0.71602106  1.0
  C  C67  1  0.41129945  0.63217111  0.27965702  1.0
  C  C68  1  0.60735412  0.35494444  0.29903570  1.0
  C  C69  1  0.33205144  0.43687662  0.71615591  1.0
  N  N70  1  0.41756256  0.49405880  0.97035466  1.0
  N  N71  1  0.58176735  0.44691008  0.03404518  1.0
  N  N72  1  0.42038770  0.49277956  0.03863759  1.0
  N  N73  1  0.57920079  0.44905629  0.96555895  1.0
  N  N74  1  0.25190755  0.50207950  0.50214005  1.0
  N  N75  1  0.75270226  0.50068123  0.50185635  1.0
  O  O76  1  0.58183742  0.37180592  0.49218825  1.0
  O  O77  1  0.42820100  0.63242106  0.47834923  1.0
  O  O78  1  0.58151407  0.63684339  0.50822607  1.0
  O  O79  1  0.42761057  0.37419026  0.52261491  1.0
  O  O80  1  0.57543412  0.48502460  0.60617169  1.0
  O  O81  1  0.42918011  0.47740230  0.39704700  1.0
  O  O82  1  0.58136286  0.52183399  0.39620403  1.0
  O  O83  1  0.42345403  0.52988221  0.60526914  1.0
  O  O84  1  0.73153799  0.59450685  0.74432238  1.0
  O  O85  1  0.36831751  0.68874774  0.24608124  1.0
  O  O86  1  0.65080684  0.29422143  0.27364108  1.0
  O  O87  1  0.25363312  0.43667060  0.74331755  1.0
  O  O88  1  0.63492147  0.04696072  0.56488375  1.0
  O  O89  1  0.35309742  0.94438944  0.55917422  1.0
  O  O90  1  0.63797111  0.95615133  0.41736040  1.0
  O  O91  1  0.35866272  0.07071121  0.42077649  1.0
  O  O92  1  0.24749662  0.35261408  0.53841232  1.0
  O  O93  1  0.76030989  0.57157480  0.39166994  1.0
  O  O94  1  0.24635830  0.65152837  0.46592853  1.0
  O  O95  1  0.75244563  0.42690533  0.61091884  1.0
