# generated using pymatgen
data_Zn3H22(C19O8)2
_symmetry_space_group_name_H-M   'P 1'
_cell_length_a   18.32109844
_cell_length_b   18.55208262
_cell_length_c   18.77620177
_cell_angle_alpha   109.33959267
_cell_angle_beta   109.39972711
_cell_angle_gamma   108.54188271
_symmetry_Int_Tables_number   1
_chemical_formula_structural   Zn3H22(C19O8)2
_chemical_formula_sum   'Zn6 H44 C76 O32'
_cell_volume   4980.02745422
_cell_formula_units_Z   2
loop_
 _symmetry_equiv_pos_site_id
 _symmetry_equiv_pos_as_xyz
  1  'x, y, z'
loop_
 _atom_site_type_symbol
 _atom_site_label
 _atom_site_symmetry_multiplicity
 _atom_site_fract_x
 _atom_site_fract_y
 _atom_site_fract_z
 _atom_site_occupancy
  Zn  Zn0  1  0.56618738  0.06422892  0.99893639  1.0
  Zn  Zn1  1  0.44747893  0.94052313  0.00737543  1.0
  Zn  Zn2  1  0.54974607  0.49132074  0.56302154  1.0
  Zn  Zn3  1  0.43241745  0.49154315  0.43068995  1.0
  Zn  Zn4  1  0.00104668  0.93724852  0.44790088  1.0
  Zn  Zn5  1  0.98902120  0.06212911  0.55978920  1.0
  H  H6  1  0.43967539  0.70492419  0.85436862  1.0
  H  H7  1  0.67699014  0.71210315  0.65543928  1.0
  H  H8  1  0.08592942  0.14429670  0.18057149  1.0
  H  H9  1  0.78269298  0.83803716  0.79791959  1.0
  H  H10  1  0.01661828  0.06232651  0.34840720  1.0
  H  H11  1  0.90545596  0.97107919  0.68637659  1.0
  H  H12  1  0.23766888  0.29726368  0.63648991  1.0
  H  H13  1  0.74078798  0.76585501  0.38113667  1.0
  H  H14  1  0.47168657  0.92659702  0.77029209  1.0
  H  H15  1  0.67901696  0.19996673  0.22791416  1.0
  H  H16  1  0.50991136  0.95403575  0.66451564  1.0
  H  H17  1  0.37804267  0.10267948  0.16972616  1.0
  H  H18  1  0.82136432  0.33198806  0.33934621  1.0
  H  H19  1  0.54757719  0.85365776  0.57505601  1.0
  H  H20  1  0.82732495  0.45029859  0.45825863  1.0
  H  H21  1  0.53578584  0.72256173  0.58463028  1.0
  H  H22  1  0.69220621  0.43503556  0.46594951  1.0
  H  H23  1  0.39977173  0.02939384  0.75500835  1.0
  H  H24  1  0.78584400  0.13529453  0.25086526  1.0
  H  H25  1  0.14951132  0.99996852  0.95214006  1.0
  H  H26  1  0.62517741  0.71744989  0.95601414  1.0
  H  H27  1  0.22012323  0.96888821  0.56060856  1.0
  H  H28  1  0.01476105  0.92576409  0.80608254  1.0
  H  H29  1  0.89562819  0.18419740  0.37770954  1.0
  H  H30  1  0.99665979  0.99555346  0.09082893  1.0
  H  H31  1  0.93217373  0.05125543  0.09300894  1.0
  H  H32  1  0.88395336  0.93845572  0.06490317  1.0
  H  H33  1  0.93035881  0.93236957  0.90977016  1.0
  H  H34  1  0.85885054  0.98015957  0.90956973  1.0
  H  H35  1  0.97545720  0.04843818  0.95841112  1.0
  H  H36  1  0.43683954  0.57721148  0.79385794  1.0
  H  H37  1  0.37556490  0.27962586  0.31003224  1.0
  H  H38  1  0.31466487  0.19215970  0.01179131  1.0
  H  H39  1  0.69795868  0.68931878  0.07563774  1.0
  H  H40  1  0.39307410  0.17592235  0.98015439  1.0
  H  H41  1  0.40785359  0.19220741  0.08454887  1.0
  H  H42  1  0.74996563  0.94821328  0.98599702  1.0
  H  H43  1  0.64776812  0.90343554  0.88999501  1.0
  H  H44  1  0.69506529  0.83479044  0.90574976  1.0
  H  H45  1  0.03170152  0.92815027  0.68225290  1.0
  H  H46  1  0.79543005  0.80946701  0.22518400  1.0
  H  H47  1  0.34691578  0.39695432  0.61489963  1.0
  H  H48  1  0.61388244  0.64403488  0.36305236  1.0
  H  H49  1  0.21666199  0.27605403  0.30571697  1.0
  C  C50  1  0.40607558  0.03268320  0.89789243  1.0
  C  C51  1  0.67351485  0.85134872  0.04327238  1.0
  C  C52  1  0.15547030  0.99283031  0.89460095  1.0
  C  C53  1  0.66419925  0.76924338  0.02333567  1.0
  C  C54  1  0.08048784  0.95335399  0.81323589  1.0
  C  C55  1  0.70654871  0.75453789  0.09073389  1.0
  C  C56  1  0.08982160  0.95402716  0.74355440  1.0
  C  C57  1  0.76051283  0.82164722  0.17505738  1.0
  C  C58  1  0.17452811  0.98590059  0.75024113  1.0
  C  C59  1  0.77284278  0.90735107  0.19737046  1.0
  C  C60  1  0.25029716  0.01452835  0.82941457  1.0
  C  C61  1  0.65492306  0.01226400  0.09338943  1.0
  C  C62  1  0.72358004  0.92063824  0.13020612  1.0
  C  C63  1  0.33158951  0.02849905  0.82858931  1.0
  C  C64  1  0.72609591  0.00302980  0.15196964  1.0
  C  C65  1  0.46633084  0.85938675  0.87604904  1.0
  C  C66  1  0.50599439  0.09571620  0.13864251  1.0
  C  C67  1  0.33844243  0.02110814  0.75569324  1.0
  C  C68  1  0.78411822  0.07220892  0.23427503  1.0
  C  C69  1  0.26539803  0.99915308  0.67939538  1.0
  C  C70  1  0.83788598  0.06177623  0.29995518  1.0
  C  C71  1  0.18515183  0.98492289  0.67765275  1.0
  C  C72  1  0.45399608  0.71567837  0.80563072  1.0
  C  C73  1  0.83047537  0.97976350  0.28365314  1.0
  C  C74  1  0.34380434  0.38237569  0.47080812  1.0
  C  C75  1  0.59137967  0.61524760  0.48451488  1.0
  C  C76  1  0.50306120  0.60588801  0.63110135  1.0
  C  C77  1  0.52297833  0.37191599  0.41461653  1.0
  C  C78  1  0.87251794  0.90620556  0.52258101  1.0
  C  C79  1  0.10026330  0.14145133  0.51807825  1.0
  C  C80  1  0.11507517  0.97915408  0.60446622  1.0
  C  C81  1  0.88568690  0.97135530  0.35581477  1.0
  C  C82  1  0.17352294  0.22969262  0.31602796  1.0
  C  C83  1  0.44186633  0.15914265  0.21991273  1.0
  C  C84  1  0.72577186  0.76838756  0.66065309  1.0
  C  C85  1  0.09929786  0.15561844  0.24540927  1.0
  C  C86  1  0.78621983  0.83947888  0.74160824  1.0
  C  C87  1  0.04219250  0.09542078  0.25822871  1.0
  C  C88  1  0.85115195  0.91316528  0.75024335  1.0
  C  C89  1  0.48628187  0.88201368  0.73042876  1.0
  C  C90  1  0.68180454  0.25058756  0.28052632  1.0
  C  C91  1  0.06065286  0.11101595  0.34124209  1.0
  C  C92  1  0.85502858  0.91355177  0.67792925  1.0
  C  C93  1  0.13531634  0.18687679  0.41455423  1.0
  C  C94  1  0.46771958  0.65529917  0.75008940  1.0
  C  C95  1  0.79389262  0.84137452  0.59435263  1.0
  C  C96  1  0.19411415  0.24830418  0.40205045  1.0
  C  C97  1  0.72631564  0.76648898  0.58466217  1.0
  C  C98  1  0.27199074  0.32269103  0.47665500  1.0
  C  C99  1  0.66173115  0.69553084  0.49931064  1.0
  C  C100  1  0.28677726  0.33975135  0.55932684  1.0
  C  C101  1  0.66480134  0.69796325  0.42736217  1.0
  C  C102  1  0.22602156  0.28323499  0.57139849  1.0
  C  C103  1  0.73523686  0.76711686  0.43749809  1.0
  C  C104  1  0.15394275  0.20640339  0.50133387  1.0
  C  C105  1  0.44428290  0.22916230  0.28267588  1.0
  C  C106  1  0.79855543  0.83768871  0.51857106  1.0
  C  C107  1  0.50819863  0.89755278  0.67151550  1.0
  C  C108  1  0.76126386  0.32454261  0.34274273  1.0
  C  C109  1  0.52841689  0.84050033  0.62042707  1.0
  C  C110  1  0.76462440  0.39143511  0.40969546  1.0
  C  C111  1  0.52273906  0.76711673  0.62649597  1.0
  C  C112  1  0.68880533  0.38323236  0.41379967  1.0
  C  C113  1  0.49857224  0.74789233  0.68523047  1.0
  C  C114  1  0.60569701  0.30823938  0.35049401  1.0
  C  C115  1  0.48285880  0.80862910  0.74067882  1.0
  C  C116  1  0.49168482  0.67147697  0.69183166  1.0
  C  C117  1  0.60211000  0.24036873  0.28171178  1.0
  C  C118  1  0.46357367  0.79158485  0.80327025  1.0
  C  C119  1  0.51783619  0.16530076  0.21728979  1.0
  C  C120  1  0.94471887  0.00123200  0.10573569  1.0
  C  C121  1  0.91877132  0.98587041  0.90517465  1.0
  C  C122  1  0.35896441  0.16325306  0.01661345  1.0
  C  C123  1  0.68541711  0.88981465  0.93794012  1.0
  C  C124  1  0.52532088  0.30158466  0.34974519  1.0
  C  C125  1  0.23904373  0.02619764  0.90367484  1.0
  O  O126  1  0.48578592  0.08592939  0.92109045  1.0
  O  O127  1  0.67617511  0.06814996  0.06750753  1.0
  O  O128  1  0.51717008  0.93829068  0.90160200  1.0
  O  O129  1  0.45102449  0.01622792  0.11067281  1.0
  O  O130  1  0.42095469  0.83454542  0.91127158  1.0
  O  O131  1  0.54859540  0.12060467  0.10243514  1.0
  O  O132  1  0.42210593  0.40550727  0.52427191  1.0
  O  O133  1  0.51224387  0.58276150  0.42269195  1.0
  O  O134  1  0.32376057  0.40714979  0.41358687  1.0
  O  O135  1  0.61287665  0.58243471  0.53228709  1.0
  O  O136  1  0.55860987  0.58128047  0.66225775  1.0
  O  O137  1  0.57851933  0.96858366  0.08057070  1.0
  O  O138  1  0.46332392  0.39216412  0.38387561  1.0
  O  O139  1  0.45664996  0.57866868  0.55109812  1.0
  O  O140  1  0.57581572  0.40668507  0.49577269  1.0
  O  O141  1  0.90512982  0.87922228  0.47605840  1.0
  O  O142  1  0.07297006  0.16714465  0.57204177  1.0
  O  O143  1  0.27840277  0.99410918  0.61124579  1.0
  O  O144  1  0.89709003  0.13278739  0.37958311  1.0
  O  O145  1  0.96737309  0.02003042  0.19249287  1.0
  O  O146  1  0.91303595  0.98692341  0.82790713  1.0
  O  O147  1  0.45717839  0.57971290  0.75253226  1.0
  O  O148  1  0.89781711  0.98686054  0.57156587  1.0
  O  O149  1  0.36481729  0.22102639  0.27306418  1.0
  O  O150  1  0.31000373  0.07152541  0.98631593  1.0
  O  O151  1  0.63413717  0.86839525  0.97860059  1.0
  O  O152  1  0.08556086  0.06380650  0.47887509  1.0
  O  O153  1  0.09952396  0.93249539  0.52629323  1.0
  O  O154  1  0.89927173  0.01648589  0.43098086  1.0
  O  O155  1  0.07631236  0.02273784  0.62092578  1.0
  O  O156  1  0.91932371  0.92022762  0.33870011  1.0
  O  O157  1  0.38556622  0.97898966  0.92450162  1.0
