# generated using pymatgen
data_Zn2H19C18Br(NO4)2
_symmetry_space_group_name_H-M   'P 1'
_cell_length_a   9.78869366
_cell_length_b   10.86586282
_cell_length_c   11.17438433
_cell_angle_alpha   89.63461231
_cell_angle_beta   87.71252863
_cell_angle_gamma   88.07223489
_symmetry_Int_Tables_number   1
_chemical_formula_structural   Zn2H19C18Br(NO4)2
_chemical_formula_sum   'Zn2 H19 C18 Br1 N2 O8'
_cell_volume   1186.90228830
_cell_formula_units_Z   1
loop_
 _symmetry_equiv_pos_site_id
 _symmetry_equiv_pos_as_xyz
  1  'x, y, z'
loop_
 _atom_site_type_symbol
 _atom_site_label
 _atom_site_symmetry_multiplicity
 _atom_site_fract_x
 _atom_site_fract_y
 _atom_site_fract_z
 _atom_site_occupancy
  Zn  Zn0  1  0.35536795  0.50223137  0.51153473  1.0
  Zn  Zn1  1  0.63750902  0.49251530  0.48993587  1.0
  H  H2  1  0.29910473  0.12262696  0.44961584  1.0
  H  H3  1  0.67760004  0.86961395  0.61060135  1.0
  H  H4  1  0.67711017  0.11803076  0.37593278  1.0
  H  H5  1  0.69886914  0.90241935  0.38662097  1.0
  H  H6  1  0.67517075  0.43843789  0.11161643  1.0
  H  H7  1  0.36227049  0.47234453  0.09776926  1.0
  H  H8  1  0.42185284  0.57375443  0.91370408  1.0
  H  H9  1  0.12959106  0.61279716  0.36626027  1.0
  H  H10  1  0.08901460  0.48133226  0.59368507  1.0
  H  H11  1  0.86978495  0.66255389  0.41796152  1.0
  H  H12  1  0.31510715  0.09337507  0.60349240  1.0
  H  H13  1  0.90082266  0.40693637  0.49944918  1.0
  H  H14  1  0.30006928  0.88369462  0.55888775  1.0
  H  H15  1  0.31803000  0.91220909  0.40394042  1.0
  H  H16  1  0.51499719  0.11154840  0.31272970  1.0
  H  H17  1  0.55359198  0.89859069  0.29815753  1.0
  H  H18  1  0.69612006  0.08450111  0.59838142  1.0
  H  H19  1  0.54988644  0.09517331  0.69566129  1.0
  H  H20  1  0.51423438  0.88389848  0.68326212  1.0
  C  C21  1  0.49221202  0.51396189  0.73470491  1.0
  C  C22  1  0.50956505  0.87779071  0.48939261  1.0
  C  C23  1  0.59122469  0.93367107  0.38246325  1.0
  C  C24  1  0.57664634  0.91638428  0.60600661  1.0
  C  C25  1  0.57835439  0.45066434  0.06687080  1.0
  C  C26  1  0.46325538  0.46711506  0.13584178  1.0
  C  C27  1  0.58319069  0.44766822  0.93668734  1.0
  C  C28  1  0.49904427  0.51453521  0.86726140  1.0
  C  C29  1  0.07393424  0.56999986  0.44193747  1.0
  C  C30  1  0.92257225  0.57681691  0.44535681  1.0
  C  C31  1  0.51177871  0.25799116  0.51363852  1.0
  C  C32  1  0.46690788  0.47813272  0.26816405  1.0
  C  C33  1  0.51384469  0.73733763  0.48299232  1.0
  C  C34  1  0.36110410  0.07173124  0.51437426  1.0
  C  C35  1  0.36226535  0.93168445  0.49058939  1.0
  C  C36  1  0.57690700  0.07594915  0.38623799  1.0
  C  C37  1  0.58893045  0.05814650  0.60902243  1.0
  C  C38  1  0.50783404  0.11794241  0.50683992  1.0
  Br  Br39  1  0.72176351  0.33580506  0.87146040  1.0
  N  N40  1  0.14457898  0.51679362  0.52225137  1.0
  N  N41  1  0.84828679  0.48694222  0.47754813  1.0
  O  O42  1  0.37163867  0.51551921  0.69544676  1.0
  O  O43  1  0.60350690  0.51416524  0.67226935  1.0
  O  O44  1  0.39777577  0.31841472  0.51877374  1.0
  O  O45  1  0.62910113  0.30542491  0.51136380  1.0
  O  O46  1  0.35119339  0.49149316  0.32454246  1.0
  O  O47  1  0.58360590  0.47383361  0.31514207  1.0
  O  O48  1  0.40034332  0.68355749  0.49329249  1.0
  O  O49  1  0.63089827  0.68259829  0.47051122  1.0
