# generated using pymatgen
data_ZnH12(C3N)4
_symmetry_space_group_name_H-M   'P 1'
_cell_length_a   14.99010946
_cell_length_b   14.99452445
_cell_length_c   15.00509204
_cell_angle_alpha   102.81490763
_cell_angle_beta   112.96851917
_cell_angle_gamma   112.79326972
_symmetry_Int_Tables_number   1
_chemical_formula_structural   ZnH12(C3N)4
_chemical_formula_sum   'Zn4 H48 C48 N16'
_cell_volume   2571.61913298
_cell_formula_units_Z   4
loop_
 _symmetry_equiv_pos_site_id
 _symmetry_equiv_pos_as_xyz
  1  'x, y, z'
loop_
 _atom_site_type_symbol
 _atom_site_label
 _atom_site_symmetry_multiplicity
 _atom_site_fract_x
 _atom_site_fract_y
 _atom_site_fract_z
 _atom_site_occupancy
  Zn  Zn0  1  0.15251575  0.66026210  0.01967746  1.0
  Zn  Zn1  1  0.88203885  0.38032202  0.02301236  1.0
  Zn  Zn2  1  0.87272815  0.52053714  0.88573605  1.0
  Zn  Zn3  1  0.15740167  0.52633558  0.16560784  1.0
  H  H4  1  0.20228690  0.86483326  0.20415595  1.0
  H  H5  1  0.58390646  0.15342373  0.57201457  1.0
  H  H6  1  0.82487071  0.50702742  0.17867198  1.0
  H  H7  1  0.59336880  0.09196712  0.65970520  1.0
  H  H8  1  0.59010714  0.85299997  0.52496604  1.0
  H  H9  1  0.71672522  0.00585745  0.68316163  1.0
  H  H10  1  0.64654503  0.99884462  0.35481876  1.0
  H  H11  1  0.56084960  0.05045534  0.36232033  1.0
  H  H12  1  0.72789062  0.20172940  0.51152068  1.0
  H  H13  1  0.80429804  0.13589306  0.52479528  1.0
  H  H14  1  0.81578208  0.04126151  0.64201909  1.0
  H  H15  1  0.83361262  0.16850714  0.84977641  1.0
  H  H16  1  0.16261681  0.73286318  0.67545887  1.0
  H  H17  1  0.61156309  0.48309499  0.81846749  1.0
  H  H18  1  0.17143315  0.73871496  0.52649136  1.0
  H  H19  1  0.91044651  0.62418704  0.39190115  1.0
  H  H20  1  0.44505569  0.41936712  0.86047554  1.0
  H  H21  1  0.29380082  0.29809600  0.98631281  1.0
  H  H22  1  0.28404524  0.40120869  0.82967769  1.0
  H  H23  1  0.85515399  0.02452524  0.12365003  1.0
  H  H24  1  0.11370166  0.13663148  0.21901125  1.0
  H  H25  1  0.84853387  0.85922434  0.09643300  1.0
  H  H26  1  0.82288740  0.57962300  0.67257131  1.0
  H  H27  1  0.40965930  0.70635536  0.38482008  1.0
  H  H28  1  0.11076152  0.98913206  0.22584585  1.0
  H  H29  1  0.62500669  0.28438042  0.98729604  1.0
  H  H30  1  0.41237809  0.88399230  0.19396822  1.0
  H  H31  1  0.19472261  0.69816088  0.37411907  1.0
  H  H32  1  0.83227504  0.68411456  0.02049502  1.0
  H  H33  1  0.18439731  0.52288875  0.84438102  1.0
  H  H34  1  0.26085804  0.74120040  0.83537539  1.0
  H  H35  1  0.24642896  0.85476484  0.85416821  1.0
  H  H36  1  0.27504596  0.81059442  0.95730974  1.0
  H  H37  1  0.21016943  0.35282185  0.25803557  1.0
  H  H38  1  0.75052100  0.85406276  0.51541378  1.0
  H  H39  1  0.63412448  0.80397848  0.38319625  1.0
  H  H40  1  0.75401055  0.93718807  0.44782215  1.0
  H  H41  1  0.85263827  0.71528290  0.59624762  1.0
  H  H42  1  0.90089638  0.73327000  0.50655822  1.0
  H  H43  1  0.82356908  0.60235089  0.49463279  1.0
  H  H44  1  0.36355588  0.19001151  0.98500903  1.0
  H  H45  1  0.43832638  0.18133565  0.91944987  1.0
  H  H46  1  0.51187402  0.28457350  0.05135950  1.0
  H  H47  1  0.84111521  0.16406564  0.06856181  1.0
  H  H48  1  0.18229444  0.34775246  0.03889710  1.0
  H  H49  1  0.81851907  0.35585443  0.66820652  1.0
  H  H50  1  0.46576517  0.91842843  0.51608671  1.0
  H  H51  1  0.43348053  0.98177192  0.43287805  1.0
  C  C52  1  0.11143679  0.80568591  0.15076119  1.0
  C  C53  1  0.10272134  0.71298362  0.82327468  1.0
  C  C54  1  0.17675040  0.39929763  0.99896807  1.0
  C  C55  1  0.91615954  0.54545819  0.21230897  1.0
  C  C56  1  0.83000082  0.32425519  0.72764074  1.0
  C  C57  1  0.20448378  0.41265418  0.92121867  1.0
  C  C58  1  0.79958996  0.21905724  0.71473250  1.0
  C  C59  1  0.00684270  0.68375418  0.72467793  1.0
  C  C60  1  0.02636992  0.21896405  0.17377497  1.0
  C  C61  1  0.50391578  0.97852560  0.49045371  1.0
  C  C62  1  0.59610246  0.08920504  0.58701819  1.0
  C  C63  1  0.00726645  0.62394452  0.31751787  1.0
  C  C64  1  0.64049571  0.91685171  0.50949806  1.0
  C  C65  1  0.61993643  0.02834933  0.40759214  1.0
  C  C66  1  0.55511355  0.93777089  0.43130464  1.0
  C  C67  1  0.63202802  0.43751881  0.86153178  1.0
  C  C68  1  0.71666421  0.11669169  0.61114658  1.0
  C  C69  1  0.72842446  0.02048645  0.61866683  1.0
  C  C70  1  0.72409333  0.12767696  0.51403485  1.0
  C  C71  1  0.08467856  0.71967371  0.61114869  1.0
  C  C72  1  0.99887015  0.70112380  0.63057519  1.0
  C  C73  1  0.08653639  0.71102006  0.51418413  1.0
  C  C74  1  0.56928083  0.37469830  0.89749300  1.0
  C  C75  1  0.99763949  0.65736123  0.40979509  1.0
  C  C76  1  0.40433724  0.31007779  0.92598530  1.0
  C  C77  1  0.46779551  0.36674072  0.89102607  1.0
  C  C78  1  0.31609896  0.32503310  0.93175840  1.0
  C  C79  1  0.39387801  0.73530889  0.32339121  1.0
  C  C80  1  0.26716568  0.37598234  0.88735794  1.0
  C  C81  1  0.93792754  0.03124992  0.15465847  1.0
  C  C82  1  0.02993396  0.12775493  0.18729530  1.0
  C  C83  1  0.93429895  0.93141572  0.14388612  1.0
  C  C84  1  0.02436517  0.91771469  0.17527807  1.0
  C  C85  1  0.45716095  0.83714640  0.33069732  1.0
  C  C86  1  0.63729598  0.33550103  0.94684872  1.0
  C  C87  1  0.39522631  0.82554076  0.22629015  1.0
  C  C88  1  0.10484503  0.64288455  0.31265116  1.0
  C  C89  1  0.92266655  0.71388188  0.05721034  1.0
  C  C90  1  0.01828993  0.81731967  0.13555940  1.0
  C  C91  1  0.22746561  0.78329937  0.86957423  1.0
  C  C92  1  0.69776349  0.87571129  0.46103475  1.0
  C  C93  1  0.88843510  0.68746540  0.55295147  1.0
  C  C94  1  0.43067400  0.23763259  0.97265583  1.0
  C  C95  1  0.17710360  0.48856565  0.89966658  1.0
  C  C96  1  0.83777103  0.22900228  0.82016014  1.0
  C  C97  1  0.91354080  0.62007542  0.73107194  1.0
  C  C98  1  0.11946270  0.32109952  0.20853295  1.0
  C  C99  1  0.93143142  0.22491079  0.11281151  1.0
  N  N100  1  0.07360651  0.70501449  0.08493987  1.0
  N  N101  1  0.72766954  0.43575365  0.88720723  1.0
  N  N102  1  0.30177253  0.66867019  0.22280190  1.0
  N  N103  1  0.73090701  0.37248207  0.94064690  1.0
  N  N104  1  0.30233119  0.72478083  0.16204686  1.0
  N  N105  1  0.07281209  0.57876433  0.21387132  1.0
  N  N106  1  0.95760004  0.64881798  0.02768480  1.0
  N  N107  1  0.14005097  0.51956304  0.96219031  1.0
  N  N108  1  0.88506698  0.33191271  0.88935267  1.0
  N  N109  1  0.94957839  0.61022994  0.82359102  1.0
  N  N110  1  0.08291416  0.38194983  0.17163975  1.0
  N  N111  1  0.96566723  0.32155750  0.11165357  1.0
  N  N112  1  0.06668447  0.66839831  0.88068891  1.0
  N  N113  1  0.13967597  0.46431337  0.02283507  1.0
  N  N114  1  0.88028562  0.39055094  0.83243206  1.0
  N  N115  1  0.95697872  0.51868997  0.15203754  1.0
