# generated using pymatgen
data_Al3H24C37Cl3O14
_symmetry_space_group_name_H-M   'P 1'
_cell_length_a   12.30820696
_cell_length_b   12.43057698
_cell_length_c   26.82479016
_cell_angle_alpha   82.86194762
_cell_angle_beta   82.01352251
_cell_angle_gamma   67.34810218
_symmetry_Int_Tables_number   1
_chemical_formula_structural   Al3H24C37Cl3O14
_chemical_formula_sum   'Al6 H48 C74 Cl6 O28'
_cell_volume   3739.56358175
_cell_formula_units_Z   2
loop_
 _symmetry_equiv_pos_site_id
 _symmetry_equiv_pos_as_xyz
  1  'x, y, z'
loop_
 _atom_site_type_symbol
 _atom_site_label
 _atom_site_symmetry_multiplicity
 _atom_site_fract_x
 _atom_site_fract_y
 _atom_site_fract_z
 _atom_site_occupancy
  Al  Al0  1  0.60076251  0.59685717  0.48626655  1.0
  Al  Al1  1  0.56215062  0.35358453  0.50439133  1.0
  Al  Al2  1  0.34637379  0.57713952  0.50396044  1.0
  Al  Al3  1  0.07107950  0.05374070  0.01921076  1.0
  Al  Al4  1  0.31486395  0.09533808  0.00522516  1.0
  Al  Al5  1  0.08730642  0.30714264  0.00615576  1.0
  H  H6  1  0.35536822  0.66642814  0.74028293  1.0
  H  H7  1  0.20730176  0.52328257  0.29259750  1.0
  H  H8  1  0.35421701  0.51143803  0.27235211  1.0
  H  H9  1  0.31514480  0.50510746  0.19033074  1.0
  H  H10  1  0.17819144  0.49191570  0.21188497  1.0
  H  H11  1  0.28372851  0.19905530  0.32024312  1.0
  H  H12  1  0.16455266  0.33542362  0.31474832  1.0
  H  H13  1  0.49323894  0.18547516  0.29427050  1.0
  H  H14  1  0.49106218  0.17780695  0.20849165  1.0
  H  H15  1  0.15897545  0.30866694  0.23178290  1.0
  H  H16  1  0.17009613  0.97695381  0.71104296  1.0
  H  H17  1  0.67680352  0.47449195  0.81616309  1.0
  H  H18  1  0.36713796  0.01096379  0.75372564  1.0
  H  H19  1  0.52573805  0.72011310  0.70473186  1.0
  H  H20  1  0.49999349  0.87045823  0.69708794  1.0
  H  H21  1  0.08689496  0.94621031  0.77566342  1.0
  H  H22  1  0.06684632  0.82066963  0.80617817  1.0
  H  H23  1  0.10607106  0.90941817  0.84079932  1.0
  H  H24  1  0.24878588  0.72022117  0.87069316  1.0
  H  H25  1  0.21015372  0.64866831  0.82704260  1.0
  H  H26  1  0.36025477  0.62380427  0.83013982  1.0
  H  H27  1  0.51239146  0.96331658  0.77317083  1.0
  H  H28  1  0.63856683  0.50167821  0.73280474  1.0
  H  H29  1  0.54944049  0.86600970  0.82794692  1.0
  H  H30  1  0.63411101  0.82892310  0.76881939  1.0
  H  H31  1  0.11024921  0.82490553  0.70890442  1.0
  H  H32  1  0.21231666  0.69725429  0.68147898  1.0
  H  H33  1  0.14351996  0.68693910  0.74364749  1.0
  H  H34  1  0.91529697  0.03149854  0.71478744  1.0
  H  H35  1  0.87354173  0.12963855  0.66044341  1.0
  H  H36  1  0.99619580  0.12201776  0.69052313  1.0
  H  H37  1  0.22690815  0.09868355  0.25797822  1.0
  H  H38  1  0.28739818  0.11899457  0.19503913  1.0
  H  H39  1  0.86742670  0.46941748  0.79046764  1.0
  H  H40  1  0.37702511  0.08210206  0.24598644  1.0
  H  H41  1  0.11881693  0.07638963  0.80722545  1.0
  H  H42  1  0.23323293  0.12215700  0.81568698  1.0
  H  H43  1  0.16545440  0.16588374  0.75843457  1.0
  H  H44  1  0.62270381  0.65167807  0.78662751  1.0
  H  H45  1  0.51675398  0.67640334  0.84058912  1.0
  H  H46  1  0.49543598  0.61812858  0.78694202  1.0
  H  H47  1  0.99047365  0.33738767  0.78182731  1.0
  H  H48  1  0.73901768  0.19779443  0.73767939  1.0
  H  H49  1  0.60530195  0.37398345  0.73952550  1.0
  H  H50  1  0.96459668  0.16096018  0.78041197  1.0
  H  H51  1  0.52495011  0.31365721  0.27978477  1.0
  H  H52  1  0.70404212  0.70945589  0.50257243  1.0
  H  H53  1  0.96266440  0.94588036  0.06184459  1.0
  C  C54  1  0.69812713  0.39877946  0.56655472  1.0
  C  C55  1  0.25300713  0.79605644  0.79292182  1.0
  C  C56  1  0.33351399  0.86805589  0.79752200  1.0
  C  C57  1  0.37001947  0.39309753  0.58192679  1.0
  C  C58  1  0.46752341  0.80535794  0.77588543  1.0
  C  C59  1  0.46676104  0.80556066  0.71788489  1.0
  C  C60  1  0.32472595  0.89144034  0.84968945  1.0
  C  C61  1  0.35081376  0.80765000  0.65066458  1.0
  C  C62  1  0.36630204  0.77597217  0.60827668  1.0
  C  C63  1  0.67196353  0.40839802  0.74520731  1.0
  C  C64  1  0.87988746  0.39521472  0.71952234  1.0
  C  C65  1  0.32154677  0.34450979  0.73123145  1.0
  C  C66  1  0.89667251  0.38278718  0.77623471  1.0
  C  C67  1  0.89038216  0.28568484  0.90060851  1.0
  C  C68  1  0.78718584  0.34286862  0.71165727  1.0
  C  C69  1  0.39360386  0.72047407  0.56175005  1.0
  C  C70  1  0.69378390  0.39055065  0.80150813  1.0
  C  C71  1  0.82494216  0.31348077  0.80786674  1.0
  C  C72  1  0.86768511  0.19467185  0.78410097  1.0
  C  C73  1  0.82374211  0.21037042  0.73186564  1.0
  C  C74  1  0.85440550  0.29894609  0.85949535  1.0
  C  C75  1  0.76244850  0.35953024  0.65940843  1.0
  C  C76  1  0.33015352  0.35523819  0.68070326  1.0
  C  C77  1  0.73924605  0.37344645  0.61598459  1.0
  C  C78  1  0.46145597  0.27411728  0.27536803  1.0
  C  C79  1  0.29059506  0.46918692  0.27227310  1.0
  C  C80  1  0.27248393  0.45693159  0.21777765  1.0
  C  C81  1  0.71105436  0.38925687  0.42283312  1.0
  C  C82  1  0.29843938  0.30836823  0.11127490  1.0
  C  C83  1  0.33802218  0.34664331  0.30097745  1.0
  C  C84  1  0.45446909  0.26830318  0.21885992  1.0
  C  C85  1  0.32425713  0.32648063  0.20648112  1.0
  C  C86  1  0.25010784  0.26345559  0.24201655  1.0
  C  C87  1  0.34035323  0.36681516  0.63441743  1.0
  C  C88  1  0.25305607  0.28344412  0.29771624  1.0
  C  C89  1  0.31329348  0.31610397  0.15436391  1.0
  C  C90  1  0.34597895  0.35738879  0.35331655  1.0
  C  C91  1  0.35232759  0.36789927  0.39716984  1.0
  C  C92  1  0.30061567  0.89894307  0.13688096  1.0
  C  C93  1  0.37678013  0.39196091  0.44416120  1.0
  C  C94  1  0.31513466  0.86780691  0.18150941  1.0
  C  C95  1  0.33023958  0.83695575  0.23052410  1.0
  C  C96  1  0.34278744  0.81235514  0.27592844  1.0
  C  C97  1  0.35783019  0.78461123  0.32507688  1.0
  C  C98  1  0.28410015  0.75367173  0.73835018  1.0
  C  C99  1  0.37267910  0.75791342  0.36991919  1.0
  C  C100  1  0.89544473  0.28024750  0.13824916  1.0
  C  C101  1  0.86720344  0.29531713  0.18328581  1.0
  C  C102  1  0.83901790  0.31111002  0.23263131  1.0
  C  C103  1  0.81591939  0.32506730  0.27819854  1.0
  C  C104  1  0.78838669  0.34186862  0.32749900  1.0
  C  C105  1  0.39998355  0.70925147  0.42027890  1.0
  C  C106  1  0.76150057  0.35851257  0.37247510  1.0
  C  C107  1  0.28057822  0.95325442  0.94328759  1.0
  C  C108  1  0.27351869  0.28281618  0.92721994  1.0
  C  C109  1  0.26331504  0.96164266  0.71265465  1.0
  C  C110  1  0.94869006  0.25710459  0.94627718  1.0
  C  C111  1  0.27271424  0.95122128  0.08696444  1.0
  C  C112  1  0.27292709  0.28243100  0.06487090  1.0
  C  C113  1  0.94753921  0.25434510  0.08764811  1.0
  C  C114  1  0.29834953  0.31220973  0.87455408  1.0
  C  C115  1  0.30771732  0.32485752  0.82827584  1.0
  C  C116  1  0.31616771  0.33633662  0.77774399  1.0
  C  C117  1  0.12124125  0.87352279  0.80393799  1.0
  C  C118  1  0.27113878  0.69077910  0.83232194  1.0
  C  C119  1  0.54413822  0.87079479  0.78714190  1.0
  C  C120  1  0.28931864  0.98742151  0.76337193  1.0
  C  C121  1  0.18165853  0.74039745  0.71687653  1.0
  C  C122  1  0.90775581  0.11843254  0.69716714  1.0
  C  C123  1  0.28806189  0.13375772  0.23448791  1.0
  C  C124  1  0.19521103  0.09352837  0.78763523  1.0
  C  C125  1  0.52757912  0.68037392  0.79911293  1.0
  C  C126  1  0.31121976  0.91072326  0.89393623  1.0
  C  C127  1  0.34101335  0.83284263  0.70290235  1.0
  Cl  Cl128  1  0.01860775  0.32503769  0.68354308  1.0
  Cl  Cl129  1  0.82787771  0.54817625  0.69713723  1.0
  Cl  Cl130  1  0.83013281  0.08444407  0.82356100  1.0
  Cl  Cl131  1  0.58975412  0.33809011  0.83946550  1.0
  Cl  Cl132  1  0.54560335  0.33593691  0.17945116  1.0
  Cl  Cl133  1  0.29220807  0.06341319  0.66349565  1.0
  O  O134  1  0.49529636  0.69992250  0.53850678  1.0
  O  O135  1  0.17632436  0.35039238  0.94901038  1.0
  O  O136  1  0.97383084  0.33862077  0.96151233  1.0
  O  O137  1  0.68680260  0.49690973  0.54382464  1.0
  O  O138  1  0.96992519  0.15307824  0.07490771  1.0
  O  O139  1  0.17334187  0.96358619  0.07437235  1.0
  O  O140  1  0.35117784  0.98472890  0.06029940  1.0
  O  O141  1  0.34802558  0.19086457  0.04474921  1.0
  O  O142  1  0.17455087  0.34833970  0.04792655  1.0
  O  O143  1  0.97116499  0.33720978  0.06035942  1.0
  O  O144  1  0.15854207  0.15339804  0.01035534  1.0
  O  O145  1  0.47075774  0.31937681  0.46264335  1.0
  O  O146  1  0.67211252  0.31849002  0.55062612  1.0
  O  O147  1  0.46482562  0.32004631  0.56103938  1.0
  O  O148  1  0.30313659  0.49032253  0.56172204  1.0
  O  O149  1  0.31233191  0.69109325  0.54845837  1.0
  O  O150  1  0.50351198  0.68672502  0.43084274  1.0
  O  O151  1  0.69622590  0.48972562  0.43409887  1.0
  O  O152  1  0.68100954  0.31170751  0.45142118  1.0
  O  O153  1  0.30698553  0.48707442  0.46317543  1.0
  O  O154  1  0.31618726  0.68920640  0.44948094  1.0
  O  O155  1  0.50213901  0.50802663  0.49862149  1.0
  O  O156  1  0.97438535  0.15431118  0.96628389  1.0
  O  O157  1  0.17887915  0.96581319  0.96474940  1.0
  O  O158  1  0.35876139  0.97985648  0.96111833  1.0
  O  O159  1  0.34685612  0.18859529  0.94664821  1.0
  O  O160  1  0.69394956  0.67492559  0.47404205  1.0
  O  O161  1  0.99144550  0.96228838  0.02749924  1.0
