# generated using pymatgen
data_Zn4H9C24S4N2ClO13
_symmetry_space_group_name_H-M   'P 1'
_cell_length_a   19.67534936
_cell_length_b   19.68292023
_cell_length_c   33.37939045
_cell_angle_alpha   79.14977616
_cell_angle_beta   79.18040931
_cell_angle_gamma   63.86722827
_symmetry_Int_Tables_number   1
_chemical_formula_structural   Zn4H9C24S4N2ClO13
_chemical_formula_sum   'Zn16 H36 C96 S16 N8 Cl4 O52'
_cell_volume   11317.07315547
_cell_formula_units_Z   4
loop_
 _symmetry_equiv_pos_site_id
 _symmetry_equiv_pos_as_xyz
  1  'x, y, z'
loop_
 _atom_site_type_symbol
 _atom_site_label
 _atom_site_symmetry_multiplicity
 _atom_site_fract_x
 _atom_site_fract_y
 _atom_site_fract_z
 _atom_site_occupancy
  Zn  Zn0  1  0.59997818  0.94470841  0.52192749  1.0
  Zn  Zn1  1  0.51630649  0.01519088  0.43936572  1.0
  Zn  Zn2  1  0.43980752  0.94129835  0.51772467  1.0
  Zn  Zn3  1  0.44401639  0.09858452  0.52006331  1.0
  Zn  Zn4  1  0.65071939  0.30573629  0.72849081  1.0
  Zn  Zn5  1  0.81032633  0.31164912  0.73374344  1.0
  Zn  Zn6  1  0.73348999  0.23105586  0.80907349  1.0
  Zn  Zn7  1  0.80609894  0.15161120  0.72773267  1.0
  Zn  Zn8  1  0.23323726  0.73249929  0.31023872  1.0
  Zn  Zn9  1  0.30406040  0.65142981  0.22742830  1.0
  Zn  Zn10  1  0.15184813  0.80762110  0.22859531  1.0
  Zn  Zn11  1  0.31147538  0.80873070  0.23284816  1.0
  Zn  Zn12  1  0.94057186  0.43929073  0.01684339  1.0
  Zn  Zn13  1  0.94433448  0.59877005  0.02140339  1.0
  Zn  Zn14  1  0.09918896  0.44472946  0.02169620  1.0
  Zn  Zn15  1  0.01752503  0.51610173  0.93946421  1.0
  H  H16  1  0.75145371  0.04433435  0.64795882  1.0
  H  H17  1  0.54705998  0.25269488  0.65022879  1.0
  H  H18  1  0.69906445  0.00096264  0.59991188  1.0
  H  H19  1  0.40329776  0.90337548  0.30003306  1.0
  H  H20  1  0.29843709  0.79821004  0.40124649  1.0
  H  H21  1  0.44936826  0.94901457  0.35017176  1.0
  H  H22  1  0.75912142  0.53711682  0.65918380  1.0
  H  H23  1  0.29917185  0.51987566  0.39791522  1.0
  H  H24  1  0.02033883  0.79592452  0.39834985  1.0
  H  H25  1  0.03069779  0.05203613  0.65248819  1.0
  H  H26  1  0.94952477  0.44973918  0.84646251  1.0
  H  H27  1  0.84814371  0.34891315  0.95160633  1.0
  H  H28  1  0.89970998  0.39937997  0.80060418  1.0
  H  H29  1  0.23018460  0.45160046  0.85179146  1.0
  H  H30  1  0.85753227  0.83702562  0.95896975  1.0
  H  H31  1  0.20487392  0.49911036  0.10175277  1.0
  H  H32  1  0.99627356  0.70334247  0.09983228  1.0
  H  H33  1  0.24825121  0.55115994  0.14997579  1.0
  H  H34  1  0.72044398  0.69783741  0.09821813  1.0
  H  H35  1  0.99052045  0.21355043  0.09180783  1.0
  H  H36  1  0.44294240  0.68660883  0.60380333  1.0
  H  H37  1  0.44717129  0.76691377  0.57269603  1.0
  H  H38  1  0.47843500  0.23214049  0.31437985  1.0
  H  H39  1  0.48209351  0.16361130  0.35636217  1.0
  H  H40  1  0.73193950  0.95396026  0.31425606  1.0
  H  H41  1  0.66405458  0.97920458  0.35686804  1.0
  H  H42  1  0.19782151  0.25737463  0.61471117  1.0
  H  H43  1  0.27508480  0.20542542  0.58105690  1.0
  H  H44  1  0.51836276  0.27379872  0.93543544  1.0
  H  H45  1  0.58727924  0.26724385  0.89313734  1.0
  H  H46  1  0.91534422  0.85466640  0.77262164  1.0
  H  H47  1  0.88436089  0.95291716  0.75992345  1.0
  H  H48  1  0.56373752  0.48316115  0.14533667  1.0
  H  H49  1  0.47678181  0.54359631  0.16953630  1.0
  H  H50  1  0.29928478  0.07370657  0.15583268  1.0
  H  H51  1  0.30301454  0.98457282  0.17773803  1.0
  C  C52  1  0.68406419  0.94114188  0.43727233  1.0
  C  C53  1  0.43025696  0.93074923  0.43074016  1.0
  C  C54  1  0.56093543  0.81468199  0.56071372  1.0
  C  C55  1  0.31456440  0.06413583  0.56116805  1.0
  C  C56  1  0.56832500  0.06965530  0.56913958  1.0
  C  C57  1  0.43693946  0.18352441  0.43660877  1.0
  C  C58  1  0.68754233  0.43519535  0.68919093  1.0
  C  C59  1  0.81989819  0.31796754  0.81940588  1.0
  C  C60  1  0.56625508  0.31169509  0.81243268  1.0
  C  C61  1  0.81347247  0.06342748  0.81031510  1.0
  C  C62  1  0.68170095  0.17933401  0.68079829  1.0
  C  C63  1  0.93482434  0.18918315  0.68888062  1.0
  C  C64  1  0.31305913  0.56565333  0.31105749  1.0
  C  C65  1  0.17957924  0.68154821  0.18088703  1.0
  C  C66  1  0.06611318  0.81069790  0.31152988  1.0
  C  C67  1  0.19175257  0.93469143  0.18781571  1.0
  C  C68  1  0.31945595  0.81959968  0.31872958  1.0
  C  C69  1  0.43460020  0.68653661  0.18743327  1.0
  C  C70  1  0.81655801  0.56063954  0.06176002  1.0
  C  C71  1  0.06975305  0.56913876  0.06905317  1.0
  C  C72  1  0.06135334  0.31624986  0.06197407  1.0
  C  C73  1  0.18478376  0.43718915  0.93858198  1.0
  C  C74  1  0.93113919  0.43087724  0.93032090  1.0
  C  C75  1  0.93772394  0.68384578  0.93843917  1.0
  C  C76  1  0.59416950  0.10130299  0.59790076  1.0
  C  C77  1  0.65215998  0.15129353  0.65216988  1.0
  C  C78  1  0.55131866  0.17315481  0.61246699  1.0
  C  C79  1  0.69546996  0.07998056  0.63798044  1.0
  C  C80  1  0.58051682  0.19727164  0.63929263  1.0
  C  C81  1  0.66634151  0.05609067  0.61134551  1.0
  C  C82  1  0.40026050  0.90012012  0.40361677  1.0
  C  C83  1  0.34779524  0.84806079  0.34771129  1.0
  C  C84  1  0.35716758  0.85689673  0.41790385  1.0
  C  C85  1  0.39055519  0.89069388  0.33302166  1.0
  C  C86  1  0.33150026  0.83145650  0.38996473  1.0
  C  C87  1  0.41599846  0.91586348  0.36083257  1.0
  C  C88  1  0.54437199  0.69607140  0.59772281  1.0
  C  C89  1  0.70220781  0.55444754  0.65122496  1.0
  C  C90  1  0.58590044  0.74073783  0.58487109  1.0
  C  C91  1  0.66208797  0.50991589  0.66412781  1.0
  C  C92  1  0.65973484  0.62232996  0.62721017  1.0
  C  C93  1  0.58786911  0.62817189  0.62220489  1.0
  C  C94  1  0.42331810  0.27222970  0.36924368  1.0
  C  C95  1  0.32814760  0.47506067  0.37796575  1.0
  C  C96  1  0.41214719  0.25733932  0.41226066  1.0
  C  C97  1  0.33850781  0.49051324  0.33562630  1.0
  C  C98  1  0.35926295  0.39580773  0.39045612  1.0
  C  C99  1  0.39262787  0.35232933  0.35725645  1.0
  C  C100  1  0.77278969  0.92703378  0.36989393  1.0
  C  C101  1  0.97552774  0.82546342  0.37840286  1.0
  C  C102  1  0.75798830  0.91691517  0.41296196  1.0
  C  C103  1  0.99093939  0.83558363  0.33605406  1.0
  C  C104  1  0.89632393  0.85836684  0.39093642  1.0
  C  C105  1  0.85281717  0.89295731  0.35776664  1.0
  C  C106  1  0.19961467  0.15873112  0.60166999  1.0
  C  C107  1  0.05109851  0.09638791  0.64788898  1.0
  C  C108  1  0.24078984  0.08882988  0.58537016  1.0
  C  C109  1  0.00973038  0.16491942  0.66408787  1.0
  C  C110  1  0.12042133  0.09345751  0.62543087  1.0
  C  C111  1  0.13045776  0.16015668  0.62480913  1.0
  C  C112  1  0.84640160  0.34579900  0.84968876  1.0
  C  C113  1  0.90195211  0.40207455  0.90195138  1.0
  C  C114  1  0.83180796  0.33190728  0.89288556  1.0
  C  C115  1  0.91662579  0.41670677  0.85920628  1.0
  C  C116  1  0.85960860  0.35998529  0.91842937  1.0
  C  C117  1  0.88898666  0.38874825  0.83388606  1.0
  C  C118  1  0.47823457  0.32630269  0.88006394  1.0
  C  C119  1  0.27515142  0.42256067  0.87167500  1.0
  C  C120  1  0.49269257  0.33732912  0.83695347  1.0
  C  C121  1  0.25989360  0.41208147  0.91402513  1.0
  C  C122  1  0.35435834  0.39128897  0.85910271  1.0
  C  C123  1  0.39806817  0.35763992  0.89222619  1.0
  C  C124  1  0.87831379  0.91811676  0.82097485  1.0
  C  C125  1  0.87441275  0.82948184  0.92659948  1.0
  C  C126  1  0.83886156  0.99013291  0.83509415  1.0
  C  C127  1  0.91316150  0.75823537  0.91313767  1.0
  C  C128  1  0.86119151  0.88791596  0.89327750  1.0
  C  C129  1  0.89040186  0.85992211  0.85496255  1.0
  C  C130  1  0.14780822  0.65588420  0.15215844  1.0
  C  C131  1  0.09767356  0.59833058  0.09785025  1.0
  C  C132  1  0.07587275  0.69891971  0.13766216  1.0
  C  C133  1  0.16913192  0.55489771  0.11191408  1.0
  C  C134  1  0.05168286  0.66983095  0.11081159  1.0
  C  C135  1  0.19302339  0.58384082  0.13861357  1.0
  C  C136  1  0.54962758  0.59251560  0.14655619  1.0
  C  C137  1  0.70008561  0.65345231  0.10274777  1.0
  C  C138  1  0.50793424  0.66249500  0.16269668  1.0
  C  C139  1  0.74177178  0.58485202  0.08666808  1.0
  C  C140  1  0.63034703  0.65653729  0.12474732  1.0
  C  C141  1  0.62015792  0.59007109  0.12489206  1.0
  C  C142  1  0.20818533  0.05296909  0.15028414  1.0
  C  C143  1  0.04755069  0.19642127  0.09954150  1.0
  C  C144  1  0.16729403  0.00775596  0.16284575  1.0
  C  C145  1  0.08705418  0.24156725  0.08693146  1.0
  C  C146  1  0.09105658  0.12791978  0.12274580  1.0
  C  C147  1  0.16316167  0.12213999  0.12728011  1.0
  S  S148  1  0.67588197  0.69969339  0.60208352  1.0
  S  S149  1  0.57264165  0.55015179  0.64700986  1.0
  S  S150  1  0.36482190  0.33957792  0.43707685  1.0
  S  S151  1  0.38577179  0.40894390  0.31073243  1.0
  S  S152  1  0.84024289  0.86721263  0.43767123  1.0
  S  S153  1  0.90936244  0.88530241  0.31121656  1.0
  S  S154  1  0.19538926  0.02731539  0.59786825  1.0
  S  S155  1  0.05466298  0.22631967  0.65193330  1.0
  S  S156  1  0.41015264  0.38553811  0.81236143  1.0
  S  S157  1  0.34167681  0.36445824  0.93880336  1.0
  S  S158  1  0.81820272  0.98607666  0.88859158  1.0
  S  S159  1  0.93416576  0.76182676  0.85995705  1.0
  S  S160  1  0.55395508  0.72348796  0.15114757  1.0
  S  S161  1  0.69636304  0.52385141  0.09801838  1.0
  S  S162  1  0.07668543  0.04889175  0.14645711  1.0
  S  S163  1  0.17736398  0.20093947  0.10299745  1.0
  N  N164  1  0.47437241  0.71370514  0.58732696  1.0
  N  N165  1  0.45612246  0.21807339  0.34284570  1.0
  N  N166  1  0.71867490  0.96607125  0.34364613  1.0
  N  N167  1  0.22134062  0.21707796  0.59526134  1.0
  N  N168  1  0.53252703  0.29296711  0.90623863  1.0
  N  N169  1  0.90330177  0.90597395  0.78092811  1.0
  N  N170  1  0.52510143  0.53664233  0.14998384  1.0
  N  N171  1  0.28073043  0.03261701  0.15785610  1.0
  Cl  Cl172  1  0.46213699  0.23701216  0.59914910  1.0
  Cl  Cl173  1  0.33295085  0.83113397  0.46915081  1.0
  Cl  Cl174  1  0.77996700  0.28133975  0.91797225  1.0
  Cl  Cl175  1  0.01252090  0.78814786  0.15083139  1.0
  O  O176  1  0.50149358  0.99946164  0.49929786  1.0
  O  O177  1  0.68274913  0.92506837  0.47636162  1.0
  O  O178  1  0.47273125  0.96421696  0.41275891  1.0
  O  O179  1  0.49372053  0.84256541  0.54899977  1.0
  O  O180  1  0.62497475  0.97700029  0.41746096  1.0
  O  O181  1  0.60673035  0.84723983  0.55286505  1.0
  O  O182  1  0.41115687  0.92175505  0.46914732  1.0
  O  O183  1  0.34422291  0.99641258  0.55084306  1.0
  O  O184  1  0.50268675  0.11000133  0.55766426  1.0
  O  O185  1  0.34526315  0.11205340  0.55185247  1.0
  O  O186  1  0.61466811  0.00415282  0.55849841  1.0
  O  O187  1  0.47145889  0.12408997  0.41708994  1.0
  O  O188  1  0.42292292  0.18278926  0.47574872  1.0
  O  O189  1  0.75086635  0.25039697  0.74901464  1.0
  O  O190  1  0.64058083  0.40417125  0.69726467  1.0
  O  O191  1  0.83517055  0.33862881  0.78137517  1.0
  O  O192  1  0.62573739  0.27557748  0.83186232  1.0
  O  O193  1  0.75404147  0.40798722  0.70050890  1.0
  O  O194  1  0.56706602  0.32632811  0.77324670  1.0
  O  O195  1  0.78480722  0.27612266  0.83359146  1.0
  O  O196  1  0.77527842  0.12253836  0.82926662  1.0
  O  O197  1  0.74737189  0.13491546  0.69178458  1.0
  O  O198  1  0.83077462  0.06392275  0.77092932  1.0
  O  O199  1  0.63874444  0.24521023  0.69173385  1.0
  O  O200  1  0.90715487  0.25534465  0.70081148  1.0
  O  O201  1  0.90416643  0.14209939  0.69616233  1.0
  O  O202  1  0.25086219  0.74916844  0.25007475  1.0
  O  O203  1  0.27682756  0.62351705  0.33083498  1.0
  O  O204  1  0.24491553  0.63467632  0.19176932  1.0
  O  O205  1  0.06636842  0.82820343  0.27257707  1.0
  O  O206  1  0.32934742  0.56606212  0.27203574  1.0
  O  O207  1  0.12426197  0.77426064  0.33116359  1.0
  O  O208  1  0.13986642  0.74730722  0.19216987  1.0
  O  O209  1  0.14447771  0.90385532  0.19686918  1.0
  O  O210  1  0.33586138  0.83637617  0.28043362  1.0
  O  O211  1  0.25911260  0.90611095  0.19933464  1.0
  O  O212  1  0.28136826  0.78094865  0.33489000  1.0
  O  O213  1  0.40235731  0.63989119  0.19506414  1.0
  O  O214  1  0.40718425  0.75227872  0.20005385  1.0
  O  O215  1  0.00042143  0.49991041  0.99978497  1.0
  O  O216  1  0.84440787  0.49404214  0.05035365  1.0
  O  O217  1  0.00410454  0.61244050  0.05779560  1.0
  O  O218  1  0.10815717  0.34743839  0.05389118  1.0
  O  O219  1  0.84685790  0.60802573  0.05369427  1.0
  O  O220  1  0.99498584  0.34320635  0.05053025  1.0
  O  O221  1  0.11399997  0.50342185  0.05822592  1.0
  O  O222  1  0.18459972  0.42091732  0.97760348  1.0
  O  O223  1  0.96954289  0.46898885  0.91365901  1.0
  O  O224  1  0.12662072  0.47304147  0.91894351  1.0
  O  O225  1  0.91519605  0.41475695  0.96876188  1.0
  O  O226  1  0.92085476  0.68437915  0.97730747  1.0
  O  O227  1  0.97404308  0.62522088  0.91909192  1.0
