# generated using pymatgen
data_AlH21(C5O)6
_symmetry_space_group_name_H-M   'P 1'
_cell_length_a   4.00378829
_cell_length_b   15.96709264
_cell_length_c   16.05280076
_cell_angle_alpha   119.73892030
_cell_angle_beta   90.36766650
_cell_angle_gamma   91.21254678
_symmetry_Int_Tables_number   1
_chemical_formula_structural   AlH21(C5O)6
_chemical_formula_sum   'Al1 H21 C30 O6'
_cell_volume   890.70775277
_cell_formula_units_Z   1
loop_
 _symmetry_equiv_pos_site_id
 _symmetry_equiv_pos_as_xyz
  1  'x, y, z'
loop_
 _atom_site_type_symbol
 _atom_site_label
 _atom_site_symmetry_multiplicity
 _atom_site_fract_x
 _atom_site_fract_y
 _atom_site_fract_z
 _atom_site_occupancy
  Al  Al0  1  0.99355216  0.99948832  0.50137530  1.0
  H  H1  1  0.49697736  0.15444549  0.07983888  1.0
  H  H2  1  0.54030395  0.42109006  0.07484790  1.0
  H  H3  1  0.48363350  0.42474154  0.34394672  1.0
  H  H4  1  0.21880628  0.02007239  0.25736648  1.0
  H  H5  1  0.20749540  0.10728565  0.16593590  1.0
  H  H6  1  0.77766342  0.34211506  0.39357518  1.0
  H  H7  1  0.76250275  0.10456004  0.94721841  1.0
  H  H8  1  0.24277435  0.24580486  0.76574060  1.0
  H  H9  1  0.23680793  0.33508106  0.94315178  1.0
  H  H10  1  0.24804764  0.55029307  0.15406743  1.0
  H  H11  1  0.77083144  0.73874243  0.47688296  1.0
  H  H12  1  0.78851176  0.56002365  0.39165773  1.0
  H  H13  1  0.68651693  0.34177339  0.56409240  1.0
  H  H14  1  0.80656710  0.22924026  0.55025018  1.0
  H  H15  1  0.07559959  0.29272780  0.51252130  1.0
  H  H16  1  0.68693817  0.93964207  0.78728954  1.0
  H  H17  1  0.72890724  0.94458516  0.67968348  1.0
  H  H18  1  0.05887427  0.98782609  0.76575347  1.0
  H  H19  1  0.94275736  0.76400690  0.24677707  1.0
  H  H20  1  0.33983729  0.80148299  0.22960271  1.0
  H  H21  1  0.17046034  0.68593074  0.14308436  1.0
  C  C22  1  0.50146357  0.07285797  0.64946700  1.0
  C  C23  1  0.48396547  0.85169708  0.42377838  1.0
  C  C24  1  0.49916826  0.07701827  0.42966391  1.0
  C  C25  1  0.50959616  0.28138411  0.06473615  1.0
  C  C26  1  0.50195203  0.23310845  0.11768466  1.0
  C  C27  1  0.50079495  0.28352735  0.21827562  1.0
  C  C28  1  0.50225342  0.38464699  0.26601473  1.0
  C  C29  1  0.51203856  0.43518037  0.21530992  1.0
  C  C30  1  0.51863190  0.38255161  0.11482669  1.0
  C  C31  1  0.34486440  0.09047878  0.28627399  1.0
  C  C32  1  0.34128412  0.13929095  0.23475679  1.0
  C  C33  1  0.49601953  0.23115295  0.27269797  1.0
  C  C34  1  0.64773885  0.27205979  0.36398787  1.0
  C  C35  1  0.65085347  0.22504212  0.41790259  1.0
  C  C36  1  0.50008486  0.13253828  0.37710458  1.0
  C  C37  1  0.64352605  0.13556619  0.90769507  1.0
  C  C38  1  0.64228733  0.08260139  0.80734874  1.0
  C  C39  1  0.50495706  0.12504827  0.75684383  1.0
  C  C40  1  0.36257931  0.21602478  0.80614079  1.0
  C  C41  1  0.36238981  0.26643417  0.90581823  1.0
  C  C42  1  0.50777939  0.22743263  0.95861091  1.0
  C  C43  1  0.36392786  0.59158452  0.22538349  1.0
  C  C44  1  0.34842980  0.69210318  0.27227299  1.0
  C  C45  1  0.49133052  0.74498605  0.36571424  1.0
  C  C46  1  0.65031408  0.69599517  0.40663446  1.0
  C  C47  1  0.65735859  0.59610248  0.35907627  1.0
  C  C48  1  0.51087090  0.54168965  0.26702956  1.0
  C  C49  1  0.81252164  0.27425974  0.51641433  1.0
  C  C50  1  0.78575202  0.98333814  0.75692472  1.0
  C  C51  1  0.19294699  0.73838699  0.22005230  1.0
  O  O52  1  0.72985527  0.01658397  0.41063407  1.0
  O  O53  1  0.73836420  0.09196134  0.60830122  1.0
  O  O54  1  0.71607796  0.89498874  0.48743823  1.0
  O  O55  1  0.26666716  0.09288988  0.48905967  1.0
  O  O56  1  0.24635555  0.89500664  0.40872966  1.0
  O  O57  1  0.26004473  0.01297562  0.60639220  1.0
