# generated using pymatgen
data_MnH14C11N2O3
_symmetry_space_group_name_H-M   'P 1'
_cell_length_a   7.05371074
_cell_length_b   21.46207493
_cell_length_c   21.46227767
_cell_angle_alpha   120.00004930
_cell_angle_beta   90.00033721
_cell_angle_gamma   89.99987284
_symmetry_Int_Tables_number   1
_chemical_formula_structural   MnH14C11N2O3
_chemical_formula_sum   'Mn6 H84 C66 N12 O18'
_cell_volume   2813.81524404
_cell_formula_units_Z   6
loop_
 _symmetry_equiv_pos_site_id
 _symmetry_equiv_pos_as_xyz
  1  'x, y, z'
loop_
 _atom_site_type_symbol
 _atom_site_label
 _atom_site_symmetry_multiplicity
 _atom_site_fract_x
 _atom_site_fract_y
 _atom_site_fract_z
 _atom_site_occupancy
  Mn  Mn0  1  0.11396600  0.27227225  0.66425797  1.0
  Mn  Mn1  1  0.55270378  0.66426230  0.27228074  1.0
  Mn  Mn2  1  0.44728009  0.39197891  0.72771771  1.0
  Mn  Mn3  1  0.78060447  0.33575187  0.60802907  1.0
  Mn  Mn4  1  0.88606808  0.60802079  0.33574762  1.0
  Mn  Mn5  1  0.21941198  0.72771978  0.39196754  1.0
  H  H6  1  0.98370278  0.00638457  0.43501817  1.0
  H  H7  1  0.68298677  0.43501214  0.00637919  1.0
  H  H8  1  0.31702609  0.42862865  0.99361303  1.0
  H  H9  1  0.65034287  0.56499476  0.57137615  1.0
  H  H10  1  0.01630819  0.57138250  0.56499230  1.0
  H  H11  1  0.34965635  0.99361996  0.42863481  1.0
  H  H12  1  0.10532268  0.13216530  0.49430204  1.0
  H  H13  1  0.56137228  0.49429407  0.13216023  1.0
  H  H14  1  0.43864769  0.36213780  0.86783434  1.0
  H  H15  1  0.77196617  0.50570694  0.63786812  1.0
  H  H16  1  0.89468766  0.63787238  0.50570072  1.0
  H  H17  1  0.22804784  0.86784019  0.36213547  1.0
  H  H18  1  0.44490052  0.08666864  0.53897801  1.0
  H  H19  1  0.22179301  0.53896755  0.08666219  1.0
  H  H20  1  0.77821943  0.45230718  0.91333386  1.0
  H  H21  1  0.11153866  0.46103743  0.54770078  1.0
  H  H22  1  0.55511452  0.54769760  0.46103391  1.0
  H  H23  1  0.88847110  0.91333663  0.45230625  1.0
  H  H24  1  0.77438957  0.18486541  0.74027518  1.0
  H  H25  1  0.89227720  0.74028804  0.18486721  1.0
  H  H26  1  0.10772431  0.55541728  0.81513275  1.0
  H  H27  1  0.44106283  0.25971927  0.44459161  1.0
  H  H28  1  0.22559430  0.44456933  0.25971063  1.0
  H  H29  1  0.55893374  0.81513312  0.55540537  1.0
  H  H30  1  0.92152519  0.25677596  0.79997584  1.0
  H  H31  1  0.74513807  0.79997953  0.25678046  1.0
  H  H32  1  0.25484910  0.54320658  0.74322467  1.0
  H  H33  1  0.58819987  0.20002431  0.45680656  1.0
  H  H34  1  0.07845556  0.45678467  0.20001617  1.0
  H  H35  1  0.41181840  0.74322191  0.54319282  1.0
  H  H36  1  0.75610108  0.26883258  0.74394438  1.0
  H  H37  1  0.91058745  0.74394851  0.26882993  1.0
  H  H38  1  0.08941998  0.47512231  0.73116853  1.0
  H  H39  1  0.42276539  0.25605299  0.52488907  1.0
  H  H40  1  0.24390209  0.52486668  0.25604089  1.0
  H  H41  1  0.57724565  0.73116939  0.47511182  1.0
  H  H42  1  0.99148915  0.10353636  0.67285012  1.0
  H  H43  1  0.67516119  0.67286247  0.10353918  1.0
  H  H44  1  0.32481498  0.56932168  0.89645655  1.0
  H  H45  1  0.65814963  0.32714670  0.43069023  1.0
  H  H46  1  0.00849503  0.43067583  0.32714350  1.0
  H  H47  1  0.34184219  0.89645317  0.56931111  1.0
  H  H48  1  0.18097064  0.12102955  0.62983159  1.0
  H  H49  1  0.48569100  0.62984016  0.12103404  1.0
  H  H50  1  0.51429402  0.50880903  0.87896944  1.0
  H  H51  1  0.84763470  0.37016880  0.49120190  1.0
  H  H52  1  0.81903455  0.49119663  0.37016789  1.0
  H  H53  1  0.15235846  0.87896711  0.50880175  1.0
  H  H54  1  0.22003626  0.21630550  0.78532516  1.0
  H  H55  1  0.44664664  0.78533631  0.21631998  1.0
  H  H56  1  0.55333908  0.56903041  0.78369168  1.0
  H  H57  1  0.88667370  0.21466773  0.43097874  1.0
  H  H58  1  0.77994329  0.43098076  0.21467679  1.0
  H  H59  1  0.11332738  0.78368629  0.56902144  1.0
  H  H60  1  0.19097227  0.12736383  0.76845173  1.0
  H  H61  1  0.47567601  0.76846531  0.12737957  1.0
  H  H62  1  0.52431662  0.64109257  0.87263636  1.0
  H  H63  1  0.85763863  0.23155044  0.35891739  1.0
  H  H64  1  0.80899364  0.35891024  0.23154615  1.0
  H  H65  1  0.14235075  0.87263211  0.64108307  1.0
  H  H66  1  0.47422667  0.17323886  0.70024952  1.0
  H  H67  1  0.19244558  0.70026358  0.17326635  1.0
  H  H68  1  0.80753489  0.52700075  0.82673888  1.0
  H  H69  1  0.14088194  0.29974031  0.47300161  1.0
  H  H70  1  0.52576423  0.47299771  0.29975549  1.0
  H  H71  1  0.85912013  0.82673349  0.52699603  1.0
  H  H72  1  0.45550654  0.04031615  0.70802564  1.0
  H  H73  1  0.21110830  0.70804801  0.04034737  1.0
  H  H74  1  0.78889011  0.66770124  0.95966140  1.0
  H  H75  1  0.12221535  0.29196198  0.33230124  1.0
  H  H76  1  0.54445833  0.33229904  0.29197996  1.0
  H  H77  1  0.87777071  0.95965635  0.66769584  1.0
  H  H78  1  0.39446418  0.04107496  0.62768755  1.0
  H  H79  1  0.27214453  0.62770333  0.04109588  1.0
  H  H80  1  0.72784590  0.58660601  0.95890696  1.0
  H  H81  1  0.06117277  0.37230375  0.41339627  1.0
  H  H82  1  0.60550750  0.41339459  0.37231651  1.0
  H  H83  1  0.93881162  0.95890335  0.58660150  1.0
  H  H84  1  0.62863904  0.06353778  0.66276377  1.0
  H  H85  1  0.03798418  0.66278806  0.06357498  1.0
  H  H86  1  0.96201177  0.59921030  0.93642905  1.0
  H  H87  1  0.29533888  0.33722061  0.40079063  1.0
  H  H88  1  0.37133686  0.40078614  0.33724161  1.0
  H  H89  1  0.70464853  0.93642319  0.59920540  1.0
  C  C90  1  0.84624368  0.17956428  0.54987435  1.0
  C  C91  1  0.82046310  0.54986769  0.17956113  1.0
  C  C92  1  0.17955666  0.37031309  0.82043557  1.0
  C  C93  1  0.51288279  0.45013377  0.62969255  1.0
  C  C94  1  0.15377504  0.62969021  0.45012371  1.0
  C  C95  1  0.48712164  0.82043902  0.37030510  1.0
  C  C96  1  0.65675776  0.16673836  0.56330722  1.0
  C  C97  1  0.00994062  0.56329712  0.16672958  1.0
  C  C98  1  0.99007192  0.39656802  0.83326464  1.0
  C  C99  1  0.32340077  0.43670536  0.60343553  1.0
  C  C100  1  0.34325683  0.60343274  0.43669562  1.0
  C  C101  1  0.67659515  0.83326699  0.39656196  1.0
  C  C102  1  0.59053863  0.09543196  0.52827425  1.0
  C  C103  1  0.07616198  0.52826575  0.09542617  1.0
  C  C104  1  0.92385907  0.43283952  0.90456749  1.0
  C  C105  1  0.25717420  0.47173863  0.56716650  1.0
  C  C106  1  0.40948198  0.56716581  0.47173279  1.0
  C  C107  1  0.74282847  0.90456747  0.43283694  1.0
  C  C108  1  0.70429698  0.03692995  0.48277497  1.0
  C  C109  1  0.96239018  0.48276623  0.03692346  1.0
  C  C110  1  0.03761680  0.44584264  0.96307010  1.0
  C  C111  1  0.37094242  0.51724064  0.55416456  1.0
  C  C112  1  0.29571820  0.55416495  0.51723514  1.0
  C  C113  1  0.62905423  0.96307710  0.44584675  1.0
  C  C114  1  0.89258638  0.05096264  0.47140013  1.0
  C  C115  1  0.77411639  0.47139349  0.05095665  1.0
  C  C116  1  0.22590205  0.42043525  0.94903966  1.0
  C  C117  1  0.55922081  0.52861273  0.57956955  1.0
  C  C118  1  0.10743434  0.57957343  0.52860984  1.0
  C  C119  1  0.44078151  0.94904342  0.42043702  1.0
  C  C120  1  0.96077041  0.12064693  0.50360315  1.0
  C  C121  1  0.70591309  0.50359326  0.12063925  1.0
  C  C122  1  0.29410111  0.38295589  0.87935306  1.0
  C  C123  1  0.62742507  0.49640891  0.61704922  1.0
  C  C124  1  0.03923862  0.61705144  0.49640211  1.0
  C  C125  1  0.37257334  0.87935969  0.38295152  1.0
  C  C126  1  0.52179642  0.22383397  0.61202039  1.0
  C  C127  1  0.14489122  0.61201739  0.22382998  1.0
  C  C128  1  0.85512119  0.38818580  0.77616384  1.0
  C  C129  1  0.18846069  0.38798169  0.61181669  1.0
  C  C130  1  0.47821654  0.61181417  0.38797967  1.0
  C  C131  1  0.81154268  0.77616158  0.38817838  1.0
  C  C132  1  0.85702540  0.23099257  0.74573251  1.0
  C  C133  1  0.80965158  0.74573751  0.23099312  1.0
  C  C134  1  0.19034863  0.51474794  0.76900648  1.0
  C  C135  1  0.52369347  0.25426580  0.48526390  1.0
  C  C136  1  0.14296810  0.48524257  0.25425672  1.0
  C  C137  1  0.47631461  0.76900500  0.51473508  1.0
  C  C138  1  0.09817771  0.14434450  0.67983622  1.0
  C  C139  1  0.56848718  0.67984477  0.14435011  1.0
  C  C140  1  0.43150467  0.53549702  0.85565084  1.0
  C  C141  1  0.76484132  0.32016259  0.46451306  1.0
  C  C142  1  0.90181898  0.46450399  0.32016157  1.0
  C  C143  1  0.23515350  0.85564765  0.53548710  1.0
  C  C144  1  0.23374092  0.15935134  0.74360404  1.0
  C  C145  1  0.43292016  0.74361623  0.15936738  1.0
  C  C146  1  0.56706707  0.58425569  0.84064203  1.0
  C  C147  1  0.90039953  0.25639283  0.41575325  1.0
  C  C148  1  0.76624029  0.41574876  0.25639760  1.0
  C  C149  1  0.09959696  0.84063729  0.58424705  1.0
  C  C150  1  0.47844020  0.06901422  0.67812491  1.0
  C  C151  1  0.18818455  0.67814423  0.06904326  1.0
  C  C152  1  0.81180990  0.60910071  0.93096233  1.0
  C  C153  1  0.14513847  0.32186391  0.39090131  1.0
  C  C154  1  0.52153146  0.39089794  0.32188079  1.0
  C  C155  1  0.85485043  0.93095691  0.60909596  1.0
  N  N156  1  0.99365376  0.20612546  0.68744007  1.0
  N  N157  1  0.67303126  0.68743932  0.20612361  1.0
  N  N158  1  0.32697492  0.48131963  0.79387198  1.0
  N  N159  1  0.66031245  0.31256128  0.51869079  1.0
  N  N160  1  0.00635531  0.51867496  0.31255405  1.0
  N  N161  1  0.33968543  0.79387127  0.48131037  1.0
  N  N162  1  0.43336338  0.14485071  0.72443023  1.0
  N  N163  1  0.23329467  0.72444443  0.14487691  1.0
  N  N164  1  0.76669264  0.57957275  0.85513029  1.0
  N  N165  1  0.10002646  0.27556075  0.42043105  1.0
  N  N166  1  0.56661786  0.42042568  0.27557471  1.0
  N  N167  1  0.89996993  0.85512414  0.57956518  1.0
  O  O168  1  0.92586281  0.24527852  0.57887768  1.0
  O  O169  1  0.74082750  0.57886893  0.24527193  1.0
  O  O170  1  0.25919088  0.33360579  0.75472456  1.0
  O  O171  1  0.59251648  0.42113117  0.66640216  1.0
  O  O172  1  0.07414706  0.66639293  0.42111322  1.0
  O  O173  1  0.40748826  0.75472749  0.33359099  1.0
  O  O174  1  0.58256883  0.28885037  0.65243029  1.0
  O  O175  1  0.08410806  0.65243435  0.28884112  1.0
  O  O176  1  0.91590147  0.36358071  0.71115031  1.0
  O  O177  1  0.24923898  0.34756395  0.63640842  1.0
  O  O178  1  0.41743248  0.63641792  0.34756802  1.0
  O  O179  1  0.75077324  0.71114730  0.36357075  1.0
  O  O180  1  0.34967006  0.20623370  0.61233752  1.0
  O  O181  1  0.31702599  0.61233112  0.20623121  1.0
  O  O182  1  0.68299062  0.40610126  0.79376211  1.0
  O  O183  1  0.01631567  0.38767074  0.59390571  1.0
  O  O184  1  0.65034301  0.59390512  0.38766422  1.0
  O  O185  1  0.98368480  0.79376396  0.40609942  1.0
