# generated using pymatgen
data_Zn4H4C24S4Br2Cl2O13
_symmetry_space_group_name_H-M   'P 1'
_cell_length_a   19.69569118
_cell_length_b   19.73289480
_cell_length_c   33.40733828
_cell_angle_alpha   78.97843404
_cell_angle_beta   79.08423817
_cell_angle_gamma   63.86495411
_symmetry_Int_Tables_number   1
_chemical_formula_structural   Zn4H4C24S4Br2Cl2O13
_chemical_formula_sum   'Zn16 H16 C96 S16 Br8 Cl8 O52'
_cell_volume   11359.61911948
_cell_formula_units_Z   4
loop_
 _symmetry_equiv_pos_site_id
 _symmetry_equiv_pos_as_xyz
  1  'x, y, z'
loop_
 _atom_site_type_symbol
 _atom_site_label
 _atom_site_symmetry_multiplicity
 _atom_site_fract_x
 _atom_site_fract_y
 _atom_site_fract_z
 _atom_site_occupancy
  Zn  Zn0  1  0.05569973  0.40027104  0.47797611  1.0
  Zn  Zn1  1  0.98586187  0.48419872  0.56026056  1.0
  Zn  Zn2  1  0.05775350  0.56205958  0.48182030  1.0
  Zn  Zn3  1  0.90014522  0.55482832  0.48029351  1.0
  Zn  Zn4  1  0.69525416  0.34944337  0.27181859  1.0
  Zn  Zn5  1  0.68841202  0.19050950  0.26605027  1.0
  Zn  Zn6  1  0.77009826  0.26559151  0.19010757  1.0
  Zn  Zn7  1  0.84735557  0.19301706  0.27212896  1.0
  Zn  Zn8  1  0.26609902  0.76636285  0.68949640  1.0
  Zn  Zn9  1  0.34894787  0.69767665  0.77181031  1.0
  Zn  Zn10  1  0.19175182  0.84881065  0.77134898  1.0
  Zn  Zn11  1  0.19283390  0.68753896  0.76805244  1.0
  Zn  Zn12  1  0.56037611  0.06048798  0.98398409  1.0
  Zn  Zn13  1  0.40134683  0.05453046  0.97751332  1.0
  Zn  Zn14  1  0.55691369  0.90140258  0.97899317  1.0
  Zn  Zn15  1  0.48218690  0.98174791  0.05996650  1.0
  H  H16  1  0.75058113  0.44826981  0.34889402  1.0
  H  H17  1  0.00003767  0.30203187  0.40074144  1.0
  H  H18  1  0.20191399  0.69985500  0.60151719  1.0
  H  H19  1  0.04920672  0.55147677  0.64783980  1.0
  H  H20  1  0.46372758  0.23984175  0.34116640  1.0
  H  H21  1  0.47991773  0.70284899  0.60100066  1.0
  H  H22  1  0.20376700  0.97915228  0.60102806  1.0
  H  H23  1  0.94654246  0.97024684  0.34754474  1.0
  H  H24  1  0.64762787  0.14875072  0.04966292  1.0
  H  H25  1  0.60205604  0.10115177  0.20043411  1.0
  H  H26  1  0.54659777  0.77009499  0.14869086  1.0
  H  H27  1  0.16141369  0.14262929  0.04011520  1.0
  H  H28  1  0.30238095  0.99988761  0.90113663  1.0
  H  H29  1  0.44658584  0.75136677  0.84899735  1.0
  H  H30  1  0.30086084  0.28092603  0.90196373  1.0
  H  H31  1  0.78744978  0.01111334  0.90833322  1.0
  C  C32  1  0.06188943  0.31650578  0.56158303  1.0
  C  C33  1  0.07016309  0.57184695  0.56754659  1.0
  C  C34  1  0.18337821  0.43940320  0.43844223  1.0
  C  C35  1  0.93566510  0.68436785  0.43871208  1.0
  C  C36  1  0.92921843  0.43195392  0.43132060  1.0
  C  C37  1  0.81748070  0.56101415  0.56318082  1.0
  C  C38  1  0.56586038  0.31123370  0.31128432  1.0
  C  C39  1  0.68279737  0.18098957  0.17983368  1.0
  C  C40  1  0.69009062  0.43304459  0.18842774  1.0
  C  C41  1  0.93584946  0.18708592  0.18983819  1.0
  C  C42  1  0.82060857  0.31750987  0.31917919  1.0
  C  C43  1  0.80985561  0.06540019  0.31101535  1.0
  C  C44  1  0.43319517  0.68966726  0.68801014  1.0
  C  C45  1  0.31583612  0.82251214  0.81915878  1.0
  C  C46  1  0.18818959  0.93336664  0.68788551  1.0
  C  C47  1  0.06573067  0.80914298  0.81133581  1.0
  C  C48  1  0.18107910  0.67921628  0.68187328  1.0
  C  C49  1  0.31511867  0.56624270  0.81196840  1.0
  C  C50  1  0.43795740  0.18369065  0.93864276  1.0
  C  C51  1  0.43310583  0.92865463  0.93097703  1.0
  C  C52  1  0.68462131  0.94032061  0.93918592  1.0
  C  C53  1  0.56131073  0.81558309  0.06191938  1.0
  C  C54  1  0.56793167  0.06792178  0.07024823  1.0
  C  C55  1  0.31501990  0.06138500  0.06025901  1.0
  C  C56  1  0.89873607  0.40573931  0.40219194  1.0
  C  C57  1  0.85169743  0.34437611  0.34763855  1.0
  C  C58  1  0.82740274  0.44741117  0.38700364  1.0
  C  C59  1  0.92331480  0.30300410  0.36253799  1.0
  C  C60  1  0.80560263  0.41613025  0.36041274  1.0
  C  C61  1  0.94497693  0.33414801  0.38925680  1.0
  C  C62  1  0.10017392  0.60098996  0.59539864  1.0
  C  C63  1  0.15093201  0.65035114  0.65395235  1.0
  C  C64  1  0.14401872  0.64355378  0.58236559  1.0
  C  C65  1  0.10705245  0.60781218  0.66698466  1.0
  C  C66  1  0.16816747  0.66710422  0.61160439  1.0
  C  C67  1  0.08290197  0.58428159  0.63774149  1.0
  C  C68  1  0.30466490  0.45449885  0.40094034  1.0
  C  C69  1  0.44652947  0.29656924  0.34906461  1.0
  C  C70  1  0.25853334  0.41564783  0.41393640  1.0
  C  C71  1  0.49113760  0.33660992  0.33642771  1.0
  C  C72  1  0.37838164  0.33944403  0.37269059  1.0
  C  C73  1  0.37288293  0.41124165  0.37744797  1.0
  C  C74  1  0.72575574  0.57526290  0.63104704  1.0
  C  C75  1  0.52428120  0.67365881  0.62121558  1.0
  C  C76  1  0.74332697  0.58472161  0.58860783  1.0
  C  C77  1  0.50849654  0.66380959  0.66355425  1.0
  C  C78  1  0.60366952  0.64131529  0.60922076  1.0
  C  C79  1  0.64627523  0.60750446  0.64286160  1.0
  C  C80  1  0.07624091  0.22526341  0.62965322  1.0
  C  C81  1  0.17436988  0.02381321  0.62092678  1.0
  C  C82  1  0.08602040  0.24238062  0.58714400  1.0
  C  C83  1  0.16356305  0.00850880  0.66326462  1.0
  C  C84  1  0.14243622  0.10299669  0.60852644  1.0
  C  C85  1  0.10818131  0.14597930  0.64188514  1.0
  C  C86  1  0.84066543  0.80126790  0.39712661  1.0
  C  C87  1  0.90228743  0.94975199  0.35220796  1.0
  C  C88  1  0.90913533  0.75879491  0.41366297  1.0
  C  C89  1  0.83371723  0.99077429  0.33604224  1.0
  C  C90  1  0.90501785  0.88044139  0.37455985  1.0
  C  C91  1  0.83820438  0.87058754  0.37483062  1.0
  C  C92  1  0.65437233  0.15376835  0.15020782  1.0
  C  C93  1  0.59567477  0.09579775  0.09988262  1.0
  C  C94  1  0.66693247  0.16737576  0.10692590  1.0
  C  C95  1  0.58269493  0.08261535  0.14316938  1.0
  C  C96  1  0.63775239  0.13829923  0.08296247  1.0
  C  C97  1  0.61207856  0.11148350  0.16713586  1.0
  C  C98  1  0.67429952  0.52390119  0.12025627  1.0
  C  C99  1  0.57588794  0.72534668  0.12884247  1.0
  C  C100  1  0.66506671  0.50699925  0.16278747  1.0
  C  C101  1  0.58637898  0.74048013  0.08647960  1.0
  C  C102  1  0.60807095  0.64621828  0.14129704  1.0
  C  C103  1  0.64206601  0.60314352  0.10795547  1.0
  C  C104  1  0.08337819  0.12317912  0.17808687  1.0
  C  C105  1  0.16948776  0.12569349  0.07242401  1.0
  C  C106  1  0.01103460  0.16218018  0.16552810  1.0
  C  C107  1  0.24079051  0.08653225  0.08570842  1.0
  C  C108  1  0.11183995  0.13918160  0.10613009  1.0
  C  C109  1  0.14091953  0.10992831  0.14428677  1.0
  C  C110  1  0.34295281  0.85281680  0.84789735  1.0
  C  C111  1  0.40589607  0.89836140  0.90230271  1.0
  C  C112  1  0.30198383  0.92402428  0.86300367  1.0
  C  C113  1  0.44689464  0.82713010  0.88720716  1.0
  C  C114  1  0.33399533  0.94501716  0.88958734  1.0
  C  C115  1  0.41487633  0.80616605  0.86060311  1.0
  C  C116  1  0.40962783  0.44780820  0.85325204  1.0
  C  C117  1  0.34573251  0.30054649  0.89748567  1.0
  C  C118  1  0.34137545  0.49132080  0.83665390  1.0
  C  C119  1  0.41412940  0.25853973  0.91372359  1.0
  C  C120  1  0.34392984  0.36974214  0.87532796  1.0
  C  C121  1  0.41123162  0.37855214  0.87527518  1.0
  C  C122  1  0.94430285  0.79484318  0.84942807  1.0
  C  C123  1  0.80403605  0.95428147  0.90076500  1.0
  C  C124  1  0.99084127  0.83311041  0.83598646  1.0
  C  C125  1  0.75900901  0.91480716  0.91387641  1.0
  C  C126  1  0.87176580  0.91061025  0.87715201  1.0
  C  C127  1  0.87646094  0.83885256  0.87289920  1.0
  S  S128  1  0.29927905  0.32589453  0.39735323  1.0
  S  S129  1  0.45113135  0.42610126  0.35303809  1.0
  S  S130  1  0.66211805  0.63299847  0.56325757  1.0
  S  S131  1  0.58916498  0.61544655  0.68906887  1.0
  S  S132  1  0.13463708  0.16089430  0.56230992  1.0
  S  S133  1  0.11493910  0.08943051  0.68833733  1.0
  S  S134  1  0.97044688  0.80395293  0.40173716  1.0
  S  S135  1  0.77223741  0.94610279  0.34771426  1.0
  S  S136  1  0.61638876  0.58852100  0.18756987  1.0
  S  S137  1  0.63492202  0.65950820  0.06145472  1.0
  S  S138  1  0.01376157  0.18285260  0.11226631  1.0
  S  S139  1  0.23872733  0.06593174  0.13884278  1.0
  S  S140  1  0.27924265  0.44701605  0.84813085  1.0
  S  S141  1  0.47652715  0.30222794  0.90233559  1.0
  S  S142  1  0.95103647  0.92324975  0.85204806  1.0
  S  S143  1  0.79797814  0.82498508  0.89777406  1.0
  Br  Br144  1  0.28461219  0.55198640  0.41167149  1.0
  Br  Br145  1  0.79458497  0.52660804  0.67030123  1.0
  Br  Br146  1  0.02759388  0.29425537  0.66864961  1.0
  Br  Br147  1  0.75880878  0.77461493  0.40166208  1.0
  Br  Br148  1  0.72205692  0.45470851  0.08132901  1.0
  Br  Br149  1  0.10757635  0.09048645  0.23223028  1.0
  Br  Br150  1  0.49253499  0.47282642  0.84883630  1.0
  Br  Br151  1  0.96363588  0.69739675  0.83903418  1.0
  Cl  Cl152  1  0.76314898  0.53677722  0.39881195  1.0
  Cl  Cl153  1  0.98849315  0.21450355  0.34982930  1.0
  Cl  Cl154  1  0.17135967  0.66904381  0.53168154  1.0
  Cl  Cl155  1  0.07976105  0.58212023  0.71763604  1.0
  Cl  Cl156  1  0.71633982  0.21917275  0.08050347  1.0
  Cl  Cl157  1  0.53173351  0.03237619  0.16964219  1.0
  Cl  Cl158  1  0.21308949  0.98924937  0.85068321  1.0
  Cl  Cl159  1  0.53597581  0.76206502  0.89928829  1.0
  O  O160  1  0.00075455  0.49892343  0.49989552  1.0
  O  O161  1  0.07787637  0.31476348  0.52264030  1.0
  O  O162  1  0.03481766  0.53112108  0.58516396  1.0
  O  O163  1  0.15380130  0.50585818  0.44938517  1.0
  O  O164  1  0.02752425  0.37547320  0.58020718  1.0
  O  O165  1  0.15439150  0.39076563  0.44647160  1.0
  O  O166  1  0.08172768  0.58973183  0.52911560  1.0
  O  O167  1  0.00346537  0.65803875  0.44835041  1.0
  O  O168  1  0.88655582  0.49579673  0.44407169  1.0
  O  O169  1  0.88980880  0.65267997  0.44871281  1.0
  O  O170  1  0.99584362  0.38743822  0.44097542  1.0
  O  O171  1  0.87714987  0.52677049  0.58142349  1.0
  O  O172  1  0.81488390  0.57759444  0.52429971  1.0
  O  O173  1  0.74898418  0.25044143  0.25029574  1.0
  O  O174  1  0.59719947  0.35778570  0.30341853  1.0
  O  O175  1  0.66254392  0.16629605  0.21796097  1.0
  O  O176  1  0.72689106  0.37404189  0.16997400  1.0
  O  O177  1  0.59246744  0.24534596  0.29965485  1.0
  O  O178  1  0.67254267  0.43488612  0.22731820  1.0
  O  O179  1  0.72457070  0.21588919  0.16495787  1.0
  O  O180  1  0.87877244  0.22430287  0.16932851  1.0
  O  O181  1  0.86118372  0.25158644  0.30848855  1.0
  O  O182  1  0.93349374  0.16978667  0.22865378  1.0
  O  O183  1  0.75537471  0.36338554  0.30810775  1.0
  O  O184  1  0.74364062  0.09351318  0.29916426  1.0
  O  O185  1  0.85746128  0.09525382  0.30338354  1.0
  O  O186  1  0.25022577  0.75033136  0.74982811  1.0
  O  O187  1  0.37508958  0.72406577  0.66836048  1.0
  O  O188  1  0.36232813  0.75786768  0.80779203  1.0
  O  O189  1  0.17092888  0.93344326  0.72679937  1.0
  O  O190  1  0.43325625  0.67509087  0.72703138  1.0
  O  O191  1  0.22423149  0.87532494  0.66843925  1.0
  O  O192  1  0.24964100  0.86270568  0.80851004  1.0
  O  O193  1  0.09354769  0.85873445  0.80251901  1.0
  O  O194  1  0.16846359  0.66194576  0.72028465  1.0
  O  O195  1  0.09646801  0.74215946  0.80101321  1.0
  O  O196  1  0.21748176  0.71903611  0.66440257  1.0
  O  O197  1  0.35988673  0.59927217  0.80342337  1.0
  O  O198  1  0.24819960  0.59165382  0.80122769  1.0
  O  O199  1  0.49972907  0.00057069  0.99980503  1.0
  O  O200  1  0.50414890  0.15619886  0.95046760  1.0
  O  O201  1  0.38808044  0.99465344  0.94112222  1.0
  O  O202  1  0.65426860  0.89293216  0.94757773  1.0
  O  O203  1  0.39094208  0.15309860  0.94618908  1.0
  O  O204  1  0.65714525  0.00654024  0.95049596  1.0
  O  O205  1  0.49807879  0.88692718  0.94284725  1.0
  O  O206  1  0.57963576  0.81597301  0.02303494  1.0
  O  O207  1  0.52997248  0.02908540  0.08516954  1.0
  O  O208  1  0.52371209  0.87342800  0.08139112  1.0
  O  O209  1  0.58514028  0.08573484  0.03207818  1.0
  O  O210  1  0.31489005  0.07783377  0.02139165  1.0
  O  O211  1  0.37329055  0.02489676  0.07982437  1.0
