# generated using pymatgen
data_Al2H14C23N2(ClO5)2
_symmetry_space_group_name_H-M   'P 1'
_cell_length_a   6.64929230
_cell_length_b   11.13309426
_cell_length_c   16.97530506
_cell_angle_alpha   90.16559572
_cell_angle_beta   97.62188996
_cell_angle_gamma   107.35863773
_symmetry_Int_Tables_number   1
_chemical_formula_structural   Al2H14C23N2(ClO5)2
_chemical_formula_sum   'Al2 H14 C23 N2 Cl2 O10'
_cell_volume   1187.60715940
_cell_formula_units_Z   1
loop_
 _symmetry_equiv_pos_site_id
 _symmetry_equiv_pos_as_xyz
  1  'x, y, z'
loop_
 _atom_site_type_symbol
 _atom_site_label
 _atom_site_symmetry_multiplicity
 _atom_site_fract_x
 _atom_site_fract_y
 _atom_site_fract_z
 _atom_site_occupancy
  Al  Al0  1  0.00915123  0.49851172  0.50390692  1.0
  Al  Al1  1  0.50955223  0.49710872  0.50703341  1.0
  H  H2  1  0.17056630  0.35218411  0.45622370  1.0
  H  H3  1  0.82564812  0.55238780  0.60289080  1.0
  H  H4  1  0.65443481  0.55789840  0.74711208  1.0
  H  H5  1  0.71940589  0.56875465  0.89610550  1.0
  H  H6  1  0.05296491  0.38340347  0.89904011  1.0
  H  H7  1  0.94090603  0.63667159  0.11323615  1.0
  H  H8  1  0.27806427  0.44775592  0.12231146  1.0
  H  H9  1  0.35629430  0.45255011  0.27142169  1.0
  H  H10  1  0.29110661  0.11615886  0.55281765  1.0
  H  H11  1  0.83291896  0.11040024  0.44188847  1.0
  H  H12  1  0.17965301  0.87995617  0.55267134  1.0
  H  H13  1  0.86712947  0.92716893  0.39015939  1.0
  H  H14  1  0.65049738  0.78527975  0.38085703  1.0
  H  H15  1  0.84448119  0.81393427  0.46526841  1.0
  C  C16  1  0.64339969  0.26722398  0.49993263  1.0
  C  C17  1  0.72180488  0.52485652  0.36378812  1.0
  C  C18  1  0.37107492  0.72440774  0.50348341  1.0
  C  C19  1  0.29619726  0.47796450  0.65008935  1.0
  C  C20  1  0.31821337  0.46997877  0.73866310  1.0
  C  C21  1  0.52358553  0.52152391  0.78139594  1.0
  C  C22  1  0.56070131  0.52749929  0.86360815  1.0
  C  C23  1  0.38830640  0.47897551  0.90608301  1.0
  C  C24  1  0.18365146  0.42331123  0.86516315  1.0
  C  C25  1  0.14793084  0.41926221  0.78217249  1.0
  C  C26  1  0.81409588  0.59449491  0.14840551  1.0
  C  C27  1  0.60726446  0.53871001  0.10924308  1.0
  C  C28  1  0.43885721  0.48803653  0.15329697  1.0
  C  C29  1  0.48292328  0.49011366  0.23533166  1.0
  C  C30  1  0.69154601  0.53961374  0.27588024  1.0
  C  C31  1  0.85692614  0.59497768  0.23111456  1.0
  C  C32  1  0.44349597  0.86404448  0.49750529  1.0
  C  C33  1  0.57172808  0.12686742  0.49871192  1.0
  C  C34  1  0.62842952  0.92707322  0.46376354  1.0
  C  C35  1  0.38422855  0.06286767  0.52875044  1.0
  C  C36  1  0.69011310  0.05879837  0.46659213  1.0
  C  C37  1  0.32274440  0.93221723  0.52849247  1.0
  C  C38  1  0.75492122  0.86009878  0.42297072  1.0
  N  N39  1  0.40435075  0.47962917  0.99000216  1.0
  N  N40  1  0.58757614  0.53915844  0.02540905  1.0
  Cl  Cl41  1  0.89072849  0.34541794  0.73720835  1.0
  Cl  Cl42  1  0.11485488  0.67002276  0.27440827  1.0
  O  O43  1  0.84083477  0.32191074  0.49835491  1.0
  O  O44  1  0.56208198  0.51875025  0.39909836  1.0
  O  O45  1  0.51290070  0.66817153  0.51069079  1.0
  O  O46  1  0.12174719  0.48833161  0.61469842  1.0
  O  O47  1  0.17293305  0.67127514  0.50361018  1.0
  O  O48  1  0.45887756  0.47917108  0.61749711  1.0
  O  O49  1  0.50049688  0.32202453  0.50190585  1.0
  O  O50  1  0.89831151  0.51401331  0.39613448  1.0
  O  O51  1  0.22022279  0.44166992  0.47034999  1.0
  O  O52  1  0.79808533  0.54675519  0.54518344  1.0
