# generated using pymatgen
data_Zn4H9C21IO14
_symmetry_space_group_name_H-M   'P 1'
_cell_length_a   13.13893236
_cell_length_b   13.21942815
_cell_length_c   16.04553585
_cell_angle_alpha   100.71675992
_cell_angle_beta   98.88187647
_cell_angle_gamma   90.46096503
_symmetry_Int_Tables_number   1
_chemical_formula_structural   Zn4H9C21IO14
_chemical_formula_sum   'Zn4 H9 C21 I1 O14'
_cell_volume   2703.55141926
_cell_formula_units_Z   1
loop_
 _symmetry_equiv_pos_site_id
 _symmetry_equiv_pos_as_xyz
  1  'x, y, z'
loop_
 _atom_site_type_symbol
 _atom_site_label
 _atom_site_symmetry_multiplicity
 _atom_site_fract_x
 _atom_site_fract_y
 _atom_site_fract_z
 _atom_site_occupancy
  Zn  Zn0  1  0.57227839  0.59491121  0.44920607  1.0
  Zn  Zn1  1  0.40604222  0.58505537  0.57062327  1.0
  Zn  Zn2  1  0.59750067  0.43041046  0.57283212  1.0
  Zn  Zn3  1  0.41878083  0.39736695  0.41141805  1.0
  H  H4  1  0.43602484  0.41682523  0.97634216  1.0
  H  H5  1  0.55414958  0.08009240  0.39521573  1.0
  H  H6  1  0.08592007  0.57159487  0.53628004  1.0
  H  H7  1  0.91690556  0.39352264  0.50079006  1.0
  H  H8  1  0.09431038  0.34197988  0.45389398  1.0
  H  H9  1  0.91144888  0.63102303  0.54222674  1.0
  H  H10  1  0.50907505  0.09886474  0.58070890  1.0
  H  H11  1  0.43509582  0.93137849  0.59896807  1.0
  H  H12  1  0.66021670  0.85431606  0.46692097  1.0
  C  C13  1  0.22861460  0.44907397  0.47989382  1.0
  C  C14  1  0.52773057  0.05975448  0.51889416  1.0
  C  C15  1  0.47854121  0.89306120  0.55018117  1.0
  C  C16  1  0.77131565  0.53597848  0.52823809  1.0
  C  C17  1  0.52938761  0.94773984  0.50469034  1.0
  C  C18  1  0.47454462  0.77963671  0.53328347  1.0
  C  C19  1  0.53086283  0.22927743  0.47455254  1.0
  C  C20  1  0.51657652  0.52596331  0.72867472  1.0
  C  C21  1  0.48894220  0.48880650  0.27559677  1.0
  C  C22  1  0.52387498  0.53558418  0.82042846  1.0
  C  C23  1  0.53285243  0.54753679  0.98608341  1.0
  C  C24  1  0.48471862  0.48326236  0.10883380  1.0
  C  C25  1  0.48217033  0.47915203  0.02102100  1.0
  C  C26  1  0.59298208  0.89512842  0.43943516  1.0
  C  C27  1  0.52831425  0.54128521  0.89773761  1.0
  C  C28  1  0.48526237  0.48463907  0.18521195  1.0
  C  C29  1  0.88344615  0.55098965  0.53193622  1.0
  C  C30  1  0.94768881  0.47306072  0.51517574  1.0
  C  C31  1  0.11979734  0.42157385  0.48139254  1.0
  C  C32  1  0.05500826  0.49263191  0.51256378  1.0
  C  C33  1  0.54227435  0.11636661  0.45962628  1.0
  I  I34  1  0.62308667  0.67230919  0.06305337  1.0
  O  O35  1  0.49775293  0.50207668  0.50240072  1.0
  O  O36  1  0.43664115  0.56217767  0.69063851  1.0
  O  O37  1  0.42272822  0.43199153  0.29789412  1.0
  O  O38  1  0.59082281  0.48168735  0.69564399  1.0
  O  O39  1  0.55877770  0.54954909  0.32492313  1.0
  O  O40  1  0.57853201  0.90349135  0.36406724  1.0
  O  O41  1  0.51894471  0.73458473  0.47137756  1.0
  O  O42  1  0.48934594  0.26531911  0.40934178  1.0
  O  O43  1  0.26415235  0.53782731  0.52116824  1.0
  O  O44  1  0.73698649  0.45317691  0.54628033  1.0
  O  O45  1  0.27852021  0.38075382  0.43659560  1.0
  O  O46  1  0.71708243  0.60961792  0.50596631  1.0
  O  O47  1  0.42666020  0.73491779  0.58073666  1.0
  O  O48  1  0.56270356  0.28139014  0.54982329  1.0
