# generated using pymatgen
data_AlH17C21O5
_symmetry_space_group_name_H-M   'P 1'
_cell_length_a   6.62024223
_cell_length_b   25.05460903
_cell_length_c   26.96037729
_cell_angle_alpha   95.46947182
_cell_angle_beta   89.99929670
_cell_angle_gamma   89.99868789
_symmetry_Int_Tables_number   1
_chemical_formula_structural   AlH17C21O5
_chemical_formula_sum   'Al4 H68 C84 O20'
_cell_volume   4451.49277156
_cell_formula_units_Z   4
loop_
 _symmetry_equiv_pos_site_id
 _symmetry_equiv_pos_as_xyz
  1  'x, y, z'
loop_
 _atom_site_type_symbol
 _atom_site_label
 _atom_site_symmetry_multiplicity
 _atom_site_fract_x
 _atom_site_fract_y
 _atom_site_fract_z
 _atom_site_occupancy
  Al  Al0  1  0.20650655  0.24831057  0.25031907  1.0
  Al  Al1  1  0.79377908  0.75183304  0.75018590  1.0
  Al  Al2  1  0.70651392  0.25168131  0.24966799  1.0
  Al  Al3  1  0.29378836  0.74816898  0.74980583  1.0
  H  H4  1  0.80898592  0.62756423  0.96419170  1.0
  H  H5  1  0.25113794  0.45274846  0.10585116  1.0
  H  H6  1  0.30898978  0.87244687  0.53582420  1.0
  H  H7  1  0.75121611  0.04725907  0.39417672  1.0
  H  H8  1  0.22740766  0.52963757  0.87339408  1.0
  H  H9  1  0.68217096  0.38730657  0.05180820  1.0
  H  H10  1  0.72723867  0.97040876  0.62663782  1.0
  H  H11  1  0.18205673  0.11267489  0.44817187  1.0
  H  H12  1  0.24817955  0.60085882  0.81544708  1.0
  H  H13  1  0.68047805  0.32795079  0.12058993  1.0
  H  H14  1  0.74803172  0.89919612  0.68459704  1.0
  H  H15  1  0.18043556  0.17202229  0.37937822  1.0
  H  H16  1  0.31739492  0.51348572  0.95620387  1.0
  H  H17  1  0.65870007  0.47804891  0.03480733  1.0
  H  H18  1  0.81730221  0.98654648  0.54383995  1.0
  H  H19  1  0.15867888  0.02194518  0.46517285  1.0
  H  H20  1  0.29846463  0.44959958  0.02043195  1.0
  H  H21  1  0.67718176  0.54127140  0.96997222  1.0
  H  H22  1  0.79841315  0.05042854  0.47960320  1.0
  H  H23  1  0.17710268  0.95873500  0.53001887  1.0
  H  H24  1  0.67349369  0.45564362  0.42716350  1.0
  H  H25  1  0.32727826  0.53892498  0.57842414  1.0
  H  H26  1  0.17330262  0.04439718  0.07282223  1.0
  H  H27  1  0.82738945  0.96104298  0.92158159  1.0
  H  H28  1  0.65495600  0.38257671  0.35732269  1.0
  H  H29  1  0.33987354  0.61082577  0.64957976  1.0
  H  H30  1  0.15483410  0.11748424  0.14265122  1.0
  H  H31  1  0.83992618  0.88914929  0.85042257  1.0
  H  H32  1  0.28148461  0.34626643  0.37804536  1.0
  H  H33  1  0.72214684  0.65159820  0.62271511  1.0
  H  H34  1  0.78148656  0.15369942  0.12195666  1.0
  H  H35  1  0.22217509  0.84840566  0.87729107  1.0
  H  H36  1  0.30062195  0.41750675  0.44953546  1.0
  H  H37  1  0.70989296  0.58200698  0.54968698  1.0
  H  H38  1  0.80052456  0.08244032  0.05047615  1.0
  H  H39  1  0.20995555  0.91799757  0.95032074  1.0
  H  H40  1  0.70373168  0.81932475  0.94228829  1.0
  H  H41  1  0.81322964  0.79314311  0.99496725  1.0
  H  H42  1  0.94559671  0.84155926  0.96351666  1.0
  H  H43  1  0.08145906  0.74716414  0.94230040  1.0
  H  H44  1  0.99317632  0.77592724  0.88913137  1.0
  H  H45  1  0.69285983  0.72267889  0.88335385  1.0
  H  H46  1  0.70847114  0.70809045  0.94616676  1.0
  H  H47  1  0.44265728  0.39314972  0.28549309  1.0
  H  H48  1  0.51232236  0.45495052  0.26344250  1.0
  H  H49  1  0.32296864  0.45275580  0.31011022  1.0
  H  H50  1  0.15320483  0.46358620  0.22970940  1.0
  H  H51  1  0.09659980  0.39991487  0.24847992  1.0
  H  H52  1  0.37173960  0.36000098  0.18977116  1.0
  H  H53  1  0.41481189  0.42465926  0.17088920  1.0
  H  H54  1  0.20407497  0.68066914  0.55773957  1.0
  H  H55  1  0.31338320  0.70685134  0.50503855  1.0
  H  H56  1  0.44590825  0.65846269  0.53646740  1.0
  H  H57  1  0.58164204  0.75287918  0.55765123  1.0
  H  H58  1  0.49360042  0.72410380  0.61083924  1.0
  H  H59  1  0.19308961  0.77729209  0.61664385  1.0
  H  H60  1  0.20856931  0.79190452  0.55383686  1.0
  H  H61  1  0.94313591  0.10686287  0.21459699  1.0
  H  H62  1  0.01248572  0.04503397  0.23662396  1.0
  H  H63  1  0.82334842  0.04729943  0.18991553  1.0
  H  H64  1  0.65334823  0.03643853  0.27029280  1.0
  H  H65  1  0.59684562  0.10011610  0.25152661  1.0
  H  H66  1  0.87188508  0.14000790  0.31028268  1.0
  H  H67  1  0.91490179  0.07533075  0.32915254  1.0
  H  H68  1  0.44942133  0.32086569  0.25468884  1.0
  H  H69  1  0.55069592  0.68735462  0.77155018  1.0
  H  H70  1  0.94942426  0.17913322  0.24548316  1.0
  H  H71  1  0.05068689  0.81265370  0.72845036  1.0
  C  C72  1  0.45954198  0.18203788  0.17910682  1.0
  C  C73  1  0.53914407  0.82182504  0.81760409  1.0
  C  C74  1  0.95958384  0.31796604  0.32087625  1.0
  C  C75  1  0.03914593  0.67817866  0.68238905  1.0
  C  C76  1  0.45981208  0.18505386  0.31196632  1.0
  C  C77  1  0.54140122  0.80857343  0.68291333  1.0
  C  C78  1  0.95977445  0.31493889  0.18803649  1.0
  C  C79  1  0.04142186  0.69143397  0.81708501  1.0
  C  C80  1  0.90795339  0.66122553  0.89824079  1.0
  C  C81  1  0.13140928  0.39082569  0.14684286  1.0
  C  C82  1  0.40798183  0.83879035  0.60176204  1.0
  C  C83  1  0.63145505  0.10917178  0.35316761  1.0
  C  C84  1  0.90106501  0.62088853  0.93057639  1.0
  C  C85  1  0.12774841  0.42416782  0.10814801  1.0
  C  C86  1  0.40105651  0.87913773  0.56943355  1.0
  C  C87  1  0.62780349  0.07583060  0.39186359  1.0
  C  C88  1  0.01283080  0.57319512  0.92263115  1.0
  C  C89  1  0.96997677  0.42372234  0.07326871  1.0
  C  C90  1  0.51275872  0.92683733  0.57739453  1.0
  C  C91  1  0.46995795  0.07627522  0.42673145  1.0
  C  C92  1  0.14024113  0.56648054  0.88084310  1.0
  C  C93  1  0.80635456  0.38900784  0.07851601  1.0
  C  C94  1  0.64010191  0.93355609  0.61919399  1.0
  C  C95  1  0.30627492  0.11097331  0.42147027  1.0
  C  C96  1  0.15101759  0.60620846  0.84822912  1.0
  C  C97  1  0.80597329  0.35540518  0.11667826  1.0
  C  C98  1  0.65090773  0.89382556  0.65180308  1.0
  C  C99  1  0.30594775  0.14457096  0.38330578  1.0
  C  C100  1  0.03381732  0.65292109  0.85589255  1.0
  C  C101  1  0.96766896  0.35490744  0.15035106  1.0
  C  C102  1  0.53378577  0.84710420  0.64411999  1.0
  C  C103  1  0.46769342  0.14508863  0.34964985  1.0
  C  C104  1  0.17227603  0.50551911  0.97317735  1.0
  C  C105  1  0.80348969  0.48536039  0.01732631  1.0
  C  C106  1  0.67219306  0.99450689  0.52685290  1.0
  C  C107  1  0.30344060  0.01464307  0.48267490  1.0
  C  C108  1  0.16195761  0.47004572  0.00974572  1.0
  C  C109  1  0.81420083  0.52138080  0.98118753  1.0
  C  C110  1  0.66190751  0.02997480  0.49027880  1.0
  C  C111  1  0.31414005  0.97862146  0.51881269  1.0
  C  C112  1  0.97779284  0.45961610  0.03297051  1.0
  C  C113  1  0.99926432  0.53264441  0.95876102  1.0
  C  C114  1  0.47774856  0.04039299  0.46703782  1.0
  C  C115  1  0.49918570  0.96738237  0.54126247  1.0
  C  C116  1  0.80572650  0.43125518  0.41654932  1.0
  C  C117  1  0.19555149  0.56391534  0.58803872  1.0
  C  C118  1  0.30559184  0.06876234  0.08343735  1.0
  C  C119  1  0.69563190  0.93606285  0.91196346  1.0
  C  C120  1  0.79548653  0.39082959  0.37764590  1.0
  C  C121  1  0.20248643  0.60356111  0.62767597  1.0
  C  C122  1  0.29537637  0.10919592  0.12233970  1.0
  C  C123  1  0.70254691  0.89641446  0.87232468  1.0
  C  C124  1  0.96732832  0.36028543  0.36358694  1.0
  C  C125  1  0.03187726  0.63524095  0.64014440  1.0
  C  C126  1  0.46726823  0.13972334  0.13639759  1.0
  C  C127  1  0.53189817  0.86475333  0.85984950  1.0
  C  C128  1  0.14961279  0.37038697  0.38943135  1.0
  C  C129  1  0.85353376  0.62681992  0.61234508  1.0
  C  C130  1  0.64957498  0.12958950  0.11057083  1.0
  C  C131  1  0.35357463  0.87317576  0.88765349  1.0
  C  C132  1  0.16031951  0.41009825  0.42886148  1.0
  C  C133  1  0.84663961  0.58806389  0.57204971  1.0
  C  C134  1  0.66021039  0.08986902  0.07114549  1.0
  C  C135  1  0.34668983  0.91192649  0.92795484  1.0
  C  C136  1  0.98839430  0.44138671  0.44294912  1.0
  C  C137  1  0.01760108  0.55583343  0.55931838  1.0
  C  C138  1  0.48825056  0.05860562  0.05704463  1.0
  C  C139  1  0.51767539  0.94415582  0.94068340  1.0
  C  C140  1  0.99904812  0.48182801  0.48315995  1.0
  C  C141  1  0.00911184  0.51617053  0.51840278  1.0
  C  C142  1  0.49896454  0.01814900  0.01684529  1.0
  C  C143  1  0.50918942  0.98381058  0.98160052  1.0
  C  C144  1  0.79894595  0.71326754  0.91268745  1.0
  C  C145  1  0.94412418  0.76104633  0.92433439  1.0
  C  C146  1  0.84642861  0.80629678  0.95804939  1.0
  C  C147  1  0.29863024  0.39850294  0.18496363  1.0
  C  C148  1  0.22038539  0.42439850  0.23546917  1.0
  C  C149  1  0.38338440  0.43179735  0.27561140  1.0
  C  C150  1  0.29908335  0.78673307  0.58730277  1.0
  C  C151  1  0.44440808  0.73898248  0.57564632  1.0
  C  C152  1  0.34671805  0.69371886  0.54195629  1.0
  C  C153  1  0.79874753  0.10150524  0.31506778  1.0
  C  C154  1  0.72060233  0.07561985  0.26454804  1.0
  C  C155  1  0.88370166  0.06822426  0.22443160  1.0
  O  O156  1  0.62698742  0.20291633  0.29704773  1.0
  O  O157  1  0.37335278  0.79115203  0.69785570  1.0
  O  O158  1  0.12692104  0.29709375  0.20297245  1.0
  O  O159  1  0.87334630  0.70885204  0.80214503  1.0
  O  O160  1  0.28662478  0.19585177  0.19679325  1.0
  O  O161  1  0.71300986  0.80753333  0.80081115  1.0
  O  O162  1  0.78665720  0.30417317  0.30318196  1.0
  O  O163  1  0.21301213  0.69246917  0.69917681  1.0
  O  O164  1  0.28572198  0.19928301  0.29768415  1.0
  O  O165  1  0.71389611  0.79706287  0.69995377  1.0
  O  O166  1  0.78565976  0.30068985  0.20228134  1.0
  O  O167  1  0.21388564  0.70294825  0.80003271  1.0
  O  O168  1  0.12872207  0.29934990  0.30472953  1.0
  O  O169  1  0.87017235  0.69697391  0.69844461  1.0
  O  O170  1  0.62868778  0.20062671  0.19528354  1.0
  O  O171  1  0.37018104  0.80302834  0.80155352  1.0
  O  O172  1  0.45427959  0.28209532  0.25200029  1.0
  O  O173  1  0.54629147  0.71724058  0.75120014  1.0
  O  O174  1  0.95427259  0.21789955  0.24799136  1.0
  O  O175  1  0.04629409  0.78276246  0.74879110  1.0
