# generated using pymatgen
data_AlH25C23O7
_symmetry_space_group_name_H-M   'P 1'
_cell_length_a   6.60631066
_cell_length_b   24.13020233
_cell_length_c   25.49789250
_cell_angle_alpha   78.30163276
_cell_angle_beta   89.99994750
_cell_angle_gamma   89.99928783
_symmetry_Int_Tables_number   1
_chemical_formula_structural   AlH25C23O7
_chemical_formula_sum   'Al4 H100 C92 O28'
_cell_volume   3980.23144148
_cell_formula_units_Z   4
loop_
 _symmetry_equiv_pos_site_id
 _symmetry_equiv_pos_as_xyz
  1  'x, y, z'
loop_
 _atom_site_type_symbol
 _atom_site_label
 _atom_site_symmetry_multiplicity
 _atom_site_fract_x
 _atom_site_fract_y
 _atom_site_fract_z
 _atom_site_occupancy
  Al  Al0  1  0.85530938  0.49810074  0.49929407  1.0
  Al  Al1  1  0.35530410  0.50189598  0.50070744  1.0
  Al  Al2  1  0.26516619  0.99669457  0.99875480  1.0
  Al  Al3  1  0.76515756  0.00329395  0.00125030  1.0
  H  H4  1  0.38035916  0.18181153  0.15364423  1.0
  H  H5  1  0.88025046  0.81817667  0.84631596  1.0
  H  H6  1  0.74695459  0.15358984  0.19026415  1.0
  H  H7  1  0.24680109  0.84641782  0.80975626  1.0
  H  H8  1  0.73057516  0.08975289  0.12484010  1.0
  H  H9  1  0.23054203  0.91023628  0.87519708  1.0
  H  H10  1  0.81765095  0.25825754  0.18330764  1.0
  H  H11  1  0.31772387  0.74167845  0.81672812  1.0
  H  H12  1  0.83498093  0.32417790  0.24473713  1.0
  H  H13  1  0.33515005  0.67576613  0.75528985  1.0
  H  H14  1  0.35400285  0.23261700  0.32191441  1.0
  H  H15  1  0.85368312  0.76747759  0.67800329  1.0
  H  H16  1  0.41564627  0.30652098  0.35028300  1.0
  H  H17  1  0.91560338  0.69350177  0.64970416  1.0
  H  H18  1  0.80824853  0.41949856  0.37288425  1.0
  H  H19  1  0.30824434  0.58050804  0.62710729  1.0
  H  H20  1  0.79128186  0.35191000  0.31287795  1.0
  H  H21  1  0.29123895  0.64810999  0.68710201  1.0
  H  H22  1  0.10917975  0.22251517  0.66202029  1.0
  H  H23  1  0.60905907  0.77747071  0.33798163  1.0
  H  H24  1  0.08509034  0.15066629  0.73793648  1.0
  H  H25  1  0.58523520  0.84933499  0.26206189  1.0
  H  H26  1  0.75657490  0.24117703  0.80265024  1.0
  H  H27  1  0.25651230  0.75885778  0.19735945  1.0
  H  H28  1  0.76111329  0.19310961  0.75954934  1.0
  H  H29  1  0.26120296  0.80688916  0.24049629  1.0
  H  H30  1  0.78227214  0.26889364  0.68632524  1.0
  H  H31  1  0.28222197  0.73104880  0.31366847  1.0
  H  H32  1  0.79383350  0.31728090  0.72957643  1.0
  H  H33  1  0.29391262  0.68269931  0.27038254  1.0
  H  H34  1  0.09076134  0.27447173  0.83728398  1.0
  H  H35  1  0.59065663  0.72551727  0.16272877  1.0
  H  H36  1  0.35773544  0.31435001  0.74476425  1.0
  H  H37  1  0.85780364  0.68567137  0.25523053  1.0
  H  H38  1  0.13372512  0.34678477  0.76162203  1.0
  H  H39  1  0.63385138  0.65320232  0.23837949  1.0
  H  H40  1  0.63199550  0.15609991  0.03690717  1.0
  H  H41  1  0.48467083  0.20388284  0.06615600  1.0
  H  H42  1  0.34303292  0.14372610  0.97708806  1.0
  H  H43  1  0.19267562  0.19039031  0.00612853  1.0
  H  H44  1  0.44073049  0.27005839  0.97186950  1.0
  H  H45  1  0.34116211  0.24046264  0.91890880  1.0
  H  H46  1  0.58910415  0.22239210  0.94294457  1.0
  H  H47  1  0.13198595  0.84388403  0.96307269  1.0
  H  H48  1  0.98463469  0.79609536  0.93383620  1.0
  H  H49  1  0.84300558  0.85628579  0.02288224  1.0
  H  H50  1  0.69264132  0.80961150  0.99385539  1.0
  H  H51  1  0.94070602  0.72994860  0.02813043  1.0
  H  H52  1  0.84112240  0.75955852  0.08108359  1.0
  H  H53  1  0.08906994  0.77762558  0.05704504  1.0
  H  H54  1  0.70139906  0.33496919  0.45916547  1.0
  H  H55  1  0.53808136  0.28780885  0.43387195  1.0
  H  H56  1  0.42715081  0.35264980  0.52214936  1.0
  H  H57  1  0.26639583  0.30481862  0.49785623  1.0
  H  H58  1  0.51623679  0.22517803  0.53133991  1.0
  H  H59  1  0.43223218  0.25793458  0.58391911  1.0
  H  H60  1  0.67522829  0.27416008  0.55538799  1.0
  H  H61  1  0.20139057  0.66503907  0.54082288  1.0
  H  H62  1  0.03806302  0.71220262  0.56611124  1.0
  H  H63  1  0.92716315  0.64735693  0.47783494  1.0
  H  H64  1  0.76639525  0.69518663  0.50212729  1.0
  H  H65  1  0.01622209  0.77482869  0.46864847  1.0
  H  H66  1  0.93223723  0.74207527  0.41606600  1.0
  H  H67  1  0.17523561  0.72585162  0.44460039  1.0
  H  H68  1  0.32157121  0.24398432  0.82197219  1.0
  H  H69  1  0.82151896  0.75600559  0.17800245  1.0
  H  H70  1  0.59704832  0.11426371  0.76092321  1.0
  H  H71  1  0.41450133  0.11884031  0.70888653  1.0
  H  H72  1  0.35273134  0.06170002  0.82715376  1.0
  H  H73  1  0.16612764  0.06591078  0.77716598  1.0
  H  H74  1  0.40687200  0.01335971  0.72439732  1.0
  H  H75  1  0.33185007  0.97251265  0.78713926  1.0
  H  H76  1  0.57480274  0.00358474  0.78006672  1.0
  H  H77  1  0.09737842  0.88558203  0.23912108  1.0
  H  H78  1  0.91484257  0.88102833  0.29115738  1.0
  H  H79  1  0.85316998  0.93822873  0.17290482  1.0
  H  H80  1  0.66666667  0.93407473  0.22290848  1.0
  H  H81  1  0.90774658  0.98653192  0.27566673  1.0
  H  H82  1  0.83286790  0.02742045  0.21292455  1.0
  H  H83  1  0.07565241  0.99623370  0.21999872  1.0
  H  H84  1  0.34504353  0.24233470  0.68617615  1.0
  H  H85  1  0.84497753  0.75765168  0.31385779  1.0
  H  H86  1  0.16076156  0.09724313  0.26598800  1.0
  H  H87  1  0.28415595  0.10358635  0.32687648  1.0
  H  H88  1  0.47061852  0.06258907  0.23108713  1.0
  H  H89  1  0.61536054  0.07766762  0.28478618  1.0
  H  H90  1  0.42623951  0.00317431  0.35000050  1.0
  H  H91  1  0.53469597  0.97331381  0.29837292  1.0
  H  H92  1  0.27232242  0.98866409  0.29733665  1.0
  H  H93  1  0.65995957  0.90279576  0.73404136  1.0
  H  H94  1  0.78317938  0.89654938  0.67310311  1.0
  H  H95  1  0.96966172  0.93757252  0.76887209  1.0
  H  H96  1  0.11442481  0.92251235  0.71517317  1.0
  H  H97  1  0.92521809  0.99696810  0.64995464  1.0
  H  H98  1  0.03349541  0.02685221  0.70158959  1.0
  H  H99  1  0.77116449  0.01144718  0.70260718  1.0
  H  H100  1  0.59265192  0.44129826  0.47228582  1.0
  H  H101  1  0.09263961  0.55869971  0.52771614  1.0
  H  H102  1  0.49517737  0.05755212  0.02879552  1.0
  H  H103  1  0.99518529  0.94243879  0.97120274  1.0
  C  C104  1  0.51964312  0.91984275  0.07558299  1.0
  C  C105  1  0.01969100  0.08014888  0.92442698  1.0
  C  C106  1  0.60824885  0.58078794  0.42524817  1.0
  C  C107  1  0.10828705  0.41920259  0.57475336  1.0
  C  C108  1  0.61108049  0.55695383  0.56789873  1.0
  C  C109  1  0.11106066  0.44304467  0.43210043  1.0
  C  C110  1  0.22850021  0.12607728  0.11073143  1.0
  C  C111  1  0.72846944  0.87390473  0.88925882  1.0
  C  C112  1  0.23706000  0.16171946  0.14758596  1.0
  C  C113  1  0.73697060  0.83827051  0.85239230  1.0
  C  C114  1  0.06586010  0.17180868  0.17668698  1.0
  C  C115  1  0.56571764  0.82819249  0.82330097  1.0
  C  C116  1  0.88111264  0.14639859  0.16755665  1.0
  C  C117  1  0.38098646  0.85359367  0.83246087  1.0
  C  C118  1  0.87252864  0.11022131  0.13169580  1.0
  C  C119  1  0.37247923  0.88976950  0.86832292  1.0
  C  C120  1  0.04457180  0.09837658  0.10351069  1.0
  C  C121  1  0.54455563  0.90160362  0.89649603  1.0
  C  C122  1  0.93484517  0.25266604  0.21410427  1.0
  C  C123  1  0.43479807  0.74731369  0.78589917  1.0
  C  C124  1  0.94437069  0.28977196  0.24915647  1.0
  C  C125  1  0.44437702  0.71021163  0.75084618  1.0
  C  C126  1  0.09554166  0.28433923  0.28877280  1.0
  C  C127  1  0.59544594  0.71568322  0.71120240  1.0
  C  C128  1  0.23631211  0.24012890  0.29131729  1.0
  C  C129  1  0.73608823  0.75992957  0.70862435  1.0
  C  C130  1  0.22919943  0.20357323  0.25546786  1.0
  C  C131  1  0.72888884  0.79649123  0.74446738  1.0
  C  C132  1  0.07736404  0.20921524  0.21575700  1.0
  C  C133  1  0.57716902  0.79080037  0.78421577  1.0
  C  C134  1  0.27923101  0.33032754  0.35526758  1.0
  C  C135  1  0.77919163  0.66968954  0.64471839  1.0
  C  C136  1  0.28893210  0.36857810  0.38982780  1.0
  C  C137  1  0.78891439  0.63143339  0.61016456  1.0
  C  C138  1  0.11806786  0.40220395  0.39562189  1.0
  C  C139  1  0.61806749  0.59780277  0.60437169  1.0
  C  C140  1  0.94154254  0.39482772  0.36709923  1.0
  C  C141  1  0.44152575  0.60518180  0.63288909  1.0
  C  C142  1  0.93292073  0.35658165  0.33333333  1.0
  C  C143  1  0.43288376  0.64343268  0.66659154  1.0
  C  C144  1  0.10337787  0.32376842  0.32623497  1.0
  C  C145  1  0.60332199  0.67624984  0.67374783  1.0
  C  C146  1  0.17095183  0.18674809  0.74699756  1.0
  C  C147  1  0.67098689  0.81323028  0.25301073  1.0
  C  C148  1  0.84329347  0.22883515  0.77009498  1.0
  C  C149  1  0.34329451  0.77116461  0.22992138  1.0
  C  C150  1  0.86168568  0.27832582  0.72138573  1.0
  C  C151  1  0.36170195  0.72164664  0.27860527  1.0
  C  C152  1  0.10872223  0.37335939  0.62091681  1.0
  C  C153  1  0.60869313  0.62662541  0.37908630  1.0
  C  C154  1  0.05522611  0.20864104  0.79183387  1.0
  C  C155  1  0.55522789  0.79135156  0.20817650  1.0
  C  C156  1  0.18444419  0.23470263  0.69644363  1.0
  C  C157  1  0.68440062  0.76528184  0.30356869  1.0
  C  C158  1  0.08761803  0.28989209  0.70691256  1.0
  C  C159  1  0.58763613  0.71009102  0.29308735  1.0
  C  C160  1  0.19732532  0.30663852  0.75516211  1.0
  C  C161  1  0.69737961  0.69335788  0.24483703  1.0
  C  C162  1  0.17366843  0.25926680  0.80560156  1.0
  C  C163  1  0.67364546  0.74073024  0.19439518  1.0
  C  C164  1  0.10433464  0.33495144  0.65992170  1.0
  C  C165  1  0.60432395  0.66503240  0.34007259  1.0
  C  C166  1  0.03774660  0.16360673  0.83880878  1.0
  C  C167  1  0.53775294  0.83639217  0.16120923  1.0
  C  C168  1  0.02466428  0.12564112  0.87801252  1.0
  C  C169  1  0.52465877  0.87436162  0.12200912  1.0
  C  C170  1  0.52460172  0.94234853  0.93278703  1.0
  C  C171  1  0.02454727  0.05763275  0.06722090  1.0
  C  C172  1  0.47678927  0.16760342  0.04594352  1.0
  C  C173  1  0.34900870  0.18124054  0.99534987  1.0
  C  C174  1  0.43488188  0.23144282  0.95518409  1.0
  C  C175  1  0.97677070  0.83237920  0.95404188  1.0
  C  C176  1  0.84897595  0.81876357  0.00463123  1.0
  C  C177  1  0.93484916  0.76857074  0.04480865  1.0
  C  C178  1  0.54198944  0.32498670  0.45291853  1.0
  C  C179  1  0.42589024  0.31396050  0.50560998  1.0
  C  C180  1  0.51752459  0.26497014  0.54616421  1.0
  C  C181  1  0.04197928  0.67502145  0.54707025  1.0
  C  C182  1  0.92589584  0.68604365  0.49437671  1.0
  C  C183  1  0.01752121  0.73503758  0.45382337  1.0
  C  C184  1  0.43336991  0.11650597  0.75249728  1.0
  C  C185  1  0.33080964  0.06346139  0.78408923  1.0
  C  C186  1  0.41543529  0.01042753  0.76802068  1.0
  C  C187  1  0.93369247  0.88337635  0.24754428  1.0
  C  C188  1  0.83131385  0.93646106  0.21597213  1.0
  C  C189  1  0.91624880  0.98946302  0.23204055  1.0
  C  C190  1  0.30743950  0.10567313  0.28356223  1.0
  C  C191  1  0.46572342  0.06315777  0.27413783  1.0
  C  C192  1  0.42213411  0.00386055  0.30674641  1.0
  C  C193  1  0.80661782  0.89444099  0.71641327  1.0
  C  C194  1  0.96476316  0.93700353  0.72582098  1.0
  C  C195  1  0.92102839  0.99628821  0.69320635  1.0
  O  O196  1  0.43579059  0.54370404  0.55323473  1.0
  O  O197  1  0.93576295  0.45631502  0.44674802  1.0
  O  O198  1  0.78036489  0.56122264  0.44233728  1.0
  O  O199  1  0.28039339  0.43878151  0.55767750  1.0
  O  O200  1  0.77617731  0.53805403  0.55326390  1.0
  O  O201  1  0.27615116  0.46192750  0.44675400  1.0
  O  O202  1  0.93527180  0.43499142  0.55530816  1.0
  O  O203  1  0.43522669  0.56498440  0.44467523  1.0
  O  O204  1  0.18502580  0.03630002  0.05270895  1.0
  O  O205  1  0.68506479  0.96371356  0.94726299  1.0
  O  O206  1  0.60261801  0.46600430  0.49797291  1.0
  O  O207  1  0.10261203  0.53399194  0.50203105  1.0
  O  O208  1  0.34680206  0.93392985  0.05505616  1.0
  O  O209  1  0.84688064  0.06608060  0.94497948  1.0
  O  O210  1  0.51050526  0.03410235  0.00208375  1.0
  O  O211  1  0.01051153  0.96588286  0.99791979  1.0
  O  O212  1  0.69079885  0.94103103  0.05930792  1.0
  O  O213  1  0.19083677  0.05892738  0.94066983  1.0
  O  O214  1  0.34634635  0.95363309  0.94700529  1.0
  O  O215  1  0.84629190  0.04632700  0.05303136  1.0
  O  O216  1  0.40121077  0.11803715  0.08294189  1.0
  O  O217  1  0.90121796  0.88194329  0.91702869  1.0
  O  O218  1  0.46633981  0.37452147  0.41628281  1.0
  O  O219  1  0.96631591  0.62549165  0.58370552  1.0
  O  O220  1  0.36757928  0.16820478  0.76635393  1.0
  O  O221  1  0.86765763  0.83172399  0.23365294  1.0
  O  O222  1  0.37633953  0.16200805  0.25939537  1.0
  O  O223  1  0.87583421  0.83811186  0.74051400  1.0
