# generated using pymatgen
data_CdH7C13NO4
_symmetry_space_group_name_H-M   'P 1'
_cell_length_a   7.79893179
_cell_length_b   17.37606933
_cell_length_c   17.37676316
_cell_angle_alpha   117.77863236
_cell_angle_beta   98.60289953
_cell_angle_gamma   98.58701659
_symmetry_Int_Tables_number   1
_chemical_formula_structural   CdH7C13NO4
_chemical_formula_sum   'Cd6 H42 C78 N6 O24'
_cell_volume   1994.37512836
_cell_formula_units_Z   6
loop_
 _symmetry_equiv_pos_site_id
 _symmetry_equiv_pos_as_xyz
  1  'x, y, z'
loop_
 _atom_site_type_symbol
 _atom_site_label
 _atom_site_symmetry_multiplicity
 _atom_site_fract_x
 _atom_site_fract_y
 _atom_site_fract_z
 _atom_site_occupancy
  Cd  Cd0  1  0.60090884  0.33980275  0.09539367  1.0
  Cd  Cd1  1  0.50537738  0.90485957  0.24440215  1.0
  Cd  Cd2  1  0.26080192  0.75563250  0.66019617  1.0
  Cd  Cd3  1  0.39908972  0.66019801  0.90460563  1.0
  Cd  Cd4  1  0.49462361  0.09514035  0.75559766  1.0
  Cd  Cd5  1  0.73919550  0.24436677  0.33980232  1.0
  H  H6  1  0.22626015  0.31699252  0.18061301  1.0
  H  H7  1  0.04536490  0.81958951  0.13644565  1.0
  H  H8  1  0.90877291  0.86358750  0.68299176  1.0
  H  H9  1  0.77373485  0.68300590  0.81938665  1.0
  H  H10  1  0.95463203  0.18040895  0.86355002  1.0
  H  H11  1  0.09122751  0.13641016  0.31700915  1.0
  H  H12  1  0.10423220  0.57127503  0.32489787  1.0
  H  H13  1  0.77883062  0.67503269  0.24621585  1.0
  H  H14  1  0.53302389  0.75364971  0.42861219  1.0
  H  H15  1  0.89576401  0.42872399  0.67510104  1.0
  H  H16  1  0.22116965  0.32496946  0.75378552  1.0
  H  H17  1  0.46697952  0.24635004  0.57138745  1.0
  H  H18  1  0.40250598  0.63200353  0.43057238  1.0
  H  H19  1  0.97148207  0.56931217  0.20128206  1.0
  H  H20  1  0.77063901  0.79854095  0.36788001  1.0
  H  H21  1  0.59749145  0.36799642  0.56942544  1.0
  H  H22  1  0.02852412  0.43069069  0.79872271  1.0
  H  H23  1  0.22936804  0.20145720  0.63212072  1.0
  H  H24  1  0.11443415  0.61574677  0.46820057  1.0
  H  H25  1  0.64584074  0.53173307  0.14744792  1.0
  H  H26  1  0.49881835  0.85280833  0.38429400  1.0
  H  H27  1  0.88556279  0.38424935  0.53179746  1.0
  H  H28  1  0.35416559  0.46827034  0.85255135  1.0
  H  H29  1  0.50118441  0.14719308  0.61570529  1.0
  H  H30  1  0.83846276  0.52296197  0.34408741  1.0
  H  H31  1  0.49378013  0.65585143  0.17884101  1.0
  H  H32  1  0.31555140  0.82128529  0.47701640  1.0
  H  H33  1  0.16153232  0.47703489  0.65591136  1.0
  H  H34  1  0.50622377  0.34415215  0.82115843  1.0
  H  H35  1  0.68445557  0.17871578  0.52298389  1.0
  H  H36  1  0.53864793  0.59774999  0.54732004  1.0
  H  H37  1  0.99105538  0.45258617  0.05034498  1.0
  H  H38  1  0.94042406  0.94946022  0.40199531  1.0
  H  H39  1  0.46134885  0.40225027  0.45267877  1.0
  H  H40  1  0.00894552  0.54741498  0.94965606  1.0
  H  H41  1  0.05957579  0.05053687  0.59800503  1.0
  H  H42  1  0.82453263  0.68887376  0.66152677  1.0
  H  H43  1  0.16290977  0.33837514  0.02728722  1.0
  H  H44  1  0.13522637  0.97268063  0.31090864  1.0
  H  H45  1  0.17546464  0.31112730  0.33847486  1.0
  H  H46  1  0.83709528  0.66162758  0.97271539  1.0
  H  H47  1  0.86477277  0.02731869  0.68909326  1.0
  C  C48  1  0.48931190  0.50982670  0.36561193  1.0
  C  C49  1  0.12319041  0.63434159  0.14409434  1.0
  C  C50  1  0.97937526  0.85582376  0.49012350  1.0
  C  C51  1  0.51068844  0.49017388  0.63438854  1.0
  C  C52  1  0.87681163  0.36566139  0.85590718  1.0
  C  C53  1  0.02062873  0.14417589  0.50987739  1.0
  C  C54  1  0.43987832  0.42119342  0.29135136  1.0
  C  C55  1  0.14806856  0.70868461  0.12979350  1.0
  C  C56  1  0.01829900  0.87019838  0.57879161  1.0
  C  C57  1  0.56012016  0.57880757  0.70865019  1.0
  C  C58  1  0.85193000  0.29131514  0.87020681  1.0
  C  C59  1  0.98170442  0.12980037  0.42120904  1.0
  C  C60  1  0.26690403  0.38680316  0.23471807  1.0
  C  C61  1  0.03181787  0.76540065  0.15208103  1.0
  C  C62  1  0.87965826  0.84793250  0.61317096  1.0
  C  C63  1  0.73309331  0.61319667  0.76528232  1.0
  C  C64  1  0.96818019  0.23459930  0.84791545  1.0
  C  C65  1  0.12034394  0.15206666  0.38682944  1.0
  C  C66  1  0.14228346  0.43891155  0.24794327  1.0
  C  C67  1  0.89393263  0.75213535  0.19093444  1.0
  C  C68  1  0.70301735  0.80906233  0.56103108  1.0
  C  C69  1  0.85771218  0.56108656  0.75205540  1.0
  C  C70  1  0.10606601  0.24786317  0.80906464  1.0
  C  C71  1  0.29698420  0.19093782  0.43896964  1.0
  C  C72  1  0.19676815  0.52860100  0.31665686  1.0
  C  C73  1  0.87960914  0.68329189  0.21179675  1.0
  C  C74  1  0.66813832  0.78809172  0.47131868  1.0
  C  C75  1  0.80322863  0.47139826  0.68334296  1.0
  C  C76  1  0.12038820  0.31670929  0.78820230  1.0
  C  C77  1  0.33186453  0.21190713  0.52868073  1.0
  C  C78  1  0.36601173  0.56283138  0.37523466  1.0
  C  C79  1  0.99024709  0.62466944  0.18742493  1.0
  C  C80  1  0.80322430  0.81240143  0.43708008  1.0
  C  C81  1  0.63398514  0.43716699  0.62476360  1.0
  C  C82  1  0.00975438  0.37533195  0.81257702  1.0
  C  C83  1  0.19677847  0.18759864  0.56292056  1.0
  C  C84  1  0.55522545  0.35613738  0.27535539  1.0
  C  C85  1  0.27953601  0.72467131  0.08078251  1.0
  C  C86  1  0.19858200  0.91922856  0.64388696  1.0
  C  C87  1  0.44477076  0.64386130  0.72464385  1.0
  C  C88  1  0.72046263  0.27532789  0.91921590  1.0
  C  C89  1  0.80141963  0.08076902  0.35611387  1.0
  C  C90  1  0.95362847  0.39928519  0.19074890  1.0
  C  C91  1  0.76258246  0.80943382  0.20857994  1.0
  C  C92  1  0.55384152  0.79150506  0.60061229  1.0
  C  C93  1  0.04636766  0.60071506  0.80925124  1.0
  C  C94  1  0.23742038  0.19056704  0.79141745  1.0
  C  C95  1  0.44615825  0.20849528  0.39938727  1.0
  C  C96  1  0.98344756  0.60980917  0.48249776  1.0
  C  C97  1  0.50055054  0.51742116  0.12721920  1.0
  C  C98  1  0.37370337  0.87297740  0.39020928  1.0
  C  C99  1  0.01654629  0.39018811  0.51750075  1.0
  C  C100  1  0.49945457  0.48258166  0.87278082  1.0
  C  C101  1  0.62629763  0.12702286  0.60979020  1.0
  C  C102  1  0.82932899  0.55760225  0.41374490  1.0
  C  C103  1  0.41508380  0.58619160  0.14380250  1.0
  C  C104  1  0.27172757  0.85631257  0.44236733  1.0
  C  C105  1  0.17066666  0.44239553  0.58625411  1.0
  C  C106  1  0.58491946  0.41381197  0.85619827  1.0
  C  C107  1  0.72827884  0.14368726  0.55763306  1.0
  C  C108  1  0.66273734  0.55319822  0.43480692  1.0
  C  C109  1  0.22744606  0.56512256  0.11827765  1.0
  C  C110  1  0.10941354  0.88169199  0.44673292  1.0
  C  C111  1  0.33726000  0.44680228  0.56519280  1.0
  C  C112  1  0.77255663  0.43487942  0.88172355  1.0
  C  C113  1  0.89058931  0.11830651  0.55326682  1.0
  C  C114  1  0.66316215  0.59917495  0.52609788  1.0
  C  C115  1  0.13678000  0.47382315  0.07299740  1.0
  C  C116  1  0.06365273  0.92691931  0.40065674  1.0
  C  C117  1  0.33683512  0.40082679  0.47390308  1.0
  C  C118  1  0.86322447  0.52617899  0.92700463  1.0
  C  C119  1  0.93635005  0.07307976  0.59934491  1.0
  C  C120  1  0.82369469  0.65028329  0.59082384  1.0
  C  C121  1  0.23266369  0.40907611  0.05938860  1.0
  C  C122  1  0.17311885  0.94063091  0.34957478  1.0
  C  C123  1  0.17630274  0.34971531  0.40917532  1.0
  C  C124  1  0.76734142  0.59092503  0.94061310  1.0
  C  C125  1  0.82688271  0.05936926  0.65042595  1.0
  N  N126  1  0.98230110  0.65746493  0.56982753  1.0
  N  N127  1  0.41225671  0.43007580  0.08753310  1.0
  N  N128  1  0.32474864  0.91261814  0.34249882  1.0
  N  N129  1  0.01769389  0.34253350  0.43017213  1.0
  N  N130  1  0.58774654  0.56992776  0.91246766  1.0
  N  N131  1  0.67525113  0.08738221  0.65750074  1.0
  O  O132  1  0.64743731  0.36128598  0.34523707  1.0
  O  O133  1  0.30176542  0.65478452  0.01604225  1.0
  O  O134  1  0.28572006  0.98390975  0.63869301  1.0
  O  O135  1  0.35256011  0.63871295  0.65476175  1.0
  O  O136  1  0.69822965  0.34521368  0.98395517  1.0
  O  O137  1  0.71428757  0.01608731  0.36130999  1.0
  O  O138  1  0.54905165  0.29682278  0.19524644  1.0
  O  O139  1  0.35370361  0.80478210  0.10165627  1.0
  O  O140  1  0.25157828  0.89841912  0.70324977  1.0
  O  O141  1  0.45094457  0.70317624  0.80475247  1.0
  O  O142  1  0.64629867  0.19521650  0.89834222  1.0
  O  O143  1  0.74841664  0.10157887  0.29675281  1.0
  O  O144  1  0.90430888  0.31706154  0.13138053  1.0
  O  O145  1  0.77276958  0.86892141  0.18580868  1.0
  O  O146  1  0.58657486  0.81427030  0.68283930  1.0
  O  O147  1  0.09568604  0.68293913  0.86861936  1.0
  O  O148  1  0.22723204  0.13107886  0.81418946  1.0
  O  O149  1  0.41342370  0.18573012  0.31716034  1.0
  O  O150  1  0.84773699  0.45243791  0.20586367  1.0
  O  O151  1  0.64160092  0.79430077  0.24659207  1.0
  O  O152  1  0.39491492  0.75356114  0.54745548  1.0
  O  O153  1  0.15226343  0.54756210  0.79413489  1.0
  O  O154  1  0.35839892  0.20569799  0.75340658  1.0
  O  O155  1  0.60508535  0.24644169  0.45254522  1.0
