# generated using pymatgen
data_Zn4H27C45O16
_symmetry_space_group_name_H-M   'P 1'
_cell_length_a   18.15103383
_cell_length_b   18.18397911
_cell_length_c   18.32857590
_cell_angle_alpha   90.15275538
_cell_angle_beta   119.56488214
_cell_angle_gamma   119.50853735
_symmetry_Int_Tables_number   1
_chemical_formula_structural   Zn4H27C45O16
_chemical_formula_sum   'Zn8 H54 C90 O32'
_cell_volume   4331.35298532
_cell_formula_units_Z   2
loop_
 _symmetry_equiv_pos_site_id
 _symmetry_equiv_pos_as_xyz
  1  'x, y, z'
loop_
 _atom_site_type_symbol
 _atom_site_label
 _atom_site_symmetry_multiplicity
 _atom_site_fract_x
 _atom_site_fract_y
 _atom_site_fract_z
 _atom_site_occupancy
  Zn  Zn0  1  0.59182382  0.38083017  0.79087957  1.0
  Zn  Zn1  1  0.40816331  0.61920110  0.20905289  1.0
  Zn  Zn2  1  0.41247516  0.20589327  0.79101598  1.0
  Zn  Zn3  1  0.58761921  0.79419753  0.20903368  1.0
  Zn  Zn4  1  0.59009889  0.20712869  0.79263420  1.0
  Zn  Zn5  1  0.40989323  0.79288463  0.20734360  1.0
  Zn  Zn6  1  0.41324429  0.20652483  0.61683947  1.0
  Zn  Zn7  1  0.58674766  0.79349732  0.38312877  1.0
  H  H8  1  0.66646732  0.59871520  0.52087378  1.0
  H  H9  1  0.84327310  0.77218128  0.33745546  1.0
  H  H10  1  0.22639527  0.31044213  0.81387652  1.0
  H  H11  1  0.77246908  0.68870526  0.18632445  1.0
  H  H12  1  0.89838016  0.97615489  0.56116320  1.0
  H  H13  1  0.10167280  0.02354606  0.43895344  1.0
  H  H14  1  0.54974635  0.87169885  0.68703427  1.0
  H  H15  1  0.45025055  0.12837506  0.31295404  1.0
  H  H16  1  0.40245641  0.88261338  0.64144426  1.0
  H  H17  1  0.59739342  0.11723452  0.35854111  1.0
  H  H18  1  0.38770002  0.93561445  0.75529407  1.0
  H  H19  1  0.33347071  0.40130761  0.47904651  1.0
  H  H20  1  0.61215529  0.06422353  0.24470752  1.0
  H  H21  1  0.68285075  0.91505180  0.84783691  1.0
  H  H22  1  0.31729016  0.08523893  0.15214854  1.0
  H  H23  1  0.75949005  0.72904884  0.82005348  1.0
  H  H24  1  0.24045397  0.27088326  0.17979480  1.0
  H  H25  1  0.48069666  0.59273470  0.81046441  1.0
  H  H26  1  0.51936795  0.40746381  0.18957354  1.0
  H  H27  1  0.58209665  0.66150120  0.02171515  1.0
  H  H28  1  0.41789584  0.33856347  0.97823229  1.0
  H  H29  1  0.36764069  0.40768398  0.34266106  1.0
  H  H30  1  0.20981232  0.22936708  0.91989824  1.0
  H  H31  1  0.63230243  0.59234124  0.65726839  1.0
  H  H32  1  0.07190975  0.47068550  0.92944611  1.0
  H  H33  1  0.92807340  0.52935340  0.07054442  1.0
  H  H34  1  0.93629617  0.52757103  0.85747291  1.0
  H  H35  1  0.06368783  0.47246842  0.14251308  1.0
  H  H36  1  0.05772678  0.65730462  0.02650842  1.0
  H  H37  1  0.94226065  0.34274153  0.97348172  1.0
  H  H38  1  0.45936937  0.85739690  0.52703623  1.0
  H  H39  1  0.54066228  0.14263751  0.47295365  1.0
  H  H40  1  0.37169034  0.97009104  0.34430616  1.0
  H  H41  1  0.79049897  0.76968727  0.08060456  1.0
  H  H42  1  0.62834258  0.02993719  0.65568834  1.0
  H  H43  1  0.66791640  0.96841300  0.96146248  1.0
  H  H44  1  0.33222134  0.03186062  0.03853318  1.0
  H  H45  1  0.52588901  0.38384559  0.39377835  1.0
  H  H46  1  0.47411274  0.61621319  0.60617699  1.0
  H  H47  1  0.53691096  0.88711179  0.99521317  1.0
  H  H48  1  0.46310103  0.11292646  0.00478535  1.0
  H  H49  1  0.84207268  0.68802181  0.95286971  1.0
  H  H50  1  0.15782389  0.31181599  0.04691704  1.0
  H  H51  1  0.70792654  0.55368844  0.03885564  1.0
  H  H52  1  0.12184464  0.06422414  0.87356684  1.0
  H  H53  1  0.29203571  0.44637806  0.96109589  1.0
  H  H54  1  0.61649701  0.73008900  0.72575756  1.0
  H  H55  1  0.38352221  0.27001246  0.27421214  1.0
  H  H56  1  0.32910724  0.91941665  0.47307296  1.0
  H  H57  1  0.67092816  0.08061357  0.52691998  1.0
  H  H58  1  0.87980968  0.93498618  0.12708513  1.0
  H  H59  1  0.04913492  0.98090935  0.72148661  1.0
  H  H60  1  0.95232127  0.01855543  0.27898775  1.0
  H  H61  1  0.15554407  0.22724058  0.66260330  1.0
  C  C62  1  0.22264355  0.11752661  0.60866353  1.0
  C  C63  1  0.89582867  0.44486314  0.94698574  1.0
  C  C64  1  0.03106102  0.58714362  0.01416676  1.0
  C  C65  1  0.96892609  0.41290046  0.98582170  1.0
  C  C66  1  0.40487177  0.95451594  0.48426780  1.0
  C  C67  1  0.59516591  0.04551827  0.51572678  1.0
  C  C68  1  0.47752170  0.92162339  0.51625657  1.0
  C  C69  1  0.52251333  0.07840909  0.48372927  1.0
  C  C70  1  0.50042607  0.95096419  0.44470941  1.0
  C  C71  1  0.49961345  0.04907367  0.55528366  1.0
  C  C72  1  0.42825649  0.98382668  0.41378966  1.0
  C  C73  1  0.77739083  0.88235281  0.39138827  1.0
  C  C74  1  0.57178001  0.01620920  0.58620442  1.0
  C  C75  1  0.12885449  0.10017225  0.82727260  1.0
  C  C76  1  0.87213330  0.89908502  0.17323561  1.0
  C  C77  1  0.78193139  0.38846134  0.88926809  1.0
  C  C78  1  0.21805060  0.61156492  0.11072323  1.0
  C  C79  1  0.08765993  0.05319406  0.74181527  1.0
  C  C80  1  0.91323873  0.94619948  0.25859359  1.0
  C  C81  1  0.09754477  0.09843370  0.68196657  1.0
  C  C82  1  0.90257119  0.90104223  0.31828480  1.0
  C  C83  1  0.14816388  0.19153575  0.70897812  1.0
  C  C84  1  0.42605195  0.44776956  0.41276254  1.0
  C  C85  1  0.85125134  0.80784628  0.29120301  1.0
  C  C86  1  0.18803055  0.23819184  0.79392641  1.0
  C  C87  1  0.81144185  0.76104275  0.20634628  1.0
  C  C88  1  0.17883113  0.19278518  0.85356096  1.0
  C  C89  1  0.82143549  0.80637950  0.14687544  1.0
  C  C90  1  0.94412314  0.98618116  0.53526616  1.0
  C  C91  1  0.05592961  0.01351759  0.46485498  1.0
  C  C92  1  0.89266174  0.93904286  0.44642390  1.0
  C  C93  1  0.10737793  0.06068182  0.55368225  1.0
  C  C94  1  0.94912478  0.95181167  0.40984255  1.0
  C  C95  1  0.57389523  0.55225625  0.58716356  1.0
  C  C96  1  0.05093827  0.04782588  0.59030746  1.0
  C  C97  1  0.46122889  0.90193394  0.71164740  1.0
  C  C98  1  0.53867535  0.09800409  0.28833971  1.0
  C  C99  1  0.45309737  0.93209830  0.77558103  1.0
  C  C100  1  0.54681239  0.06783805  0.22441092  1.0
  C  C101  1  0.50100273  0.38754032  0.88802246  1.0
  C  C102  1  0.49893811  0.61249801  0.11190141  1.0
  C  C103  1  0.52727003  0.95625208  0.86622184  1.0
  C  C104  1  0.47271952  0.04379265  0.13376705  1.0
  C  C105  1  0.60958505  0.94928939  0.89115833  1.0
  C  C106  1  0.96609748  0.51619812  0.92147909  1.0
  C  C107  1  0.39048952  0.05089016  0.10883489  1.0
  C  C108  1  0.61796340  0.91948388  0.82717326  1.0
  C  C109  1  0.38211316  0.08070327  0.17281997  1.0
  C  C110  1  0.54369858  0.89550507  0.73721163  1.0
  C  C111  1  0.45629013  0.10456196  0.26277586  1.0
  C  C112  1  0.52232321  0.93818578  0.99752671  1.0
  C  C113  1  0.47767308  0.06184404  0.00246817  1.0
  C  C114  1  0.50585371  0.95362018  0.06118983  1.0
  C  C115  1  0.49413831  0.04640519  0.93880277  1.0
  C  C116  1  0.48382961  0.01737506  0.06520356  1.0
  C  C117  1  0.03388638  0.48384461  0.07851015  1.0
  C  C118  1  0.51616032  0.98265446  0.93478967  1.0
  C  C119  1  0.76308996  0.66786078  0.92140983  1.0
  C  C120  1  0.23684833  0.33206801  0.07844078  1.0
  C  C121  1  0.70824888  0.61732485  0.95561833  1.0
  C  C122  1  0.29170832  0.38264880  0.04426226  1.0
  C  C123  1  0.60553458  0.58929278  0.91568513  1.0
  C  C124  1  0.39446622  0.41077546  0.08425987  1.0
  C  C125  1  0.49849103  0.10594817  0.61204763  1.0
  C  C126  1  0.50155300  0.89409485  0.38794392  1.0
  C  C127  1  0.55970762  0.61302459  0.84169777  1.0
  C  C128  1  0.03844761  0.48295282  0.95987898  1.0
  C  C129  1  0.44032155  0.38710087  0.15828742  1.0
  C  C130  1  0.61476125  0.66291113  0.80730504  1.0
  C  C131  1  0.38524569  0.33716966  0.19264820  1.0
  C  C132  1  0.71644955  0.69045165  0.84716694  1.0
  C  C133  1  0.28351228  0.30952546  0.15271358  1.0
  C  C134  1  0.54548760  0.59005285  0.01097940  1.0
  C  C135  1  0.45450282  0.41000867  0.98896595  1.0
  C  C136  1  0.49693825  0.55189906  0.05398936  1.0
  C  C137  1  0.50305499  0.44817218  0.94595617  1.0
  C  C138  1  0.45003889  0.45956939  0.04334567  1.0
  C  C139  1  0.96153782  0.51708866  0.04011182  1.0
  C  C140  1  0.54995845  0.54050526  0.95660129  1.0
  C  C141  1  0.49627942  0.10600361  0.88280859  1.0
  C  C142  1  0.50371739  0.89401752  0.11718070  1.0
  C  C143  1  0.50810291  0.39013329  0.60962005  1.0
  C  C144  1  0.49185068  0.60988983  0.39030909  1.0
  C  C145  1  0.52460283  0.44887171  0.47648747  1.0
  C  C146  1  0.47534136  0.55115063  0.52344034  1.0
  C  C147  1  0.59282254  0.55444435  0.51259506  1.0
  C  C148  1  0.40711839  0.44557800  0.48732948  1.0
  C  C149  1  0.49299314  0.55180803  0.44666941  1.0
  C  C150  1  0.10415548  0.55517599  0.05300512  1.0
  C  C151  1  0.50694438  0.44821338  0.55325643  1.0
  O  O152  1  0.50052952  0.25008346  0.74753029  1.0
  O  O153  1  0.26316787  0.69607264  0.12954550  1.0
  O  O154  1  0.26613358  0.14914197  0.56830297  1.0
  O  O155  1  0.73383101  0.85065952  0.43167848  1.0
  O  O156  1  0.73870528  0.43019103  0.86349315  1.0
  O  O157  1  0.26127181  0.56984368  0.13654724  1.0
  O  O158  1  0.43373362  0.30402887  0.86328084  1.0
  O  O159  1  0.56634966  0.69601634  0.13680533  1.0
  O  O160  1  0.57076310  0.13939844  0.69450616  1.0
  O  O161  1  0.42923025  0.86058492  0.30549631  1.0
  O  O162  1  0.43567048  0.13049142  0.86322496  1.0
  O  O163  1  0.49948383  0.74995191  0.25243857  1.0
  O  O164  1  0.56435371  0.86955174  0.13678042  1.0
  O  O165  1  0.45161084  0.30607661  0.56986023  1.0
  O  O166  1  0.54821704  0.69393884  0.43006696  1.0
  O  O167  1  0.56056676  0.12990702  0.86250917  1.0
  O  O168  1  0.43941574  0.87009741  0.13746299  1.0
  O  O169  1  0.56393500  0.42964484  0.69329754  1.0
  O  O170  1  0.43617098  0.57039822  0.30664417  1.0
  O  O171  1  0.55053185  0.39576676  0.45659235  1.0
  O  O172  1  0.44941719  0.60425305  0.54334974  1.0
  O  O173  1  0.75824592  0.59724662  0.02874368  1.0
  O  O174  1  0.56695152  0.42475166  0.86943883  1.0
  O  O175  1  0.24168247  0.40266815  0.97109559  1.0
  O  O176  1  0.56495950  0.68348811  0.73284075  1.0
  O  O177  1  0.43506196  0.31662923  0.26714409  1.0
  O  O178  1  0.43284833  0.57528577  0.13031207  1.0
  O  O179  1  0.42598543  0.11768810  0.57267962  1.0
  O  O180  1  0.57411530  0.88242267  0.42729225  1.0
  O  O181  1  0.26799035  0.12725403  0.69116121  1.0
  O  O182  1  0.73211247  0.87284529  0.30892797  1.0
  O  O183  1  0.73682983  0.30396099  0.87040362  1.0
