# generated using pymatgen
data_AlH12C27(NO6)3
_symmetry_space_group_name_H-M   'P 1'
_cell_length_a   4.21385636
_cell_length_b   27.98900067
_cell_length_c   27.98905901
_cell_angle_alpha   59.99991433
_cell_angle_beta   90.00048563
_cell_angle_gamma   89.99896079
_symmetry_Int_Tables_number   1
_chemical_formula_structural   AlH12C27(NO6)3
_chemical_formula_sum   'Al2 H24 C54 N6 O36'
_cell_volume   2858.81251382
_cell_formula_units_Z   2
loop_
 _symmetry_equiv_pos_site_id
 _symmetry_equiv_pos_as_xyz
  1  'x, y, z'
loop_
 _atom_site_type_symbol
 _atom_site_label
 _atom_site_symmetry_multiplicity
 _atom_site_fract_x
 _atom_site_fract_y
 _atom_site_fract_z
 _atom_site_occupancy
  Al  Al0  1  0.00113517  0.49999225  0.00000110  1.0
  Al  Al1  1  0.02406535  0.16666854  0.66666834  1.0
  H  H2  1  0.73797845  0.30107402  0.51150401  1.0
  H  H3  1  0.70147157  0.34975395  0.40814499  1.0
  H  H4  1  0.56395704  0.45987795  0.25335916  1.0
  H  H5  1  0.53351960  0.30210616  0.26120407  1.0
  H  H6  1  0.73799116  0.18742803  0.80107191  1.0
  H  H7  1  0.70143610  0.24210309  0.84975622  1.0
  H  H8  1  0.56405407  0.28675343  0.95987614  1.0
  H  H9  1  0.53357914  0.43668774  0.80211880  1.0
  H  H10  1  0.73798193  0.01150404  0.68741801  1.0
  H  H11  1  0.70145458  0.90814545  0.74210204  1.0
  H  H12  1  0.56403762  0.75335648  0.78676475  1.0
  H  H13  1  0.53346609  0.76120097  0.93669557  1.0
  H  H14  1  0.65224563  0.10742800  0.55335119  1.0
  H  H15  1  0.27898126  0.25478738  0.34450625  1.0
  H  H16  1  0.95624833  0.51147825  0.10536952  1.0
  H  H17  1  0.15559903  0.33242319  0.13321416  1.0
  H  H18  1  0.65219522  0.33923225  0.60742308  1.0
  H  H19  1  0.27901267  0.40071442  0.75479225  1.0
  H  H20  1  0.95625103  0.38313467  0.01148062  1.0
  H  H21  1  0.15546203  0.53434788  0.83243455  1.0
  H  H22  1  0.65233058  0.05335103  0.83922499  1.0
  H  H23  1  0.27904463  0.84450414  0.90070417  1.0
  H  H24  1  0.95626721  0.60537425  0.88315237  1.0
  H  H25  1  0.15539772  0.63321432  0.03435248  1.0
  C  C26  1  0.50477899  0.58580816  0.95421244  1.0
  C  C27  1  0.50478557  0.45997746  0.08581209  1.0
  C  C28  1  0.50477048  0.45419874  0.95998800  1.0
  C  C29  1  0.52541165  0.20114690  0.58363849  1.0
  C  C30  1  0.52540702  0.21522749  0.70114425  1.0
  C  C31  1  0.52543908  0.08363725  0.71522328  1.0
  C  C32  1  0.51628606  0.22701849  0.52232957  1.0
  C  C33  1  0.63656129  0.28073715  0.49049742  1.0
  C  C34  1  0.61914408  0.30749110  0.43360694  1.0
  C  C35  1  0.49147812  0.27973855  0.40777549  1.0
  C  C36  1  0.38699375  0.22417808  0.43916747  1.0
  C  C37  1  0.39247174  0.19850524  0.49694410  1.0
  C  C38  1  0.54032399  0.43553851  0.23297030  1.0
  C  C39  1  0.51940928  0.37798792  0.26445362  1.0
  C  C40  1  0.51581748  0.34696173  0.23765331  1.0
  C  C41  1  0.51314448  0.37352229  0.18023850  1.0
  C  C42  1  0.51549657  0.43174929  0.14804267  1.0
  C  C43  1  0.54511445  0.46234010  0.17546928  1.0
  C  C44  1  0.51628333  0.25065507  0.72702206  1.0
  C  C45  1  0.63655376  0.22877131  0.78073539  1.0
  C  C46  1  0.61912923  0.25890911  0.80749111  1.0
  C  C47  1  0.49146068  0.31249199  0.77973910  1.0
  C  C48  1  0.38695954  0.33665643  0.72417565  1.0
  C  C49  1  0.39244504  0.30455188  0.69850163  1.0
  C  C50  1  0.54038590  0.33148566  0.93553739  1.0
  C  C51  1  0.51947310  0.35755793  0.87798806  1.0
  C  C52  1  0.51579751  0.41538284  0.84696800  1.0
  C  C53  1  0.51311003  0.44623289  0.87353108  1.0
  C  C54  1  0.51547688  0.42020100  0.93175285  1.0
  C  C55  1  0.54513342  0.36217784  0.96234760  1.0
  C  C56  1  0.51632388  0.02233048  0.75065393  1.0
  C  C57  1  0.63659890  0.99050390  0.72876267  1.0
  C  C58  1  0.61918921  0.93361075  0.75890395  1.0
  C  C59  1  0.49151826  0.90777973  0.81248054  1.0
  C  C60  1  0.38703794  0.93916250  0.83665723  1.0
  C  C61  1  0.39250596  0.99694399  0.80455424  1.0
  C  C62  1  0.54037534  0.73297031  0.83149718  1.0
  C  C63  1  0.51943612  0.76445379  0.85756805  1.0
  C  C64  1  0.51577053  0.73765172  0.91539086  1.0
  C  C65  1  0.51309324  0.68023348  0.94623929  1.0
  C  C66  1  0.51550790  0.64804049  0.92020551  1.0
  C  C67  1  0.54514016  0.67546690  0.86219008  1.0
  C  C68  1  0.24298362  0.14182088  0.53170369  1.0
  C  C69  1  0.27640999  0.18942630  0.41468018  1.0
  C  C70  1  0.62051362  0.52290576  0.14760375  1.0
  C  C71  1  0.58629973  0.33885024  0.15444866  1.0
  C  C72  1  0.24295425  0.32648267  0.64182033  1.0
  C  C73  1  0.27638880  0.39590174  0.68941973  1.0
  C  C74  1  0.62050751  0.32947233  0.02290994  1.0
  C  C75  1  0.58617149  0.50669170  0.83886294  1.0
  C  C76  1  0.24306508  0.03170160  0.82648298  1.0
  C  C77  1  0.27651763  0.91467765  0.89590399  1.0
  C  C78  1  0.62056351  0.64760677  0.82949119  1.0
  C  C79  1  0.58616497  0.65444386  0.00670382  1.0
  N  N80  1  0.45978190  0.30499390  0.35013579  1.0
  N  N81  1  0.54009642  0.35523373  0.32199511  1.0
  N  N82  1  0.45978300  0.34486907  0.80500175  1.0
  N  N83  1  0.54017531  0.32277067  0.85523702  1.0
  N  N84  1  0.45979163  0.85013403  0.84486938  1.0
  N  N85  1  0.54014428  0.82199288  0.82277358  1.0
  O  O86  1  0.26229549  0.44789530  0.99034745  1.0
  O  O87  1  0.26232301  0.56175178  0.94790451  1.0
  O  O88  1  0.26231394  0.49033924  0.06175723  1.0
  O  O89  1  0.73389804  0.48711804  0.95153634  1.0
  O  O90  1  0.73392466  0.45152891  0.06134309  1.0
  O  O91  1  0.73394441  0.56134134  0.98712481  1.0
  O  O92  1  0.29325363  0.11004542  0.71996803  1.0
  O  O93  1  0.29322316  0.16999756  0.61004078  1.0
  O  O94  1  0.29320761  0.21996485  0.66999887  1.0
  O  O95  1  0.76250006  0.10416221  0.68290622  1.0
  O  O96  1  0.76248430  0.18291461  0.71293716  1.0
  O  O97  1  0.76248889  0.21293186  0.60416305  1.0
  O  O98  1  0.41672583  0.09794341  0.56126523  1.0
  O  O99  1  0.95060161  0.14079025  0.53425535  1.0
  O  O100  1  0.20549797  0.21538457  0.36072245  1.0
  O  O101  1  0.25141535  0.13954622  0.44392907  1.0
  O  O102  1  0.83963603  0.54135659  0.10635487  1.0
  O  O103  1  0.50482485  0.55298400  0.16233911  1.0
  O  O104  1  0.38733656  0.33253727  0.12238337  1.0
  O  O105  1  0.85490556  0.31844561  0.16441648  1.0
  O  O106  1  0.41665764  0.34080260  0.59794340  1.0
  O  O107  1  0.95053895  0.32496264  0.64079473  1.0
  O  O108  1  0.20556437  0.42390175  0.71538490  1.0
  O  O109  1  0.25135444  0.41653462  0.63954720  1.0
  O  O110  1  0.83967407  0.35225865  0.04136466  1.0
  O  O111  1  0.50472164  0.28465925  0.05298295  1.0
  O  O112  1  0.38719448  0.54505946  0.83255994  1.0
  O  O113  1  0.85481731  0.51714280  0.81844525  1.0
  O  O114  1  0.41680242  0.06126596  0.84079475  1.0
  O  O115  1  0.95070647  0.03425112  0.82496271  1.0
  O  O116  1  0.20561751  0.86071831  0.92389783  1.0
  O  O117  1  0.25154645  0.94392296  0.91653161  1.0
  O  O118  1  0.83968660  0.60635680  0.85228774  1.0
  O  O119  1  0.50485262  0.66234646  0.78467478  1.0
  O  O120  1  0.38718162  0.62237517  0.04506653  1.0
  O  O121  1  0.85477847  0.66441710  0.01715138  1.0
