# generated using pymatgen
data_Zn4H4C24O13F4
_symmetry_space_group_name_H-M   'P 1'
_cell_length_a   15.96292211
_cell_length_b   15.96277206
_cell_length_c   16.86270633
_cell_angle_alpha   116.63285152
_cell_angle_beta   116.63308714
_cell_angle_gamma   90.47204015
_symmetry_Int_Tables_number   1
_chemical_formula_structural   Zn4H4C24O13F4
_chemical_formula_sum   'Zn8 H8 C48 O26 F8'
_cell_volume   3313.63949241
_cell_formula_units_Z   2
loop_
 _symmetry_equiv_pos_site_id
 _symmetry_equiv_pos_as_xyz
  1  'x, y, z'
loop_
 _atom_site_type_symbol
 _atom_site_label
 _atom_site_symmetry_multiplicity
 _atom_site_fract_x
 _atom_site_fract_y
 _atom_site_fract_z
 _atom_site_occupancy
  Zn  Zn0  1  0.79431727  0.19153510  0.58782001  1.0
  Zn  Zn1  1  0.20568322  0.80846347  0.41218557  1.0
  Zn  Zn2  1  0.19153426  0.79431601  0.58781749  1.0
  Zn  Zn3  1  0.80846197  0.20567964  0.41218089  1.0
  Zn  Zn4  1  0.79002344  0.39139117  0.58727727  1.0
  Zn  Zn5  1  0.20998125  0.60860739  0.41272415  1.0
  Zn  Zn6  1  0.39139249  0.79001976  0.58727539  1.0
  Zn  Zn7  1  0.60861048  0.20998025  0.41272591  1.0
  H  H8  1  0.87978952  0.24873539  0.82564845  1.0
  H  H9  1  0.12021229  0.75126826  0.17435627  1.0
  H  H10  1  0.24873662  0.87979851  0.82564868  1.0
  H  H11  1  0.75126969  0.12021168  0.17435893  1.0
  H  H12  1  0.97295628  0.53485583  0.79685547  1.0
  H  H13  1  0.02704609  0.46514999  0.20314685  1.0
  H  H14  1  0.53485360  0.97295627  0.79685647  1.0
  H  H15  1  0.46515184  0.02704520  0.20314412  1.0
  C  C16  1  0.04912681  0.56027154  0.10927940  1.0
  C  C17  1  0.38056929  0.89074703  0.77568215  1.0
  C  C18  1  0.10925743  0.61943734  0.22432190  1.0
  C  C19  1  0.89074315  0.38056702  0.77567727  1.0
  C  C20  1  0.61943594  0.10926169  0.22432142  1.0
  C  C21  1  0.90948176  0.09051122  0.49999559  1.0
  C  C22  1  0.09051751  0.90948006  0.49999453  1.0
  C  C23  1  0.09180567  0.59144990  0.50010599  1.0
  C  C24  1  0.95087303  0.43972992  0.89072179  1.0
  C  C25  1  0.90819560  0.40854358  0.49989242  1.0
  C  C26  1  0.59059086  0.40942050  0.50000042  1.0
  C  C27  1  0.40941508  0.59058023  0.49999533  1.0
  C  C28  1  0.40854522  0.90819577  0.49989195  1.0
  C  C29  1  0.59145487  0.09180133  0.50010335  1.0
  C  C30  1  0.56026807  0.04912959  0.10927742  1.0
  C  C31  1  0.52708258  0.02710428  0.50015208  1.0
  C  C32  1  0.47291140  0.97289354  0.49983915  1.0
  C  C33  1  0.02675276  0.97324134  0.49999934  1.0
  C  C34  1  0.97324602  0.02675070  0.50000037  1.0
  C  C35  1  0.97289818  0.47290790  0.49984206  1.0
  C  C36  1  0.02710985  0.52708197  0.50016005  1.0
  C  C37  1  0.47324595  0.52676607  0.49999789  1.0
  C  C38  1  0.43973430  0.95087623  0.89072549  1.0
  C  C39  1  0.52676875  0.47324410  0.49999725  1.0
  C  C40  1  0.91239325  0.29868358  0.90754697  1.0
  C  C41  1  0.08761066  0.70132006  0.09245568  1.0
  C  C42  1  0.29868802  0.91240406  0.90755236  1.0
  C  C43  1  0.70131777  0.08760683  0.09245119  1.0
  C  C44  1  0.00225436  0.57920962  0.87911334  1.0
  C  C45  1  0.99774928  0.42079838  0.12089223  1.0
  C  C46  1  0.57920554  0.00225202  0.87911155  1.0
  C  C47  1  0.42079767  0.99775162  0.12088961  1.0
  C  C48  1  0.91582365  0.26238488  0.96807192  1.0
  C  C49  1  0.08417611  0.73762167  0.03193138  1.0
  C  C50  1  0.26238563  0.91582873  0.96806784  1.0
  C  C51  1  0.73761668  0.08417419  0.03193383  1.0
  C  C52  1  0.04347259  0.67552291  0.92461893  1.0
  C  C53  1  0.95652767  0.32448290  0.07538250  1.0
  C  C54  1  0.67552233  0.04347102  0.92461737  1.0
  C  C55  1  0.32448349  0.95653189  0.07538340  1.0
  C  C56  1  0.00225767  0.46118322  0.06218684  1.0
  C  C57  1  0.99774114  0.53881969  0.93781215  1.0
  C  C58  1  0.46118185  0.00226712  0.06219076  1.0
  C  C59  1  0.53882300  0.99774015  0.93781205  1.0
  C  C60  1  0.04545720  0.60102150  0.04862063  1.0
  C  C61  1  0.95454606  0.39898504  0.95138118  1.0
  C  C62  1  0.60102011  0.04545588  0.04862034  1.0
  C  C63  1  0.39898498  0.95455502  0.95138173  1.0
  O  O64  1  0.75036338  0.24963821  0.50000221  1.0
  O  O65  1  0.29144547  0.89110342  0.72979415  1.0
  O  O66  1  0.15991754  0.57661010  0.27002702  1.0
  O  O67  1  0.84009052  0.42339064  0.72997438  1.0
  O  O68  1  0.57661208  0.15991685  0.27002376  1.0
  O  O69  1  0.42339206  0.84009042  0.72997756  1.0
  O  O70  1  0.10890400  0.70855606  0.27020570  1.0
  O  O71  1  0.89109979  0.29144177  0.72979087  1.0
  O  O72  1  0.70855798  0.10890385  0.27020747  1.0
  O  O73  1  0.24963902  0.75035963  0.50000150  1.0
  O  O74  1  0.90658295  0.13714455  0.45453218  1.0
  O  O75  1  0.09341586  0.86284750  0.54547585  1.0
  O  O76  1  0.10915431  0.55320478  0.42630641  1.0
  O  O77  1  0.89084379  0.44679813  0.57369050  1.0
  O  O78  1  0.54936210  0.31878873  0.44798558  1.0
  O  O79  1  0.45063957  0.68121708  0.55201288  1.0
  O  O80  1  0.32072031  0.87541527  0.42631770  1.0
  O  O81  1  0.67927534  0.12457820  0.57367358  1.0
  O  O82  1  0.12458658  0.67928122  0.57368945  1.0
  O  O83  1  0.87541282  0.32071589  0.42631090  1.0
  O  O84  1  0.86284439  0.09340418  0.54545878  1.0
  O  O85  1  0.13714378  0.90658204  0.45454051  1.0
  O  O86  1  0.44680148  0.89084498  0.57369554  1.0
  O  O87  1  0.55319382  0.10915792  0.42629959  1.0
  O  O88  1  0.68121526  0.45063469  0.55201148  1.0
  O  O89  1  0.31879331  0.54936533  0.44799160  1.0
  F  F90  1  0.04635847  0.71303521  0.86804560  1.0
  F  F91  1  0.95364110  0.28697060  0.13195434  1.0
  F  F92  1  0.71303115  0.04636183  0.86804597  1.0
  F  F93  1  0.28697313  0.95364326  0.13195210  1.0
  F  F94  1  0.87993558  0.16674993  0.92674812  1.0
  F  F95  1  0.12006035  0.83325806  0.07325240  1.0
  F  F96  1  0.16675372  0.87992964  0.92674459  1.0
  F  F97  1  0.83325444  0.12005804  0.07325132  1.0
