# generated using pymatgen
data_ZnH3C8NClO6
_symmetry_space_group_name_H-M   'P 1'
_cell_length_a   9.86643003
_cell_length_b   11.11960311
_cell_length_c   11.89712762
_cell_angle_alpha   94.12581190
_cell_angle_beta   103.66315979
_cell_angle_gamma   94.26469778
_symmetry_Int_Tables_number   1
_chemical_formula_structural   ZnH3C8NClO6
_chemical_formula_sum   'Zn2 H6 C16 N2 Cl2 O12'
_cell_volume   1259.38671856
_cell_formula_units_Z   2
loop_
 _symmetry_equiv_pos_site_id
 _symmetry_equiv_pos_as_xyz
  1  'x, y, z'
loop_
 _atom_site_type_symbol
 _atom_site_label
 _atom_site_symmetry_multiplicity
 _atom_site_fract_x
 _atom_site_fract_y
 _atom_site_fract_z
 _atom_site_occupancy
  Zn  Zn0  1  0.64305830  0.48222879  0.53747154  1.0
  Zn  Zn1  1  0.35863062  0.51588799  0.47985843  1.0
  H  H2  1  0.40147894  0.88354082  0.49314324  1.0
  H  H3  1  0.62083656  0.11016968  0.53391333  1.0
  H  H4  1  0.88747377  0.59517306  0.47998198  1.0
  H  H5  1  0.13223992  0.43544258  0.57682120  1.0
  H  H6  1  0.92336544  0.17066714  0.54477223  1.0
  H  H7  1  0.97886819  0.61973634  0.21241296  1.0
  C  C8  1  0.43712508  0.26688290  0.49688552  1.0
  C  C9  1  0.61423040  0.86289048  0.53428375  1.0
  C  C10  1  0.51693796  0.06135747  0.51527780  1.0
  C  C11  1  0.50541532  0.93294107  0.51358266  1.0
  C  C12  1  0.07674017  0.49443825  0.51523770  1.0
  C  C13  1  0.93068336  0.51312514  0.51344285  1.0
  C  C14  1  0.89266737  0.32899286  0.59787491  1.0
  C  C15  1  0.08706378  0.62667711  0.36749635  1.0
  C  C16  1  0.58883034  0.72771290  0.52863718  1.0
  C  C17  1  0.48938469  0.51183460  0.72626806  1.0
  C  C18  1  0.48796923  0.49774701  0.28654612  1.0
  C  C19  1  0.49068340  0.51264768  0.84785724  1.0
  C  C20  1  0.48980333  0.50245001  0.16596858  1.0
  C  C21  1  0.49090202  0.51026814  0.95053653  1.0
  C  C22  1  0.49099434  0.50667409  0.06372345  1.0
  C  C23  1  0.40878169  0.13220043  0.49467259  1.0
  N  N24  1  0.14597984  0.54554284  0.44997697  1.0
  N  N25  1  0.84915968  0.43924000  0.55119927  1.0
  Cl  Cl26  1  0.78752453  0.92180670  0.56868578  1.0
  Cl  Cl27  1  0.23649179  0.07396838  0.46455867  1.0
  O  O28  1  0.56574463  0.30596349  0.51282283  1.0
  O  O29  1  0.90478912  0.24804647  0.51191260  1.0
  O  O30  1  0.11413024  0.73545334  0.38517145  1.0
  O  O31  1  0.00834202  0.56302914  0.27090561  1.0
  O  O32  1  0.46061502  0.68563148  0.50167388  1.0
  O  O33  1  0.33392665  0.33071338  0.48295725  1.0
  O  O34  1  0.69423957  0.66621012  0.55046661  1.0
  O  O35  1  0.60496433  0.49669715  0.69973780  1.0
  O  O36  1  0.36884547  0.50129313  0.31043138  1.0
  O  O37  1  0.37242810  0.52565342  0.65722834  1.0
  O  O38  1  0.60539749  0.49096732  0.35742311  1.0
  O  O39  1  0.90816080  0.31485905  0.69985048  1.0
