# generated using pymatgen
data_ZnH14C32(NO4)2
_symmetry_space_group_name_H-M   'P 1'
_cell_length_a   14.25481165
_cell_length_b   15.20912476
_cell_length_c   23.79736221
_cell_angle_alpha   92.38638409
_cell_angle_beta   89.51881048
_cell_angle_gamma   89.57268270
_symmetry_Int_Tables_number   1
_chemical_formula_structural   ZnH14C32(NO4)2
_chemical_formula_sum   'Zn2 H28 C64 N4 O16'
_cell_volume   5154.53087091
_cell_formula_units_Z   2
loop_
 _symmetry_equiv_pos_site_id
 _symmetry_equiv_pos_as_xyz
  1  'x, y, z'
loop_
 _atom_site_type_symbol
 _atom_site_label
 _atom_site_symmetry_multiplicity
 _atom_site_fract_x
 _atom_site_fract_y
 _atom_site_fract_z
 _atom_site_occupancy
  Zn  Zn0  1  0.60140378  0.49859962  0.49860468  1.0
  Zn  Zn1  1  0.39859665  0.50140010  0.50139592  1.0
  H  H2  1  0.91848685  0.32200763  0.40843315  1.0
  H  H3  1  0.08151357  0.67799275  0.59156746  1.0
  H  H4  1  0.90963521  0.67730486  0.59093757  1.0
  H  H5  1  0.09036451  0.32269357  0.40906553  1.0
  H  H6  1  0.42562525  0.29060764  0.94128191  1.0
  H  H7  1  0.57437307  0.70939143  0.05871994  1.0
  H  H8  1  0.65103628  0.49866370  0.67923548  1.0
  H  H9  1  0.65010153  0.49508235  0.31889226  1.0
  H  H10  1  0.61894990  0.77379050  0.44181354  1.0
  H  H11  1  0.38105264  0.22620921  0.55818579  1.0
  H  H12  1  0.42574516  0.29019939  0.04762226  1.0
  H  H13  1  0.57425457  0.70979901  0.95237915  1.0
  H  H14  1  0.67710225  0.07602105  0.40366269  1.0
  H  H15  1  0.32290029  0.92397801  0.59633705  1.0
  H  H16  1  0.67169333  0.60690251  0.57627378  1.0
  H  H17  1  0.32830783  0.39309394  0.42372842  1.0
  H  H18  1  0.67732562  0.39274133  0.42157352  1.0
  H  H19  1  0.32267408  0.60726102  0.57842714  1.0
  H  H20  1  0.65146042  0.49783719  0.78457047  1.0
  H  H21  1  0.65036890  0.49610080  0.21359902  1.0
  H  H22  1  0.34989683  0.50491342  0.68110868  1.0
  H  H23  1  0.34896133  0.50133798  0.32076517  1.0
  H  H24  1  0.34962943  0.50389760  0.78640197  1.0
  H  H25  1  0.34853789  0.50216450  0.21543018  1.0
  H  H26  1  0.38466447  0.78128670  0.55743092  1.0
  H  H27  1  0.61533877  0.21871237  0.44256966  1.0
  H  H28  1  0.67949500  0.91312463  0.40375248  1.0
  H  H29  1  0.32050615  0.08687442  0.59624727  1.0
  C  C30  1  0.49860117  0.32938550  0.50157451  1.0
  C  C31  1  0.50140349  0.67061290  0.49842479  1.0
  C  C32  1  0.58573243  0.49931764  0.76153588  1.0
  C  C33  1  0.58465132  0.49694330  0.23738298  1.0
  C  C34  1  0.58544397  0.50011148  0.70305994  1.0
  C  C35  1  0.58450340  0.49632244  0.29580516  1.0
  C  C36  1  0.50042990  0.50242113  0.67402075  1.0
  C  C37  1  0.49956702  0.49757794  0.32598068  1.0
  C  C38  1  0.41549425  0.50367399  0.70419579  1.0
  C  C39  1  0.41455366  0.49988823  0.29694025  1.0
  C  C40  1  0.41534703  0.50305379  0.76261882  1.0
  C  C41  1  0.41426587  0.50068405  0.23846519  1.0
  C  C42  1  0.50059769  0.50090293  0.79089037  1.0
  C  C43  1  0.49940134  0.49909613  0.20911064  1.0
  C  C44  1  0.43596323  0.81607044  0.53259684  1.0
  C  C45  1  0.56404002  0.18392862  0.46740289  1.0
  C  C46  1  0.50191141  0.76863562  0.49943383  1.0
  C  C47  1  0.49809113  0.23136345  0.50056675  1.0
  C  C48  1  0.56779571  0.81217436  0.46699144  1.0
  C  C49  1  0.43220612  0.18782601  0.53300791  1.0
  C  C50  1  0.56695722  0.90425234  0.46557399  1.0
  C  C51  1  0.43304392  0.09574736  0.53442492  1.0
  C  C52  1  0.49936822  0.50362076  0.61113575  1.0
  C  C53  1  0.50063081  0.49637830  0.38886526  1.0
  C  C54  1  0.50067936  0.95329046  0.50004883  1.0
  C  C55  1  0.49932248  0.04670926  0.49995134  1.0
  C  C56  1  0.43560900  0.90831088  0.53452397  1.0
  C  C57  1  0.56439494  0.09168819  0.46547661  1.0
  C  C58  1  0.63014635  0.95109272  0.43058497  1.0
  C  C59  1  0.36985550  0.04890633  0.56941435  1.0
  C  C60  1  0.62885914  0.04088607  0.43045982  1.0
  C  C61  1  0.37114411  0.95911299  0.56954034  1.0
  C  C62  1  0.79889432  0.56304965  0.52872132  1.0
  C  C63  1  0.20110612  0.43694876  0.47128093  1.0
  C  C64  1  0.80198180  0.43548107  0.46952562  1.0
  C  C65  1  0.19801793  0.56451865  0.53047540  1.0
  C  C66  1  0.90156253  0.43357149  0.46787683  1.0
  C  C67  1  0.09843788  0.56643020  0.53212297  1.0
  C  C68  1  0.89836311  0.56559846  0.53130616  1.0
  C  C69  1  0.10163731  0.43440062  0.46869695  1.0
  C  C70  1  0.95003557  0.49977184  0.49981904  1.0
  C  C71  1  0.04996556  0.50022789  0.50018281  1.0
  C  C72  1  0.95527435  0.37088590  0.43429308  1.0
  C  C73  1  0.04472609  0.62911251  0.56570875  1.0
  C  C74  1  0.94880683  0.62872119  0.56533300  1.0
  C  C75  1  0.05119429  0.37127855  0.43466969  1.0
  C  C76  1  0.52758053  0.57786833  0.12350481  1.0
  C  C77  1  0.47241851  0.42213007  0.87649576  1.0
  C  C78  1  0.47226594  0.42111016  0.11931901  1.0
  C  C79  1  0.52773448  0.57888957  0.88068285  1.0
  C  C80  1  0.47268904  0.42292452  0.05707096  1.0
  C  C81  1  0.52730929  0.57707324  0.94293170  1.0
  C  C82  1  0.49999665  0.49987725  0.02992923  1.0
  C  C83  1  0.50000167  0.50012117  0.97007387  1.0
  C  C84  1  0.52731277  0.57658074  0.06115859  1.0
  C  C85  1  0.47268697  0.42341766  0.93884283  1.0
  C  C86  1  0.44628058  0.34842701  0.02546898  1.0
  C  C87  1  0.55371916  0.65157140  0.97453285  1.0
  C  C88  1  0.44621786  0.34867187  0.96647149  1.0
  C  C89  1  0.55377906  0.65132719  0.03352995  1.0
  C  C90  1  0.73972606  0.63093014  0.56064981  1.0
  C  C91  1  0.26027227  0.36906762  0.43935285  1.0
  C  C92  1  0.74557874  0.36853828  0.43658113  1.0
  C  C93  1  0.25442097  0.63146340  0.56341867  1.0
  N  N94  1  0.49946815  0.49950280  0.14845612  1.0
  N  N95  1  0.50052946  0.50049758  0.85154450  1.0
  N  N96  1  0.75327227  0.49906069  0.49899618  1.0
  N  N97  1  0.24672675  0.50093969  0.50100444  1.0
  O  O98  1  0.57823250  0.36669067  0.49808624  1.0
  O  O99  1  0.42177004  0.63330774  0.50191432  1.0
  O  O100  1  0.58038693  0.63068800  0.49409292  1.0
  O  O101  1  0.41961559  0.36931240  0.50590937  1.0
  O  O102  1  0.57829743  0.50246503  0.58533666  1.0
  O  O103  1  0.42169813  0.49753138  0.41466304  1.0
  O  O104  1  0.58080496  0.49397334  0.41202793  1.0
  O  O105  1  0.41919336  0.50602639  0.58797351  1.0
  O  O106  1  0.55040534  0.64266532  0.15258864  1.0
  O  O107  1  0.44959440  0.35733375  0.84741236  1.0
  O  O108  1  0.45005766  0.35586116  0.14491679  1.0
  O  O109  1  0.54994484  0.64413990  0.85508593  1.0
  O  O110  1  0.76608696  0.70635821  0.57032873  1.0
  O  O111  1  0.23391276  0.29363892  0.42967686  1.0
  O  O112  1  0.77342850  0.29333042  0.42552682  1.0
  O  O113  1  0.22657122  0.70666995  0.57447296  1.0
