# generated using pymatgen
data_Zn8H41C78N9O26
_symmetry_space_group_name_H-M   'P 1'
_cell_length_a   18.22168693
_cell_length_b   18.30475356
_cell_length_c   18.50098534
_cell_angle_alpha   60.61934584
_cell_angle_beta   61.08018033
_cell_angle_gamma   60.25635213
_symmetry_Int_Tables_number   1
_chemical_formula_structural   Zn8H41C78N9O26
_chemical_formula_sum   'Zn8 H41 C78 N9 O26'
_cell_volume   4427.25018249
_cell_formula_units_Z   1
loop_
 _symmetry_equiv_pos_site_id
 _symmetry_equiv_pos_as_xyz
  1  'x, y, z'
loop_
 _atom_site_type_symbol
 _atom_site_label
 _atom_site_symmetry_multiplicity
 _atom_site_fract_x
 _atom_site_fract_y
 _atom_site_fract_z
 _atom_site_occupancy
  Zn  Zn0  1  0.53742282  0.05385958  0.86940304  1.0
  Zn  Zn1  1  0.53506251  0.87333406  0.03808344  1.0
  Zn  Zn2  1  0.36518676  0.05114673  0.03803915  1.0
  Zn  Zn3  1  0.54043986  0.04228421  0.04608563  1.0
  Zn  Zn4  1  0.94784655  0.46436182  0.63139496  1.0
  Zn  Zn5  1  0.12726928  0.45868054  0.46076766  1.0
  Zn  Zn6  1  0.95233416  0.63106936  0.45801141  1.0
  Zn  Zn7  1  0.95552478  0.44901367  0.46306027  1.0
  H  H8  1  0.68138906  0.21243702  0.69962605  1.0
  H  H9  1  0.66462422  0.16754548  0.98722217  1.0
  H  H10  1  0.78930872  0.57677671  0.30262192  1.0
  H  H11  1  0.76453470  0.95173011  0.14487780  1.0
  H  H12  1  0.09209112  0.81007973  0.35254462  1.0
  H  H13  1  0.31382607  0.59314643  0.16812222  1.0
  H  H14  1  0.46026526  0.63693149  0.16007563  1.0
  H  H15  1  0.84730461  0.81784630  0.59259223  1.0
  H  H16  1  0.58301323  0.68539593  0.92114966  1.0
  H  H17  1  0.67600719  0.63291899  0.95995463  1.0
  H  H18  1  0.78233684  0.30290117  0.59848788  1.0
  H  H19  1  0.02932567  0.35316970  0.87462279  1.0
  H  H20  1  0.09135863  0.42755107  0.81398278  1.0
  H  H21  1  0.91128595  0.85622354  0.16597465  1.0
  H  H22  1  0.87684598  0.92947087  0.22255969  1.0
  H  H23  1  0.92433485  0.81208820  0.27071808  1.0
  H  H24  1  0.21410303  0.95063113  0.27163012  1.0
  H  H25  1  0.14881754  0.98862829  0.20720413  1.0
  H  H26  1  0.10743091  0.93835988  0.32232174  1.0
  H  H27  1  0.68818374  0.15473826  0.10781738  1.0
  H  H28  1  0.80073870  0.12859621  0.09709344  1.0
  H  H29  1  0.72767130  0.23952235  0.08034553  1.0
  H  H30  1  0.19451886  0.32650646  0.90502915  1.0
  H  H31  1  0.35182965  0.72412853  0.03414523  1.0
  H  H32  1  0.44500889  0.74810740  0.01311737  1.0
  H  H33  1  0.45957792  0.64043719  0.02226695  1.0
  H  H34  1  0.60693308  0.55475535  0.86557411  1.0
  H  H35  1  0.59883123  0.66363459  0.78622184  1.0
  H  H36  1  0.68454948  0.56785115  0.75756270  1.0
  H  H37  1  0.43264316  0.04999168  0.74501112  1.0
  H  H38  1  0.36476756  0.03933994  0.70903879  1.0
  H  H39  1  0.42894899  0.10939870  0.63626760  1.0
  H  H40  1  0.28083217  0.12109007  0.63099175  1.0
  H  H41  1  0.13159192  0.25296583  0.96611909  1.0
  H  H42  1  0.20722935  0.22721319  0.58840437  1.0
  H  H43  1  0.32287995  0.20819440  0.55183133  1.0
  H  H44  1  0.08842333  0.28827793  0.30982993  1.0
  H  H45  1  0.37039233  0.36891076  0.22994827  1.0
  H  H46  1  0.46218038  0.27619429  0.13114260  1.0
  H  H47  1  0.47667848  0.17687973  0.22384835  1.0
  H  H48  1  0.69502576  0.67290739  0.20485738  1.0
  C  C49  1  0.63529868  0.85531094  0.13613496  1.0
  C  C50  1  0.29528796  0.17911489  0.80761147  1.0
  C  C51  1  0.31122676  0.16317925  0.73251046  1.0
  C  C52  1  0.35634083  0.13207302  0.86013072  1.0
  C  C53  1  0.25172074  0.21824859  0.68260752  1.0
  C  C54  1  0.17818473  0.29293165  0.70417301  1.0
  C  C55  1  0.16002014  0.30193497  0.78221540  1.0
  C  C56  1  0.09673241  0.35708413  0.84256925  1.0
  C  C57  1  0.16118805  0.29362619  0.90009283  1.0
  C  C58  1  0.34188377  0.23644134  0.21215471  1.0
  C  C59  1  0.30618161  0.20000688  0.19149353  1.0
  C  C60  1  0.87425673  0.23327010  0.82524475  1.0
  C  C61  1  0.21206687  0.21989600  0.22903930  1.0
  C  C62  1  0.16021067  0.27397197  0.28243900  1.0
  C  C63  1  0.19784807  0.30964546  0.30279736  1.0
  C  C64  1  0.64094912  0.87099200  0.85833195  1.0
  C  C65  1  0.28993552  0.28855143  0.26660682  1.0
  C  C66  1  0.37035630  0.30002445  0.26116143  1.0
  C  C67  1  0.42853078  0.24095220  0.19834132  1.0
  C  C68  1  0.72599855  0.83116032  0.21915927  1.0
  C  C69  1  0.69370865  0.79650403  0.19270048  1.0
  C  C70  1  0.71886270  0.70292649  0.22384414  1.0
  C  C71  1  0.81316303  0.24328055  0.79069021  1.0
  C  C72  1  0.77191351  0.64894126  0.27863517  1.0
  C  C73  1  0.80360638  0.68514111  0.30512803  1.0
  C  C74  1  0.77934992  0.77774877  0.27267532  1.0
  C  C75  1  0.78847326  0.85602040  0.27410778  1.0
  C  C76  1  0.36360729  0.14292991  0.13490680  1.0
  C  C77  1  0.72645336  0.91804047  0.21060653  1.0
  C  C78  1  0.32291428  0.72941548  0.19437075  1.0
  C  C79  1  0.29346656  0.81542987  0.19529732  1.0
  C  C80  1  0.20765019  0.84484352  0.25489143  1.0
  C  C81  1  0.15799612  0.78689698  0.30758263  1.0
  C  C82  1  0.74247955  0.20767266  0.85084912  1.0
  C  C83  1  0.18834143  0.70035293  0.30603504  1.0
  C  C84  1  0.27281246  0.67347379  0.24788717  1.0
  C  C85  1  0.33936104  0.60089267  0.20622350  1.0
  C  C86  1  0.39777733  0.66530006  0.14566385  1.0
  C  C87  1  0.69851235  0.73078091  0.82628539  1.0
  C  C88  1  0.35204525  0.87049011  0.13496566  1.0
  C  C89  1  0.69946829  0.81594805  0.79942606  1.0
  C  C90  1  0.75620566  0.84590725  0.71287644  1.0
  C  C91  1  0.80524658  0.79250345  0.65865890  1.0
  C  C92  1  0.80153182  0.70738473  0.68706604  1.0
  C  C93  1  0.69632637  0.19494604  0.81526677  1.0
  C  C94  1  0.74720204  0.67866201  0.77226074  1.0
  C  C95  1  0.70688736  0.60479969  0.83856831  1.0
  C  C96  1  0.65581571  0.66349535  0.90153259  1.0
  C  C97  1  0.13983560  0.36608711  0.36036902  1.0
  C  C98  1  0.85368353  0.65072111  0.62993320  1.0
  C  C99  1  0.12449462  0.36300678  0.64547887  1.0
  C  C100  1  0.63280744  0.14379992  0.86997972  1.0
  C  C101  1  0.85804999  0.62855623  0.36554048  1.0
  C  C102  1  0.13184234  0.64297291  0.36259174  1.0
  C  C103  1  0.87073102  0.34911983  0.63872025  1.0
  C  C104  1  0.71512975  0.22499579  0.72529860  1.0
  C  C105  1  0.72236633  0.18784302  0.94167733  1.0
  C  C106  1  0.77287043  0.19290543  0.97460452  1.0
  C  C107  1  0.85405674  0.20978926  0.91531506  1.0
  C  C108  1  0.16451222  0.18580501  0.21702421  1.0
  C  C109  1  0.39106355  0.25970240  0.34190770  1.0
  C  C110  1  0.74632345  0.86541925  0.36049607  1.0
  C  C111  1  0.88133011  0.86399772  0.23057097  1.0
  C  C112  1  0.64207847  0.98319567  0.24021294  1.0
  C  C113  1  0.16736478  0.93500890  0.26479412  1.0
  C  C114  1  0.38274943  0.51347310  0.25918083  1.0
  C  C115  1  0.77432645  0.27271238  0.66814693  1.0
  C  C116  1  0.74577954  0.17752656  0.07011241  1.0
  C  C117  1  0.41455466  0.69611213  0.04805831  1.0
  C  C118  1  0.76859673  0.92971018  0.67755639  1.0
  C  C119  1  0.64530446  0.59710021  0.81012431  1.0
  C  C120  1  0.76877941  0.51712478  0.87134788  1.0
  C  C121  1  0.91594695  0.19951534  0.94852930  1.0
  C  C122  1  0.96188906  0.23317606  0.76871436  1.0
  C  C123  1  0.38879066  0.08627542  0.70496719  1.0
  C  C124  1  0.26610341  0.19320234  0.60941170  1.0
  C  C125  1  0.82230211  0.28349786  0.69954834  1.0
  C  C126  1  0.21643052  0.24602793  0.83287137  1.0
  N  N127  1  0.11813591  0.16162131  0.21355244  1.0
  N  N128  1  0.41054957  0.22364017  0.40553461  1.0
  N  N129  1  0.71397345  0.87090061  0.43035127  1.0
  N  N130  1  0.57476950  0.03641938  0.26376716  1.0
  N  N131  1  0.42204697  0.44320601  0.29808562  1.0
  N  N132  1  0.78510047  0.99527683  0.64453545  1.0
  N  N133  1  0.81530232  0.44572616  0.89980719  1.0
  N  N134  1  0.96587905  0.18925156  0.97785947  1.0
  N  N135  1  0.03519500  0.22472909  0.72196796  1.0
  O  O136  1  0.49652311  0.00325061  0.99839098  1.0
  O  O137  1  0.88251524  0.67101646  0.38283262  1.0
  O  O138  1  0.17265641  0.55900562  0.38268048  1.0
  O  O139  1  0.61454709  0.93882007  0.11724243  1.0
  O  O140  1  0.90035118  0.35956052  0.55740009  1.0
  O  O141  1  0.04768910  0.68290217  0.38531376  1.0
  O  O142  1  0.87251675  0.39356748  0.67314684  1.0
  O  O143  1  0.04294624  0.40463320  0.68139333  1.0
  O  O144  1  0.87474159  0.54479578  0.39419193  1.0
  O  O145  1  0.17952795  0.39104155  0.38030773  1.0
  O  O146  1  0.88842568  0.68768781  0.54883723  1.0
  O  O147  1  0.62932962  0.95372791  0.82492829  1.0
  O  O148  1  0.44076301  0.10496139  0.82241990  1.0
  O  O149  1  0.60620201  0.82854539  0.93803591  1.0
  O  O150  1  0.32421732  0.11758820  0.11527669  1.0
  O  O151  1  0.43563748  0.82730630  0.10848127  1.0
  O  O152  1  0.62324487  0.10539996  0.95162119  1.0
  O  O153  1  0.31554988  0.95471977  0.11346745  1.0
  O  O154  1  0.59438195  0.14014192  0.83021503  1.0
  O  O155  1  0.44772805  0.12443707  0.11123247  1.0
  O  O156  1  0.61158008  0.81817362  0.11212140  1.0
  O  O157  1  0.31860294  0.12543790  0.94118187  1.0
  O  O158  1  0.99509984  0.50104663  0.50226061  1.0
  O  O159  1  0.05610274  0.38435740  0.38363481  1.0
  O  O160  1  0.85850558  0.56928083  0.66859837  1.0
  O  O161  1  0.16483304  0.38014357  0.56320805  1.0
