# generated using pymatgen
data_Zn4H4C40O17F16
_symmetry_space_group_name_H-M   'P 1'
_cell_length_a   23.88485877
_cell_length_b   23.88514835
_cell_length_c   23.88350296
_cell_angle_alpha   66.29051789
_cell_angle_beta   72.60266471
_cell_angle_gamma   107.39385803
_symmetry_Int_Tables_number   1
_chemical_formula_structural   Zn4H4C40O17F16
_chemical_formula_sum   'Zn8 H8 C80 O34 F32'
_cell_volume   10445.19015044
_cell_formula_units_Z   2
loop_
 _symmetry_equiv_pos_site_id
 _symmetry_equiv_pos_as_xyz
  1  'x, y, z'
loop_
 _atom_site_type_symbol
 _atom_site_label
 _atom_site_symmetry_multiplicity
 _atom_site_fract_x
 _atom_site_fract_y
 _atom_site_fract_z
 _atom_site_occupancy
  Zn  Zn0  1  0.05698252  0.09971710  0.45725509  1.0
  Zn  Zn1  1  0.05698404  0.95726545  0.48574908  1.0
  Zn  Zn2  1  0.94301051  0.95725158  0.59973025  1.0
  Zn  Zn3  1  0.94302624  0.98576635  0.45725164  1.0
  Zn  Zn4  1  0.94302091  0.40028548  0.04274100  1.0
  Zn  Zn5  1  0.05699079  0.54274735  0.90026627  1.0
  Zn  Zn6  1  0.94301740  0.54273799  0.01424533  1.0
  Zn  Zn7  1  0.05696928  0.51423726  0.04274951  1.0
  H  H8  1  0.91945274  0.08230487  0.33715104  1.0
  H  H9  1  0.08055038  0.41769716  0.16284594  1.0
  H  H10  1  0.91944960  0.25660369  0.16285101  1.0
  H  H11  1  0.08055425  0.24339992  0.33714428  1.0
  H  H12  1  0.91944906  0.83714231  0.74341435  1.0
  H  H13  1  0.08055381  0.66285852  0.75658235  1.0
  H  H14  1  0.91945356  0.66284455  0.91771062  1.0
  H  H15  1  0.08054954  0.83715679  0.58228791  1.0
  C  C16  1  0.18087431  0.09042969  0.40956569  1.0
  C  C17  1  0.99999701  0.86014513  0.63985645  1.0
  C  C18  1  0.99998262  0.09042156  0.59044474  1.0
  C  C19  1  0.81912776  0.90957309  0.59042336  1.0
  C  C20  1  0.00000597  0.13985864  0.36014030  1.0
  C  C21  1  0.99999025  0.90955932  0.40956684  1.0
  C  C22  1  0.00000486  0.40957691  0.90955235  1.0
  C  C23  1  0.00000459  0.63985675  0.86014106  1.0
  C  C24  1  0.81912876  0.40957057  0.09044374  1.0
  C  C25  1  0.99999332  0.59044308  0.09043310  1.0
  C  C26  1  0.99999724  0.36014548  0.13985582  1.0
  C  C27  1  0.18086875  0.59043833  0.90958024  1.0
  C  C28  1  0.00000497  0.19582705  0.30417153  1.0
  C  C29  1  0.00000062  0.30417607  0.19582218  1.0
  C  C30  1  0.95626358  0.17938589  0.27687693  1.0
  C  C31  1  0.04374237  0.32061562  0.22311815  1.0
  C  C32  1  0.95626262  0.23314063  0.22312281  1.0
  C  C33  1  0.04374338  0.26686193  0.27687142  1.0
  C  C34  1  0.99999912  0.80417676  0.69582404  1.0
  C  C35  1  0.00000330  0.69582358  0.80417468  1.0
  C  C36  1  0.95626068  0.77687419  0.76686976  1.0
  C  C37  1  0.04374184  0.72312873  0.73312622  1.0
  C  C38  1  0.95626417  0.72312207  0.82062040  1.0
  C  C39  1  0.04374190  0.77688189  0.67937284  1.0
  C  C40  1  0.00000174  0.37212730  0.87210503  1.0
  C  C41  1  0.95729706  0.29976044  0.90721486  1.0
  C  C42  1  0.95740530  0.26511737  0.87229734  1.0
  C  C43  1  0.99999376  0.30031932  0.80030295  1.0
  C  C44  1  0.04258732  0.37230461  0.76509105  1.0
  C  C45  1  0.04270091  0.40722767  0.79973182  1.0
  C  C46  1  0.99998624  0.26522622  0.76521157  1.0
  C  C47  1  0.99997798  0.23478223  0.73477806  1.0
  C  C48  1  0.99997730  0.19968493  0.69968839  1.0
  C  C49  1  0.95739591  0.12769700  0.73490439  1.0
  C  C50  1  0.95728374  0.09277132  0.70026591  1.0
  C  C51  1  0.99997389  0.12787591  0.62789331  1.0
  C  C52  1  0.04265839  0.20024755  0.59277718  1.0
  C  C53  1  0.04255219  0.23489220  0.62768968  1.0
  C  C54  1  0.00000562  0.62790735  0.12786637  1.0
  C  C55  1  0.04271562  0.63551485  0.15752083  1.0
  C  C56  1  0.04260456  0.67032114  0.19227529  1.0
  C  C57  1  0.00000442  0.69971113  0.19967205  1.0
  C  C58  1  0.95741133  0.69232510  0.17027094  1.0
  C  C59  1  0.95730402  0.65757356  0.13546107  1.0
  C  C60  1  0.99999837  0.73479433  0.23476978  1.0
  C  C61  1  0.99998998  0.76521747  0.26522037  1.0
  C  C62  1  0.99998315  0.80029756  0.30032209  1.0
  C  C63  1  0.04255872  0.80766274  0.32974431  1.0
  C  C64  1  0.04266230  0.84240906  0.36455697  1.0
  C  C65  1  0.99997814  0.87209405  0.37213140  1.0
  C  C66  1  0.95728259  0.86450739  0.34246010  1.0
  C  C67  1  0.95739706  0.82970372  0.30770147  1.0
  C  C68  1  0.74422735  0.37211997  0.12788877  1.0
  C  C69  1  0.70696995  0.29975510  0.15756682  1.0
  C  C70  1  0.63740909  0.26511094  0.19231905  1.0
  C  C71  1  0.60062154  0.30031668  0.19969341  1.0
  C  C72  1  0.63740497  0.37230937  0.17027616  1.0
  C  C73  1  0.70696820  0.40722988  0.13546661  1.0
  C  C74  1  0.53043986  0.26522086  0.23479401  1.0
  C  C75  1  0.46956532  0.23477249  0.26524309  1.0
  C  C76  1  0.39938154  0.19967879  0.30033760  1.0
  C  C77  1  0.36259753  0.12768775  0.32973679  1.0
  C  C78  1  0.29303594  0.09276985  0.36454481  1.0
  C  C79  1  0.25577243  0.12787503  0.37213673  1.0
  C  C80  1  0.29303369  0.20023770  0.34248477  1.0
  C  C81  1  0.36259546  0.23488289  0.30773145  1.0
  C  C82  1  0.25577274  0.62789833  0.87212734  1.0
  C  C83  1  0.29303632  0.65758742  0.79975181  1.0
  C  C84  1  0.36259578  0.69233898  0.76511126  1.0
  C  C85  1  0.39937609  0.69970578  0.80032429  1.0
  C  C86  1  0.36258858  0.67028773  0.87232213  1.0
  C  C87  1  0.29302712  0.63547672  0.90724323  1.0
  C  C88  1  0.46956064  0.73480210  0.76522556  1.0
  C  C89  1  0.53043658  0.76524216  0.73477017  1.0
  C  C90  1  0.60062093  0.80032857  0.69967295  1.0
  C  C91  1  0.63740891  0.82973151  0.62767638  1.0
  C  C92  1  0.70697267  0.86453989  0.59275857  1.0
  C  C93  1  0.74423211  0.87212922  0.62787025  1.0
  C  C94  1  0.70696117  0.84246310  0.70024343  1.0
  C  C95  1  0.63740015  0.80771101  0.73488550  1.0
  O  O96  1  0.00000099  0.00000078  0.49999863  1.0
  O  O97  1  0.15209991  0.12699365  0.41270558  1.0
  O  O98  1  0.04001204  0.88401007  0.57597475  1.0
  O  O99  1  0.96026679  0.02509555  0.62700689  1.0
  O  O100  1  0.15210162  0.02510199  0.43517739  1.0
  O  O101  1  0.03971042  0.12698029  0.52510947  1.0
  O  O102  1  0.95998107  0.88400125  0.65601442  1.0
  O  O103  1  0.84789560  0.91271041  0.62699194  1.0
  O  O104  1  0.95999648  0.07598732  0.38399879  1.0
  O  O105  1  0.84790446  0.93520166  0.52508383  1.0
  O  O106  1  0.04001929  0.15601047  0.38400193  1.0
  O  O107  1  0.03971026  0.91272157  0.43517751  1.0
  O  O108  1  0.96028439  0.93518574  0.41271292  1.0
  O  O109  1  0.00000088  0.50000218  0.99999711  1.0
  O  O110  1  0.96029032  0.37301551  0.97489224  1.0
  O  O111  1  0.04002451  0.61600165  0.84398064  1.0
  O  O112  1  0.84789940  0.47489669  0.06483496  1.0
  O  O113  1  0.03971824  0.47490710  0.87298843  1.0
  O  O114  1  0.84790313  0.37301136  0.08728647  1.0
  O  O115  1  0.95998859  0.61598973  0.92401968  1.0
  O  O116  1  0.96028516  0.58729652  0.06480591  1.0
  O  O117  1  0.04000557  0.42401524  0.11599872  1.0
  O  O118  1  0.03968916  0.56480208  0.08730129  1.0
  O  O119  1  0.95998169  0.34399261  0.11599653  1.0
  O  O120  1  0.15210222  0.58728013  0.87301498  1.0
  O  O121  1  0.15209266  0.56482436  0.97491335  1.0
  O  O122  1  0.91333497  0.11356642  0.29977486  1.0
  O  O123  1  0.08666951  0.38643666  0.20021962  1.0
  O  O124  1  0.91333417  0.21311097  0.20022791  1.0
  O  O125  1  0.08667202  0.28689106  0.29976647  1.0
  O  O126  1  0.91333451  0.79976787  0.78690645  1.0
  O  O127  1  0.08666685  0.70023349  0.71309049  1.0
  O  O128  1  0.91333848  0.70022070  0.88645266  1.0
  O  O129  1  0.08666534  0.79978219  0.61354503  1.0
  F  F130  1  0.91437009  0.26063942  0.97590432  1.0
  F  F131  1  0.08562703  0.47591049  0.76060151  1.0
  F  F132  1  0.08433022  0.40837259  0.69614248  1.0
  F  F133  1  0.91565921  0.19617681  0.90836988  1.0
  F  F134  1  0.91566280  0.09162741  0.80385652  1.0
  F  F135  1  0.08427884  0.30383441  0.59161438  1.0
  F  F136  1  0.08556235  0.23937392  0.52407659  1.0
  F  F137  1  0.91437004  0.02408688  0.73939984  1.0
  F  F138  1  0.08565268  0.60977506  0.15370041  1.0
  F  F139  1  0.91438251  0.65377296  0.10969975  1.0
  F  F140  1  0.91567187  0.71952142  0.17594984  1.0
  F  F141  1  0.08434750  0.67600469  0.21946776  1.0
  F  F142  1  0.08428241  0.78044556  0.32408559  1.0
  F  F143  1  0.91566833  0.82404051  0.28048825  1.0
  F  F144  1  0.91436276  0.89027119  0.34625613  1.0
  F  F145  1  0.08556693  0.84618830  0.39034110  1.0
  F  F146  1  0.73653283  0.26062984  0.15378388  1.0
  F  F147  1  0.73652651  0.47591398  0.10969038  1.0
  F  F148  1  0.60452911  0.40837534  0.17593907  1.0
  F  F149  1  0.60453474  0.19617020  0.21953472  1.0
  F  F150  1  0.39547264  0.09162496  0.32406279  1.0
  F  F151  1  0.39547034  0.30381519  0.28054158  1.0
  F  F152  1  0.26347332  0.23935498  0.34630364  1.0
  F  F153  1  0.26347513  0.02408893  0.39030963  1.0
  F  F154  1  0.26348152  0.65381164  0.76062047  1.0
  F  F155  1  0.26345873  0.60969313  0.97593791  1.0
  F  F156  1  0.39545787  0.67594639  0.90839626  1.0
  F  F157  1  0.39547793  0.71956344  0.69615986  1.0
  F  F158  1  0.60454157  0.82406189  0.59160603  1.0
  F  F159  1  0.60451885  0.78051210  0.80383022  1.0
  F  F160  1  0.73651515  0.84626651  0.73936987  1.0
  F  F161  1  0.73653981  0.89030941  0.52406778  1.0
