# generated using pymatgen
data_AlH3C27(Cl2O)6
_symmetry_space_group_name_H-M   'P 1'
_cell_length_a   4.24914253
_cell_length_b   16.12689631
_cell_length_c   16.29673762
_cell_angle_alpha   60.34545142
_cell_angle_beta   89.38549901
_cell_angle_gamma   88.75805757
_symmetry_Int_Tables_number   1
_chemical_formula_structural   AlH3C27(Cl2O)6
_chemical_formula_sum   'Al1 H3 C27 Cl12 O6'
_cell_volume   970.24774230
_cell_formula_units_Z   1
loop_
 _symmetry_equiv_pos_site_id
 _symmetry_equiv_pos_as_xyz
  1  'x, y, z'
loop_
 _atom_site_type_symbol
 _atom_site_label
 _atom_site_symmetry_multiplicity
 _atom_site_fract_x
 _atom_site_fract_y
 _atom_site_fract_z
 _atom_site_occupancy
  Al  Al0  1  0.99994548  0.50073494  0.99862717  1.0
  H  H1  1  0.49996932  0.91960904  0.16091275  1.0
  H  H2  1  0.57571415  0.91980384  0.42272121  1.0
  H  H3  1  0.42456227  0.65761180  0.42272278  1.0
  C  C4  1  0.50796238  0.35574137  0.07113956  1.0
  C  C5  1  0.49996657  0.57257746  0.85490323  1.0
  C  C6  1  0.49187226  0.57321969  0.07113932  1.0
  C  C7  1  0.52307967  0.93383187  0.28494329  1.0
  C  C8  1  0.50005918  0.88142765  0.23727435  1.0
  C  C9  1  0.47710202  0.78135559  0.28493807  1.0
  C  C10  1  0.46404743  0.73380548  0.38436983  1.0
  C  C11  1  0.50022605  0.78220071  0.43571012  1.0
  C  C12  1  0.53627387  0.88194749  0.38437690  1.0
  C  C13  1  0.33714733  0.71529415  0.08967442  1.0
  C  C14  1  0.31780470  0.76237965  0.14289087  1.0
  C  C15  1  0.47435356  0.72781646  0.23080987  1.0
  C  C16  1  0.63919840  0.63952424  0.26250383  1.0
  C  C17  1  0.63109085  0.58775286  0.21386181  1.0
  C  C18  1  0.48662998  0.62634071  0.12588108  1.0
  C  C19  1  0.68207163  0.09485091  0.14287302  1.0
  C  C20  1  0.66262838  0.19514440  0.08965774  1.0
  C  C21  1  0.51317830  0.24788562  0.12588192  1.0
  C  C22  1  0.36880828  0.19847330  0.21388032  1.0
  C  C23  1  0.36079654  0.09806903  0.26251905  1.0
  C  C24  1  0.52563440  0.04148145  0.23080977  1.0
  C  C25  1  0.33376597  0.76195644  0.59665391  1.0
  C  C26  1  0.34722743  0.71534946  0.69615474  1.0
  C  C27  1  0.50002661  0.62583718  0.74837142  1.0
  C  C28  1  0.65288936  0.58854064  0.69615905  1.0
  C  C29  1  0.66654215  0.64145238  0.59666175  1.0
  C  C30  1  0.50018582  0.72890862  0.54225759  1.0
  Cl  Cl31  1  0.80040723  0.47568839  0.26124637  1.0
  Cl  Cl32  1  0.17627521  0.76574997  0.97856941  1.0
  Cl  Cl33  1  0.86814767  0.58977568  0.36196499  1.0
  Cl  Cl34  1  0.08352947  0.86326346  0.09557624  1.0
  Cl  Cl35  1  0.82355711  0.25581191  0.97856546  1.0
  Cl  Cl36  1  0.91638973  0.04129448  0.09555508  1.0
  Cl  Cl37  1  0.19952389  0.26313964  0.26129339  1.0
  Cl  Cl38  1  0.13189140  0.04832733  0.36199990  1.0
  Cl  Cl39  1  0.09731768  0.86197218  0.54313756  1.0
  Cl  Cl40  1  0.17991581  0.77303694  0.75103153  1.0
  Cl  Cl41  1  0.90301137  0.59494881  0.54315263  1.0
  Cl  Cl42  1  0.82017923  0.47597124  0.75104977  1.0
  O  O43  1  0.72883947  0.58632465  0.01843403  1.0
  O  O44  1  0.74088206  0.39639467  0.08312172  1.0
  O  O45  1  0.73921086  0.52035107  0.89601914  1.0
  O  O46  1  0.25894218  0.52057959  0.08312511  1.0
  O  O47  1  0.26072635  0.58373140  0.89600452  1.0
  O  O48  1  0.27098285  0.39534833  0.01842361  1.0
