# generated using pymatgen
data_Al2H9C24S6(NO4)3
_symmetry_space_group_name_H-M   'P 1'
_cell_length_a   4.01433716
_cell_length_b   20.08891668
_cell_length_c   20.08891088
_cell_angle_alpha   119.98693015
_cell_angle_beta   89.99668887
_cell_angle_gamma   89.99517304
_symmetry_Int_Tables_number   1
_chemical_formula_structural   Al2H9C24S6(NO4)3
_chemical_formula_sum   'Al2 H9 C24 S6 N3 O12'
_cell_volume   1403.18380737
_cell_formula_units_Z   1
loop_
 _symmetry_equiv_pos_site_id
 _symmetry_equiv_pos_as_xyz
  1  'x, y, z'
loop_
 _atom_site_type_symbol
 _atom_site_label
 _atom_site_symmetry_multiplicity
 _atom_site_fract_x
 _atom_site_fract_y
 _atom_site_fract_z
 _atom_site_occupancy
  Al  Al0  1  0.91836810  0.49998696  0.00001515  1.0
  Al  Al1  1  0.00385291  0.83333781  0.66665543  1.0
  H  H2  1  0.22596931  0.81047830  0.43990030  1.0
  H  H3  1  0.22592598  0.06007123  0.87055064  1.0
  H  H4  1  0.22606658  0.62945310  0.68953021  1.0
  H  H5  1  0.76320035  0.48412714  0.25248967  1.0
  H  H6  1  0.77197669  0.47535018  0.16224573  1.0
  H  H7  1  0.76294224  0.24755135  0.73165988  1.0
  H  H8  1  0.77192180  0.33778052  0.81310801  1.0
  H  H9  1  0.76293955  0.76834030  0.01586797  1.0
  H  H10  1  0.77183064  0.68688230  0.02467337  1.0
  C  C11  1  0.42037083  0.55859766  0.94079277  1.0
  C  C12  1  0.42034627  0.55920736  0.11783994  1.0
  C  C13  1  0.42043694  0.38216115  0.94141238  1.0
  C  C14  1  0.50210704  0.77226034  0.54852325  1.0
  C  C15  1  0.50196119  0.95146288  0.72368686  1.0
  C  C16  1  0.50204609  0.77628742  0.72772665  1.0
  C  C17  1  0.59903397  0.57753140  0.24675488  1.0
  C  C18  1  0.34997684  0.75518554  0.41710051  1.0
  C  C19  1  0.44688930  0.60300456  0.20054921  1.0
  C  C20  1  0.49244623  0.72989824  0.46283839  1.0
  C  C21  1  0.37848450  0.69883804  0.33810321  1.0
  C  C22  1  0.54862271  0.63264717  0.32566791  1.0
  C  C23  1  0.59896614  0.25325733  0.83078641  1.0
  C  C24  1  0.34983711  0.08288155  0.83804957  1.0
  C  C25  1  0.44690606  0.29944566  0.90246412  1.0
  C  C26  1  0.49231874  0.03715446  0.76703859  1.0
  C  C27  1  0.37841545  0.16189014  0.86071886  1.0
  C  C28  1  0.54849900  0.17432733  0.80695859  1.0
  C  C29  1  0.59904066  0.66921067  0.92246573  1.0
  C  C30  1  0.34994779  0.66193605  0.74482459  1.0
  C  C31  1  0.44689610  0.59753048  0.89698985  1.0
  C  C32  1  0.49240482  0.73295511  0.77010803  1.0
  C  C33  1  0.37855962  0.63927100  0.80116639  1.0
  C  C34  1  0.54854165  0.69302819  0.86735682  1.0
  S  S35  1  0.25691598  0.69288613  0.25319123  1.0
  S  S36  1  0.66617290  0.63884433  0.41125176  1.0
  S  S37  1  0.25694227  0.24678144  0.93969278  1.0
  S  S38  1  0.66598178  0.08876518  0.72755771  1.0
  S  S39  1  0.25703056  0.56031084  0.80709136  1.0
  S  S40  1  0.66605005  0.77241252  0.86117896  1.0
  N  N41  1  0.77096672  0.51009758  0.22038920  1.0
  N  N42  1  0.77086609  0.27962020  0.78969597  1.0
  N  N43  1  0.77084228  0.71027947  0.98989944  1.0
  O  O44  1  0.17915620  0.41493255  0.98870886  1.0
  O  O45  1  0.17910331  0.51130073  0.92626713  1.0
  O  O46  1  0.17905649  0.57372826  0.08506703  1.0
  O  O47  1  0.64389620  0.41807809  0.92486111  1.0
  O  O48  1  0.64375956  0.50672819  0.08192846  1.0
  O  O49  1  0.64377084  0.57514938  0.99325966  1.0
  O  O50  1  0.26942212  0.82455200  0.74117720  1.0
  O  O51  1  0.26944234  0.75881460  0.58334015  1.0
  O  O52  1  0.26943853  0.91664919  0.67543615  1.0
  O  O53  1  0.74097713  0.76171551  0.68072573  1.0
  O  O54  1  0.74093382  0.91903487  0.73827845  1.0
  O  O55  1  0.74099170  0.81926973  0.58095423  1.0
