# generated using pymatgen
data_ZnH6C18N3Cl4O4F
_symmetry_space_group_name_H-M   'P 1'
_cell_length_a   13.15762924
_cell_length_b   16.23133721
_cell_length_c   17.23185431
_cell_angle_alpha   97.29224383
_cell_angle_beta   91.98406251
_cell_angle_gamma   95.19214413
_symmetry_Int_Tables_number   1
_chemical_formula_structural   ZnH6C18N3Cl4O4F
_chemical_formula_sum   'Zn2 H12 C36 N6 Cl8 O8 F2'
_cell_volume   3631.43010556
_cell_formula_units_Z   2
loop_
 _symmetry_equiv_pos_site_id
 _symmetry_equiv_pos_as_xyz
  1  'x, y, z'
loop_
 _atom_site_type_symbol
 _atom_site_label
 _atom_site_symmetry_multiplicity
 _atom_site_fract_x
 _atom_site_fract_y
 _atom_site_fract_z
 _atom_site_occupancy
  Zn  Zn0  1  0.50285940  0.41109742  0.50121338  1.0
  Zn  Zn1  1  0.50619515  0.59174276  0.50634679  1.0
  H  H2  1  0.37333344  0.70722139  0.45379423  1.0
  H  H3  1  0.36325533  0.86170990  0.44876933  1.0
  H  H4  1  0.35797527  0.10479434  0.38504769  1.0
  H  H5  1  0.59366754  0.11886925  0.56829882  1.0
  H  H6  1  0.43001685  0.60518117  0.25952690  1.0
  H  H7  1  0.42511585  0.59280669  0.11230586  1.0
  H  H8  1  0.57570543  0.65172161  0.91472824  1.0
  H  H9  1  0.41407606  0.40633477  0.88196960  1.0
  H  H10  1  0.83079918  0.37754779  0.50404741  1.0
  H  H11  1  0.81471830  0.63604307  0.47567917  1.0
  H  H12  1  0.17456249  0.60349117  0.48680944  1.0
  H  H13  1  0.19124455  0.34676406  0.52088126  1.0
  C  C14  1  0.49757859  0.50419656  0.35266846  1.0
  C  C15  1  0.30810546  0.48926388  0.50503613  1.0
  C  C16  1  0.50844248  0.52289740  0.65479368  1.0
  C  C17  1  0.69809235  0.49378942  0.49296944  1.0
  C  C18  1  0.43389500  0.75412593  0.47923632  1.0
  C  C19  1  0.42871404  0.83856136  0.47638244  1.0
  C  C20  1  0.50938173  0.89487862  0.51159994  1.0
  C  C21  1  0.59274661  0.86386379  0.54791040  1.0
  C  C22  1  0.59182064  0.77688002  0.54708842  1.0
  C  C23  1  0.41173287  0.14038392  0.42884033  1.0
  C  C24  1  0.47394668  0.10065132  0.47643244  1.0
  C  C25  1  0.54344101  0.14837940  0.53122736  1.0
  C  C26  1  0.54693921  0.23470556  0.53652460  1.0
  C  C27  1  0.42038013  0.22759586  0.43913323  1.0
  C  C28  1  0.49939065  0.49165984  0.26462887  1.0
  C  C29  1  0.45907073  0.55241794  0.22461591  1.0
  C  C30  1  0.45658123  0.54603317  0.14373240  1.0
  C  C31  1  0.49482413  0.47765665  0.09995981  1.0
  C  C32  1  0.53524206  0.41555382  0.13875353  1.0
  C  C33  1  0.53862403  0.42297715  0.22118638  1.0
  C  C34  1  0.54146200  0.59784324  0.87537286  1.0
  C  C35  1  0.49672052  0.52877004  0.90671301  1.0
  C  C36  1  0.45070289  0.45924622  0.85724183  1.0
  C  C37  1  0.45216273  0.45940331  0.77660818  1.0
  C  C38  1  0.50105795  0.52655925  0.74247557  1.0
  C  C39  1  0.54483034  0.59575224  0.79453242  1.0
  C  C40  1  0.86928927  0.43845605  0.49805259  1.0
  C  C41  1  0.86065381  0.58459954  0.48203016  1.0
  C  C42  1  0.96505933  0.59535717  0.48236483  1.0
  C  C43  1  0.02838531  0.53071567  0.49151765  1.0
  C  C44  1  0.13615178  0.54264640  0.49321611  1.0
  C  C45  1  0.14514481  0.39752905  0.51234793  1.0
  C  C46  1  0.04061212  0.38613658  0.50993996  1.0
  C  C47  1  0.97710168  0.45040840  0.49964835  1.0
  C  C48  1  0.81215767  0.50468680  0.49018384  1.0
  C  C49  1  0.19365639  0.47721296  0.50347545  1.0
  N  N50  1  0.51395217  0.72394592  0.51373132  1.0
  N  N51  1  0.51140009  0.98221250  0.51843136  1.0
  N  N52  1  0.46569497  0.01161235  0.46420430  1.0
  N  N53  1  0.48674671  0.27509212  0.49156951  1.0
  N  N54  1  0.49291910  0.46760600  0.01735692  1.0
  N  N55  1  0.50224135  0.53616804  0.98933805  1.0
  Cl  Cl56  1  0.69204394  0.73736172  0.58954804  1.0
  Cl  Cl57  1  0.69372412  0.92991014  0.58959906  1.0
  Cl  Cl58  1  0.34291363  0.27615401  0.38163178  1.0
  Cl  Cl59  1  0.63124610  0.29252577  0.60408100  1.0
  Cl  Cl60  1  0.59668945  0.34967581  0.26630152  1.0
  Cl  Cl61  1  0.58532143  0.33386926  0.08459327  1.0
  Cl  Cl62  1  0.60859373  0.68135849  0.76119785  1.0
  Cl  Cl63  1  0.38761539  0.37428376  0.71872111  1.0
  O  O64  1  0.48275198  0.43996807  0.38708428  1.0
  O  O65  1  0.50863254  0.57971729  0.38521128  1.0
  O  O66  1  0.34983616  0.55963495  0.49174465  1.0
  O  O67  1  0.35439409  0.42672553  0.51962440  1.0
  O  O68  1  0.48802567  0.58690437  0.62399294  1.0
  O  O69  1  0.53566259  0.45575747  0.61948693  1.0
  O  O70  1  0.65482860  0.41960968  0.48395207  1.0
  O  O71  1  0.65366528  0.56044004  0.50529338  1.0
  F  F72  1  0.99370421  0.30927320  0.51800038  1.0
  F  F73  1  0.01215779  0.67214388  0.47418991  1.0
