# generated using pymatgen
data_AlH15(C3O)12
_symmetry_space_group_name_H-M   'P 1'
_cell_length_a   4.15340443
_cell_length_b   20.08788017
_cell_length_c   20.42539657
_cell_angle_alpha   117.71220191
_cell_angle_beta   95.39487327
_cell_angle_gamma   95.61734422
_symmetry_Int_Tables_number   1
_chemical_formula_structural   AlH15(C3O)12
_chemical_formula_sum   'Al1 H15 C36 O12'
_cell_volume   1482.48297050
_cell_formula_units_Z   1
loop_
 _symmetry_equiv_pos_site_id
 _symmetry_equiv_pos_as_xyz
  1  'x, y, z'
loop_
 _atom_site_type_symbol
 _atom_site_label
 _atom_site_symmetry_multiplicity
 _atom_site_fract_x
 _atom_site_fract_y
 _atom_site_fract_z
 _atom_site_occupancy
  Al  Al0  1  0.47535293  0.50280539  0.50412973  1.0
  H  H1  1  0.86042438  0.69290236  0.70744324  1.0
  H  H2  1  0.95374161  0.76408870  0.84751857  1.0
  H  H3  1  0.07042836  0.29238640  0.31622997  1.0
  H  H4  1  0.92409265  0.15010648  0.24473734  1.0
  H  H5  1  0.38118129  0.69115336  0.48317236  1.0
  H  H6  1  0.42105380  0.76305516  0.41129636  1.0
  H  H7  1  0.55335057  0.29624376  0.49043260  1.0
  H  H8  1  0.43404897  0.15386278  0.42334307  1.0
  H  H9  1  0.34762346  0.51586221  0.71223105  1.0
  H  H10  1  0.41337826  0.58236362  0.85220378  1.0
  H  H11  1  0.63525282  0.52116709  0.30910983  1.0
  H  H12  1  0.69359134  0.58865442  0.23332760  1.0
  H  H13  1  0.69066884  0.94646012  0.36660625  1.0
  H  H14  1  0.38558472  0.63106712  0.04790601  1.0
  H  H15  1  0.63942550  0.82639695  0.00647326  1.0
  C  C16  1  0.05228993  0.55983276  0.61845147  1.0
  C  C17  1  0.98127847  0.56112118  0.44498333  1.0
  C  C18  1  0.89221843  0.38703957  0.44851103  1.0
  C  C19  1  0.98666893  0.67016456  0.73989705  1.0
  C  C20  1  0.03612815  0.70935270  0.81762911  1.0
  C  C21  1  0.92748919  0.26148569  0.33852366  1.0
  C  C22  1  0.84905969  0.18265101  0.29910456  1.0
  C  C23  1  0.22623546  0.67042927  0.42932071  1.0
  C  C24  1  0.24955859  0.71010032  0.38922289  1.0
  C  C25  1  0.63918482  0.26351528  0.43747316  1.0
  C  C26  1  0.57162163  0.18454321  0.40005046  1.0
  C  C27  1  0.25766307  0.56953494  0.74256462  1.0
  C  C28  1  0.29589944  0.60671208  0.82026684  1.0
  C  C29  1  0.80834556  0.57374965  0.33050875  1.0
  C  C30  1  0.83981305  0.61142410  0.28854483  1.0
  C  C31  1  0.10048883  0.60063789  0.70192936  1.0
  C  C32  1  0.18904598  0.67761745  0.85878547  1.0
  C  C33  1  0.23499926  0.71731385  0.93813128  1.0
  C  C34  1  0.27562644  0.75400004  0.00647583  1.0
  C  C35  1  0.30864892  0.79533523  0.08584100  1.0
  C  C36  1  0.81975676  0.30248588  0.40739619  1.0
  C  C37  1  0.67152977  0.14316452  0.32976612  1.0
  C  C38  1  0.58987269  0.06309332  0.28877165  1.0
  C  C39  1  0.51804343  0.99462031  0.24720574  1.0
  C  C40  1  0.42432632  0.91496791  0.20447128  1.0
  C  C41  1  0.00318265  0.60251194  0.40075035  1.0
  C  C42  1  0.05885664  0.68059871  0.31775839  1.0
  C  C43  1  0.09582586  0.71978265  0.27598147  1.0
  C  C44  1  0.13875333  0.75477607  0.24136736  1.0
  C  C45  1  0.21642486  0.79506786  0.20232015  1.0
  C  C46  1  0.43045297  0.87470744  0.12603710  1.0
  C  C47  1  0.31747670  0.87452788  0.24159581  1.0
  C  C48  1  0.20030352  0.75619971  0.12389369  1.0
  C  C49  1  0.24074192  0.91608526  0.32012740  1.0
  C  C50  1  0.00859931  0.67689906  0.08123825  1.0
  C  C51  1  0.55313895  0.91953099  0.08870774  1.0
  O  O52  1  0.13968593  0.41962166  0.43557880  1.0
  O  O53  1  0.25442125  0.51516660  0.58750618  1.0
  O  O54  1  0.23573580  0.57335030  0.49199499  1.0
  O  O55  1  0.69982263  0.42132837  0.49441302  1.0
  O  O56  1  0.71402412  0.51721414  0.43329560  1.0
  O  O57  1  0.81184427  0.57320830  0.58496834  1.0
  O  O58  1  0.46104608  0.95571554  0.37993796  1.0
  O  O59  1  0.94515260  0.91045295  0.32421058  1.0
  O  O60  1  0.13511626  0.61787654  0.03674210  1.0
  O  O61  1  0.71728386  0.67037598  0.08882546  1.0
  O  O62  1  0.68619132  0.88182787  0.02545509  1.0
  O  O63  1  0.54828688  0.98740463  0.11434238  1.0
