# generated using pymatgen
data_Zn4H4C24S4N4O21
_symmetry_space_group_name_H-M   'P 1'
_cell_length_a   19.57359701
_cell_length_b   19.61363469
_cell_length_c   33.29383225
_cell_angle_alpha   79.00289277
_cell_angle_beta   79.12308149
_cell_angle_gamma   63.85915271
_symmetry_Int_Tables_number   1
_chemical_formula_structural   Zn4H4C24S4N4O21
_chemical_formula_sum   'Zn16 H16 C96 S16 N16 O84'
_cell_volume   11183.98934688
_cell_formula_units_Z   4
loop_
 _symmetry_equiv_pos_site_id
 _symmetry_equiv_pos_as_xyz
  1  'x, y, z'
loop_
 _atom_site_type_symbol
 _atom_site_label
 _atom_site_symmetry_multiplicity
 _atom_site_fract_x
 _atom_site_fract_y
 _atom_site_fract_z
 _atom_site_occupancy
  Zn  Zn0  1  0.59986545  0.94448529  0.52249619  1.0
  Zn  Zn1  1  0.51734598  0.01285517  0.44029003  1.0
  Zn  Zn2  1  0.43628949  0.94195875  0.51741539  1.0
  Zn  Zn3  1  0.44692251  0.09787164  0.52278058  1.0
  Zn  Zn4  1  0.65111292  0.30494458  0.72819928  1.0
  Zn  Zn5  1  0.81095521  0.30920478  0.73559868  1.0
  Zn  Zn6  1  0.73572661  0.22985068  0.81127462  1.0
  Zn  Zn7  1  0.80291301  0.15021202  0.72895008  1.0
  Zn  Zn8  1  0.23656874  0.73182196  0.31135406  1.0
  Zn  Zn9  1  0.30341831  0.64930459  0.23005183  1.0
  Zn  Zn10  1  0.15129169  0.80464770  0.22825996  1.0
  Zn  Zn11  1  0.31115310  0.80948906  0.23553012  1.0
  Zn  Zn12  1  0.93641716  0.44168327  0.01735321  1.0
  Zn  Zn13  1  0.94622056  0.59701653  0.02400559  1.0
  Zn  Zn14  1  0.09976756  0.44449954  0.02222913  1.0
  Zn  Zn15  1  0.01411551  0.51525627  0.94028791  1.0
  H  H16  1  0.49863149  0.20356794  0.60012900  1.0
  H  H17  1  0.75613698  0.04875521  0.64746030  1.0
  H  H18  1  0.54488791  0.25255127  0.64886107  1.0
  H  H19  1  0.70818855  0.99805396  0.60042317  1.0
  H  H20  1  0.34647751  0.84584386  0.45249203  1.0
  H  H21  1  0.40152544  0.90352047  0.30073350  1.0
  H  H22  1  0.29716739  0.79929415  0.40401833  1.0
  H  H23  1  0.44674209  0.95405616  0.34918355  1.0
  H  H24  1  0.79669381  0.29749641  0.90488855  1.0
  H  H25  1  0.94758827  0.45064946  0.84933030  1.0
  H  H26  1  0.84583815  0.34483704  0.95307397  1.0
  H  H27  1  0.90215519  0.39972478  0.80121115  1.0
  H  H28  1  0.04712680  0.75268364  0.14793254  1.0
  H  H29  1  0.20815281  0.49689599  0.10069101  1.0
  H  H30  1  0.00097735  0.70486542  0.09862248  1.0
  H  H31  1  0.25597431  0.54639814  0.14837779  1.0
  C  C32  1  0.68379100  0.93480870  0.43975125  1.0
  C  C33  1  0.42758065  0.93150217  0.43222370  1.0
  C  C34  1  0.55871628  0.81913924  0.56185518  1.0
  C  C35  1  0.31607068  0.06352697  0.56177567  1.0
  C  C36  1  0.57234318  0.06878451  0.56910620  1.0
  C  C37  1  0.44279910  0.17871549  0.43996354  1.0
  C  C38  1  0.68979508  0.43301675  0.69051896  1.0
  C  C39  1  0.81932887  0.31634385  0.82154295  1.0
  C  C40  1  0.56867348  0.30827851  0.81094835  1.0
  C  C41  1  0.81001504  0.06462192  0.81128383  1.0
  C  C42  1  0.68101345  0.18255973  0.67965393  1.0
  C  C43  1  0.93117388  0.18833623  0.69142631  1.0
  C  C44  1  0.31291960  0.56539958  0.31220279  1.0
  C  C45  1  0.18173497  0.68079624  0.18028779  1.0
  C  C46  1  0.06989810  0.80667421  0.31122127  1.0
  C  C47  1  0.18940149  0.93311376  0.19063987  1.0
  C  C48  1  0.31924047  0.81926610  0.32084996  1.0
  C  C49  1  0.43053755  0.68910489  0.19076371  1.0
  C  C50  1  0.81656383  0.56178096  0.06252888  1.0
  C  C51  1  0.07316622  0.56884521  0.06856591  1.0
  C  C52  1  0.05899327  0.31902544  0.06172903  1.0
  C  C53  1  0.18172926  0.43746096  0.93876229  1.0
  C  C54  1  0.92718918  0.43033056  0.93236332  1.0
  C  C55  1  0.93775394  0.67980332  0.94082118  1.0
  C  C56  1  0.60073185  0.09802179  0.59759819  1.0
  C  C57  1  0.65309642  0.15339359  0.65090415  1.0
  C  C58  1  0.55458809  0.16998684  0.61094678  1.0
  C  C59  1  0.69963527  0.08180861  0.63718853  1.0
  C  C60  1  0.58036063  0.19724016  0.63782243  1.0
  C  C61  1  0.67318175  0.05388330  0.61097140  1.0
  C  C62  1  0.39928402  0.90260582  0.40354360  1.0
  C  C63  1  0.34690365  0.84849490  0.34966280  1.0
  C  C64  1  0.35752466  0.85871338  0.41925007  1.0
  C  C65  1  0.38930336  0.89176760  0.33397316  1.0
  C  C66  1  0.33060122  0.83251653  0.39238932  1.0
  C  C67  1  0.41467769  0.91947602  0.36081618  1.0
  C  C68  1  0.54608246  0.69353952  0.59811217  1.0
  C  C69  1  0.70658961  0.55340891  0.64922662  1.0
  C  C70  1  0.58384110  0.74113235  0.58485983  1.0
  C  C71  1  0.66809723  0.50670996  0.66324158  1.0
  C  C72  1  0.66085578  0.62327138  0.62714539  1.0
  C  C73  1  0.58925442  0.62673912  0.62322883  1.0
  C  C74  1  0.42308861  0.27129134  0.37084134  1.0
  C  C75  1  0.32438457  0.47243522  0.38074895  1.0
  C  C76  1  0.41483379  0.25318296  0.41349644  1.0
  C  C77  1  0.33384215  0.49046684  0.33816816  1.0
  C  C78  1  0.36006514  0.39265863  0.39292381  1.0
  C  C79  1  0.39336080  0.35127711  0.35896063  1.0
  C  C80  1  0.77627915  0.92433837  0.37113987  1.0
  C  C81  1  0.97807552  0.82590830  0.38057533  1.0
  C  C82  1  0.75869218  0.91442821  0.41373790  1.0
  C  C83  1  0.99561416  0.83440185  0.33789250  1.0
  C  C84  1  0.89804538  0.85532212  0.39267710  1.0
  C  C85  1  0.85607252  0.88876717  0.35883621  1.0
  C  C86  1  0.19462001  0.16037221  0.60205376  1.0
  C  C87  1  0.04800903  0.09544685  0.64647359  1.0
  C  C88  1  0.23861705  0.09203096  0.58528997  1.0
  C  C89  1  0.00456788  0.16324804  0.66392117  1.0
  C  C90  1  0.11896281  0.09283492  0.62556011  1.0
  C  C91  1  0.12673382  0.16042692  0.62606388  1.0
  C  C92  1  0.84689456  0.34573978  0.85035111  1.0
  C  C93  1  0.89920227  0.40065700  0.90390512  1.0
  C  C94  1  0.83034578  0.33045996  0.89310284  1.0
  C  C95  1  0.91504148  0.41660761  0.86114030  1.0
  C  C96  1  0.85716837  0.35710043  0.91980264  1.0
  C  C97  1  0.88965638  0.38859404  0.83447445  1.0
  C  C98  1  0.47618578  0.32820530  0.88003213  1.0
  C  C99  1  0.27459970  0.42701289  0.87012562  1.0
  C  C100  1  0.49414425  0.33679302  0.83738566  1.0
  C  C101  1  0.25664976  0.41700436  0.91268607  1.0
  C  C102  1  0.35447593  0.39143215  0.85798491  1.0
  C  C103  1  0.39610081  0.35777326  0.89194339  1.0
  C  C104  1  0.87935690  0.91536123  0.82344172  1.0
  C  C105  1  0.87709022  0.82966674  0.92905755  1.0
  C  C106  1  0.83966033  0.98818732  0.83571461  1.0
  C  C107  1  0.91549855  0.75667223  0.91677464  1.0
  C  C108  1  0.86063737  0.88748675  0.89498652  1.0
  C  C109  1  0.88989290  0.85724629  0.85728923  1.0
  C  C110  1  0.15407975  0.65219139  0.15105931  1.0
  C  C111  1  0.10177768  0.59798434  0.09702013  1.0
  C  C112  1  0.08212116  0.69703611  0.13719192  1.0
  C  C113  1  0.17360530  0.55298092  0.11101218  1.0
  C  C114  1  0.05635419  0.67039983  0.10998545  1.0
  C  C115  1  0.19999220  0.58026167  0.13760491  1.0
  C  C116  1  0.54697801  0.59600779  0.14580929  1.0
  C  C117  1  0.69479741  0.65949028  0.10198694  1.0
  C  C118  1  0.50360612  0.66412269  0.16297931  1.0
  C  C119  1  0.73879997  0.59080404  0.08559634  1.0
  C  C120  1  0.62635374  0.66023950  0.12557620  1.0
  C  C121  1  0.61829407  0.59276544  0.12516656  1.0
  C  C122  1  0.20645224  0.05339504  0.14921772  1.0
  C  C123  1  0.04615237  0.19360116  0.09799173  1.0
  C  C124  1  0.16784812  0.00678570  0.16328968  1.0
  C  C125  1  0.08407020  0.24106103  0.08472853  1.0
  C  C126  1  0.08912154  0.12684643  0.12320320  1.0
  C  C127  1  0.16076043  0.12325916  0.12712454  1.0
  S  S128  1  0.67308686  0.70291275  0.60223372  1.0
  S  S129  1  0.57659627  0.54749445  0.64836158  1.0
  S  S130  1  0.36869154  0.33414565  0.43888928  1.0
  S  S131  1  0.38468542  0.40955646  0.31294971  1.0
  S  S132  1  0.84013858  0.86350677  0.43877520  1.0
  S  S133  1  0.91401529  0.88037840  0.31275230  1.0
  S  S134  1  0.19583004  0.02852802  0.59804331  1.0
  S  S135  1  0.04977107  0.22456447  0.65366392  1.0
  S  S136  1  0.41286789  0.38303110  0.81202901  1.0
  S  S137  1  0.33784738  0.36573404  0.93790501  1.0
  S  S138  1  0.81707521  0.98559274  0.88881964  1.0
  S  S139  1  0.93337885  0.75910318  0.86356425  1.0
  S  S140  1  0.54921036  0.72502361  0.15272993  1.0
  S  S141  1  0.69541972  0.52783020  0.09814270  1.0
  S  S142  1  0.07635881  0.04765936  0.14839447  1.0
  S  S143  1  0.17325051  0.20272674  0.10219293  1.0
  N  N144  1  0.47376647  0.70276855  0.58695750  1.0
  N  N145  1  0.78594465  0.53589860  0.65263908  1.0
  N  N146  1  0.45157602  0.21968262  0.33931392  1.0
  N  N147  1  0.27935303  0.52427400  0.41148740  1.0
  N  N148  1  0.72424918  0.96975154  0.34036744  1.0
  N  N149  1  0.03028513  0.79735581  0.41196685  1.0
  N  N150  1  0.20882178  0.22887369  0.59536148  1.0
  N  N151  1  0.02643640  0.03378514  0.64493972  1.0
  N  N152  1  0.52823051  0.29863057  0.91148388  1.0
  N  N153  1  0.22271457  0.47196260  0.83925263  1.0
  N  N154  1  0.91343432  0.89516885  0.78209136  1.0
  N  N155  1  0.85897407  0.85111165  0.97064372  1.0
  N  N156  1  0.52518913  0.53442066  0.14470103  1.0
  N  N157  1  0.70940327  0.72780334  0.09517707  1.0
  N  N158  1  0.28587868  0.03594797  0.15239506  1.0
  N  N159  1  0.97391664  0.20288965  0.08670448  1.0
  O  O160  1  0.50041075  0.99881774  0.50096633  1.0
  O  O161  1  0.68599552  0.93310739  0.47811345  1.0
  O  O162  1  0.45594641  0.97947942  0.41622564  1.0
  O  O163  1  0.48752321  0.85842651  0.56016668  1.0
  O  O164  1  0.62572603  0.94961788  0.42230256  1.0
  O  O165  1  0.61299292  0.83966806  0.54690998  1.0
  O  O166  1  0.42131496  0.90609272  0.47045074  1.0
  O  O167  1  0.33359903  0.00477704  0.54387962  1.0
  O  O168  1  0.51188117  0.11648767  0.55307442  1.0
  O  O169  1  0.35801447  0.09742881  0.56233275  1.0
  O  O170  1  0.61050171  0.99865326  0.56297735  1.0
  O  O171  1  0.49634713  0.12163024  0.42425942  1.0
  O  O172  1  0.41058008  0.18065681  0.47723169  1.0
  O  O173  1  0.74941868  0.24966504  0.75080067  1.0
  O  O174  1  0.64784618  0.39789118  0.69105996  1.0
  O  O175  1  0.84585332  0.32235749  0.78351527  1.0
  O  O176  1  0.62550670  0.25458262  0.82689854  1.0
  O  O177  1  0.74512213  0.41285219  0.71125322  1.0
  O  O178  1  0.56692653  0.34008294  0.77358095  1.0
  O  O179  1  0.77157174  0.28745699  0.83707933  1.0
  O  O180  1  0.79135892  0.12075213  0.83156300  1.0
  O  O181  1  0.75115606  0.14481392  0.68602954  1.0
  O  O182  1  0.80370613  0.06805732  0.77365397  1.0
  O  O183  1  0.63273151  0.24273590  0.69566665  1.0
  O  O184  1  0.89838948  0.26016451  0.69448795  1.0
  O  O185  1  0.90895884  0.13759750  0.71004898  1.0
  O  O186  1  0.24983189  0.74961078  0.25061778  1.0
  O  O187  1  0.29932914  0.62325045  0.32935614  1.0
  O  O188  1  0.25099117  0.64140918  0.18802106  1.0
  O  O189  1  0.06738953  0.83858707  0.27384298  1.0
  O  O190  1  0.31294384  0.56344312  0.27399949  1.0
  O  O191  1  0.12735937  0.75357175  0.32694988  1.0
  O  O192  1  0.13400328  0.74222827  0.19530375  1.0
  O  O193  1  0.14749234  0.89796198  0.19115480  1.0
  O  O194  1  0.34673942  0.82375039  0.28289141  1.0
  O  O195  1  0.24457094  0.91311081  0.21144717  1.0
  O  O196  1  0.27025962  0.79190237  0.33634916  1.0
  O  O197  1  0.40903161  0.63808901  0.20975000  1.0
  O  O198  1  0.39761634  0.76091693  0.19377198  1.0
  O  O199  1  0.00030063  0.49889076  0.00078609  1.0
  O  O200  1  0.83359213  0.50410934  0.04381360  1.0
  O  O201  1  0.01235986  0.61640434  0.05278097  1.0
  O  O202  1  0.11320493  0.33966254  0.04676884  1.0
  O  O203  1  0.85928614  0.59422288  0.06423685  1.0
  O  O204  1  0.98778270  0.35828294  0.06004484  1.0
  O  O205  1  0.11142218  0.49877065  0.06227465  1.0
  O  O206  1  0.18480435  0.43351310  0.97722976  1.0
  O  O207  1  0.95507334  0.47860536  0.91613963  1.0
  O  O208  1  0.12311775  0.45452239  0.92128397  1.0
  O  O209  1  0.92108328  0.40532336  0.97063963  1.0
  O  O210  1  0.90527498  0.67508109  0.97733010  1.0
  O  O211  1  0.98694524  0.62465208  0.92114858  1.0
  O  O212  1  0.44091097  0.66721434  0.61179791  1.0
  O  O213  1  0.45171697  0.74076084  0.55411937  1.0
  O  O214  1  0.79886290  0.59264367  0.65289030  1.0
  O  O215  1  0.83431479  0.46901463  0.65313258  1.0
  O  O216  1  0.47362594  0.24637431  0.30488021  1.0
  O  O217  1  0.44886825  0.15685932  0.34750906  1.0
  O  O218  1  0.30062952  0.50189290  0.44654307  1.0
  O  O219  1  0.22306076  0.58311106  0.40184656  1.0
  O  O220  1  0.74638271  0.94860627  0.30532993  1.0
  O  O221  1  0.66571324  0.02624851  0.34990033  1.0
  O  O222  1  0.00419904  0.77472613  0.44641555  1.0
  O  O223  1  0.09294281  0.80061711  0.40363226  1.0
  O  O224  1  0.18120700  0.26939665  0.62409174  1.0
  O  O225  1  0.24298993  0.24387767  0.56224231  1.0
  O  O226  1  0.08145339  0.97110108  0.63892686  1.0
  O  O227  1  0.95807079  0.04742189  0.64749926  1.0
  O  O228  1  0.50215346  0.27501665  0.94566426  1.0
  O  O229  1  0.59106468  0.30163552  0.90350266  1.0
  O  O230  1  0.24454731  0.44988926  0.80443324  1.0
  O  O231  1  0.16443902  0.52893784  0.84850707  1.0
  O  O232  1  0.92041439  0.83161225  0.77579791  1.0
  O  O233  1  0.93561931  0.93879519  0.75742015  1.0
  O  O234  1  0.80624125  0.91599957  0.97459738  1.0
  O  O235  1  0.89760417  0.80744170  0.99788663  1.0
  O  O236  1  0.57999728  0.47132489  0.13919796  1.0
  O  O237  1  0.45673499  0.54819365  0.14727205  1.0
  O  O238  1  0.68036555  0.76938186  0.12342441  1.0
  O  O239  1  0.74520142  0.74156250  0.06240477  1.0
  O  O240  1  0.29903858  0.09289814  0.15171189  1.0
  O  O241  1  0.33410907  0.96896084  0.15354183  1.0
  O  O242  1  0.94059693  0.16788200  0.11160615  1.0
  O  O243  1  0.95238693  0.24038880  0.05366678  1.0
