# generated using pymatgen
data_Zn2H20C45(N2O15)2
_symmetry_space_group_name_H-M   'P 1'
_cell_length_a   10.18055141
_cell_length_b   11.11285796
_cell_length_c   23.45536044
_cell_angle_alpha   87.01865581
_cell_angle_beta   89.32944765
_cell_angle_gamma   88.35698536
_symmetry_Int_Tables_number   1
_chemical_formula_structural   Zn2H20C45(N2O15)2
_chemical_formula_sum   'Zn2 H20 C45 N4 O30'
_cell_volume   2648.80298224
_cell_formula_units_Z   1
loop_
 _symmetry_equiv_pos_site_id
 _symmetry_equiv_pos_as_xyz
  1  'x, y, z'
loop_
 _atom_site_type_symbol
 _atom_site_label
 _atom_site_symmetry_multiplicity
 _atom_site_fract_x
 _atom_site_fract_y
 _atom_site_fract_z
 _atom_site_occupancy
  Zn  Zn0  1  0.62807971  0.53649974  0.49193281  1.0
  Zn  Zn1  1  0.34408951  0.51890827  0.50060629  1.0
  H  H2  1  0.63852512  0.60532407  0.78428715  1.0
  H  H3  1  0.64216718  0.18066905  0.49261105  1.0
  H  H4  1  0.89939072  0.68635801  0.37398731  1.0
  H  H5  1  0.80500455  0.47089595  0.56990521  1.0
  H  H6  1  0.22564078  0.70879059  0.43510032  1.0
  H  H7  1  0.79822347  0.15750631  0.92363944  1.0
  H  H8  1  0.16852553  0.34664234  0.50019323  1.0
  H  H9  1  0.23685392  0.70246089  0.89834034  1.0
  H  H10  1  0.21271188  0.61116135  0.08721752  1.0
  H  H11  1  0.63365917  0.67457117  0.62667299  1.0
  H  H12  1  0.43651445  0.26727621  0.61866058  1.0
  H  H13  1  0.43925230  0.26748226  0.77908915  1.0
  H  H14  1  0.31920052  0.31021934  0.19020064  1.0
  H  H15  1  0.75723021  0.24619631  0.11028058  1.0
  H  H16  1  0.29900503  0.42797732  0.37400172  1.0
  H  H17  1  0.61980585  0.71646928  0.34049549  1.0
  H  H18  1  0.64238862  0.57707288  0.15119941  1.0
  H  H19  1  0.32395561  0.97639665  0.63897341  1.0
  H  H20  1  0.58567626  0.90295507  0.44032419  1.0
  H  H21  1  0.18724317  0.06335147  0.55210030  1.0
  C  C22  1  0.45120210  0.28796602  0.49955371  1.0
  C  C23  1  0.41675711  0.49022130  0.87288627  1.0
  C  C24  1  0.59534699  0.53474973  0.76048115  1.0
  C  C25  1  0.53112213  0.47446272  0.60543061  1.0
  C  C26  1  0.59667092  0.54675565  0.70078592  1.0
  C  C27  1  0.53926540  0.45783505  0.66929865  1.0
  C  C28  1  0.48439935  0.35601319  0.69783015  1.0
  C  C29  1  0.48364919  0.34594936  0.75760589  1.0
  C  C30  1  0.53720663  0.43600456  0.78816941  1.0
  C  C31  1  0.39502105  0.40635074  0.24618187  1.0
  C  C32  1  0.39033022  0.43814774  0.30396716  1.0
  C  C33  1  0.69507042  0.29767305  0.03750157  1.0
  C  C34  1  0.48467940  0.51647402  0.32291403  1.0
  C  C35  1  0.57874296  0.57026844  0.28489515  1.0
  C  C36  1  0.57882493  0.54144479  0.22742072  1.0
  C  C37  1  0.45041442  0.74692058  0.51823224  1.0
  C  C38  1  0.48730606  0.45901189  0.20897994  1.0
  C  C39  1  0.39347178  0.95641432  0.54987532  1.0
  C  C40  1  0.43943586  0.88095512  0.51035159  1.0
  C  C41  1  0.37050746  0.08575340  0.53607642  1.0
  C  C42  1  0.46639725  0.15865749  0.51450375  1.0
  C  C43  1  0.91369064  0.60075097  0.46271323  1.0
  C  C44  1  0.70670286  0.29956051  0.97669322  1.0
  C  C45  1  0.05719388  0.59839554  0.46578968  1.0
  C  C46  1  0.49080371  0.53270956  0.38533479  1.0
  C  C47  1  0.38416511  0.49994352  0.11634537  1.0
  C  C48  1  0.58316914  0.36367784  0.12518100  1.0
  C  C49  1  0.58996512  0.36204962  0.06341883  1.0
  C  C50  1  0.49497578  0.42640755  0.02950110  1.0
  C  C51  1  0.39085430  0.49206336  0.05500508  1.0
  C  C52  1  0.66274918  0.66568972  0.30479058  1.0
  C  C53  1  0.36638484  0.90964444  0.60961979  1.0
  C  C54  1  0.48066126  0.92295188  0.45065521  1.0
  C  C55  1  0.61184511  0.36293094  0.94397215  1.0
  C  C56  1  0.85098658  0.68391664  0.41650192  1.0
  C  C57  1  0.11884530  0.71160202  0.44321920  1.0
  C  C58  1  0.82251471  0.23318917  0.95049407  1.0
  C  C59  1  0.20103286  0.62402191  0.92489687  1.0
  C  C60  1  0.65335357  0.65780612  0.67292688  1.0
  C  C61  1  0.42912792  0.25729353  0.66599296  1.0
  C  C62  1  0.50484978  0.42611369  0.96923570  1.0
  C  C63  1  0.40843219  0.49087061  0.93585746  1.0
  C  C64  1  0.30407067  0.55424392  0.96018576  1.0
  C  C65  1  0.29498337  0.55560636  0.02089642  1.0
  C  C66  1  0.62674710  0.36785298  0.88089787  1.0
  N  N67  1  0.48314186  0.43737926  0.14901908  1.0
  N  N68  1  0.52693639  0.43030700  0.84970339  1.0
  N  N69  1  0.83301822  0.54970514  0.49916202  1.0
  N  N70  1  0.13771556  0.50926578  0.48125813  1.0
  O  O71  1  0.55619648  0.34277055  0.48615789  1.0
  O  O72  1  0.60246516  0.54272192  0.40815226  1.0
  O  O73  1  0.38144765  0.53071523  0.41340214  1.0
  O  O74  1  0.29721194  0.55960976  0.14119012  1.0
  O  O75  1  0.78312455  0.23452129  0.06887670  1.0
  O  O76  1  0.29628458  0.38691304  0.33748807  1.0
  O  O77  1  0.77067628  0.69197300  0.28475388  1.0
  O  O78  1  0.66260224  0.59777816  0.18993619  1.0
  O  O79  1  0.39410185  0.80579517  0.62633031  1.0
  O  O80  1  0.40347555  0.96918466  0.41620847  1.0
  O  O81  1  0.24676132  0.13054698  0.54803222  1.0
  O  O82  1  0.66245830  0.30682719  0.15735842  1.0
  O  O83  1  0.59076899  0.11095143  0.50629730  1.0
  O  O84  1  0.74880747  0.73975621  0.42572834  1.0
  O  O85  1  0.88521583  0.49356912  0.54687971  1.0
  O  O86  1  0.04974718  0.80170830  0.43197650  1.0
  O  O87  1  0.93529964  0.25772646  0.96085326  1.0
  O  O88  1  0.08760325  0.39961381  0.49277375  1.0
  O  O89  1  0.08527508  0.59975543  0.92826879  1.0
  O  O90  1  0.19857533  0.61984799  0.04430024  1.0
  O  O91  1  0.71703846  0.72811803  0.69913578  1.0
  O  O92  1  0.37906866  0.16810477  0.68912502  1.0
  O  O93  1  0.72046386  0.32058107  0.85622786  1.0
  O  O94  1  0.30628910  0.32646776  0.23036233  1.0
  O  O95  1  0.33333333  0.53983648  0.84154423  1.0
  O  O96  1  0.33608960  0.33943262  0.50131971  1.0
  O  O97  1  0.63939749  0.47377016  0.57676993  1.0
  O  O98  1  0.41792706  0.48891702  0.58475579  1.0
  O  O99  1  0.56445811  0.69892485  0.51982309  1.0
  O  O100  1  0.34206058  0.69371975  0.51318357  1.0
