# generated using pymatgen
data_Zn4H36C36N4O13
_symmetry_space_group_name_H-M   'P 1'
_cell_length_a   17.76112237
_cell_length_b   18.63217823
_cell_length_c   23.46518791
_cell_angle_alpha   66.83204752
_cell_angle_beta   69.80863274
_cell_angle_gamma   89.94372215
_symmetry_Int_Tables_number   1
_chemical_formula_structural   Zn4H36C36N4O13
_chemical_formula_sum   'Zn8 H72 C72 N8 O26'
_cell_volume   6618.05246000
_cell_formula_units_Z   2
loop_
 _symmetry_equiv_pos_site_id
 _symmetry_equiv_pos_as_xyz
  1  'x, y, z'
loop_
 _atom_site_type_symbol
 _atom_site_label
 _atom_site_symmetry_multiplicity
 _atom_site_fract_x
 _atom_site_fract_y
 _atom_site_fract_z
 _atom_site_occupancy
  Zn  Zn0  1  0.11720112  0.53067213  0.94207380  1.0
  Zn  Zn1  1  0.97172192  0.55830266  0.05208499  1.0
  Zn  Zn2  1  0.97502954  0.38966576  0.05176676  1.0
  Zn  Zn3  1  0.93947499  0.53054203  0.93500583  1.0
  Zn  Zn4  1  0.38577165  0.97733201  0.05023722  1.0
  Zn  Zn5  1  0.52930819  0.11497341  0.93690076  1.0
  Zn  Zn6  1  0.52328696  0.94682503  0.93739300  1.0
  Zn  Zn7  1  0.56610485  0.97261025  0.05176859  1.0
  H  H8  1  0.43277207  0.80593241  0.39050019  1.0
  H  H9  1  0.19472045  0.80491122  0.38106678  1.0
  H  H10  1  0.31805393  0.69145808  0.61010003  1.0
  H  H11  1  0.08137713  0.70434292  0.59796075  1.0
  H  H12  1  0.69851557  0.08340839  0.60244753  1.0
  H  H13  1  0.70223591  0.31310130  0.60551601  1.0
  H  H14  1  0.81220720  0.19166732  0.38650558  1.0
  H  H15  1  0.80455443  0.42277694  0.38658435  1.0
  H  H16  1  0.19629505  0.30109861  0.91223119  1.0
  H  H17  1  0.12517329  0.22917956  0.98808169  1.0
  H  H18  1  0.21529789  0.13804663  0.98431064  1.0
  H  H19  1  0.28635872  0.21080629  0.90899135  1.0
  H  H20  1  0.21536184  0.12404150  0.09502140  1.0
  H  H21  1  0.28735357  0.18484663  0.09939752  1.0
  H  H22  1  0.12661973  0.21677200  0.09866745  1.0
  H  H23  1  0.20004487  0.27788468  0.10117461  1.0
  H  H24  1  0.30092523  0.39046719  0.91523674  1.0
  H  H25  1  0.30236355  0.38242560  0.99204337  1.0
  H  H26  1  0.39127335  0.28992564  0.99083010  1.0
  H  H27  1  0.39089440  0.29933391  0.91345993  1.0
  H  H28  1  0.89024533  0.79938140  0.90683836  1.0
  H  H29  1  0.88681705  0.78695589  0.98648614  1.0
  H  H30  1  0.79791218  0.87978364  0.98692963  1.0
  H  H31  1  0.80099791  0.89058829  0.90775752  1.0
  H  H32  1  0.69495901  0.77666824  0.09176799  1.0
  H  H33  1  0.62237515  0.71536002  0.08843311  1.0
  H  H34  1  0.78194884  0.68224458  0.09112748  1.0
  H  H35  1  0.71001835  0.62284475  0.08541831  1.0
  H  H36  1  0.78922256  0.71297250  0.89797439  1.0
  H  H37  1  0.71618211  0.63968973  0.97032967  1.0
  H  H38  1  0.62594598  0.73064102  0.97377560  1.0
  H  H39  1  0.69823341  0.80328973  0.90059658  1.0
  H  H40  1  0.16087377  0.79206266  0.93804601  1.0
  H  H41  1  0.24544995  0.75628036  0.89705717  1.0
  H  H42  1  0.33253586  0.85257589  0.89438529  1.0
  H  H43  1  0.24751963  0.88742385  0.93587881  1.0
  H  H44  1  0.39432810  0.74501050  0.96081334  1.0
  H  H45  1  0.35350614  0.70428318  0.04905060  1.0
  H  H46  1  0.30640852  0.64860028  0.96383469  1.0
  H  H47  1  0.26602760  0.60889159  0.05201496  1.0
  H  H48  1  0.10165670  0.73462037  0.06511573  1.0
  H  H49  1  0.14424114  0.65962966  0.11178435  1.0
  H  H50  1  0.23231676  0.75507916  0.10911331  1.0
  H  H51  1  0.18922342  0.82996168  0.06293539  1.0
  H  H52  1  0.89988328  0.26723085  0.92962439  1.0
  H  H53  1  0.85551966  0.34299046  0.88445990  1.0
  H  H54  1  0.76929442  0.24734848  0.88552916  1.0
  H  H55  1  0.81311097  0.17205468  0.93167948  1.0
  H  H56  1  0.64956470  0.29757405  0.94476870  1.0
  H  H57  1  0.60652887  0.25717988  0.03289897  1.0
  H  H58  1  0.73612079  0.39231543  0.94494089  1.0
  H  H59  1  0.69348608  0.35039566  0.03308171  1.0
  H  H60  1  0.83990676  0.20626140  0.05669669  1.0
  H  H61  1  0.75628431  0.24041454  0.09943144  1.0
  H  H62  1  0.66775830  0.14709515  0.10027935  1.0
  H  H63  1  0.75141313  0.11187061  0.05880571  1.0
  H  H64  1  0.54085935  0.89407387  0.21190670  1.0
  H  H65  1  0.54629771  0.85756785  0.29201199  1.0
  H  H66  1  0.26593918  0.90072512  0.20237987  1.0
  H  H67  1  0.18267124  0.85975049  0.27891126  1.0
  H  H68  1  0.24365940  0.60715462  0.78931237  1.0
  H  H69  1  0.32818197  0.64350972  0.71328133  1.0
  H  H70  1  0.97091738  0.61109181  0.77558363  1.0
  H  H71  1  0.96723196  0.65250900  0.69522455  1.0
  H  H72  1  0.60874500  0.97520360  0.78101748  1.0
  H  H73  1  0.64960508  0.97197044  0.70243398  1.0
  H  H74  1  0.59771895  0.24033087  0.78314114  1.0
  H  H75  1  0.64349617  0.32249753  0.70611343  1.0
  H  H76  1  0.89259618  0.26286200  0.20749602  1.0
  H  H77  1  0.85715158  0.18083807  0.28587316  1.0
  H  H78  1  0.89486021  0.52907843  0.20802585  1.0
  H  H79  1  0.85630175  0.53308624  0.28640476  1.0
  C  C80  1  0.14164113  0.63472311  0.00357041  1.0
  C  C81  1  0.90733540  0.41045874  0.17857465  1.0
  C  C82  1  0.14358568  0.36382253  0.00171258  1.0
  C  C83  1  0.86124889  0.36623681  0.98995264  1.0
  C  C84  1  0.09194432  0.59434259  0.81190867  1.0
  C  C85  1  0.86042560  0.64268322  0.98995842  1.0
  C  C86  1  0.36067766  0.14208268  0.99661694  1.0
  C  C87  1  0.58615427  0.09309716  0.81096221  1.0
  C  C88  1  0.35536212  0.86437977  0.99779896  1.0
  C  C89  1  0.64267118  0.86452516  0.99344157  1.0
  C  C90  1  0.41821383  0.91215995  0.17775925  1.0
  C  C91  1  0.64743378  0.13954492  0.99146662  1.0
  C  C92  1  0.38172178  0.87358024  0.25087324  1.0
  C  C93  1  0.43111420  0.85452524  0.29091223  1.0
  C  C94  1  0.39453241  0.81954088  0.36108124  1.0
  C  C95  1  0.30981282  0.80206507  0.39353313  1.0
  C  C96  1  0.26056053  0.81913172  0.35576098  1.0
  C  C97  1  0.29464535  0.85410507  0.28560912  1.0
  C  C98  1  0.27341423  0.76703532  0.46446282  1.0
  C  C99  1  0.24087155  0.73692097  0.52538521  1.0
  C  C100  1  0.20377788  0.70178765  0.59626520  1.0
  C  C101  1  0.25213750  0.68089076  0.63477431  1.0
  C  C102  1  0.21698562  0.64580469  0.70493101  1.0
  C  C103  1  0.12977552  0.63083925  0.73881498  1.0
  C  C104  1  0.08136271  0.65311148  0.69799329  1.0
  C  C105  1  0.11893070  0.68780165  0.62795511  1.0
  C  C106  1  0.62669881  0.12996798  0.73831713  1.0
  C  C107  1  0.64665913  0.08279984  0.70048835  1.0
  C  C108  1  0.68459875  0.11954411  0.63059074  1.0
  C  C109  1  0.70387807  0.20202387  0.59655013  1.0
  C  C110  1  0.68630002  0.24903094  0.63226428  1.0
  C  C111  1  0.64822797  0.21469664  0.70216937  1.0
  C  C112  1  0.74045145  0.23784786  0.52581527  1.0
  C  C113  1  0.77066249  0.26831846  0.46483515  1.0
  C  C114  1  0.80488552  0.30353021  0.39398643  1.0
  C  C115  1  0.82349777  0.25575843  0.35900350  1.0
  C  C116  1  0.85684177  0.28937408  0.28884119  1.0
  C  C117  1  0.87238808  0.37417814  0.25158979  1.0
  C  C118  1  0.85261597  0.42198070  0.28891442  1.0
  C  C119  1  0.81953787  0.38598067  0.35906314  1.0
  C  C120  1  0.18851883  0.25905047  0.96313039  1.0
  C  C121  1  0.24829530  0.19852149  0.96100558  1.0
  C  C122  1  0.30357652  0.20285903  0.99850410  1.0
  C  C123  1  0.24885490  0.18427452  0.07149932  1.0
  C  C124  1  0.19018487  0.24567628  0.07321827  1.0
  C  C125  1  0.20359315  0.30538446  0.00147434  1.0
  C  C126  1  0.29185279  0.34778532  0.96611526  1.0
  C  C127  1  0.35102878  0.28699935  0.96495423  1.0
  C  C128  1  0.84893687  0.78577644  0.95835788  1.0
  C  C129  1  0.78960224  0.84699078  0.95898064  1.0
  C  C130  1  0.70082340  0.80443817  0.99161814  1.0
  C  C131  1  0.68605297  0.74440721  0.06364393  1.0
  C  C132  1  0.74437014  0.68278782  0.06244518  1.0
  C  C133  1  0.80070145  0.70149025  0.98975413  1.0
  C  C134  1  0.74899779  0.69982579  0.94956118  1.0
  C  C135  1  0.68923439  0.76011797  0.95134234  1.0
  C  C136  1  0.21802455  0.77066967  0.94020294  1.0
  C  C137  1  0.27585714  0.83425527  0.93855695  1.0
  C  C138  1  0.29656898  0.80132152  0.00211869  1.0
  C  C139  1  0.33731439  0.72737709  0.00456136  1.0
  C  C140  1  0.27908651  0.66379175  0.00648838  1.0
  C  C141  1  0.19867345  0.69422690  0.00517258  1.0
  C  C142  1  0.15944847  0.71404876  0.06561632  1.0
  C  C143  1  0.21760592  0.77730491  0.06396371  1.0
  C  C144  1  0.84176314  0.28775144  0.92973574  1.0
  C  C145  1  0.78400303  0.22447556  0.93065276  1.0
  C  C146  1  0.70421644  0.19956097  0.99288762  1.0
  C  C147  1  0.66439656  0.27415682  0.98977548  1.0
  C  C148  1  0.72212423  0.33657814  0.98970721  1.0
  C  C149  1  0.80191251  0.30533001  0.99193582  1.0
  C  C150  1  0.78281660  0.22784611  0.05517301  1.0
  C  C151  1  0.72445490  0.16561420  0.05602934  1.0
  N  N152  1  0.51371638  0.87047508  0.26249385  1.0
  N  N153  1  0.24270428  0.86665478  0.25237553  1.0
  N  N154  1  0.26792736  0.62495599  0.73900977  1.0
  N  N155  1  0.99858192  0.64326477  0.72547121  1.0
  N  N156  1  0.62754342  0.00235141  0.73043092  1.0
  N  N157  1  0.63487614  0.26368265  0.73411901  1.0
  N  N158  1  0.87521860  0.23950805  0.25796967  1.0
  N  N159  1  0.86321164  0.50252271  0.25814313  1.0
  O  O160  1  0.00040673  0.50276898  0.99417077  1.0
  O  O161  1  0.17233898  0.60332543  0.96280367  1.0
  O  O162  1  0.92566686  0.48659115  0.14720239  1.0
  O  O163  1  0.07044729  0.33574275  0.04280199  1.0
  O  O164  1  0.06719500  0.62240980  0.04157711  1.0
  O  O165  1  0.17016284  0.43572063  0.95998901  1.0
  O  O166  1  0.91924332  0.36584204  0.14667348  1.0
  O  O167  1  0.90264507  0.33956845  0.02652551  1.0
  O  O168  1  0.01366602  0.57585577  0.84059200  1.0
  O  O169  1  0.86639555  0.43869739  0.95122939  1.0
  O  O170  1  0.13788705  0.58139072  0.84626539  1.0
  O  O171  1  0.89698549  0.63200846  0.03027377  1.0
  O  O172  1  0.86995514  0.60924302  0.95037457  1.0
  O  O173  1  0.50154150  0.00220595  0.99539363  1.0
  O  O174  1  0.32889178  0.06927528  0.03059677  1.0
  O  O175  1  0.55968679  0.13708522  0.84246336  1.0
  O  O176  1  0.42588181  0.88232772  0.95162807  1.0
  O  O177  1  0.43571923  0.16822126  0.96102950  1.0
  O  O178  1  0.33017131  0.89495536  0.03963300  1.0
  O  O179  1  0.57708454  0.01703467  0.84248085  1.0
  O  O180  1  0.59979435  0.87418580  0.95803629  1.0
  O  O181  1  0.49641499  0.92259789  0.14764812  1.0
  O  O182  1  0.64107497  0.90032542  0.03041132  1.0
  O  O183  1  0.37102739  0.93550945  0.14480612  1.0
  O  O184  1  0.61913903  0.16559589  0.94511259  1.0
  O  O185  1  0.63259662  0.06865957  0.03577781  1.0
