# generated using pymatgen
data_ZnH4C11(NF)4
_symmetry_space_group_name_H-M   'P 1'
_cell_length_a   13.18195574
_cell_length_b   13.20775653
_cell_length_c   14.34481323
_cell_angle_alpha   115.43773906
_cell_angle_beta   115.24552217
_cell_angle_gamma   75.11247036
_symmetry_Int_Tables_number   1
_chemical_formula_structural   ZnH4C11(NF)4
_chemical_formula_sum   'Zn4 H16 C44 N16 F16'
_cell_volume   2031.62407591
_cell_formula_units_Z   4
loop_
 _symmetry_equiv_pos_site_id
 _symmetry_equiv_pos_as_xyz
  1  'x, y, z'
loop_
 _atom_site_type_symbol
 _atom_site_label
 _atom_site_symmetry_multiplicity
 _atom_site_fract_x
 _atom_site_fract_y
 _atom_site_fract_z
 _atom_site_occupancy
  Zn  Zn92  1  0.63883588  0.36100148  0.99994012  1.0
  Zn  Zn93  1  0.34498015  0.65491258  0.00009262  1.0
  Zn  Zn94  1  0.50783128  0.52484908  0.85226983  1.0
  Zn  Zn95  1  0.47499395  0.49180467  0.14768495  1.0
  H  H60  1  0.26833481  0.89385126  0.95169039  1.0
  H  H61  1  0.48535909  0.07617907  0.23600752  1.0
  H  H62  1  0.92312013  0.51699282  0.76397822  1.0
  H  H63  1  0.74569582  0.50737706  0.59450900  1.0
  H  H64  1  0.49480997  0.25410766  0.40562413  1.0
  H  H65  1  0.50046714  0.85883430  0.13721605  1.0
  H  H66  1  0.14039407  0.49997825  0.86314036  1.0
  H  H67  1  0.10607083  0.73166951  0.04917177  1.0
  H  H68  1  0.64088210  0.44799583  0.37740574  1.0
  H  H69  1  0.55266155  0.35902743  0.62282278  1.0
  H  H70  1  0.85397628  0.26819915  0.18466365  1.0
  H  H71  1  0.73208118  0.14661360  0.81490208  1.0
  H  H72  1  0.69883518  0.69902195  0.96383740  1.0
  H  H73  1  0.30035199  0.30063733  0.03619940  1.0
  H  H74  1  0.98140217  0.20207001  0.34513271  1.0
  H  H75  1  0.79791483  0.01867618  0.65450683  1.0
  C  C0  1  0.80356968  0.53107410  0.10203069  1.0
  C  C1  1  0.14308759  0.62543660  0.14990005  1.0
  C  C2  1  0.37443059  0.85622441  0.85012221  1.0
  C  C3  1  0.78564404  0.34768144  0.32280909  1.0
  C  C4  1  0.65302766  0.21463384  0.67703560  1.0
  C  C5  1  0.88625453  0.42254221  0.52891108  1.0
  C  C6  1  0.57871587  0.11379133  0.47088117  1.0
  C  C7  1  0.46940873  0.19531262  0.89818908  1.0
  C  C8  1  0.87941274  0.34368881  0.42306401  1.0
  C  C9  1  0.65719047  0.12074592  0.57665495  1.0
  C  C10  1  0.97743525  0.26930624  0.42191330  1.0
  C  C11  1  0.73109016  0.02254681  0.57772824  1.0
  C  C12  1  0.07436547  0.28043337  0.51697313  1.0
  C  C13  1  0.71968420  0.92535095  0.48266840  1.0
  C  C14  1  0.08620939  0.36616617  0.62162652  1.0
  C  C15  1  0.63422203  0.91342378  0.37810425  1.0
  C  C16  1  0.98435404  0.43236566  0.62210190  1.0
  C  C17  1  0.56863670  0.01544084  0.37764648  1.0
  C  C18  1  0.93269794  0.53050850  0.69765554  1.0
  C  C19  1  0.47110711  0.06719660  0.30224868  1.0
  C  C20  1  0.52989381  0.79671324  0.17603716  1.0
  C  C21  1  0.20263885  0.47024659  0.82409233  1.0
  C  C22  1  0.82242638  0.52183739  0.59095093  1.0
  C  C23  1  0.60220189  0.80802571  0.28529326  1.0
  C  C24  1  0.47987398  0.17766268  0.40905281  1.0
  C  C25  1  0.35776386  0.06582358  0.90616985  1.0
  C  C26  1  0.93341434  0.64250954  0.09426092  1.0
  C  C27  1  0.37905445  0.95904343  0.84049476  1.0
  C  C28  1  0.04008788  0.62092358  0.15958510  1.0
  C  C29  1  0.19147554  0.39788180  0.71465028  1.0
  C  C30  1  0.43398293  0.75130475  0.81365644  1.0
  C  C31  1  0.24788681  0.56575991  0.18592840  1.0
  C  C32  1  0.67787764  0.40419466  0.31410146  1.0
  C  C33  1  0.59637875  0.32223596  0.68599788  1.0
  C  C34  1  0.32310574  0.83642469  0.90857451  1.0
  C  C35  1  0.16332431  0.67683111  0.09188516  1.0
  C  C36  1  0.78613768  0.31173478  0.21540857  1.0
  C  C37  1  0.68866029  0.21430775  0.78432754  1.0
  C  C38  1  0.60579247  0.70063728  0.28533237  1.0
  C  C39  1  0.29919743  0.39374772  0.71463906  1.0
  C  C40  1  0.72075452  0.64030520  0.00555468  1.0
  C  C41  1  0.35948935  0.27851684  0.99459562  1.0
  C  C42  1  0.82777431  0.61152895  0.07629134  1.0
  C  C43  1  0.38871447  0.17132108  0.92399212  1.0
  N  N76  1  0.69452639  0.51310703  0.05232387  1.0
  N  N77  1  0.32298710  0.57871533  0.15343879  1.0
  N  N78  1  0.42114263  0.67657989  0.84643549  1.0
  N  N79  1  0.61940483  0.40180684  0.21047565  1.0
  N  N80  1  0.59841449  0.38079276  0.78966388  1.0
  N  N81  1  0.35080381  0.73019159  0.90583777  1.0
  N  N82  1  0.26972311  0.64919340  0.09460856  1.0
  N  N83  1  0.48712108  0.30438275  0.94774539  1.0
  N  N84  1  0.68712807  0.34467284  0.14877826  1.0
  N  N85  1  0.65541913  0.31328102  0.85114100  1.0
  N  N86  1  0.54177900  0.63261015  0.18717103  1.0
  N  N87  1  0.36725186  0.45759105  0.81288306  1.0
  N  N88  1  0.64304824  0.58084641  0.99152119  1.0
  N  N89  1  0.41896111  0.35612779  0.00853529  1.0
  N  N90  1  0.49450205  0.69299908  0.11919073  1.0
  N  N91  1  0.30657074  0.50522854  0.88098907  1.0
  F  F44  1  0.87425968  0.47077968  0.16322781  1.0
  F  F45  1  0.36824309  0.01987292  0.25348449  1.0
  F  F46  1  0.98081541  0.63288648  0.74633328  1.0
  F  F47  1  0.79602798  0.61665576  0.56211533  1.0
  F  F48  1  0.38477520  0.20458532  0.43802499  1.0
  F  F49  1  0.31037557  0.07603673  0.97947112  1.0
  F  F50  1  0.92363271  0.69010484  0.02148069  1.0
  F  F51  1  0.53007181  0.12446456  0.83698469  1.0
  F  F52  1  0.42038654  0.94469633  0.76260218  1.0
  F  F53  1  0.05401741  0.57934506  0.23695866  1.0
  F  F54  1  0.50077199  0.72044711  0.75486680  1.0
  F  F55  1  0.27834229  0.49880226  0.24412364  1.0
  F  F56  1  0.65765281  0.66434985  0.36969383  1.0
  F  F57  1  0.33575246  0.34146315  0.63016743  1.0
  F  F58  1  0.16385904  0.20393393  0.50554942  1.0
  F  F59  1  0.79554839  0.83560393  0.49397946  1.0
