# generated using pymatgen
data_Mg2H15C28NO9
_symmetry_space_group_name_H-M   'P 1'
_cell_length_a   6.85428686
_cell_length_b   41.49800257
_cell_length_c   41.50891942
_cell_angle_alpha   119.69818574
_cell_angle_beta   93.15455952
_cell_angle_gamma   93.15541587
_symmetry_Int_Tables_number   1
_chemical_formula_structural   Mg2H15C28NO9
_chemical_formula_sum   'Mg6 H45 C84 N3 O27'
_cell_volume   10194.15753350
_cell_formula_units_Z   3
loop_
 _symmetry_equiv_pos_site_id
 _symmetry_equiv_pos_as_xyz
  1  'x, y, z'
loop_
 _atom_site_type_symbol
 _atom_site_label
 _atom_site_symmetry_multiplicity
 _atom_site_fract_x
 _atom_site_fract_y
 _atom_site_fract_z
 _atom_site_occupancy
  Mg  Mg0  1  0.14593476  0.66939648  0.30938284  1.0
  Mg  Mg1  1  0.83641639  0.69055127  0.35990906  1.0
  Mg  Mg2  1  0.47647628  0.64001685  0.33052315  1.0
  Mg  Mg3  1  0.68797374  0.33107144  0.69075355  1.0
  Mg  Mg4  1  0.99722775  0.30928559  0.64033191  1.0
  Mg  Mg5  1  0.35700992  0.35973687  0.66896314  1.0
  H  H6  1  0.07354320  0.10457284  0.54676056  1.0
  H  H7  1  0.52691476  0.45333177  0.55791264  1.0
  H  H8  1  0.96941980  0.44212923  0.89528758  1.0
  H  H9  1  0.85056402  0.04725061  0.51475808  1.0
  H  H10  1  0.33621221  0.48531422  0.53252388  1.0
  H  H11  1  0.80311889  0.46735251  0.95250228  1.0
  H  H12  1  0.76137073  0.98956193  0.51080673  1.0
  H  H13  1  0.25115473  0.48922505  0.47883899  1.0
  H  H14  1  0.77046707  0.52095314  0.01026942  1.0
  H  H15  1  0.57088618  0.92828501  0.48014773  1.0
  H  H16  1  0.09103190  0.51987141  0.44824533  1.0
  H  H17  1  0.64234514  0.55168751  0.07162519  1.0
  H  H18  1  0.90433363  0.89175459  0.38512838  1.0
  H  H19  1  0.51926620  0.61495023  0.50671248  1.0
  H  H20  1  0.01365733  0.49334425  0.10813801  1.0
  H  H21  1  0.09396572  0.95406668  0.41552828  1.0
  H  H22  1  0.67868263  0.58457545  0.53862239  1.0
  H  H23  1  0.13987954  0.46131632  0.04576131  1.0
  H  H24  1  0.37960952  0.88147789  0.43569612  1.0
  H  H25  1  0.94406151  0.56441698  0.44582573  1.0
  H  H26  1  0.49895589  0.55417542  0.11854251  1.0
  H  H27  1  0.60905135  0.79494945  0.40420688  1.0
  H  H28  1  0.20537263  0.59590652  0.39079358  1.0
  H  H29  1  0.81504158  0.60918042  0.20512452  1.0
  H  H30  1  0.89187554  0.78058085  0.37020658  1.0
  H  H31  1  0.52187362  0.62981698  0.41036943  1.0
  H  H32  1  0.11166675  0.58960704  0.21924775  1.0
  H  H33  1  0.06798445  0.84282095  0.40173691  1.0
  H  H34  1  0.66696036  0.59842904  0.44117851  1.0
  H  H35  1  0.22624102  0.55892908  0.15709201  1.0
  H  H36  1  0.33291415  0.98477080  0.46063292  1.0
  H  H37  1  0.87286841  0.53956159  0.52439321  1.0
  H  H38  1  0.34716552  0.47556982  0.01511171  1.0
  H  H39  1  0.55467722  0.04311846  0.49205900  1.0
  H  H40  1  0.06292496  0.50813115  0.55135413  1.0
  H  H41  1  0.51126695  0.44877869  0.95687893  1.0
  H  H42  1  0.24062229  0.20330463  0.58724888  1.0
  H  H43  1  0.65363556  0.41286188  0.61620321  1.0
  H  H44  1  0.03769329  0.38391488  0.79669858  1.0
  H  H45  1  0.94610537  0.22138809  0.63149656  1.0
  H  H46  1  0.31447446  0.36848470  0.58977402  1.0
  H  H47  1  0.72517719  0.41007103  0.77860533  1.0
  H  H48  1  0.78266744  0.15736503  0.59195099  1.0
  H  H49  1  0.19008161  0.40799260  0.56528782  1.0
  H  H50  1  0.62579175  0.43447858  0.84261362  1.0
  C  C51  1  0.47592783  0.11072248  0.54048552  1.0
  C  C52  1  0.93543720  0.45966333  0.57043977  1.0
  C  C53  1  0.36569979  0.42974094  0.88926447  1.0
  C  C54  1  0.33074212  0.07750326  0.52197060  1.0
  C  C55  1  0.80894866  0.47817696  0.55572151  1.0
  C  C56  1  0.25334196  0.44435091  0.92242509  1.0
  C  C57  1  0.13128641  0.07834297  0.52817561  1.0
  C  C58  1  0.60331524  0.47193090  0.55029268  1.0
  C  C59  1  0.05306392  0.44971336  0.92152352  1.0
  C  C60  1  0.00542385  0.04566878  0.51002307  1.0
  C  C61  1  0.49576210  0.49007159  0.53573944  1.0
  C  C62  1  0.95945429  0.46417972  0.95414743  1.0
  C  C63  1  0.07419907  0.01141725  0.48522771  1.0
  C  C64  1  0.58943554  0.51488643  0.52632237  1.0
  C  C65  1  0.06210149  0.47356886  0.98840424  1.0
  C  C66  1  0.94516900  0.97622639  0.46587049  1.0
  C  C67  1  0.47975160  0.53420360  0.51044636  1.0
  C  C68  1  0.96822559  0.48940253  0.02358473  1.0
  C  C69  1  0.79107004  0.96860615  0.48284434  1.0
  C  C70  1  0.30871416  0.51719799  0.48584551  1.0
  C  C71  1  0.82160305  0.51398419  0.03122713  1.0
  C  C72  1  0.68255560  0.93380298  0.46527604  1.0
  C  C73  1  0.21762077  0.53475982  0.46861327  1.0
  C  C74  1  0.74852357  0.53129689  0.06608265  1.0
  C  C75  1  0.72502986  0.90566810  0.43018021  1.0
  C  C76  1  0.29499959  0.56986684  0.47556419  1.0
  C  C77  1  0.81984031  0.52443192  0.09424407  1.0
  C  C78  1  0.87374315  0.91367468  0.41255113  1.0
  C  C79  1  0.46135994  0.58750943  0.50120420  1.0
  C  C80  1  0.96061789  0.49879798  0.08621183  1.0
  C  C81  1  0.98070758  0.94831151  0.42993759  1.0
  C  C82  1  0.55108487  0.57014742  0.51845884  1.0
  C  C83  1  0.03229062  0.48146754  0.05153012  1.0
  C  C84  1  0.63534882  0.86614996  0.41083667  1.0
  C  C85  1  0.22477528  0.58924652  0.45542028  1.0
  C  C86  1  0.77020643  0.54464827  0.13378539  1.0
  C  C87  1  0.35406360  0.82346103  0.40472466  1.0
  C  C88  1  0.94986206  0.59539509  0.41880004  1.0
  C  C89  1  0.53158824  0.58120411  0.17652083  1.0
  C  C90  1  0.45234081  0.79229357  0.39667650  1.0
  C  C91  1  0.05616063  0.60342306  0.39566404  1.0
  C  C92  1  0.66084525  0.60431096  0.20771288  1.0
  C  C93  1  0.35334197  0.75631389  0.37783224  1.0
  C  C94  1  0.97573877  0.62219565  0.37846572  1.0
  C  C95  1  0.59735939  0.62150090  0.24364799  1.0
  C  C96  1  0.14679517  0.75138323  0.36713155  1.0
  C  C97  1  0.77978858  0.63284994  0.38419356  1.0
  C  C98  1  0.39565039  0.61576179  0.24854132  1.0
  C  C99  1  0.04925728  0.78373513  0.37771156  1.0
  C  C100  1  0.67178780  0.62231542  0.40600644  1.0
  C  C101  1  0.26600150  0.59398969  0.21616318  1.0
  C  C102  1  0.15018618  0.81895296  0.39570942  1.0
  C  C103  1  0.75495052  0.60440191  0.42328885  1.0
  C  C104  1  0.33209633  0.57675424  0.18098750  1.0
  C  C105  1  0.47228743  0.72494633  0.36935648  1.0
  C  C106  1  0.10301733  0.63061317  0.35552059  1.0
  C  C107  1  0.74743769  0.64445274  0.27502448  1.0
  C  C108  1  0.27446589  0.01103039  0.47910291  1.0
  C  C109  1  0.79584164  0.52106612  0.53214192  1.0
  C  C110  1  0.26277994  0.46782270  0.98884453  1.0
  C  C111  1  0.40022984  0.04350395  0.49702218  1.0
  C  C112  1  0.90352246  0.50315423  0.54672197  1.0
  C  C113  1  0.35644520  0.45333838  0.95643259  1.0
  C  C114  1  0.50086252  0.17643758  0.58665101  1.0
  C  C115  1  0.91410994  0.41341288  0.58984560  1.0
  C  C116  1  0.32489344  0.41012645  0.82353841  1.0
  C  C117  1  0.39574807  0.20710987  0.59691259  1.0
  C  C118  1  0.79901760  0.40317922  0.61029632  1.0
  C  C119  1  0.18902262  0.38975738  0.79288567  1.0
  C  C120  1  0.48566311  0.24359746  0.61993980  1.0
  C  C121  1  0.86600510  0.38014638  0.62372836  1.0
  C  C122  1  0.24240550  0.37632896  0.75641196  1.0
  C  C123  1  0.69004785  0.24904572  0.63242018  1.0
  C  C124  1  0.05788911  0.36763656  0.61664368  1.0
  C  C125  1  0.44131068  0.38336208  0.75096006  1.0
  C  C126  1  0.79106801  0.21707593  0.62162135  1.0
  C  C127  1  0.16942101  0.37838783  0.59540381  1.0
  C  C128  1  0.57445635  0.40449993  0.78291358  1.0
  C  C129  1  0.70006586  0.18128275  0.59944037  1.0
  C  C130  1  0.10033183  0.40056123  0.58179883  1.0
  C  C131  1  0.51927845  0.41807055  0.81869716  1.0
  C  C132  1  0.36216154  0.27469925  0.63016839  1.0
  C  C133  1  0.73230126  0.36991021  0.64458990  1.0
  C  C134  1  0.08772287  0.35547283  0.72531917  1.0
  N  N135  1  0.45705663  0.85938105  0.42099038  1.0
  N  N136  1  0.03642101  0.57911424  0.43846027  1.0
  N  N137  1  0.59866375  0.56156227  0.14060922  1.0
  O  O138  1  0.65084520  0.73052110  0.38252733  1.0
  O  O139  1  0.26838110  0.61743228  0.34791637  1.0
  O  O140  1  0.92041024  0.65206393  0.26945610  1.0
  O  O141  1  0.39069205  0.69147624  0.34747044  1.0
  O  O142  1  0.04318552  0.65245051  0.34389060  1.0
  O  O143  1  0.69915192  0.65606582  0.30847922  1.0
  O  O144  1  0.04341630  0.71791128  0.34743766  1.0
  O  O145  1  0.69592323  0.65247368  0.37034605  1.0
  O  O146  1  0.32553330  0.62955480  0.28199213  1.0
  O  O147  1  0.18243918  0.26893379  0.61757182  1.0
  O  O148  1  0.56532506  0.38255610  0.65147086  1.0
  O  O149  1  0.91381124  0.34859419  0.73107531  1.0
  O  O150  1  0.44118536  0.30819294  0.65292124  1.0
  O  O151  1  0.78836596  0.34708587  0.65525329  1.0
  O  O152  1  0.13315154  0.34478946  0.69183657  1.0
  O  O153  1  0.79059114  0.28261810  0.65386502  1.0
  O  O154  1  0.13706360  0.34619988  0.62877647  1.0
  O  O155  1  0.50822170  0.37126351  0.71739638  1.0
  O  O156  1  0.39200135  0.14177302  0.56545550  1.0
  O  O157  1  0.82639048  0.43463513  0.57642589  1.0
  O  O158  1  0.25068460  0.42354619  0.85818303  1.0
  O  O159  1  0.64878849  0.11050482  0.53453151  1.0
  O  O160  1  0.11421021  0.46565033  0.57626258  1.0
  O  O161  1  0.53900208  0.42415566  0.88954742  1.0
  O  O162  1  0.72390423  0.84107404  0.38726407  1.0
  O  O163  1  0.33696500  0.61284569  0.45396808  1.0
  O  O164  1  0.88416679  0.54616590  0.15882139  1.0
