# generated using pymatgen
data_H8PbC12(NO3)2
_symmetry_space_group_name_H-M   'P 1'
_cell_length_a   7.58301162
_cell_length_b   20.29893784
_cell_length_c   21.52357531
_cell_angle_alpha   89.99981921
_cell_angle_beta   89.99960586
_cell_angle_gamma   89.99936663
_symmetry_Int_Tables_number   1
_chemical_formula_structural   H8PbC12(NO3)2
_chemical_formula_sum   'H64 Pb8 C96 N16 O48'
_cell_volume   3313.06113093
_cell_formula_units_Z   8
loop_
 _symmetry_equiv_pos_site_id
 _symmetry_equiv_pos_as_xyz
  1  'x, y, z'
loop_
 _atom_site_type_symbol
 _atom_site_label
 _atom_site_symmetry_multiplicity
 _atom_site_fract_x
 _atom_site_fract_y
 _atom_site_fract_z
 _atom_site_occupancy
  H  H0  1  0.00270019  0.11981927  0.35276889  1.0
  H  H1  1  0.00267859  0.38018840  0.14722829  1.0
  H  H2  1  0.49731627  0.88018085  0.85276305  1.0
  H  H3  1  0.49731676  0.61982667  0.64723208  1.0
  H  H4  1  0.99729901  0.88017669  0.64723757  1.0
  H  H5  1  0.99729160  0.61982085  0.85276655  1.0
  H  H6  1  0.50268294  0.11981856  0.14723086  1.0
  H  H7  1  0.50270881  0.38017421  0.35276230  1.0
  H  H8  1  0.02272785  0.10780155  0.23421563  1.0
  H  H9  1  0.02270889  0.39220012  0.26577919  1.0
  H  H10  1  0.47728034  0.89219797  0.73421119  1.0
  H  H11  1  0.47728154  0.60781062  0.76578491  1.0
  H  H12  1  0.97727267  0.89219391  0.76578944  1.0
  H  H13  1  0.97727185  0.60780470  0.73421705  1.0
  H  H14  1  0.52271359  0.10780538  0.26578412  1.0
  H  H15  1  0.52274140  0.39219174  0.23421086  1.0
  H  H16  1  0.25378096  0.91719312  0.26299836  1.0
  H  H17  1  0.25378608  0.58280375  0.23700505  1.0
  H  H18  1  0.24619766  0.08279989  0.76299046  1.0
  H  H19  1  0.24621414  0.41720610  0.73700867  1.0
  H  H20  1  0.74620902  0.08280234  0.73700810  1.0
  H  H21  1  0.74621576  0.41719812  0.76299630  1.0
  H  H22  1  0.75379758  0.91720197  0.23700903  1.0
  H  H23  1  0.75376792  0.58280069  0.26299082  1.0
  H  H24  1  0.21588960  0.93523533  0.38033809  1.0
  H  H25  1  0.21588301  0.56476514  0.11966541  1.0
  H  H26  1  0.28410522  0.06475976  0.88032968  1.0
  H  H27  1  0.28411815  0.43524460  0.61966889  1.0
  H  H28  1  0.78411092  0.06476210  0.61966884  1.0
  H  H29  1  0.78411224  0.43524066  0.88033500  1.0
  H  H30  1  0.71589794  0.93523865  0.11966795  1.0
  H  H31  1  0.71586919  0.56475776  0.38032921  1.0
  H  H32  1  0.48402020  0.27371606  0.59621089  1.0
  H  H33  1  0.48402321  0.22628106  0.90378579  1.0
  H  H34  1  0.01595767  0.72627553  0.09619255  1.0
  H  H35  1  0.01596325  0.77373219  0.40381284  1.0
  H  H36  1  0.51598296  0.72627891  0.40378721  1.0
  H  H37  1  0.51598391  0.77371785  0.09621277  1.0
  H  H38  1  0.98403494  0.27372634  0.90380044  1.0
  H  H39  1  0.98402144  0.22627805  0.59620802  1.0
  H  H40  1  0.32069426  0.23972626  0.40789206  1.0
  H  H41  1  0.32069436  0.26026726  0.09210527  1.0
  H  H42  1  0.17934751  0.76028401  0.90787900  1.0
  H  H43  1  0.17934162  0.73971794  0.59212434  1.0
  H  H44  1  0.67930099  0.76026772  0.59210650  1.0
  H  H45  1  0.67930485  0.73972672  0.90789143  1.0
  H  H46  1  0.82065829  0.23972623  0.09211398  1.0
  H  H47  1  0.82068264  0.26026915  0.40788677  1.0
  H  H48  1  0.53380161  0.14916903  0.60633620  1.0
  H  H49  1  0.53379591  0.35082936  0.89366408  1.0
  H  H50  1  0.96620750  0.85082635  0.10632938  1.0
  H  H51  1  0.96620636  0.64918331  0.39367228  1.0
  H  H52  1  0.46619759  0.85082594  0.39366190  1.0
  H  H53  1  0.46619143  0.64917201  0.10633680  1.0
  H  H54  1  0.03380621  0.14917749  0.89366733  1.0
  H  H55  1  0.03380339  0.35082743  0.60633511  1.0
  H  H56  1  0.38992696  0.11750590  0.42378357  1.0
  H  H57  1  0.38991457  0.38248635  0.07621731  1.0
  H  H58  1  0.11013297  0.88250481  0.92378007  1.0
  H  H59  1  0.11012435  0.61749989  0.57621833  1.0
  H  H60  1  0.61006038  0.88248660  0.57621731  1.0
  H  H61  1  0.61005562  0.61750813  0.92378172  1.0
  H  H62  1  0.88988074  0.11750740  0.07621756  1.0
  H  H63  1  0.88992101  0.38248917  0.42377698  1.0
  Pb  Pb64  1  0.76213763  0.02101381  0.46221368  1.0
  Pb  Pb65  1  0.76212976  0.47898378  0.03778396  1.0
  Pb  Pb66  1  0.73786332  0.97898041  0.96221793  1.0
  Pb  Pb67  1  0.73787144  0.52101773  0.53778171  1.0
  Pb  Pb68  1  0.23786421  0.97898362  0.53779232  1.0
  Pb  Pb69  1  0.23785889  0.52101808  0.96220856  1.0
  Pb  Pb70  1  0.26212797  0.02101752  0.03778806  1.0
  Pb  Pb71  1  0.26213567  0.47898069  0.46220895  1.0
  C  C72  1  0.05929201  0.07750614  0.32887787  1.0
  C  C73  1  0.05927663  0.42249637  0.17112196  1.0
  C  C74  1  0.44072359  0.92249356  0.82887065  1.0
  C  C75  1  0.44072354  0.57751271  0.67112647  1.0
  C  C76  1  0.94071379  0.92249080  0.67112998  1.0
  C  C77  1  0.94070543  0.57750944  0.82887428  1.0
  C  C78  1  0.55927957  0.07750830  0.17112187  1.0
  C  C79  1  0.55929940  0.42248472  0.32887069  1.0
  C  C80  1  0.14071926  0.01146226  0.24029222  1.0
  C  C81  1  0.14072398  0.48853547  0.25971020  1.0
  C  C82  1  0.35927299  0.98853625  0.74028778  1.0
  C  C83  1  0.35928503  0.51147135  0.75971001  1.0
  C  C84  1  0.85927599  0.98853566  0.75971285  1.0
  C  C85  1  0.85927390  0.51146492  0.74029022  1.0
  C  C86  1  0.64073017  0.01146611  0.25971078  1.0
  C  C87  1  0.64072340  0.48853199  0.24028716  1.0
  C  C88  1  0.06996396  0.06933880  0.26531966  1.0
  C  C89  1  0.06995635  0.43065972  0.23467922  1.0
  C  C90  1  0.43003967  0.93065717  0.76531290  1.0
  C  C91  1  0.43004919  0.56934866  0.73468425  1.0
  C  C92  1  0.93002865  0.93065420  0.73468726  1.0
  C  C93  1  0.93002835  0.56934362  0.76531702  1.0
  C  C94  1  0.56995426  0.06934470  0.23468287  1.0
  C  C95  1  0.56996584  0.43065222  0.26531338  1.0
  C  C96  1  0.19721552  0.96248080  0.28142560  1.0
  C  C97  1  0.19721177  0.53751532  0.21857516  1.0
  C  C98  1  0.30278253  0.03751708  0.78141909  1.0
  C  C99  1  0.30279539  0.46249016  0.71857990  1.0
  C  C100  1  0.80278632  0.03751663  0.71857993  1.0
  C  C101  1  0.80279139  0.46248507  0.78142340  1.0
  C  C102  1  0.69721668  0.96248725  0.21857808  1.0
  C  C103  1  0.69720776  0.53751171  0.28141959  1.0
  C  C104  1  0.18281021  0.97138957  0.34487370  1.0
  C  C105  1  0.18280795  0.52861450  0.15512895  1.0
  C  C106  1  0.31718266  0.02860811  0.84486533  1.0
  C  C107  1  0.31720308  0.47139612  0.65513316  1.0
  C  C108  1  0.81718503  0.02860638  0.65513229  1.0
  C  C109  1  0.81718598  0.47139180  0.84486961  1.0
  C  C110  1  0.68281391  0.97139228  0.15513138  1.0
  C  C111  1  0.68279612  0.52860575  0.34486586  1.0
  C  C112  1  0.39937149  0.26540118  0.50099541  1.0
  C  C113  1  0.39937111  0.23459284  0.99900241  1.0
  C  C114  1  0.10063854  0.73460254  0.00097823  1.0
  C  C115  1  0.10064122  0.76540433  0.49902509  1.0
  C  C116  1  0.60063167  0.73459132  0.49900222  1.0
  C  C117  1  0.60063073  0.76540262  0.00099615  1.0
  C  C118  1  0.89936330  0.26540819  0.99901475  1.0
  C  C119  1  0.89936722  0.23459310  0.50099020  1.0
  C  C120  1  0.45897428  0.24015679  0.55772155  1.0
  C  C121  1  0.45897293  0.25984142  0.94227659  1.0
  C  C122  1  0.04101488  0.75984183  0.05770397  1.0
  C  C123  1  0.04101279  0.74016480  0.44229949  1.0
  C  C124  1  0.54103415  0.75983769  0.44227562  1.0
  C  C125  1  0.54103286  0.74015847  0.05772290  1.0
  C  C126  1  0.95897773  0.24016447  0.94228855  1.0
  C  C127  1  0.95897587  0.25983805  0.55771812  1.0
  C  C128  1  0.36921704  0.22129458  0.45220390  1.0
  C  C129  1  0.36920822  0.27869825  0.04779424  1.0
  C  C130  1  0.13079882  0.77871161  0.95218859  1.0
  C  C131  1  0.13079432  0.72129252  0.54781348  1.0
  C  C132  1  0.63077557  0.77869891  0.54779512  1.0
  C  C133  1  0.63078043  0.72129524  0.95220107  1.0
  C  C134  1  0.86919511  0.22129715  0.04780347  1.0
  C  C135  1  0.86921280  0.27870245  0.45219763  1.0
  C  C136  1  0.36539324  0.33809768  0.49321829  1.0
  C  C137  1  0.36539258  0.16189812  0.00677847  1.0
  C  C138  1  0.13460601  0.66190444  0.99320239  1.0
  C  C139  1  0.13461603  0.83809918  0.50680013  1.0
  C  C140  1  0.63461651  0.66189827  0.50678073  1.0
  C  C141  1  0.63462245  0.83809586  0.99321963  1.0
  C  C142  1  0.86539056  0.33810235  0.00679152  1.0
  C  C143  1  0.86539372  0.16189924  0.49321423  1.0
  C  C144  1  0.16133454  0.00361414  0.17112572  1.0
  C  C145  1  0.16132583  0.49638104  0.32887618  1.0
  C  C146  1  0.33866827  0.99638164  0.67112085  1.0
  C  C147  1  0.33867262  0.50362309  0.82887606  1.0
  C  C148  1  0.83865807  0.99638526  0.82887748  1.0
  C  C149  1  0.83866809  0.50361737  0.67112377  1.0
  C  C150  1  0.66133225  0.00362022  0.32887678  1.0
  C  C151  1  0.66133186  0.49638124  0.17112064  1.0
  C  C152  1  0.48803225  0.17336159  0.56433669  1.0
  C  C153  1  0.48803040  0.32663502  0.93566324  1.0
  C  C154  1  0.01195678  0.82663306  0.06432595  1.0
  C  C155  1  0.01196204  0.67337320  0.43567480  1.0
  C  C156  1  0.51195509  0.82663140  0.43566234  1.0
  C  C157  1  0.51195430  0.67336586  0.06433672  1.0
  C  C158  1  0.98803978  0.17337226  0.93567075  1.0
  C  C159  1  0.98804507  0.32663113  0.56433166  1.0
  C  C160  1  0.40238945  0.15486344  0.45972223  1.0
  C  C161  1  0.40238280  0.34512925  0.04027862  1.0
  C  C162  1  0.09765528  0.84514273  0.95971655  1.0
  C  C163  1  0.09764890  0.65486301  0.54028560  1.0
  C  C164  1  0.59760711  0.84512956  0.54027772  1.0
  C  C165  1  0.59760190  0.65486424  0.95972180  1.0
  C  C166  1  0.90236371  0.15486899  0.04028061  1.0
  C  C167  1  0.90238591  0.34513097  0.45971622  1.0
  N  N168  1  0.46182078  0.13196350  0.51537280  1.0
  N  N169  1  0.46181283  0.36803174  0.98462858  1.0
  N  N170  1  0.03820744  0.86803771  0.01536698  1.0
  N  N171  1  0.03820900  0.63196893  0.48463464  1.0
  N  N172  1  0.53817183  0.86802802  0.48462669  1.0
  N  N173  1  0.53816659  0.63196816  0.01537276  1.0
  N  N174  1  0.96181023  0.13197056  0.98463158  1.0
  N  N175  1  0.96182185  0.36802850  0.51536578  1.0
  N  N176  1  0.11624597  0.02878666  0.36776593  1.0
  N  N177  1  0.11623519  0.47121758  0.13223562  1.0
  N  N178  1  0.38376228  0.97121045  0.86775870  1.0
  N  N179  1  0.38376836  0.52879705  0.63223810  1.0
  N  N180  1  0.88375323  0.97121028  0.63224146  1.0
  N  N181  1  0.88374819  0.52879167  0.86776387  1.0
  N  N182  1  0.61624219  0.02878846  0.13223707  1.0
  N  N183  1  0.61624271  0.47120383  0.36775768  1.0
  O  O184  1  0.39436755  0.37573745  0.53889974  1.0
  O  O185  1  0.39436715  0.12425857  0.96109670  1.0
  O  O186  1  0.10561143  0.62426123  0.03888520  1.0
  O  O187  1  0.10563139  0.87574168  0.46111671  1.0
  O  O188  1  0.60564880  0.62425604  0.46109883  1.0
  O  O189  1  0.60565842  0.87573738  0.03890186  1.0
  O  O190  1  0.89436272  0.37574458  0.96110732  1.0
  O  O191  1  0.89436913  0.12425624  0.53889672  1.0
  O  O192  1  0.49901531  0.06864729  0.52201440  1.0
  O  O193  1  0.49900432  0.43135026  0.97798828  1.0
  O  O194  1  0.00099564  0.93135242  0.02200988  1.0
  O  O195  1  0.00100577  0.56865142  0.47799044  1.0
  O  O196  1  0.50097334  0.93134669  0.47798602  1.0
  O  O197  1  0.50096324  0.56865013  0.02201353  1.0
  O  O198  1  0.99901148  0.06865289  0.97799008  1.0
  O  O199  1  0.99902244  0.43134651  0.52200720  1.0
  O  O200  1  0.30457991  0.35630722  0.44041902  1.0
  O  O201  1  0.30456821  0.14368884  0.05957556  1.0
  O  O202  1  0.19540716  0.64369014  0.94040582  1.0
  O  O203  1  0.19541695  0.85631125  0.55959562  1.0
  O  O204  1  0.69544566  0.64368972  0.55957443  1.0
  O  O205  1  0.69543495  0.85630564  0.94042114  1.0
  O  O206  1  0.80457358  0.35631222  0.05958670  1.0
  O  O207  1  0.80457829  0.14368766  0.44041966  1.0
  O  O208  1  0.10243808  0.03771907  0.42825914  1.0
  O  O209  1  0.10241817  0.46228719  0.07173919  1.0
  O  O210  1  0.39756110  0.96227734  0.92825423  1.0
  O  O211  1  0.39756544  0.53772763  0.57174301  1.0
  O  O212  1  0.89755189  0.96227442  0.57174686  1.0
  O  O213  1  0.89755597  0.53772354  0.92825890  1.0
  O  O214  1  0.60244074  0.03772107  0.07174201  1.0
  O  O215  1  0.60244431  0.46227127  0.42825463  1.0
  O  O216  1  0.25460171  0.95626973  0.15130450  1.0
  O  O217  1  0.25462166  0.54372122  0.34869612  1.0
  O  O218  1  0.24536191  0.04372168  0.65130089  1.0
  O  O219  1  0.24536586  0.45628334  0.84869545  1.0
  O  O220  1  0.74538826  0.04373115  0.84869918  1.0
  O  O221  1  0.74539337  0.45627227  0.65130290  1.0
  O  O222  1  0.75462279  0.95627772  0.34869720  1.0
  O  O223  1  0.75461488  0.54372444  0.15130079  1.0
  O  O224  1  0.08830651  0.04747181  0.13683126  1.0
  O  O225  1  0.08829184  0.45252712  0.36316990  1.0
  O  O226  1  0.41171541  0.95253541  0.63682727  1.0
  O  O227  1  0.41170332  0.54747345  0.86317272  1.0
  O  O228  1  0.91167555  0.95252808  0.86317427  1.0
  O  O229  1  0.91169682  0.54747228  0.63682913  1.0
  O  O230  1  0.58830621  0.04747582  0.36317083  1.0
  O  O231  1  0.58831435  0.45252644  0.13682817  1.0
