# generated using pymatgen
data_AlC12S3(NO4)3
_symmetry_space_group_name_H-M   'P 1'
_cell_length_a   4.05668467
_cell_length_b   20.15059056
_cell_length_c   20.15066981
_cell_angle_alpha   60.00016907
_cell_angle_beta   89.99906889
_cell_angle_gamma   89.99893327
_symmetry_Int_Tables_number   1
_chemical_formula_structural   AlC12S3(NO4)3
_chemical_formula_sum   'Al2 C24 S6 N6 O24'
_cell_volume   1426.52664437
_cell_formula_units_Z   2
loop_
 _symmetry_equiv_pos_site_id
 _symmetry_equiv_pos_as_xyz
  1  'x, y, z'
loop_
 _atom_site_type_symbol
 _atom_site_label
 _atom_site_symmetry_multiplicity
 _atom_site_fract_x
 _atom_site_fract_y
 _atom_site_fract_z
 _atom_site_occupancy
  Al  Al0  1  0.01832716  0.50000042  0.99999844  1.0
  Al  Al1  1  0.01829361  0.16666678  0.66666313  1.0
  C  C2  1  0.51454219  0.61654464  0.94102209  1.0
  C  C3  1  0.51454315  0.44243248  0.11654587  1.0
  C  C4  1  0.51455756  0.44102250  0.94242996  1.0
  C  C5  1  0.51448160  0.22426857  0.55011075  1.0
  C  C6  1  0.51448444  0.22562192  0.72426448  1.0
  C  C7  1  0.51449488  0.05011177  0.72561562  1.0
  C  C8  1  0.50337660  0.32068612  0.25109500  1.0
  C  C9  1  0.50335655  0.34603998  0.41556221  1.0
  C  C10  1  0.50222624  0.39933594  0.20195693  1.0
  C  C11  1  0.50214044  0.26739330  0.46469799  1.0
  C  C12  1  0.50709087  0.36577393  0.33743038  1.0
  C  C13  1  0.50701282  0.30096310  0.32922282  1.0
  C  C14  1  0.50339132  0.42822274  0.82068291  1.0
  C  C15  1  0.50336449  0.23840027  0.84603552  1.0
  C  C16  1  0.50223835  0.39870960  0.89933447  1.0
  C  C17  1  0.50216086  0.26791112  0.76738854  1.0
  C  C18  1  0.50710300  0.29679941  0.86577020  1.0
  C  C19  1  0.50703569  0.36981843  0.80095853  1.0
  C  C20  1  0.50337225  0.75109807  0.92821545  1.0
  C  C21  1  0.50335998  0.91556278  0.73839449  1.0
  C  C22  1  0.50222203  0.70195562  0.89870655  1.0
  C  C23  1  0.50216593  0.96469713  0.76790569  1.0
  C  C24  1  0.50709087  0.83742767  0.79679564  1.0
  C  C25  1  0.50701438  0.82922112  0.86981258  1.0
  S  S26  1  0.50031402  0.44975714  0.25073004  1.0
  S  S27  1  0.50019729  0.21697476  0.41591859  1.0
  S  S28  1  0.50034031  0.29951409  0.94975269  1.0
  S  S29  1  0.50021832  0.36710876  0.71697203  1.0
  S  S30  1  0.50032319  0.75072968  0.79951179  1.0
  S  S31  1  0.50021186  0.91591995  0.86710275  1.0
  N  N32  1  0.48170480  0.26312669  0.22852268  1.0
  N  N33  1  0.48173930  0.40359655  0.43815233  1.0
  N  N34  1  0.48173187  0.50835454  0.76312701  1.0
  N  N35  1  0.48173489  0.15825646  0.90359375  1.0
  N  N36  1  0.48169968  0.72852349  0.00834832  1.0
  N  N37  1  0.48173858  0.93815030  0.65825078  1.0
  O  O38  1  0.28456060  0.42668500  0.99059412  1.0
  O  O39  1  0.28455108  0.58272311  0.92668330  1.0
  O  O40  1  0.28453674  0.49059411  0.08272287  1.0
  O  O41  1  0.75800362  0.48526104  0.92951302  1.0
  O  O42  1  0.75799256  0.42951593  0.08522139  1.0
  O  O43  1  0.75797956  0.58522148  0.98526110  1.0
  O  O44  1  0.28452665  0.08393479  0.73997203  1.0
  O  O45  1  0.28452620  0.17608910  0.58393246  1.0
  O  O46  1  0.28451713  0.23997808  0.67608757  1.0
  O  O47  1  0.75797236  0.08144490  0.68138360  1.0
  O  O48  1  0.75796556  0.18138995  0.73716148  1.0
  O  O49  1  0.75795936  0.23716553  0.58144279  1.0
  O  O50  1  0.52446484  0.19579652  0.28103244  1.0
  O  O51  1  0.41765919  0.28364480  0.16085220  1.0
  O  O52  1  0.52470444  0.47092084  0.38565797  1.0
  O  O53  1  0.41757431  0.38307255  0.50581721  1.0
  O  O54  1  0.52451512  0.52317734  0.69579795  1.0
  O  O55  1  0.41767906  0.55550549  0.78364681  1.0
  O  O56  1  0.52469161  0.14342748  0.97091699  1.0
  O  O57  1  0.41755444  0.11111591  0.88306959  1.0
  O  O58  1  0.52448286  0.78103416  0.02316749  1.0
  O  O59  1  0.41763134  0.66085462  0.05550033  1.0
  O  O60  1  0.52471262  0.88565517  0.64342006  1.0
  O  O61  1  0.41756272  0.00581454  0.61111063  1.0
