# generated using pymatgen
data_ZnH20C34N5O4
_symmetry_space_group_name_H-M   'P 1'
_cell_length_a   11.00720395
_cell_length_b   18.21195836
_cell_length_c   19.62246813
_cell_angle_alpha   89.99969409
_cell_angle_beta   89.88167772
_cell_angle_gamma   89.99945950
_symmetry_Int_Tables_number   1
_chemical_formula_structural   ZnH20C34N5O4
_chemical_formula_sum   'Zn2 H40 C68 N10 O8'
_cell_volume   3933.56533888
_cell_formula_units_Z   2
loop_
 _symmetry_equiv_pos_site_id
 _symmetry_equiv_pos_as_xyz
  1  'x, y, z'
loop_
 _atom_site_type_symbol
 _atom_site_label
 _atom_site_symmetry_multiplicity
 _atom_site_fract_x
 _atom_site_fract_y
 _atom_site_fract_z
 _atom_site_occupancy
  Zn  Zn0  1  0.50000259  0.42393606  0.49999822  1.0
  Zn  Zn1  1  0.50000234  0.57157971  0.49999953  1.0
  H  H2  1  0.92223818  0.75083821  0.45328883  1.0
  H  H3  1  0.08269416  0.25185744  0.45626624  1.0
  H  H4  1  0.07775004  0.75083729  0.54671001  1.0
  H  H5  1  0.91732372  0.25185564  0.54372628  1.0
  H  H6  1  0.54409259  0.61036289  0.28500983  1.0
  H  H7  1  0.55005433  0.38200193  0.71846394  1.0
  H  H8  1  0.45591783  0.61035929  0.71498681  1.0
  H  H9  1  0.44992789  0.38201045  0.28153091  1.0
  H  H10  1  0.54423779  0.61330053  0.15739725  1.0
  H  H11  1  0.55427529  0.38418894  0.84585407  1.0
  H  H12  1  0.45577440  0.61329692  0.84259884  1.0
  H  H13  1  0.44570144  0.38420024  0.15414178  1.0
  H  H14  1  0.55079711  0.30676181  0.39853117  1.0
  H  H15  1  0.67032800  0.68888182  0.54468879  1.0
  H  H16  1  0.44920901  0.30676429  0.60147254  1.0
  H  H17  1  0.32967028  0.68887620  0.45530962  1.0
  H  H18  1  0.68085453  0.06533271  0.45695511  1.0
  H  H19  1  0.31865879  0.93046364  0.54249896  1.0
  H  H20  1  0.31911905  0.06533098  0.54304848  1.0
  H  H21  1  0.68131934  0.93046592  0.45749862  1.0
  H  H22  1  0.88825296  0.29215396  0.66428204  1.0
  H  H23  1  0.91757791  0.38644687  0.67986262  1.0
  H  H24  1  0.77564183  0.34797639  0.70381422  1.0
  H  H25  1  0.75050924  0.42119155  0.59920322  1.0
  H  H26  1  0.72134004  0.32877653  0.58104734  1.0
  H  H27  1  0.07704438  0.58862080  0.67297458  1.0
  H  H28  1  0.17870431  0.52367363  0.63691969  1.0
  H  H29  1  0.23230513  0.58764353  0.69768582  1.0
  H  H30  1  0.29318941  0.62330509  0.57887202  1.0
  H  H31  1  0.20305621  0.69132549  0.61821364  1.0
  H  H32  1  0.22435091  0.34799058  0.29617229  1.0
  H  H33  1  0.11173339  0.29217208  0.33570502  1.0
  H  H34  1  0.08242513  0.38646845  0.32013471  1.0
  H  H35  1  0.24950961  0.42119022  0.40079068  1.0
  H  H36  1  0.27866119  0.32876954  0.41893679  1.0
  H  H37  1  0.92295730  0.58862062  0.32702177  1.0
  H  H38  1  0.82129930  0.52367292  0.36307678  1.0
  H  H39  1  0.76769748  0.58764203  0.30230951  1.0
  H  H40  1  0.70680991  0.62330338  0.42112297  1.0
  H  H41  1  0.79693931  0.69132492  0.38178068  1.0
  C  C42  1  0.49867415  0.49464619  0.63335733  1.0
  C  C43  1  0.50132356  0.49464893  0.36663944  1.0
  C  C44  1  0.49828805  0.49597335  0.29037291  1.0
  C  C45  1  0.50170963  0.49596619  0.70962283  1.0
  C  C46  1  0.38867653  0.49964542  0.03503561  1.0
  C  C47  1  0.61132746  0.49963490  0.96496008  1.0
  C  C48  1  0.39125791  0.50026258  0.96279700  1.0
  C  C49  1  0.60874970  0.50025869  0.03719817  1.0
  C  C50  1  0.50260386  0.49971318  0.92733541  1.0
  C  C51  1  0.49740104  0.49971979  0.07266079  1.0
  C  C52  1  0.52926916  0.27365066  0.44326858  1.0
  C  C53  1  0.59510037  0.72187794  0.52535262  1.0
  C  C54  1  0.47072749  0.27365192  0.55673548  1.0
  C  C55  1  0.40489468  0.72187408  0.47464547  1.0
  C  C56  1  0.53033500  0.19668254  0.44104674  1.0
  C  C57  1  0.59831702  0.79882792  0.52673143  1.0
  C  C58  1  0.46965104  0.19668436  0.55895656  1.0
  C  C59  1  0.40167136  0.79882463  0.47326693  1.0
  C  C60  1  0.49998926  0.15580070  0.50000262  1.0
  C  C61  1  0.49999114  0.83980676  0.49999873  1.0
  C  C62  1  0.60123942  0.03598463  0.47563613  1.0
  C  C63  1  0.39818302  0.95973540  0.52360810  1.0
  C  C64  1  0.39873735  0.03598520  0.52436826  1.0
  C  C65  1  0.60179647  0.95973757  0.47639174  1.0
  C  C66  1  0.49998869  0.92069757  0.50000037  1.0
  C  C67  1  0.49998807  0.07493295  0.50000251  1.0
  C  C68  1  0.73628798  0.50117640  0.50096851  1.0
  C  C69  1  0.26371689  0.50117663  0.49902717  1.0
  C  C70  1  0.89129910  0.36821003  0.54018551  1.0
  C  C71  1  0.10834796  0.63517309  0.54045948  1.0
  C  C72  1  0.10871331  0.36821279  0.45980587  1.0
  C  C73  1  0.89164935  0.63517308  0.45953591  1.0
  C  C74  1  0.95012695  0.30381481  0.52279467  1.0
  C  C75  1  0.04878037  0.69910104  0.52375765  1.0
  C  C76  1  0.04989102  0.30381351  0.47719836  1.0
  C  C77  1  0.95121140  0.69910069  0.47624068  1.0
  C  C78  1  0.06209963  0.43527051  0.48831852  1.0
  C  C79  1  0.93689351  0.56779580  0.48992373  1.0
  C  C80  1  0.93790810  0.43526968  0.51167373  1.0
  C  C81  1  0.06310850  0.56779661  0.51007078  1.0
  C  C82  1  0.12775280  0.50181561  0.49861809  1.0
  C  C83  1  0.87225206  0.50181406  0.50137708  1.0
  C  C84  1  0.52367423  0.56126884  0.25550708  1.0
  C  C85  1  0.52992155  0.43230300  0.74628953  1.0
  C  C86  1  0.47633061  0.56126567  0.74448903  1.0
  C  C87  1  0.47006261  0.43231031  0.25370481  1.0
  C  C88  1  0.52335346  0.56268988  0.18467794  1.0
  C  C89  1  0.53224372  0.43367023  0.81714934  1.0
  C  C90  1  0.47665408  0.56268451  0.81531917  1.0
  C  C91  1  0.46774132  0.43368030  0.18284550  1.0
  C  C92  1  0.49552868  0.49879568  0.14812453  1.0
  C  C93  1  0.50447350  0.49878906  0.85187117  1.0
  C  C94  1  0.79411578  0.36751735  0.59464274  1.0
  C  C95  1  0.84704856  0.34710479  0.66452974  1.0
  C  C96  1  0.20122287  0.63526892  0.59715713  1.0
  C  C97  1  0.17036359  0.58073451  0.65437693  1.0
  C  C98  1  0.20589301  0.36751956  0.40534611  1.0
  C  C99  1  0.15294875  0.34711993  0.33546084  1.0
  C  C100  1  0.79877626  0.63526834  0.40283825  1.0
  C  C101  1  0.82963912  0.58073320  0.34562000  1.0
  C  C102  1  0.27528553  0.49951781  0.07033713  1.0
  C  C103  1  0.72472664  0.49950060  0.92965550  1.0
  C  C104  1  0.28052471  0.50042817  0.92514472  1.0
  C  C105  1  0.71947836  0.50041761  0.07485250  1.0
  C  C106  1  0.55817305  0.16180538  0.37777271  1.0
  C  C107  1  0.70089939  0.83338734  0.55747845  1.0
  C  C108  1  0.44180173  0.16180571  0.62223146  1.0
  C  C109  1  0.29908845  0.83338573  0.44251957  1.0
  N  N110  1  0.50000257  0.31045952  0.50000133  1.0
  N  N111  1  0.49999963  0.68506448  0.49999948  1.0
  N  N112  1  0.18264980  0.49947689  0.09949076  1.0
  N  N113  1  0.81735147  0.49945312  0.90050188  1.0
  N  N114  1  0.19041653  0.50055362  0.89380594  1.0
  N  N115  1  0.80958472  0.50054090  0.10619587  1.0
  N  N116  1  0.58059208  0.13517282  0.32508393  1.0
  N  N117  1  0.78592868  0.85974176  0.58322664  1.0
  N  N118  1  0.41938312  0.13517437  0.67491540  1.0
  N  N119  1  0.21405602  0.85974008  0.41677163  1.0
  O  O120  1  0.52191200  0.43361809  0.60414031  1.0
  O  O121  1  0.52628990  0.55462210  0.39677820  1.0
  O  O122  1  0.47809121  0.43361987  0.39585553  1.0
  O  O123  1  0.47370777  0.55461895  0.60321900  1.0
  O  O124  1  0.68213095  0.44289397  0.48163462  1.0
  O  O125  1  0.31843152  0.55954088  0.47960481  1.0
  O  O126  1  0.31787484  0.44289225  0.51836112  1.0
  O  O127  1  0.68157335  0.55954040  0.52039437  1.0
