# generated using pymatgen
data_Al4H20C31O21
_symmetry_space_group_name_H-M   'P 1'
_cell_length_a   6.65839403
_cell_length_b   12.49764963
_cell_length_c   17.24882368
_cell_angle_alpha   89.42916472
_cell_angle_beta   89.52318446
_cell_angle_gamma   89.83320969
_symmetry_Int_Tables_number   1
_chemical_formula_structural   Al4H20C31O21
_chemical_formula_sum   'Al4 H20 C31 O21'
_cell_volume   1435.22169192
_cell_formula_units_Z   1
loop_
 _symmetry_equiv_pos_site_id
 _symmetry_equiv_pos_as_xyz
  1  'x, y, z'
loop_
 _atom_site_type_symbol
 _atom_site_label
 _atom_site_symmetry_multiplicity
 _atom_site_fract_x
 _atom_site_fract_y
 _atom_site_fract_z
 _atom_site_occupancy
  Al  Al0  1  0.88960106  0.50199965  0.50184223  1.0
  Al  Al1  1  0.38936540  0.49622030  0.50142833  1.0
  Al  Al2  1  0.37573550  0.99175114  0.99895344  1.0
  Al  Al3  1  0.87637164  0.99512659  0.99887082  1.0
  H  H4  1  0.43075668  0.18219702  0.19092767  1.0
  H  H5  1  0.97203742  0.21661034  0.19012665  1.0
  H  H6  1  0.43767710  0.31046295  0.29915284  1.0
  H  H7  1  0.98331759  0.26938405  0.31626454  1.0
  H  H8  1  0.82073614  0.23496439  0.83089786  1.0
  H  H9  1  0.82247721  0.34638943  0.70892414  1.0
  H  H10  1  0.44028859  0.26223720  0.66828760  1.0
  H  H11  1  0.43917854  0.15068637  0.79050267  1.0
  H  H12  1  0.94995542  0.73258919  0.32532592  1.0
  H  H13  1  0.94210923  0.83905699  0.20102060  1.0
  H  H14  1  0.31645506  0.76541958  0.17548713  1.0
  H  H15  1  0.32366701  0.65918241  0.30011213  1.0
  H  H16  1  0.91769515  0.75849188  0.65415999  1.0
  H  H17  1  0.34208757  0.74173041  0.83905321  1.0
  H  H18  1  0.33758490  0.63282885  0.71809131  1.0
  H  H19  1  0.91428704  0.97328982  0.79876548  1.0
  H  H20  1  0.64863402  0.36649141  0.47151931  1.0
  H  H21  1  0.14699649  0.63465206  0.47411566  1.0
  H  H22  1  0.62162112  0.12727845  0.96995163  1.0
  H  H23  1  0.12381067  0.86245588  0.96597052  1.0
  C  C24  1  0.64333977  0.62496004  0.39293582  1.0
  C  C25  1  0.62935513  0.61975998  0.60878224  1.0
  C  C26  1  0.13071316  0.37741055  0.60995150  1.0
  C  C27  1  0.14501232  0.37142710  0.39585153  1.0
  C  C28  1  0.28750942  0.21252011  0.21331653  1.0
  C  C29  1  0.12058065  0.18719354  0.17362339  1.0
  C  C30  1  0.29227484  0.27804522  0.28223247  1.0
  C  C31  1  0.13250724  0.30101802  0.32788621  1.0
  C  C32  1  0.95579615  0.24167901  0.79510009  1.0
  C  C33  1  0.95631527  0.30318957  0.72753387  1.0
  C  C34  1  0.13163147  0.31069294  0.68214751  1.0
  C  C35  1  0.30631386  0.25613287  0.70479295  1.0
  C  C36  1  0.30585757  0.19492718  0.77260844  1.0
  C  C37  1  0.13075453  0.18764781  0.81820391  1.0
  C  C38  1  0.81206384  0.74032741  0.29214411  1.0
  C  C39  1  0.80803173  0.79904881  0.22331817  1.0
  C  C40  1  0.62901132  0.80786946  0.18134566  1.0
  C  C41  1  0.45378585  0.75804001  0.20912958  1.0
  C  C42  1  0.45780730  0.69958669  0.27821275  1.0
  C  C43  1  0.63709287  0.69024264  0.31998848  1.0
  C  C44  1  0.79225210  0.75340899  0.69508168  1.0
  C  C45  1  0.79227700  0.81823262  0.76072653  1.0
  C  C46  1  0.62997016  0.81152721  0.81407960  1.0
  C  C47  1  0.46762514  0.74449592  0.79832028  1.0
  C  C48  1  0.46567101  0.68324239  0.73147441  1.0
  C  C49  1  0.62983045  0.68636894  0.68012380  1.0
  C  C50  1  0.62855133  0.87207051  0.88842977  1.0
  C  C51  1  0.62627621  0.87156675  0.10769808  1.0
  C  C52  1  0.12527642  0.11702811  0.10534976  1.0
  C  C53  1  0.12914282  0.12102927  0.89045200  1.0
  C  C54  1  0.95392875  0.90001445  0.76614797  1.0
  O  O55  1  0.46185795  0.58107265  0.58831642  1.0
  O  O56  1  0.81609615  0.59449348  0.41593451  1.0
  O  O57  1  0.97740476  0.39301631  0.42914737  1.0
  O  O58  1  0.79622323  0.60679777  0.57352091  1.0
  O  O59  1  0.96248497  0.41610682  0.58910707  1.0
  O  O60  1  0.47621562  0.60417653  0.42637321  1.0
  O  O61  1  0.64178459  0.43312704  0.49971627  1.0
  O  O62  1  0.29713118  0.39068355  0.57423641  1.0
  O  O63  1  0.31734034  0.40523441  0.41611648  1.0
  O  O64  1  0.14131361  0.56511851  0.49934353  1.0
  O  O65  1  0.79557590  0.89981330  0.07965823  1.0
  O  O66  1  0.45751950  0.89387090  0.91796528  1.0
  O  O67  1  0.29832367  0.09402064  0.91867756  1.0
  O  O68  1  0.45605740  0.89301985  0.07820810  1.0
  O  O69  1  0.29514995  0.08617157  0.07940474  1.0
  O  O70  1  0.79851884  0.89565069  0.91741946  1.0
  O  O71  1  0.62477202  0.05831082  0.99607477  1.0
  O  O72  1  0.95479086  0.09267832  0.07726520  1.0
  O  O73  1  0.95711959  0.09581215  0.91844532  1.0
  O  O74  1  0.12509424  0.92762195  0.99598218  1.0
  O  O75  1  0.11777937  0.89153579  0.73374664  1.0
