# generated using pymatgen
data_Zn4H51C72Br4N27
_symmetry_space_group_name_H-M   'P 1'
_cell_length_a   19.46603282
_cell_length_b   19.57440453
_cell_length_c   20.26737982
_cell_angle_alpha   109.83514926
_cell_angle_beta   102.77724034
_cell_angle_gamma   114.12754099
_symmetry_Int_Tables_number   1
_chemical_formula_structural   Zn4H51C72Br4N27
_chemical_formula_sum   'Zn4 H51 C72 Br4 N27'
_cell_volume   6019.22168769
_cell_formula_units_Z   1
loop_
 _symmetry_equiv_pos_site_id
 _symmetry_equiv_pos_as_xyz
  1  'x, y, z'
loop_
 _atom_site_type_symbol
 _atom_site_label
 _atom_site_symmetry_multiplicity
 _atom_site_fract_x
 _atom_site_fract_y
 _atom_site_fract_z
 _atom_site_occupancy
  Zn  Zn0  1  0.10061933  0.12698166  0.49889735  1.0
  Zn  Zn1  1  0.88570060  0.90990990  0.50301462  1.0
  Zn  Zn2  1  0.98562813  0.92038014  0.39179435  1.0
  Zn  Zn3  1  0.99812605  0.11533115  0.60860703  1.0
  H  H4  1  0.99752163  0.17921181  0.39190860  1.0
  H  H5  1  0.71978739  0.89205557  0.40831830  1.0
  H  H6  1  0.87352393  0.16872108  0.53883440  1.0
  H  H7  1  0.83599664  0.90295813  0.27065971  1.0
  H  H8  1  0.23763240  0.09681740  0.58218434  1.0
  H  H9  1  0.96989323  0.84282739  0.60144472  1.0
  H  H10  1  0.13029454  0.88992001  0.35368798  1.0
  H  H11  1  0.95001293  0.13546486  0.76243055  1.0
  H  H12  1  0.27231854  0.16629399  0.47213141  1.0
  H  H13  1  0.10694586  0.09581690  0.73011125  1.0
  H  H14  1  0.93492341  0.45541154  0.53942238  1.0
  H  H15  1  0.95155719  0.34419534  0.55754111  1.0
  H  H16  1  0.21371941  0.49364942  0.62160827  1.0
  H  H17  1  0.19672495  0.60385247  0.60134607  1.0
  H  H18  1  0.14960066  0.64102839  0.51531705  1.0
  H  H19  1  0.13291183  0.75203100  0.49743347  1.0
  H  H20  1  0.93299881  0.69080732  0.56942841  1.0
  H  H21  1  0.95525062  0.58543788  0.59433139  1.0
  H  H22  1  0.66246066  0.97436449  0.52355014  1.0
  H  H23  1  0.56486412  0.09332799  0.37091895  1.0
  H  H24  1  0.51906107  0.16572941  0.48821949  1.0
  H  H25  1  0.39065208  0.16695334  0.47570667  1.0
  H  H26  1  0.24967060  0.89095491  0.35409413  1.0
  H  H27  1  0.66812143  0.64279206  0.12233936  1.0
  H  H28  1  0.56205184  0.49738626  0.01198660  1.0
  H  H29  1  0.48633851  0.29714854  0.82420629  1.0
  H  H30  1  0.36222286  0.19039972  0.69929586  1.0
  H  H31  1  0.65091366  0.54051630  0.27997898  1.0
  H  H32  1  0.34399103  0.22013361  0.94773654  1.0
  H  H33  1  0.54041116  0.39635447  0.16929565  1.0
  H  H34  1  0.21955068  0.11200698  0.82357455  1.0
  H  H35  1  0.83637760  0.10923089  0.81088670  1.0
  H  H36  1  0.84034644  0.17185290  0.15798218  1.0
  H  H37  1  0.82612374  0.87107413  0.75892978  1.0
  H  H38  1  0.76048187  0.90649383  0.03787357  1.0
  H  H39  1  0.78983484  0.87133040  0.86882311  1.0
  H  H40  1  0.80527198  0.90896763  0.16289996  1.0
  H  H41  1  0.76520035  0.81909765  0.64550861  1.0
  H  H42  1  0.78747489  0.80153733  0.56635521  1.0
  H  H43  1  0.04735862  0.72745542  0.39389155  1.0
  H  H44  1  0.00982061  0.76749515  0.34576720  1.0
  H  H45  1  0.32430880  0.82095989  0.34346662  1.0
  H  H46  1  0.42808781  0.87253512  0.37200123  1.0
  H  H47  1  0.01502556  0.36254901  0.69098416  1.0
  H  H48  1  0.01298102  0.28706728  0.71366787  1.0
  H  H49  1  0.79861121  0.12488075  0.98307103  1.0
  H  H50  1  0.81821030  0.17568430  0.92562451  1.0
  H  H51  1  0.88398708  0.18470712  0.34573560  1.0
  H  H52  1  0.87766096  0.23493432  0.29360626  1.0
  H  H53  1  0.18281137  0.37312159  0.51673915  1.0
  H  H54  1  0.22073264  0.31172573  0.52540169  1.0
  C  C55  1  0.96452734  0.11098374  0.37200344  1.0
  C  C56  1  0.76936539  0.95884068  0.44342690  1.0
  C  C57  1  0.81005304  0.74292470  0.27219610  1.0
  C  C58  1  0.05563034  0.29333260  0.63193815  1.0
  C  C59  1  0.74800290  0.73175506  0.34831333  1.0
  C  C60  1  0.13113852  0.30170862  0.56457505  1.0
  C  C61  1  0.84767389  0.10024612  0.50886591  1.0
  C  C62  1  0.88312864  0.96987687  0.30949894  1.0
  C  C63  1  0.89358051  0.04286229  0.30350921  1.0
  C  C64  1  0.76484056  0.03249292  0.46424315  1.0
  C  C65  1  0.73620882  0.68571103  0.27188853  1.0
  C  C66  1  0.09150341  0.34105690  0.59704218  1.0
  C  C67  1  0.19472271  0.09359879  0.60907833  1.0
  C  C68  1  0.98519146  0.83923911  0.55243444  1.0
  C  C69  1  0.15312203  0.95774553  0.38151164  1.0
  C  C70  1  0.91814285  0.06935324  0.71761988  1.0
  C  C71  1  0.84333254  0.92827199  0.64612844  1.0
  C  C72  1  0.22566117  0.09849061  0.44248575  1.0
  C  C73  1  0.12756307  0.09185932  0.68408681  1.0
  C  C74  1  0.02444244  0.81309710  0.45660778  1.0
  C  C75  1  0.20427148  0.10503183  0.68378118  1.0
  C  C76  1  0.01587320  0.79123828  0.51547864  1.0
  C  C77  1  0.23408250  0.02788148  0.41141108  1.0
  C  C78  1  0.86163244  0.99544484  0.71672440  1.0
  C  C79  1  0.99661352  0.46485830  0.55834297  1.0
  C  C80  1  0.00592698  0.40204918  0.56882858  1.0
  C  C81  1  0.08377551  0.40975439  0.59028458  1.0
  C  C82  1  0.15189855  0.48390314  0.60155102  1.0
  C  C83  1  0.14228488  0.54639031  0.59045173  1.0
  C  C84  1  0.06437874  0.53831514  0.56833838  1.0
  C  C85  1  0.10247000  0.65223837  0.52827238  1.0
  C  C86  1  0.09142547  0.71364396  0.51609520  1.0
  C  C87  1  0.03003365  0.72908175  0.53013582  1.0
  C  C88  1  0.98139125  0.68087177  0.55829047  1.0
  C  C89  1  0.99320402  0.62043265  0.57126748  1.0
  C  C90  1  0.05356438  0.60398027  0.55599024  1.0
  C  C91  1  0.56732679  0.99836285  0.48252457  1.0
  C  C92  1  0.64028976  0.99918422  0.48881428  1.0
  C  C93  1  0.68879768  0.03467799  0.45363221  1.0
  C  C94  1  0.66065680  0.07033009  0.41291268  1.0
  C  C95  1  0.58656767  0.06782471  0.40517060  1.0
  C  C96  1  0.53726775  0.03105265  0.43921266  1.0
  C  C97  1  0.45940123  0.10538151  0.45802273  1.0
  C  C98  1  0.38710096  0.10607463  0.45133130  1.0
  C  C99  1  0.31013155  0.02847733  0.41471264  1.0
  C  C100  1  0.30871845  0.95194580  0.38379474  1.0
  C  C101  1  0.38122059  0.95049287  0.38945696  1.0
  C  C102  1  0.45865865  0.02900385  0.42916337  1.0
  C  C103  1  0.28046289  0.14625125  0.75231128  1.0
  C  C104  1  0.27809244  0.15221965  0.82329247  1.0
  C  C105  1  0.34718710  0.21190175  0.89278206  1.0
  C  C106  1  0.42194920  0.26724033  0.89331895  1.0
  C  C107  1  0.42750381  0.25474597  0.82260970  1.0
  C  C108  1  0.35805944  0.19487846  0.75322959  1.0
  C  C109  1  0.58307701  0.50778141  0.07091420  1.0
  C  C110  1  0.64227516  0.58840143  0.13260658  1.0
  C  C111  1  0.54741447  0.43764064  0.08387087  1.0
  C  C112  1  0.66899035  0.60146786  0.20876924  1.0
  C  C113  1  0.63110350  0.53147079  0.22141486  1.0
  C  C114  1  0.56999356  0.45081771  0.15988673  1.0
  C  C115  1  0.85144179  0.04230322  0.23363592  1.0
  C  C116  1  0.81170917  0.96673360  0.16231553  1.0
  C  C117  1  0.78643424  0.96431306  0.09190750  1.0
  C  C118  1  0.80105025  0.04032705  0.09050432  1.0
  C  C119  1  0.83130594  0.11377603  0.15987155  1.0
  C  C120  1  0.85604171  0.11582109  0.23151053  1.0
  C  C121  1  0.80772225  0.05866609  0.88711976  1.0
  C  C122  1  0.82643209  0.05676300  0.82347445  1.0
  C  C123  1  0.79524895  0.98988669  0.90386680  1.0
  C  C124  1  0.83324156  0.99057654  0.77656689  1.0
  C  C125  1  0.81686858  0.92113615  0.79165299  1.0
  C  C126  1  0.79835081  0.92165708  0.85359161  1.0
  Br  Br127  1  0.51199465  0.95651139  0.53980472  1.0
  Br  Br128  1  0.72228250  0.12048791  0.36337151  1.0
  Br  Br129  1  0.85014758  0.72977602  0.19500270  1.0
  Br  Br130  1  0.67616757  0.70326487  0.39635971  1.0
  N  N131  1  0.99378329  0.07960661  0.41290107  1.0
  N  N132  1  0.84917806  0.98170956  0.47392353  1.0
  N  N133  1  0.85919315  0.81406023  0.34050402  1.0
  N  N134  1  0.07227758  0.23120813  0.62160355  1.0
  N  N135  1  0.82023115  0.80738030  0.38868746  1.0
  N  N136  1  0.11966024  0.23601274  0.57805525  1.0
  N  N137  1  0.89718827  0.06842418  0.51469850  1.0
  N  N138  1  0.94404531  0.99303272  0.37453282  1.0
  N  N139  1  0.11947544  0.07772877  0.56981012  1.0
  N  N140  1  0.97759113  0.88671639  0.51970658  1.0
  N  N141  1  0.10133969  0.98462449  0.39412334  1.0
  N  N142  1  0.93365245  0.04942106  0.65483019  1.0
  N  N143  1  0.88696983  0.96088996  0.60989314  1.0
  N  N144  1  0.14677330  0.07261307  0.43218716  1.0
  N  N145  1  0.07854263  0.07701926  0.61635106  1.0
  N  N146  1  0.00371681  0.87182298  0.46160081  1.0
  N  N147  1  0.48987782  0.34161159  0.95874637  1.0
  N  N148  1  0.48556984  0.35490780  0.02324264  1.0
  N  N149  1  0.79372937  0.04841062  0.02287392  1.0
  N  N150  1  0.78944764  0.98613973  0.96923442  1.0
  N  N151  1  0.78517165  0.84233271  0.61145285  1.0
  N  N152  1  0.04695298  0.78060218  0.39816852  1.0
  N  N153  1  0.37568269  0.87310798  0.35283994  1.0
  N  N154  1  0.00732082  0.30356803  0.67117761  1.0
  N  N155  1  0.80162369  0.12335304  0.93270631  1.0
  N  N156  1  0.89099091  0.19188061  0.29981887  1.0
  N  N157  1  0.17057394  0.31781110  0.51746551  1.0
