# generated using pymatgen
data_AlH15(C11O6)3
_symmetry_space_group_name_H-M   'P 1'
_cell_length_a   4.22187491
_cell_length_b   16.13765004
_cell_length_c   16.13871650
_cell_angle_alpha   119.69510821
_cell_angle_beta   89.68186391
_cell_angle_gamma   89.67888825
_symmetry_Int_Tables_number   1
_chemical_formula_structural   AlH15(C11O6)3
_chemical_formula_sum   'Al1 H15 C33 O18'
_cell_volume   955.09064677
_cell_formula_units_Z   1
loop_
 _symmetry_equiv_pos_site_id
 _symmetry_equiv_pos_as_xyz
  1  'x, y, z'
loop_
 _atom_site_type_symbol
 _atom_site_label
 _atom_site_symmetry_multiplicity
 _atom_site_fract_x
 _atom_site_fract_y
 _atom_site_fract_z
 _atom_site_occupancy
  Al  Al0  1  0.99998083  0.49824815  0.50182058  1.0
  H  H1  1  0.49982758  0.07923530  0.92082285  1.0
  H  H2  1  0.44420714  0.34449218  0.91898872  1.0
  H  H3  1  0.55580179  0.08114660  0.65562927  1.0
  H  H4  1  0.68732751  0.94497136  0.84869922  1.0
  H  H5  1  0.38331453  0.94488391  0.59309244  1.0
  H  H6  1  0.31278105  0.15133296  0.05515799  1.0
  H  H7  1  0.61659283  0.40696323  0.05523106  1.0
  H  H8  1  0.73536113  0.39591243  0.83893064  1.0
  H  H9  1  0.26466026  0.16122484  0.60426858  1.0
  H  H10  1  0.06536154  0.68098631  0.48499124  1.0
  H  H11  1  0.02897256  0.68353441  0.68941835  1.0
  H  H12  1  0.97124811  0.31064136  0.31659126  1.0
  H  H13  1  0.93460942  0.51511882  0.31910081  1.0
  H  H14  1  0.34919233  0.57148886  0.80445875  1.0
  H  H15  1  0.65070123  0.19563230  0.42872014  1.0
  C  C16  1  0.47938776  0.42501948  0.34981194  1.0
  C  C17  1  0.49999643  0.42631733  0.57378539  1.0
  C  C18  1  0.52059200  0.65027257  0.57506884  1.0
  C  C19  1  0.48144835  0.21815464  0.93276585  1.0
  C  C20  1  0.49989356  0.11826581  0.88183128  1.0
  C  C21  1  0.51837798  0.06735616  0.78193594  1.0
  C  C22  1  0.52419425  0.11873572  0.73284536  1.0
  C  C23  1  0.50002450  0.21852310  0.78161159  1.0
  C  C24  1  0.47582185  0.26727119  0.88140163  1.0
  C  C25  1  0.61998549  0.80977249  0.72619516  1.0
  C  C26  1  0.61631074  0.90951119  0.77422316  1.0
  C  C27  1  0.52941689  0.96170879  0.72965865  1.0
  C  C28  1  0.45008092  0.90959250  0.63311173  1.0
  C  C29  1  0.44988039  0.81007190  0.58324804  1.0
  C  C30  1  0.53049693  0.75807844  0.62943809  1.0
  C  C31  1  0.38367321  0.22582767  0.09059356  1.0
  C  C32  1  0.38002980  0.27385552  0.19032905  1.0
  C  C33  1  0.46948142  0.37062482  0.24202717  1.0
  C  C34  1  0.55008615  0.41682112  0.19004239  1.0
  C  C35  1  0.54978238  0.36694897  0.09052278  1.0
  C  C36  1  0.47044078  0.27039817  0.03839458  1.0
  C  C37  1  0.62829509  0.36300039  0.76851956  1.0
  C  C38  1  0.62462805  0.41389840  0.71963668  1.0
  C  C39  1  0.49992571  0.37322261  0.62694159  1.0
  C  C40  1  0.37528307  0.28052056  0.58629081  1.0
  C  C41  1  0.37166758  0.23163114  0.63717874  1.0
  C  C42  1  0.50002318  0.27144674  0.72872859  1.0
  C  C43  1  0.38608058  0.76481223  0.47826747  1.0
  C  C44  1  0.71734556  0.76727385  0.78709357  1.0
  C  C45  1  0.28280134  0.21296409  0.23284011  1.0
  C  C46  1  0.61383789  0.52180780  0.23527453  1.0
  C  C47  1  0.76436038  0.51201601  0.77287282  1.0
  C  C48  1  0.23557143  0.22725765  0.48818263  1.0
  O  O49  1  0.28055209  0.60953411  0.58693450  1.0
  O  O50  1  0.24469621  0.48060993  0.39386552  1.0
  O  O51  1  0.26743233  0.41410163  0.51814857  1.0
  O  O52  1  0.75530845  0.60621641  0.51948659  1.0
  O  O53  1  0.73261902  0.48192207  0.58597267  1.0
  O  O54  1  0.71942448  0.41316384  0.39055645  1.0
  O  O55  1  0.20371408  0.68610086  0.43859105  1.0
  O  O56  1  0.50352248  0.79638277  0.43098229  1.0
  O  O57  1  0.92879573  0.69421121  0.74930536  1.0
  O  O58  1  0.61394342  0.79937736  0.86760096  1.0
  O  O59  1  0.07142620  0.25075388  0.30591653  1.0
  O  O60  1  0.38617272  0.13244771  0.20072515  1.0
  O  O61  1  0.79627012  0.56150747  0.31395836  1.0
  O  O62  1  0.49645594  0.56906631  0.20365957  1.0
  O  O63  1  0.58483212  0.58815028  0.81087449  1.0
  O  O64  1  0.05451990  0.51533610  0.78346406  1.0
  O  O65  1  0.41508991  0.18920138  0.41205149  1.0
  O  O66  1  0.94541085  0.21666188  0.48487561  1.0
