# generated using pymatgen
data_CuH3C5N2
_symmetry_space_group_name_H-M   'P 1'
_cell_length_a   18.14712724
_cell_length_b   21.84659804
_cell_length_c   22.99770752
_cell_angle_alpha   90.86768042
_cell_angle_beta   91.03253879
_cell_angle_gamma   90.26564877
_symmetry_Int_Tables_number   1
_chemical_formula_structural   CuH3C5N2
_chemical_formula_sum   'Cu12 H36 C60 N24'
_cell_volume   9114.87432708
_cell_formula_units_Z   12
loop_
 _symmetry_equiv_pos_site_id
 _symmetry_equiv_pos_as_xyz
  1  'x, y, z'
loop_
 _atom_site_type_symbol
 _atom_site_label
 _atom_site_symmetry_multiplicity
 _atom_site_fract_x
 _atom_site_fract_y
 _atom_site_fract_z
 _atom_site_occupancy
  Cu  Cu0  1  0.60651014  0.44432519  0.66978322  1.0
  Cu  Cu1  1  0.65960796  0.40152382  0.54978921  1.0
  Cu  Cu2  1  0.59040954  0.30483715  0.63883412  1.0
  Cu  Cu3  1  0.35347274  0.09247194  0.18722805  1.0
  Cu  Cu4  1  0.34381847  0.10402418  0.05064144  1.0
  Cu  Cu5  1  0.44295761  0.19563294  0.12955036  1.0
  Cu  Cu6  1  0.11136173  0.55986523  0.82956577  1.0
  Cu  Cu7  1  0.16464284  0.59725392  0.95365610  1.0
  Cu  Cu8  1  0.08971421  0.69556370  0.86578313  1.0
  Cu  Cu9  1  0.86375773  0.91791394  0.31454299  1.0
  Cu  Cu10  1  0.84918960  0.89610120  0.44667190  1.0
  Cu  Cu11  1  0.93043365  0.79777273  0.36294161  1.0
  H  H12  1  0.71004104  0.56017211  0.69366210  1.0
  H  H13  1  0.77251427  0.51016099  0.51843641  1.0
  H  H14  1  0.49878212  0.25964723  0.74993669  1.0
  H  H15  1  0.49072691  0.45695244  0.77028839  1.0
  H  H16  1  0.65064367  0.32058621  0.43463461  1.0
  H  H17  1  0.60592237  0.18282388  0.56280203  1.0
  H  H18  1  0.23168899  0.99244888  0.20713457  1.0
  H  H19  1  0.24688213  0.98347658  0.01937649  1.0
  H  H20  1  0.56858313  0.22086050  0.22807156  1.0
  H  H21  1  0.43359837  0.08464145  0.31067120  1.0
  H  H22  1  0.34376410  0.17429618  0.93086629  1.0
  H  H23  1  0.45071475  0.30824804  0.04476024  1.0
  H  H24  1  0.21507464  0.44697873  0.80358466  1.0
  H  H25  1  0.27667071  0.48656734  0.98309546  1.0
  H  H26  1  0.99389990  0.74356906  0.75442172  1.0
  H  H27  1  0.99628685  0.54727073  0.72494813  1.0
  H  H28  1  0.15806936  0.67560779  0.07079435  1.0
  H  H29  1  0.10296776  0.81429266  0.94500816  1.0
  H  H30  1  0.74265939  0.02003168  0.29444668  1.0
  H  H31  1  0.74673893  0.01097859  0.48259345  1.0
  H  H32  1  0.04171423  0.76091436  0.25951775  1.0
  H  H33  1  0.95949108  0.93631937  0.20285495  1.0
  H  H34  1  0.86300041  0.82808852  0.56624113  1.0
  H  H35  1  0.92634600  0.68338097  0.44696513  1.0
  H  H36  1  0.21072166  0.86917433  0.03471201  1.0
  H  H37  1  0.04669426  0.76449760  0.12335479  1.0
  H  H38  1  0.11430957  0.94068093  0.19157699  1.0
  H  H39  1  0.79817501  0.64404041  0.52811312  1.0
  H  H40  1  0.97437675  0.72961880  0.62794612  1.0
  H  H41  1  0.86113937  0.57276686  0.69519006  1.0
  H  H42  1  0.61779985  0.06159808  0.30884460  1.0
  H  H43  1  0.54293813  0.23176210  0.38239338  1.0
  H  H44  1  0.71109342  0.12882363  0.47152416  1.0
  H  H45  1  0.36341091  0.43190503  0.80542693  1.0
  H  H46  1  0.47429991  0.27144757  0.86876915  1.0
  H  H47  1  0.30110785  0.35373985  0.96815184  1.0
  C  C48  1  0.71672666  0.53963561  0.65080091  1.0
  C  C49  1  0.76536939  0.55571329  0.60678952  1.0
  C  C50  1  0.74762791  0.51504756  0.56080347  1.0
  C  C51  1  0.50525057  0.30893483  0.74745186  1.0
  C  C52  1  0.47332465  0.35550372  0.78120396  1.0
  C  C53  1  0.49985115  0.40975011  0.75695183  1.0
  C  C54  1  0.63911221  0.29466270  0.47334988  1.0
  C  C55  1  0.62841065  0.23149289  0.47915680  1.0
  C  C56  1  0.61811419  0.22404753  0.53892137  1.0
  C  C57  1  0.24247374  0.99901202  0.16135796  1.0
  C  C58  1  0.21723084  0.96514151  0.11249510  1.0
  C  C59  1  0.25136019  0.99366952  0.06564230  1.0
  C  C60  1  0.52693807  0.18792891  0.24041301  1.0
  C  C61  1  0.52290146  0.15234593  0.29046199  1.0
  C  C62  1  0.45816302  0.11795323  0.28221961  1.0
  C  C63  1  0.37125822  0.19957690  0.96606626  1.0
  C  C64  1  0.39581929  0.26047938  0.96804675  1.0
  C  C65  1  0.42481346  0.26819676  0.02456383  1.0
  C  C66  1  0.22171226  0.46505946  0.84762046  1.0
  C  C67  1  0.26947090  0.44602732  0.89236331  1.0
  C  C68  1  0.25215873  0.48426129  0.93971774  1.0
  C  C69  1  0.00314499  0.69453302  0.75475526  1.0
  C  C70  1  0.97346604  0.64828732  0.71819671  1.0
  C  C71  1  0.00311101  0.59411776  0.74065282  1.0
  C  C72  1  0.14385622  0.70194196  0.03256975  1.0
  C  C73  1  0.13077334  0.76488006  0.02776231  1.0
  C  C74  1  0.11755744  0.77298145  0.96812718  1.0
  C  C75  1  0.75126510  0.00930731  0.33999141  1.0
  C  C76  1  0.72180836  0.03732417  0.38972087  1.0
  C  C77  1  0.75447198  0.00558668  0.43611203  1.0
  C  C78  1  0.01263497  0.80362413  0.25295716  1.0
  C  C79  1  0.02281256  0.84846763  0.21078451  1.0
  C  C80  1  0.97146896  0.89381373  0.22488307  1.0
  C  C81  1  0.88001005  0.79999193  0.52957919  1.0
  C  C82  1  0.89393950  0.73701517  0.52682675  1.0
  C  C83  1  0.91070195  0.72589653  0.46834327  1.0
  C  C84  1  0.16858317  0.91158706  0.11300156  1.0
  C  C85  1  0.17199359  0.86519607  0.07024012  1.0
  C  C86  1  0.12874376  0.81204189  0.07392447  1.0
  C  C87  1  0.08176623  0.80504727  0.12121957  1.0
  C  C88  1  0.07578306  0.85167152  0.16339390  1.0
  C  C89  1  0.11914752  0.90450971  0.15866478  1.0
  C  C90  1  0.82313481  0.60274030  0.61095572  1.0
  C  C91  1  0.83371859  0.64530411  0.56687461  1.0
  C  C92  1  0.88682334  0.69192235  0.57334400  1.0
  C  C93  1  0.93115669  0.69486489  0.62394630  1.0
  C  C94  1  0.92328403  0.65124548  0.66766267  1.0
  C  C95  1  0.86833917  0.60620113  0.66093913  1.0
  C  C96  1  0.67069193  0.08887511  0.39029875  1.0
  C  C97  1  0.62123695  0.09642633  0.34330484  1.0
  C  C98  1  0.57563450  0.14774790  0.33976238  1.0
  C  C99  1  0.57918025  0.19213457  0.38427274  1.0
  C  C100  1  0.62654784  0.18475401  0.43260178  1.0
  C  C101  1  0.67190264  0.13303726  0.43527375  1.0
  C  C102  1  0.32598341  0.39858106  0.88755920  1.0
  C  C103  1  0.37049738  0.39693402  0.83842327  1.0
  C  C104  1  0.42437638  0.35182168  0.83094920  1.0
  C  C105  1  0.43195977  0.30639300  0.87320108  1.0
  C  C106  1  0.38826320  0.30735575  0.92283713  1.0
  C  C107  1  0.33602637  0.35387470  0.93003571  1.0
  N  N108  1  0.69276167  0.47707316  0.57662035  1.0
  N  N109  1  0.67326032  0.49278959  0.63231860  1.0
  N  N110  1  0.54440153  0.39639509  0.71235305  1.0
  N  N111  1  0.54747261  0.33378373  0.70605693  1.0
  N  N112  1  0.62202587  0.27899649  0.56664518  1.0
  N  N113  1  0.63572306  0.32280421  0.52587304  1.0
  N  N114  1  0.29361987  0.04091641  0.08530927  1.0
  N  N115  1  0.28826377  0.04395426  0.14481665  1.0
  N  N116  1  0.42587698  0.13200633  0.23079758  1.0
  N  N117  1  0.46867809  0.17523162  0.20470435  1.0
  N  N118  1  0.41797650  0.21558189  0.05415214  1.0
  N  N119  1  0.38429248  0.17296724  0.01795666  1.0
  N  N120  1  0.19834175  0.52359853  0.92400726  1.0
  N  N121  1  0.17911895  0.51119369  0.86696152  1.0
  N  N122  1  0.04729369  0.60717510  0.78687937  1.0
  N  N123  1  0.04702436  0.66947774  0.79606864  1.0
  N  N124  1  0.12212420  0.71873488  0.93948909  1.0
  N  N125  1  0.13909825  0.67461777  0.97950619  1.0
  N  N126  1  0.79983118  0.96193047  0.41533730  1.0
  N  N127  1  0.79802197  0.96457482  0.35567599  1.0
  N  N128  1  0.93337021  0.87712689  0.27189846  1.0
  N  N129  1  0.95925695  0.82138611  0.28980056  1.0
  N  N130  1  0.90708270  0.77856382  0.43841176  1.0
  N  N131  1  0.88740707  0.82460200  0.47639135  1.0
