# generated using pymatgen
data_Zn4H19C34N2O13F
_symmetry_space_group_name_H-M   'P 1'
_cell_length_a   15.98023708
_cell_length_b   16.06731006
_cell_length_c   19.60375931
_cell_angle_alpha   84.51510660
_cell_angle_beta   89.15224975
_cell_angle_gamma   83.58980856
_symmetry_Int_Tables_number   1
_chemical_formula_structural   Zn4H19C34N2O13F
_chemical_formula_sum   'Zn4 H19 C34 N2 O13 F1'
_cell_volume   4979.03603215
_cell_formula_units_Z   1
loop_
 _symmetry_equiv_pos_site_id
 _symmetry_equiv_pos_as_xyz
  1  'x, y, z'
loop_
 _atom_site_type_symbol
 _atom_site_label
 _atom_site_symmetry_multiplicity
 _atom_site_fract_x
 _atom_site_fract_y
 _atom_site_fract_z
 _atom_site_occupancy
  Zn  Zn0  1  0.42509474  0.57201505  0.56149998  1.0
  Zn  Zn1  1  0.55505514  0.58463440  0.43655374  1.0
  Zn  Zn2  1  0.44575647  0.43582970  0.44774359  1.0
  Zn  Zn3  1  0.58560373  0.43386094  0.56192233  1.0
  H  H4  1  0.44284599  0.61447536  0.77015029  1.0
  H  H5  1  0.58050253  0.43176004  0.00414976  1.0
  H  H6  1  0.45335311  0.60799436  0.89663319  1.0
  H  H7  1  0.54536400  0.35992754  0.29565885  1.0
  H  H8  1  0.60494645  0.23801991  0.25145554  1.0
  H  H9  1  0.63553855  0.29748214  0.17587405  1.0
  H  H10  1  0.53164430  0.26657652  0.18323700  1.0
  H  H11  1  0.63433319  0.30705066  0.87664894  1.0
  H  H12  1  0.49964273  0.26194515  0.92121338  1.0
  H  H13  1  0.50975100  0.32661001  0.98876487  1.0
  H  H14  1  0.58528624  0.23822210  0.98040831  1.0
  H  H15  1  0.44625330  0.65369135  0.10673517  1.0
  H  H16  1  0.99867194  0.54737093  0.54381717  1.0
  H  H17  1  0.00468050  0.46166708  0.40878643  1.0
  H  H18  1  0.42076352  0.02629336  0.47614414  1.0
  H  H19  1  0.45822489  0.64319951  0.23392042  1.0
  H  H20  1  0.44192547  0.58127729  0.00410846  1.0
  H  H21  1  0.54388570  0.39240483  0.10965107  1.0
  H  H22  1  0.58648638  0.37157368  0.77334104  1.0
  C  C23  1  0.72323502  0.50334484  0.47975789  1.0
  C  C24  1  0.53208949  0.48017919  0.98261061  1.0
  C  C25  1  0.48837811  0.53058967  0.02531949  1.0
  C  C26  1  0.28185074  0.50925262  0.49490588  1.0
  C  C27  1  0.50380493  0.51221737  0.24432387  1.0
  C  C28  1  0.81293647  0.49846139  0.46866289  1.0
  C  C29  1  0.97690372  0.48980071  0.45368080  1.0
  C  C30  1  0.02736739  0.51891988  0.49937139  1.0
  C  C31  1  0.11515862  0.51474828  0.49332900  1.0
  C  C32  1  0.88918357  0.49475461  0.46127761  1.0
  C  C33  1  0.19176605  0.51244869  0.49225127  1.0
  C  C34  1  0.52275642  0.48426091  0.90860641  1.0
  C  C35  1  0.47433486  0.82285566  0.50221667  1.0
  C  C36  1  0.47268689  0.98604366  0.50187773  1.0
  C  C37  1  0.53256550  0.02497131  0.53094978  1.0
  C  C38  1  0.47887123  0.73293967  0.50039524  1.0
  C  C39  1  0.53263547  0.11225856  0.52977449  1.0
  C  C40  1  0.47390004  0.89876033  0.50287384  1.0
  C  C41  1  0.53107942  0.18858224  0.52708949  1.0
  C  C42  1  0.52579082  0.27907675  0.52005182  1.0
  C  C43  1  0.50304183  0.51098913  0.31924123  1.0
  C  C44  1  0.51206973  0.49780670  0.68818972  1.0
  C  C45  1  0.55940673  0.41585274  0.87287457  1.0
  C  C46  1  0.51578356  0.49392520  0.76415868  1.0
  C  C47  1  0.47584053  0.55975313  0.79920991  1.0
  C  C48  1  0.48082538  0.55484366  0.87003705  1.0
  C  C49  1  0.58297801  0.28818036  0.21183898  1.0
  C  C50  1  0.54537047  0.28946103  0.95170990  1.0
  C  C51  1  0.55732235  0.42295621  0.80123903  1.0
  C  C52  1  0.52628941  0.44759311  0.13702916  1.0
  C  C53  1  0.52899311  0.43894268  0.20928000  1.0
  C  C54  1  0.47658220  0.58861585  0.20588117  1.0
  C  C55  1  0.47039320  0.59450635  0.13525229  1.0
  C  C56  1  0.49644684  0.52353712  0.09970111  1.0
  N  N57  1  0.55644740  0.36369169  0.24431206  1.0
  N  N58  1  0.59907154  0.34239023  0.90930267  1.0
  O  O59  1  0.50353188  0.50662019  0.50384275  1.0
  O  O60  1  0.50600589  0.58056946  0.34587659  1.0
  O  O61  1  0.56464655  0.44634649  0.65883740  1.0
  O  O62  1  0.49846176  0.43987868  0.35583362  1.0
  O  O63  1  0.45637383  0.55181117  0.65808731  1.0
  O  O64  1  0.42729453  0.69480545  0.53851714  1.0
  O  O65  1  0.58076832  0.31265818  0.55129890  1.0
  O  O66  1  0.67782902  0.55148490  0.43604721  1.0
  O  O67  1  0.32387247  0.46933382  0.44978618  1.0
  O  O68  1  0.69944484  0.45901449  0.53246015  1.0
  O  O69  1  0.31055530  0.54650644  0.54282278  1.0
  O  O70  1  0.53488387  0.70133704  0.46039279  1.0
  O  O71  1  0.46556300  0.31583598  0.48237781  1.0
  F  F72  1  0.59852323  0.97771294  0.56420545  1.0
