# generated using pymatgen
data_Zn4H28C34N4O13
_symmetry_space_group_name_H-M   'P 1'
_cell_length_a   18.62243220
_cell_length_b   18.63369355
_cell_length_c   25.09327490
_cell_angle_alpha   111.71932721
_cell_angle_beta   111.70674323
_cell_angle_gamma   90.17538972
_symmetry_Int_Tables_number   1
_chemical_formula_structural   Zn4H28C34N4O13
_chemical_formula_sum   'Zn8 H56 C68 N8 O26'
_cell_volume   7416.27540500
_cell_formula_units_Z   2
loop_
 _symmetry_equiv_pos_site_id
 _symmetry_equiv_pos_as_xyz
  1  'x, y, z'
loop_
 _atom_site_type_symbol
 _atom_site_label
 _atom_site_symmetry_multiplicity
 _atom_site_fract_x
 _atom_site_fract_y
 _atom_site_fract_z
 _atom_site_occupancy
  Zn  Zn0  1  0.47256843  0.05911505  0.94655968  1.0
  Zn  Zn1  1  0.88762261  0.47380919  0.94666785  1.0
  Zn  Zn2  1  0.47399600  0.88742158  0.94653803  1.0
  Zn  Zn3  1  0.05897146  0.47286166  0.94662880  1.0
  Zn  Zn4  1  0.61241022  0.02655211  0.05339988  1.0
  Zn  Zn5  1  0.02675382  0.61246806  0.05369602  1.0
  Zn  Zn6  1  0.44100222  0.02684950  0.05337803  1.0
  Zn  Zn7  1  0.02689096  0.44126660  0.05370921  1.0
  H  H8  1  0.22839047  0.32154077  0.93590850  1.0
  H  H9  1  0.61352806  0.22904222  0.93627661  1.0
  H  H10  1  0.70751680  0.61442711  0.93579622  1.0
  H  H11  1  0.32283509  0.70722533  0.93629686  1.0
  H  H12  1  0.22050669  0.61561076  0.92917979  1.0
  H  H13  1  0.61632352  0.70915459  0.92992784  1.0
  H  H14  1  0.70877023  0.31353836  0.92918587  1.0
  H  H15  1  0.31372561  0.22092921  0.93005388  1.0
  H  H16  1  0.19054084  0.27290712  0.02869623  1.0
  H  H17  1  0.75563169  0.18953622  0.02676608  1.0
  H  H18  1  0.83815319  0.75578137  0.02862443  1.0
  H  H19  1  0.27117987  0.83719757  0.02676311  1.0
  H  H20  1  0.20680693  0.75111093  0.04003770  1.0
  H  H21  1  0.75241320  0.83443274  0.03996989  1.0
  H  H22  1  0.83328245  0.28884371  0.04005138  1.0
  H  H23  1  0.28764975  0.20567959  0.04010243  1.0
  H  H24  1  0.41697377  0.87823295  0.63636404  1.0
  H  H25  1  0.73704386  0.23592683  0.63619746  1.0
  H  H26  1  0.21954625  0.75821294  0.63632559  1.0
  H  H27  1  0.89918549  0.40022835  0.63618212  1.0
  H  H28  1  0.21615973  0.79242595  0.36394241  1.0
  H  H29  1  0.56897160  0.15628369  0.36362943  1.0
  H  H30  1  0.14793689  0.57155305  0.36398209  1.0
  H  H31  1  0.79455465  0.20728867  0.36362689  1.0
  H  H32  1  0.15506500  0.73435007  0.24673846  1.0
  H  H33  1  0.51018298  0.09944035  0.24641232  1.0
  H  H34  1  0.09174688  0.51236996  0.24679096  1.0
  H  H35  1  0.73615808  0.14679578  0.24640156  1.0
  H  H36  1  0.60423783  0.08911924  0.84691421  1.0
  H  H37  1  0.61226650  0.06376392  0.77400678  1.0
  H  H38  1  0.56983826  0.14689945  0.80284565  1.0
  H  H39  1  0.46400864  0.03460354  0.71882159  1.0
  H  H40  1  0.45668671  0.05998824  0.79160960  1.0
  H  H41  1  0.53019934  0.95175732  0.80786909  1.0
  H  H42  1  0.53566585  0.92600124  0.73455225  1.0
  H  H43  1  0.79136696  0.23913876  0.85859688  1.0
  H  H44  1  0.75089041  0.15386912  0.78799184  1.0
  H  H45  1  0.84600816  0.16135884  0.84421289  1.0
  H  H46  1  0.85596679  0.18742473  0.75543737  1.0
  H  H47  1  0.89618129  0.27128360  0.82586927  1.0
  H  H48  1  0.76911243  0.32398032  0.79510500  1.0
  H  H49  1  0.73006651  0.23921711  0.72462910  1.0
  H  H50  1  0.24265463  0.75785069  0.84688117  1.0
  H  H51  1  0.16169300  0.71030220  0.77399534  1.0
  H  H52  1  0.23297484  0.65602234  0.80282595  1.0
  H  H53  1  0.25474704  0.68422385  0.71876654  1.0
  H  H54  1  0.33486270  0.73158454  0.79154515  1.0
  H  H55  1  0.27766595  0.85611234  0.80781028  1.0
  H  H56  1  0.19895060  0.80861247  0.73446104  1.0
  H  H57  1  0.06708635  0.61941778  0.85859723  1.0
  H  H58  1  0.03703943  0.63415297  0.78802156  1.0
  H  H59  1  0.99810519  0.68285552  0.84422186  1.0
  H  H60  1  0.89938249  0.56804746  0.75536605  1.0
  H  H61  1  0.92949196  0.55460565  0.82579970  1.0
  H  H62  1  0.02591232  0.47120705  0.79513775  1.0
  H  H63  1  0.99450038  0.48543496  0.72463792  1.0
  C  C64  1  0.58487706  0.08478809  0.16972400  1.0
  C  C65  1  0.08500924  0.58507260  0.17008200  1.0
  C  C66  1  0.21991087  0.71988196  0.43972590  1.0
  C  C67  1  0.71966291  0.21967866  0.43938721  1.0
  C  C68  1  0.28047307  0.78043360  0.56080646  1.0
  C  C69  1  0.78024995  0.28021171  0.56048660  1.0
  C  C70  1  0.18814290  0.73139895  0.33790214  1.0
  C  C71  1  0.60497860  0.15442640  0.33756577  1.0
  C  C72  1  0.14986562  0.60652577  0.33791723  1.0
  C  C73  1  0.73249629  0.18303613  0.33757110  1.0
  C  C74  1  0.15462013  0.69907013  0.27290261  1.0
  C  C75  1  0.57246824  0.12260944  0.27256975  1.0
  C  C76  1  0.11831831  0.57382544  0.27290943  1.0
  C  C77  1  0.70003865  0.14977561  0.27257362  1.0
  C  C78  1  0.11996031  0.61997970  0.23996475  1.0
  C  C79  1  0.61978540  0.11968054  0.23960825  1.0
  C  C80  1  0.18552800  0.68549203  0.37095728  1.0
  C  C81  1  0.68526186  0.18526128  0.37062568  1.0
  C  C82  1  0.41505775  0.91500939  0.83006393  1.0
  C  C83  1  0.91504049  0.41510792  0.83023075  1.0
  C  C84  1  0.63673346  0.13487050  0.99769529  1.0
  C  C85  1  0.86273083  0.63679268  0.99913519  1.0
  C  C86  1  0.36107000  0.86277192  0.99771869  1.0
  C  C87  1  0.13633329  0.36234330  0.99919831  1.0
  C  C88  1  0.63636007  0.86198944  0.00060998  1.0
  C  C89  1  0.86201770  0.36369296  0.99959481  1.0
  C  C90  1  0.36426502  0.13868019  0.00072121  1.0
  C  C91  1  0.13754683  0.63584698  0.99953087  1.0
  C  C92  1  0.23387761  0.28909486  0.96530265  1.0
  C  C93  1  0.67551493  0.23419241  0.96496560  1.0
  C  C94  1  0.73141403  0.67626453  0.96518776  1.0
  C  C95  1  0.28952386  0.73073401  0.96497708  1.0
  C  C96  1  0.23324961  0.67572755  0.96399111  1.0
  C  C97  1  0.67661291  0.73148627  0.96443691  1.0
  C  C98  1  0.73081293  0.28822793  0.96399624  1.0
  C  C99  1  0.28794247  0.23313254  0.96456718  1.0
  C  C100  1  0.18950792  0.30375524  0.99907611  1.0
  C  C101  1  0.69499023  0.18885465  0.99785447  1.0
  C  C102  1  0.80952777  0.69533215  0.99899687  1.0
  C  C103  1  0.30293178  0.80895887  0.99787842  1.0
  C  C104  1  0.19588746  0.69303676  0.00306794  1.0
  C  C105  1  0.69405765  0.80792022  0.00348565  1.0
  C  C106  1  0.80723790  0.30997177  0.00309347  1.0
  C  C107  1  0.30952197  0.19572146  0.00362035  1.0
  C  C108  1  0.42065499  0.89821335  0.72772563  1.0
  C  C109  1  0.81698340  0.31661912  0.72747966  1.0
  C  C110  1  0.30719850  0.82955284  0.72770137  1.0
  C  C111  1  0.91046285  0.41084265  0.72748103  1.0
  C  C112  1  0.38680106  0.86530420  0.66242805  1.0
  C  C113  1  0.78536845  0.28487888  0.66219822  1.0
  C  C114  1  0.27577721  0.79719611  0.66240166  1.0
  C  C115  1  0.87686492  0.37725814  0.66218603  1.0
  C  C116  1  0.31481473  0.81477089  0.62945105  1.0
  C  C117  1  0.81459480  0.31452207  0.62912112  1.0
  C  C118  1  0.38002064  0.87998175  0.75991879  1.0
  C  C119  1  0.87998499  0.38002040  0.76003118  1.0
  C  C120  1  0.49922287  0.95087872  0.76077889  1.0
  C  C121  1  0.49380287  0.03544147  0.76609423  1.0
  C  C122  1  0.57439759  0.08658674  0.79922468  1.0
  C  C123  1  0.78462382  0.27921364  0.75982194  1.0
  C  C124  1  0.84073744  0.23249265  0.79096120  1.0
  C  C125  1  0.80539452  0.19458328  0.82217689  1.0
  C  C126  1  0.26160071  0.80992554  0.76071164  1.0
  C  C127  1  0.27224418  0.73067295  0.76603244  1.0
  C  C128  1  0.22477976  0.71270371  0.79918750  1.0
  C  C129  1  0.97510748  0.48062565  0.75981910  1.0
  C  C130  1  0.95007992  0.55847948  0.79090998  1.0
  C  C131  1  0.01666046  0.62759096  0.82217988  1.0
  N  N132  1  0.22708497  0.71391004  0.53103205  1.0
  N  N133  1  0.82219386  0.29550707  0.53065478  1.0
  N  N134  1  0.30403895  0.81717753  0.53100365  1.0
  N  N135  1  0.70844368  0.23515806  0.53068907  1.0
  N  N136  1  0.19569114  0.68359690  0.46943635  1.0
  N  N137  1  0.79097513  0.26543799  0.46909330  1.0
  N  N138  1  0.27381838  0.78589014  0.46940990  1.0
  N  N139  1  0.67807245  0.20368071  0.46912557  1.0
  O  O140  1  0.49987541  0.99983360  0.99970108  1.0
  O  O141  1  0.99999650  0.50002929  0.00002585  1.0
  O  O142  1  0.51026479  0.06797342  0.14264990  1.0
  O  O143  1  0.06872758  0.51048118  0.14304113  1.0
  O  O144  1  0.63243879  0.07460823  0.14267285  1.0
  O  O145  1  0.07425345  0.63263056  0.14304396  1.0
  O  O146  1  0.42568878  0.98944884  0.85694672  1.0
  O  O147  1  0.86805772  0.43612275  0.85735999  1.0
  O  O148  1  0.43125379  0.86740749  0.85690495  1.0
  O  O149  1  0.98914381  0.42119060  0.85736041  1.0
  O  O150  1  0.66432812  0.10175953  0.03588490  1.0
  O  O151  1  0.93442180  0.66439752  0.03677166  1.0
  O  O152  1  0.37156307  0.93409796  0.03581233  1.0
  O  O153  1  0.10240397  0.37246152  0.03693449  1.0
  O  O154  1  0.66339253  0.93321091  0.03948623  1.0
  O  O155  1  0.93284314  0.37615946  0.03908782  1.0
  O  O156  1  0.37595245  0.10622128  0.03952094  1.0
  O  O157  1  0.10611140  0.66287508  0.03895602  1.0
  O  O158  1  0.39527197  0.83482999  0.96041441  1.0
  O  O159  1  0.12848437  0.39761282  0.96282100  1.0
  O  O160  1  0.56524048  0.12536852  0.96030017  1.0
  O  O161  1  0.83413094  0.56512605  0.96289607  1.0
  O  O162  1  0.39503198  0.12633277  0.96089478  1.0
  O  O163  1  0.12303031  0.56576205  0.95839905  1.0
  O  O164  1  0.56580617  0.83445311  0.96074954  1.0
  O  O165  1  0.83541566  0.39261968  0.95843665  1.0
