# generated using pymatgen
data_Cd2H18RuC36(NO2)6
_symmetry_space_group_name_H-M   'P 1'
_cell_length_a   12.67159336
_cell_length_b   12.67259527
_cell_length_c   22.82949939
_cell_angle_alpha   99.96809658
_cell_angle_beta   104.25164363
_cell_angle_gamma   104.15777185
_symmetry_Int_Tables_number   1
_chemical_formula_structural   Cd2H18RuC36(NO2)6
_chemical_formula_sum   'Cd4 H36 Ru2 C72 N12 O24'
_cell_volume   3337.39384743
_cell_formula_units_Z   2
loop_
 _symmetry_equiv_pos_site_id
 _symmetry_equiv_pos_as_xyz
  1  'x, y, z'
loop_
 _atom_site_type_symbol
 _atom_site_label
 _atom_site_symmetry_multiplicity
 _atom_site_fract_x
 _atom_site_fract_y
 _atom_site_fract_z
 _atom_site_occupancy
  Cd  Cd0  1  0.59679882  0.01473402  0.45598177  1.0
  Cd  Cd1  1  0.55871193  0.64072562  0.04398007  1.0
  Cd  Cd2  1  0.40322631  0.98525687  0.54401016  1.0
  Cd  Cd3  1  0.44130727  0.35927453  0.95602905  1.0
  H  H4  1  0.15496048  0.65389374  0.72687748  1.0
  H  H5  1  0.92682626  0.92797415  0.77299467  1.0
  H  H6  1  0.84504260  0.34610474  0.27311531  1.0
  H  H7  1  0.07318479  0.07202096  0.22700411  1.0
  H  H8  1  0.27949653  0.73644901  0.66536220  1.0
  H  H9  1  0.07092796  0.11402399  0.83448642  1.0
  H  H10  1  0.72050739  0.26354695  0.33462958  1.0
  H  H11  1  0.92906652  0.88597283  0.16551032  1.0
  H  H12  1  0.02285831  0.88084141  0.58675878  1.0
  H  H13  1  0.29402975  0.93608030  0.91301782  1.0
  H  H14  1  0.97712699  0.11914954  0.41323222  1.0
  H  H15  1  0.70597623  0.06392743  0.08698282  1.0
  H  H16  1  0.84718270  0.87625991  0.57540801  1.0
  H  H17  1  0.30088377  0.77177197  0.92439901  1.0
  H  H18  1  0.15281030  0.12372682  0.42458711  1.0
  H  H19  1  0.69911555  0.22822988  0.07560324  1.0
  H  H20  1  0.57797749  0.80985218  0.65896896  1.0
  H  H21  1  0.15081296  0.41901452  0.84096441  1.0
  H  H22  1  0.42202495  0.19014126  0.34103289  1.0
  H  H23  1  0.84918330  0.58098482  0.15905164  1.0
  H  H24  1  0.68909944  0.71172101  0.72704284  1.0
  H  H25  1  0.98471839  0.46202711  0.77286452  1.0
  H  H26  1  0.31090487  0.28827327  0.27295759  1.0
  H  H27  1  0.01527678  0.53796636  0.22714075  1.0
  H  H28  1  0.90862970  0.51763608  0.62720046  1.0
  H  H29  1  0.89041256  0.78132454  0.87265209  1.0
  H  H30  1  0.09136246  0.48236914  0.37279547  1.0
  H  H31  1  0.10958148  0.21868152  0.12734504  1.0
  H  H32  1  0.77390839  0.32852259  0.56226302  1.0
  H  H33  1  0.76629375  0.71164168  0.93761387  1.0
  H  H34  1  0.22608312  0.67148851  0.43773295  1.0
  H  H35  1  0.23370811  0.28836605  0.06238140  1.0
  H  H36  1  0.60175384  0.32095975  0.70173573  1.0
  H  H37  1  0.61940500  0.39987336  0.79825218  1.0
  H  H38  1  0.39824600  0.67904126  0.29826257  1.0
  H  H39  1  0.38060164  0.60013100  0.20175348  1.0
  Ru  Ru40  1  0.92935954  0.67931233  0.74991401  1.0
  Ru  Ru41  1  0.07064411  0.32069035  0.25008846  1.0
  C  C42  1  0.12795017  0.70381894  0.69513189  1.0
  C  C43  1  0.00850952  0.93268553  0.80473210  1.0
  C  C44  1  0.87205022  0.29617870  0.30486308  1.0
  C  C45  1  0.99149714  0.06731378  0.19526869  1.0
  C  C46  1  0.19629467  0.74915380  0.66120707  1.0
  C  C47  1  0.08781284  0.03498042  0.83862212  1.0
  C  C48  1  0.80370252  0.25083880  0.33878392  1.0
  C  C49  1  0.91218590  0.96501975  0.16137463  1.0
  C  C50  1  0.15923052  0.81548161  0.62238772  1.0
  C  C51  1  0.19301592  0.03678063  0.87742120  1.0
  C  C52  1  0.84076421  0.18451352  0.37760451  1.0
  C  C53  1  0.80698390  0.96321786  0.12257159  1.0
  C  C54  1  0.05164030  0.82920511  0.61701586  1.0
  C  C55  1  0.21212549  0.93455593  0.88276002  1.0
  C  C56  1  0.94835305  0.17079086  0.38297582  1.0
  C  C57  1  0.78787843  0.06544507  0.11724057  1.0
  C  C58  1  0.98552515  0.78034006  0.65159619  1.0
  C  C59  1  0.12868920  0.83384516  0.84819374  1.0
  C  C60  1  0.01447318  0.21965086  0.34839742  1.0
  C  C61  1  0.87131772  0.16615500  0.15180673  1.0
  C  C62  1  0.87202314  0.79016107  0.64990391  1.0
  C  C63  1  0.14031746  0.72209722  0.84991169  1.0
  C  C64  1  0.12797231  0.20982565  0.35009285  1.0
  C  C65  1  0.85968755  0.27790210  0.15008582  1.0
  C  C66  1  0.81261337  0.84167158  0.60961836  1.0
  C  C67  1  0.23212143  0.70294867  0.89020030  1.0
  C  C68  1  0.18737886  0.15831263  0.39037685  1.0
  C  C69  1  0.76787628  0.29705319  0.10980305  1.0
  C  C70  1  0.70678211  0.85056700  0.61312108  1.0
  C  C71  1  0.23750542  0.59364051  0.88675697  1.0
  C  C72  1  0.29321013  0.14941721  0.38687501  1.0
  C  C73  1  0.76249744  0.40636471  0.11325134  1.0
  C  C74  1  0.66071924  0.80338151  0.65581949  1.0
  C  C75  1  0.14757274  0.50490152  0.84406731  1.0
  C  C76  1  0.33927894  0.19660606  0.34417947  1.0
  C  C77  1  0.85242535  0.49509865  0.15594337  1.0
  C  C78  1  0.72185074  0.75010426  0.69341327  1.0
  C  C79  1  0.05673374  0.52843185  0.80644889  1.0
  C  C80  1  0.27814713  0.24988498  0.30658537  1.0
  C  C81  1  0.94326358  0.47156329  0.19355770  1.0
  C  C82  1  0.23641040  0.87553584  0.58978084  1.0
  C  C83  1  0.28558565  0.14669938  0.91007792  1.0
  C  C84  1  0.76358499  0.12445089  0.41020891  1.0
  C  C85  1  0.71440334  0.85330080  0.08991797  1.0
  C  C86  1  0.64295410  0.91128464  0.57236045  1.0
  C  C87  1  0.33890718  0.57056479  0.92761809  1.0
  C  C88  1  0.35703512  0.08870294  0.42763644  1.0
  C  C89  1  0.66109785  0.42944462  0.07239792  1.0
  C  C90  1  0.84014162  0.47125846  0.64230742  1.0
  C  C91  1  0.82889290  0.69775035  0.85751583  1.0
  C  C92  1  0.15985316  0.52875516  0.35769361  1.0
  C  C93  1  0.17110850  0.30225569  0.14248447  1.0
  C  C94  1  0.76607408  0.36762430  0.60674665  1.0
  C  C95  1  0.76086764  0.65929809  0.89312024  1.0
  C  C96  1  0.23392317  0.63238679  0.39325315  1.0
  C  C97  1  0.23913362  0.34071552  0.10687859  1.0
  C  C98  1  0.67841161  0.31243881  0.62798631  1.0
  C  C99  1  0.68455887  0.55032849  0.87195516  1.0
  C  C100  1  0.32158407  0.68756725  0.37201061  1.0
  C  C101  1  0.31544999  0.44968848  0.12804983  1.0
  C  C102  1  0.67030527  0.36327909  0.68526353  1.0
  C  C103  1  0.67818777  0.48488705  0.81469912  1.0
  C  C104  1  0.32968913  0.63672277  0.31473412  1.0
  C  C105  1  0.32181662  0.51512068  0.18530482  1.0
  C  C106  1  0.74815541  0.46723475  0.71969386  1.0
  C  C107  1  0.74766809  0.52825346  0.78022354  1.0
  C  C108  1  0.25184368  0.53276375  0.28030585  1.0
  C  C109  1  0.25233670  0.47174502  0.21977736  1.0
  C  C110  1  0.59456350  0.20068222  0.58862465  1.0
  C  C111  1  0.61214300  0.50600251  0.91137386  1.0
  C  C112  1  0.40543934  0.79931542  0.41137109  1.0
  C  C113  1  0.38786710  0.49402371  0.08863526  1.0
  N  N114  1  0.02527244  0.72015600  0.69172331  1.0
  N  N115  1  0.02832014  0.83342329  0.80809111  1.0
  N  N116  1  0.97472989  0.27984250  0.30827464  1.0
  N  N117  1  0.97168894  0.16657855  0.19191113  1.0
  N  N118  1  0.82648594  0.74469238  0.69179378  1.0
  N  N119  1  0.05295512  0.63466941  0.80802835  1.0
  N  N120  1  0.17351616  0.25530527  0.30820800  1.0
  N  N121  1  0.94704699  0.36532823  0.19197430  1.0
  N  N122  1  0.83213458  0.52147710  0.69771059  1.0
  N  N123  1  0.82379795  0.63427317  0.80215637  1.0
  N  N124  1  0.16786661  0.47852812  0.30229355  1.0
  N  N125  1  0.17620463  0.36572868  0.19784632  1.0
  O  O126  1  0.33262949  0.85640810  0.59676007  1.0
  O  O127  1  0.25936296  0.23589316  0.90317528  1.0
  O  O128  1  0.66737386  0.14359123  0.40323328  1.0
  O  O129  1  0.74062523  0.76410451  0.09681807  1.0
  O  O130  1  0.20361086  0.94211412  0.55962829  1.0
  O  O131  1  0.38239717  0.14415944  0.94021452  1.0
  O  O132  1  0.79638214  0.05787009  0.44036221  1.0
  O  O133  1  0.61758567  0.85584412  0.05979402  1.0
  O  O134  1  0.67508158  0.92569975  0.52507712  1.0
  O  O135  1  0.40043823  0.64990647  0.97496491  1.0
  O  O136  1  0.32491755  0.07429622  0.47492322  1.0
  O  O137  1  0.59957548  0.35010209  0.02505042  1.0
  O  O138  1  0.56629932  0.94085578  0.59080025  1.0
  O  O139  1  0.35016789  0.47554162  0.90918190  1.0
  O  O140  1  0.43369274  0.05913851  0.40919460  1.0
  O  O141  1  0.64981812  0.52445857  0.09083987  1.0
  O  O142  1  0.51154843  0.16011196  0.60803766  1.0
  O  O143  1  0.55218924  0.40358043  0.89203579  1.0
  O  O144  1  0.48845730  0.83989240  0.39195955  1.0
  O  O145  1  0.44782029  0.59644663  0.10797202  1.0
  O  O146  1  0.61642022  0.16031867  0.53995587  1.0
  O  O147  1  0.62042439  0.57667374  0.95998202  1.0
  O  O148  1  0.38358491  0.83967308  0.46004092  1.0
  O  O149  1  0.37958626  0.42335163  0.04002753  1.0
