# generated using pymatgen
data_ZnH24C35N(O2F)2
_symmetry_space_group_name_H-M   'P 1'
_cell_length_a   10.84121675
_cell_length_b   14.16495931
_cell_length_c   15.21513560
_cell_angle_alpha   90.19880070
_cell_angle_beta   92.77178742
_cell_angle_gamma   91.72694779
_symmetry_Int_Tables_number   1
_chemical_formula_structural   ZnH24C35N(O2F)2
_chemical_formula_sum   'Zn2 H48 C70 N2 O8 F4'
_cell_volume   2332.69631290
_cell_formula_units_Z   2
loop_
 _symmetry_equiv_pos_site_id
 _symmetry_equiv_pos_as_xyz
  1  'x, y, z'
loop_
 _atom_site_type_symbol
 _atom_site_label
 _atom_site_symmetry_multiplicity
 _atom_site_fract_x
 _atom_site_fract_y
 _atom_site_fract_z
 _atom_site_occupancy
  Zn  Zn0  1  0.48367381  0.39764771  0.49586827  1.0
  Zn  Zn1  1  0.49063443  0.60443179  0.50168788  1.0
  H  H2  1  0.35598203  0.58762213  0.77488092  1.0
  H  H3  1  0.10738238  0.64371173  0.56073455  1.0
  H  H4  1  0.88315870  0.60630242  0.41233604  1.0
  H  H5  1  0.89081502  0.63809397  0.57780646  1.0
  H  H6  1  0.87438107  0.48849688  0.37155286  1.0
  H  H7  1  0.90953674  0.54308485  0.65163534  1.0
  H  H8  1  0.09092447  0.34711055  0.49643633  1.0
  H  H9  1  0.08919996  0.38694311  0.60662263  1.0
  H  H10  1  0.52298387  0.34768117  0.06124884  1.0
  H  H11  1  0.55880100  0.64911936  0.05743966  1.0
  H  H12  1  0.38631238  0.68183971  0.31483930  1.0
  H  H13  1  0.65984231  0.40051420  0.77569090  1.0
  H  H14  1  0.19462063  0.65451104  0.22129541  1.0
  H  H15  1  0.99850610  0.72924582  0.26057619  1.0
  H  H16  1  0.99639104  0.82928928  0.39584981  1.0
  H  H17  1  0.18876800  0.85762282  0.48756766  1.0
  H  H18  1  0.15905877  0.12847640  0.51835293  1.0
  H  H19  1  0.96712546  0.14434755  0.42571190  1.0
  H  H20  1  0.96832663  0.24017965  0.28858445  1.0
  H  H21  1  0.16277018  0.32440047  0.24838862  1.0
  H  H22  1  0.35465914  0.30815574  0.33977963  1.0
  H  H23  1  0.71522249  0.36491285  0.30774027  1.0
  H  H24  1  0.36886601  0.94492365  0.41538072  1.0
  H  H25  1  0.76388294  0.20463166  0.35814143  1.0
  H  H26  1  0.62845853  0.06632226  0.30925223  1.0
  H  H27  1  0.44345217  0.09209733  0.20928497  1.0
  H  H28  1  0.39662179  0.25329066  0.15740054  1.0
  H  H29  1  0.45729362  0.75937532  0.15076655  1.0
  H  H30  1  0.53244662  0.91564678  0.20930251  1.0
  H  H31  1  0.71096197  0.92632390  0.31917452  1.0
  H  H32  1  0.81453428  0.77923576  0.36800345  1.0
  H  H33  1  0.74164263  0.62432041  0.30661246  1.0
  H  H34  1  0.26872531  0.47678149  0.02277968  1.0
  H  H35  1  0.32183968  0.04870552  0.48492876  1.0
  H  H36  1  0.09719331  0.55878580  0.08928538  1.0
  H  H37  1  0.06077977  0.72804838  0.05528800  1.0
  H  H38  1  0.19645637  0.81359834  0.95231037  1.0
  H  H39  1  0.36650468  0.73030265  0.88399414  1.0
  H  H40  1  0.78240653  0.51460822  0.02303483  1.0
  H  H41  1  0.94389918  0.42660938  0.10605900  1.0
  H  H42  1  0.96096948  0.25330385  0.08301371  1.0
  H  H43  1  0.81817146  0.16991801  0.97313742  1.0
  H  H44  1  0.65629020  0.25835627  0.89013092  1.0
  H  H45  1  0.65616490  0.74718259  0.57955825  1.0
  H  H46  1  0.67338350  0.26760013  0.53271643  1.0
  H  H47  1  0.68171973  0.92148870  0.59962515  1.0
  H  H48  1  0.71182290  0.09599733  0.54559075  1.0
  H  H49  1  0.09741509  0.60036448  0.40716600  1.0
  C  C50  1  0.51169619  0.50370324  0.33065045  1.0
  C  C51  1  0.60595916  0.44405433  0.90453175  1.0
  C  C52  1  0.42593818  0.54843627  0.81203268  1.0
  C  C53  1  0.59596303  0.44158643  0.81246266  1.0
  C  C54  1  0.50813215  0.49488813  0.76637305  1.0
  C  C55  1  0.52046372  0.49674537  0.95081394  1.0
  C  C56  1  0.43125701  0.90486702  0.45774993  1.0
  C  C57  1  0.40357742  0.09418897  0.49530077  1.0
  C  C58  1  0.25218824  0.49951680  0.50618646  1.0
  C  C59  1  0.41486451  0.80691207  0.45588149  1.0
  C  C60  1  0.39019396  0.19026260  0.47919302  1.0
  C  C61  1  0.91712805  0.40218354  0.53170641  1.0
  C  C62  1  0.59171954  0.79489060  0.54684789  1.0
  C  C63  1  0.59805594  0.21559736  0.52105282  1.0
  C  C64  1  0.60673722  0.89261092  0.55637083  1.0
  C  C65  1  0.61839383  0.11931369  0.53017431  1.0
  C  C66  1  0.52270313  0.95089851  0.51138231  1.0
  C  C67  1  0.51826383  0.05524128  0.51543137  1.0
  C  C68  1  0.50138407  0.49505140  0.66793079  1.0
  C  C69  1  0.72766039  0.50674581  0.51030894  1.0
  C  C70  1  0.05536900  0.53173729  0.42345866  1.0
  C  C71  1  0.07195493  0.57328809  0.57901508  1.0
  C  C72  1  0.52615460  0.41501082  0.09622291  1.0
  C  C73  1  0.91453180  0.53432869  0.42449762  1.0
  C  C74  1  0.93078145  0.56829522  0.58569197  1.0
  C  C75  1  0.05790411  0.40257634  0.53873818  1.0
  C  C76  1  0.11143888  0.49926333  0.51260681  1.0
  C  C77  1  0.86919747  0.50191462  0.51460660  1.0
  C  C78  1  0.30079903  0.77243537  0.40637640  1.0
  C  C79  1  0.30089209  0.71386518  0.33215613  1.0
  C  C80  1  0.19262555  0.69878804  0.27991751  1.0
  C  C81  1  0.08292492  0.74062619  0.30175549  1.0
  C  C82  1  0.08135835  0.79673316  0.37741990  1.0
  C  C83  1  0.54661283  0.58382641  0.09418752  1.0
  C  C84  1  0.18967105  0.81289401  0.42903812  1.0
  C  C85  1  0.27143418  0.21610032  0.43483300  1.0
  C  C86  1  0.16065432  0.17044975  0.45837668  1.0
  C  C87  1  0.05254033  0.17923774  0.40619736  1.0
  C  C88  1  0.05296938  0.23347684  0.32957151  1.0
  C  C89  1  0.16181596  0.28032709  0.30700599  1.0
  C  C90  1  0.27035420  0.27211467  0.35905344  1.0
  C  C91  1  0.55258112  0.32054183  0.22859521  1.0
  C  C92  1  0.65577553  0.30520749  0.28569353  1.0
  C  C93  1  0.68299694  0.21453225  0.31411733  1.0
  C  C94  1  0.53501038  0.41480797  0.18811798  1.0
  C  C95  1  0.60715485  0.13726087  0.28681893  1.0
  C  C96  1  0.50392515  0.15162234  0.23063750  1.0
  C  C97  1  0.47750842  0.24240220  0.20127377  1.0
  C  C98  1  0.59381392  0.68074214  0.22546490  1.0
  C  C99  1  0.53652735  0.76386503  0.19784213  1.0
  C  C100  1  0.57825096  0.85180594  0.23141120  1.0
  C  C101  1  0.67809017  0.85794153  0.29280010  1.0
  C  C102  1  0.73683099  0.77560858  0.31974427  1.0
  C  C103  1  0.69579868  0.68835976  0.28585014  1.0
  C  C104  1  0.33008419  0.59791281  0.94884260  1.0
  C  C105  1  0.55641889  0.58728271  0.18624377  1.0
  C  C106  1  0.25349953  0.55081372  0.00757366  1.0
  C  C107  1  0.15711316  0.59715110  0.04516491  1.0
  C  C108  1  0.13612566  0.69187844  0.02577854  1.0
  C  C109  1  0.21207861  0.73965130  0.96792548  1.0
  C  C110  1  0.30765388  0.69292597  0.92948845  1.0
  C  C111  1  0.70698631  0.39249355  0.95145164  1.0
  C  C112  1  0.79017043  0.43898786  0.01199714  1.0
  C  C113  1  0.88102585  0.38942549  0.05863309  1.0
  C  C114  1  0.89106924  0.29232133  0.04551323  1.0
  C  C115  1  0.81090846  0.24569702  0.98397482  1.0
  C  C116  1  0.54049617  0.50221277  0.23472315  1.0
  C  C117  1  0.72007288  0.29541352  0.93706855  1.0
  C  C118  1  0.52780572  0.49876621  0.04821496  1.0
  C  C119  1  0.42832293  0.54773274  0.90407820  1.0
  N  N120  1  0.49699362  0.75178958  0.49961564  1.0
  N  N121  1  0.48813653  0.25114335  0.49422161  1.0
  O  O122  1  0.46742969  0.42799802  0.36296810  1.0
  O  O123  1  0.52644340  0.58137324  0.37295542  1.0
  O  O124  1  0.30432878  0.42154858  0.51858849  1.0
  O  O125  1  0.30305141  0.57794643  0.48661257  1.0
  O  O126  1  0.52431849  0.41818483  0.62941979  1.0
  O  O127  1  0.47288828  0.57290230  0.63147730  1.0
  O  O128  1  0.66816790  0.43293164  0.48377400  1.0
  O  O129  1  0.68270563  0.58583260  0.52851984  1.0
  F  F130  1  0.08887896  0.46907487  0.35610659  1.0
  F  F131  1  0.12916560  0.55445985  0.66292200  1.0
  F  F132  1  0.87549368  0.33911529  0.46508746  1.0
  F  F133  1  0.86817973  0.36545863  0.60844288  1.0
