# generated using pymatgen
data_Zn2H47C70N9O22
_symmetry_space_group_name_H-M   'P 1'
_cell_length_a   14.58985491
_cell_length_b   15.94616594
_cell_length_c   16.86585446
_cell_angle_alpha   87.89220305
_cell_angle_beta   82.19841313
_cell_angle_gamma   88.89111258
_symmetry_Int_Tables_number   1
_chemical_formula_structural   Zn2H47C70N9O22
_chemical_formula_sum   'Zn2 H47 C70 N9 O22'
_cell_volume   3884.52086458
_cell_formula_units_Z   1
loop_
 _symmetry_equiv_pos_site_id
 _symmetry_equiv_pos_as_xyz
  1  'x, y, z'
loop_
 _atom_site_type_symbol
 _atom_site_label
 _atom_site_symmetry_multiplicity
 _atom_site_fract_x
 _atom_site_fract_y
 _atom_site_fract_z
 _atom_site_occupancy
  Zn  Zn0  1  0.40732909  0.51291158  0.50167076  1.0
  Zn  Zn1  1  0.60081741  0.50340136  0.49286855  1.0
  H  H2  1  0.59858554  0.39532671  0.72327698  1.0
  H  H3  1  0.66165852  0.40118186  0.25181117  1.0
  H  H4  1  0.58895471  0.37808621  0.98575410  1.0
  H  H5  1  0.38200948  0.44952989  0.11856979  1.0
  H  H6  1  0.37587266  0.37644805  0.01914853  1.0
  H  H7  1  0.58124481  0.33646180  0.86308050  1.0
  H  H8  1  0.44626747  0.93659174  0.37742182  1.0
  H  H9  1  0.60467792  0.95438945  0.38164684  1.0
  H  H10  1  0.64080405  0.06846851  0.51214445  1.0
  H  H11  1  0.41741293  0.92989981  0.59677991  1.0
  H  H12  1  0.53574991  0.92846299  0.61069930  1.0
  H  H13  1  0.36702982  0.93704953  0.46586179  1.0
  H  H14  1  0.36309937  0.07816241  0.46699013  1.0
  H  H15  1  0.53490188  0.07529516  0.60908790  1.0
  H  H16  1  0.09000154  0.57785686  0.38528103  1.0
  H  H17  1  0.93927428  0.40334921  0.41688327  1.0
  H  H18  1  0.09951777  0.42075092  0.40344929  1.0
  H  H19  1  0.09843564  0.37425097  0.50097815  1.0
  H  H20  1  0.91581411  0.58188124  0.60354055  1.0
  H  H21  1  0.07187403  0.56851405  0.61689693  1.0
  H  H22  1  0.91496891  0.62689065  0.47770409  1.0
  H  H23  1  0.06819210  0.45785185  0.62091970  1.0
  H  H24  1  0.59980119  0.22956010  0.07360216  1.0
  H  H25  1  0.73548619  0.14902462  0.00999240  1.0
  H  H26  1  0.89454811  0.20428657  0.00763718  1.0
  H  H27  1  0.91640575  0.34098273  0.06899329  1.0
  H  H28  1  0.78025181  0.42142536  0.13270669  1.0
  H  H29  1  0.36527465  0.21279194  0.39926507  1.0
  H  H30  1  0.37048843  0.28790665  0.26818951  1.0
  H  H31  1  0.44104288  0.21866353  0.14358356  1.0
  H  H32  1  0.50732812  0.07361485  0.15324304  1.0
  H  H33  1  0.50386981  0.99991548  0.28363893  1.0
  H  H34  1  0.71839519  0.85779380  0.35692765  1.0
  H  H35  1  0.85982521  0.78441223  0.39047547  1.0
  H  H36  1  0.91187400  0.80247950  0.52421625  1.0
  H  H37  1  0.82051335  0.89475562  0.62246743  1.0
  H  H38  1  0.68267354  0.97088853  0.58749598  1.0
  H  H39  1  0.67871321  0.21182639  0.47241940  1.0
  H  H40  1  0.76800370  0.30138667  0.36989073  1.0
  H  H41  1  0.80754008  0.25201061  0.22948271  1.0
  H  H42  1  0.75420760  0.11225874  0.19574662  1.0
  H  H43  1  0.66239347  0.02392632  0.29746837  1.0
  H  H44  1  0.79013777  0.63868028  0.40412865  1.0
  H  H45  1  0.73071037  0.63198909  0.27485945  1.0
  H  H46  1  0.82239164  0.55934962  0.16088943  1.0
  H  H47  1  0.97312131  0.49017307  0.17982904  1.0
  H  H48  1  0.03262919  0.49509651  0.30863358  1.0
  C  C49  1  0.51297129  0.66936785  0.48768284  1.0
  C  C50  1  0.48218025  0.49406160  0.65242895  1.0
  C  C51  1  0.48942523  0.34594031  0.50465674  1.0
  C  C52  1  0.52936836  0.48604391  0.34353158  1.0
  C  C53  1  0.46925381  0.46225590  0.73801085  1.0
  C  C54  1  0.53711285  0.40930662  0.76527593  1.0
  C  C55  1  0.52674907  0.37632291  0.84307182  1.0
  C  C56  1  0.44765756  0.39407402  0.89783802  1.0
  C  C57  1  0.37668715  0.44216709  0.86793973  1.0
  C  C58  1  0.38860542  0.47772968  0.79053181  1.0
  C  C59  1  0.44299991  0.43542744  0.14764354  1.0
  C  C60  1  0.44701636  0.46583889  0.22270063  1.0
  C  C61  1  0.60150869  0.41218682  0.22068648  1.0
  C  C62  1  0.59973067  0.37962748  0.14479733  1.0
  C  C63  1  0.51977977  0.39356904  0.10623103  1.0
  C  C64  1  0.44419879  0.37795932  0.98381572  1.0
  C  C65  1  0.52051111  0.37871079  0.02127916  1.0
  C  C66  1  0.52676630  0.45658477  0.26053745  1.0
  C  C67  1  0.43386789  0.96155367  0.43769056  1.0
  C  C68  1  0.60467291  0.96433142  0.44575721  1.0
  C  C69  1  0.60528648  0.05960133  0.45951394  1.0
  C  C70  1  0.49077447  0.25577477  0.50293088  1.0
  C  C71  1  0.51029331  0.92683923  0.48590351  1.0
  C  C72  1  0.43034573  0.05859730  0.43516190  1.0
  C  C73  1  0.50282222  0.09079356  0.48765925  1.0
  C  C74  1  0.48337646  0.05059857  0.57486101  1.0
  C  C75  1  0.48575330  0.95457480  0.57310208  1.0
  C  C76  1  0.49711886  0.18068762  0.49427971  1.0
  C  C77  1  0.51327260  0.83598038  0.48507826  1.0
  C  C78  1  0.51551964  0.75984074  0.48522742  1.0
  C  C79  1  0.94756793  0.57118868  0.44848591  1.0
  C  C80  1  0.96355645  0.41455705  0.47420069  1.0
  C  C81  1  0.06851886  0.42478483  0.46623510  1.0
  C  C82  1  0.91407639  0.49484344  0.50887300  1.0
  C  C83  1  0.05291259  0.57993435  0.44614114  1.0
  C  C84  1  0.09165186  0.51008168  0.49964009  1.0
  C  C85  1  0.04739954  0.51427533  0.58824472  1.0
  C  C86  1  0.94210844  0.51804016  0.59061397  1.0
  C  C87  1  0.19105401  0.51621276  0.49601350  1.0
  C  C88  1  0.81462140  0.48982503  0.51043991  1.0
  C  C89  1  0.68048793  0.33177555  0.10644533  1.0
  C  C90  1  0.66907981  0.25475578  0.07124102  1.0
  C  C91  1  0.74557328  0.20913562  0.03621267  1.0
  C  C92  1  0.83477945  0.23982994  0.03524361  1.0
  C  C93  1  0.84699604  0.31642230  0.06995331  1.0
  C  C94  1  0.77059258  0.36171716  0.10559325  1.0
  C  C95  1  0.43593622  0.10121674  0.35226916  1.0
  C  C96  1  0.39763261  0.18235095  0.34547957  1.0
  C  C97  1  0.40026602  0.22476165  0.27140995  1.0
  C  C98  1  0.44000236  0.18609594  0.20171960  1.0
  C  C99  1  0.47679668  0.10501624  0.20717184  1.0
  C  C100  1  0.47473367  0.06329044  0.28168529  1.0
  C  C101  1  0.68970618  0.91942832  0.46939227  1.0
  C  C102  1  0.74089595  0.86600232  0.41529669  1.0
  C  C103  1  0.82019104  0.82408520  0.43455823  1.0
  C  C104  1  0.84923846  0.83403763  0.50918416  1.0
  C  C105  1  0.79833019  0.88632147  0.56408750  1.0
  C  C106  1  0.71982555  0.92898322  0.54405533  1.0
  C  C107  1  0.66076572  0.11167037  0.39285558  1.0
  C  C108  1  0.69369303  0.18980059  0.41156110  1.0
  C  C109  1  0.74505609  0.24048359  0.35338680  1.0
  C  C110  1  0.76698698  0.21312546  0.27529430  1.0
  C  C111  1  0.73694877  0.13471057  0.25632988  1.0
  C  C112  1  0.68441496  0.08476488  0.31452440  1.0
  C  C113  1  0.91536558  0.56683376  0.36686607  1.0
  C  C114  1  0.83075987  0.60572843  0.35535650  1.0
  C  C115  1  0.79713992  0.60234464  0.28197972  1.0
  C  C116  1  0.84807853  0.56086780  0.21862247  1.0
  C  C117  1  0.93241541  0.52208629  0.22915529  1.0
  C  C118  1  0.96574691  0.52490533  0.30284083  1.0
  N  N119  1  0.26999068  0.52000143  0.49605821  1.0
  N  N120  1  0.73730805  0.49230019  0.50192310  1.0
  N  N121  1  0.39256047  0.08333725  0.61912136  1.0
  N  N122  1  0.36483163  0.51492786  0.25722788  1.0
  N  N123  1  0.93058546  0.33731791  0.52684086  1.0
  N  N124  1  0.89477265  0.46633321  0.66288070  1.0
  N  N125  1  0.07774166  0.66581680  0.47490590  1.0
  N  N126  1  0.29161495  0.46197240  0.92214637  1.0
  N  N127  1  0.31478337  0.53409875  0.76542334  1.0
  O  O128  1  0.43311102  0.63748629  0.49349023  1.0
  O  O129  1  0.59042748  0.62976041  0.48413017  1.0
  O  O130  1  0.40839916  0.50846261  0.62165210  1.0
  O  O131  1  0.56463734  0.50043209  0.61806562  1.0
  O  O132  1  0.41104045  0.38280567  0.50966591  1.0
  O  O133  1  0.56874752  0.37963989  0.49977852  1.0
  O  O134  1  0.45022477  0.49920942  0.38316269  1.0
  O  O135  1  0.60723879  0.49300712  0.36805574  1.0
  O  O136  1  0.39822395  0.13791853  0.66832076  1.0
  O  O137  1  0.31949103  0.05448846  0.60246635  1.0
  O  O138  1  0.29226819  0.47544360  0.27730902  1.0
  O  O139  1  0.37267480  0.59165689  0.25857545  1.0
  O  O140  1  0.85943964  0.30515177  0.51127686  1.0
  O  O141  1  0.97590203  0.31486797  0.58091405  1.0
  O  O142  1  0.93156450  0.46800462  0.72415827  1.0
  O  O143  1  0.82193394  0.43124990  0.65524187  1.0
  O  O144  1  0.02565862  0.69606962  0.53129814  1.0
  O  O145  1  0.14990180  0.69656318  0.44122095  1.0
  O  O146  1  0.27094015  0.53698974  0.93120685  1.0
  O  O147  1  0.24778628  0.40179494  0.95575501  1.0
  O  O148  1  0.23994223  0.50146834  0.75931175  1.0
  O  O149  1  0.33391125  0.60880743  0.75454972  1.0
