# generated using pymatgen
data_CuH13C12(NO2)2
_symmetry_space_group_name_H-M   'P 1'
_cell_length_a   8.53811688
_cell_length_b   13.21871805
_cell_length_c   15.75689813
_cell_angle_alpha   65.19214264
_cell_angle_beta   88.22616106
_cell_angle_gamma   90.00186681
_symmetry_Int_Tables_number   1
_chemical_formula_structural   CuH13C12(NO2)2
_chemical_formula_sum   'Cu4 H52 C48 N8 O16'
_cell_volume   1613.32235482
_cell_formula_units_Z   4
loop_
 _symmetry_equiv_pos_site_id
 _symmetry_equiv_pos_as_xyz
  1  'x, y, z'
loop_
 _atom_site_type_symbol
 _atom_site_label
 _atom_site_symmetry_multiplicity
 _atom_site_fract_x
 _atom_site_fract_y
 _atom_site_fract_z
 _atom_site_occupancy
  Cu  Cu0  1  0.45229552  0.08181544  0.42531351  1.0
  Cu  Cu1  1  0.04770531  0.50711120  0.57470500  1.0
  Cu  Cu2  1  0.54770492  0.91819259  0.57469251  1.0
  Cu  Cu3  1  0.95226685  0.49287938  0.42526824  1.0
  H  H4  1  0.40230623  0.33163077  0.36351292  1.0
  H  H5  1  0.09760626  0.69516405  0.63652706  1.0
  H  H6  1  0.59770478  0.66837727  0.63648596  1.0
  H  H7  1  0.90238637  0.30485985  0.36345004  1.0
  H  H8  1  0.26107596  0.48877632  0.24486340  1.0
  H  H9  1  0.23891623  0.73350545  0.75520485  1.0
  H  H10  1  0.73893501  0.51122840  0.75513410  1.0
  H  H11  1  0.76109014  0.26650012  0.24477529  1.0
  H  H12  1  0.12326197  0.26485480  0.12362411  1.0
  H  H13  1  0.37673670  0.38837815  0.87641290  1.0
  H  H14  1  0.87675110  0.73513906  0.87638542  1.0
  H  H15  1  0.62322967  0.61161741  0.12356312  1.0
  H  H16  1  0.26840244  0.11429203  0.25172731  1.0
  H  H17  1  0.23159831  0.36601502  0.74829076  1.0
  H  H18  1  0.73160838  0.88570766  0.74828528  1.0
  H  H19  1  0.76836367  0.63399720  0.25168266  1.0
  H  H20  1  0.04147927  0.65495387  0.03815609  1.0
  H  H21  1  0.45844541  0.69309557  0.96180410  1.0
  H  H22  1  0.95852328  0.34503835  0.96184212  1.0
  H  H23  1  0.54154810  0.30691167  0.03817375  1.0
  H  H24  1  0.23057411  0.62587091  0.08875926  1.0
  H  H25  1  0.26931141  0.71459574  0.91117506  1.0
  H  H26  1  0.76942985  0.37413381  0.91123073  1.0
  H  H27  1  0.73068070  0.28539817  0.08880368  1.0
  H  H28  1  0.06100048  0.59338542  0.16251108  1.0
  H  H29  1  0.43890011  0.75586171  0.83745509  1.0
  H  H30  1  0.93900583  0.40662012  0.83748367  1.0
  H  H31  1  0.56108734  0.24413469  0.16252729  1.0
  H  H32  1  0.08085836  0.93357133  0.70354656  1.0
  H  H33  1  0.41919087  0.63711106  0.29653758  1.0
  H  H34  1  0.91917475  0.06643253  0.29647438  1.0
  H  H35  1  0.58086818  0.36290281  0.70348516  1.0
  H  H36  1  0.98575349  0.92308625  0.60891868  1.0
  H  H37  1  0.51421287  0.53194975  0.39114286  1.0
  H  H38  1  0.01425922  0.07689175  0.39111038  1.0
  H  H39  1  0.48579194  0.46804491  0.60888365  1.0
  H  H40  1  0.98151941  0.12649680  0.52055976  1.0
  H  H41  1  0.51846768  0.64692848  0.47955846  1.0
  H  H42  1  0.01846546  0.87349369  0.47945647  1.0
  H  H43  1  0.48154413  0.35306866  0.52048421  1.0
  H  H44  1  0.88877093  0.08625430  0.63175818  1.0
  H  H45  1  0.61136074  0.71787454  0.36838507  1.0
  H  H46  1  0.11121726  0.91372620  0.36826150  1.0
  H  H47  1  0.38866362  0.28210095  0.63165104  1.0
  H  H48  1  0.13262372  0.14216320  0.68950318  1.0
  H  H49  1  0.36753272  0.83161215  0.31055635  1.0
  H  H50  1  0.86735580  0.85785480  0.31050284  1.0
  H  H51  1  0.63254470  0.16837759  0.68945807  1.0
  H  H52  1  0.22969079  0.16987085  0.58063237  1.0
  H  H53  1  0.27037349  0.75047504  0.41941491  1.0
  H  H54  1  0.77028699  0.83011548  0.41938099  1.0
  H  H55  1  0.72964245  0.24954385  0.58057183  1.0
  C  C56  1  0.33941979  0.32067882  0.30869920  1.0
  C  C57  1  0.16053709  0.62931863  0.69129491  1.0
  C  C58  1  0.66059118  0.67932755  0.69130153  1.0
  C  C59  1  0.83945422  0.37069610  0.30867908  1.0
  C  C60  1  0.26131808  0.40854241  0.24105290  1.0
  C  C61  1  0.23860685  0.64950488  0.75895230  1.0
  C  C62  1  0.73869290  0.59146313  0.75894495  1.0
  C  C63  1  0.76139021  0.35050404  0.24102427  1.0
  C  C64  1  0.18281585  0.39076491  0.17154542  1.0
  C  C65  1  0.31723178  0.56227942  0.82843743  1.0
  C  C66  1  0.81719501  0.60923479  0.82845575  1.0
  C  C67  1  0.68275220  0.43771948  0.17154349  1.0
  C  C68  1  0.18403879  0.28231944  0.17582620  1.0
  C  C69  1  0.31600013  0.45807988  0.82422574  1.0
  C  C70  1  0.81597320  0.71767859  0.82417935  1.0
  C  C71  1  0.68398040  0.54192151  0.17575183  1.0
  C  C72  1  0.26422103  0.19947068  0.24604193  1.0
  C  C73  1  0.23576443  0.44544978  0.75403064  1.0
  C  C74  1  0.73578981  0.80052902  0.75396558  1.0
  C  C75  1  0.76420570  0.55455995  0.24594733  1.0
  C  C76  1  0.10330536  0.48270820  0.09649782  1.0
  C  C77  1  0.39669268  0.57920057  0.90347776  1.0
  C  C78  1  0.89670195  0.51728818  0.90350076  1.0
  C  C79  1  0.60329015  0.42079999  0.09650704  1.0
  C  C80  1  0.10835535  0.59630871  0.09587046  1.0
  C  C81  1  0.39155264  0.69216942  0.90409765  1.0
  C  C82  1  0.89165196  0.40368768  0.90412685  1.0
  C  C83  1  0.60843489  0.30783114  0.09588264  1.0
  C  C84  1  0.22669583  0.97429680  0.58055040  1.0
  C  C85  1  0.27334569  0.55482519  0.41949668  1.0
  C  C86  1  0.77330922  0.02570788  0.41946117  1.0
  C  C87  1  0.72665231  0.44517452  0.58049961  1.0
  C  C88  1  0.06806374  0.97427937  0.62737298  1.0
  C  C89  1  0.43198693  0.60163203  0.37270736  1.0
  C  C90  1  0.93194335  0.02571030  0.37264827  1.0
  C  C91  1  0.56803203  0.39836847  0.62732069  1.0
  C  C92  1  0.00274596  0.09183544  0.59567966  1.0
  C  C93  1  0.49732865  0.68744480  0.40442819  1.0
  C  C94  1  0.99723756  0.90814671  0.40434332  1.0
  C  C95  1  0.50269600  0.31254736  0.59560651  1.0
  C  C96  1  0.11458577  0.16989344  0.61437052  1.0
  C  C97  1  0.38551844  0.78421940  0.38568905  1.0
  C  C98  1  0.88538741  0.83009789  0.38564052  1.0
  C  C99  1  0.61452287  0.21578281  0.61432410  1.0
  C  C100  1  0.06719221  0.29142872  0.57380166  1.0
  C  C101  1  0.43281304  0.86519246  0.42623316  1.0
  C  C102  1  0.93277169  0.70856100  0.42618279  1.0
  C  C103  1  0.56720019  0.13481139  0.57377857  1.0
  N  N104  1  0.34307094  0.21796925  0.31113409  1.0
  N  N105  1  0.15699103  0.52904933  0.68886318  1.0
  N  N106  1  0.65694114  0.78203462  0.68887195  1.0
  N  N107  1  0.84298141  0.47095872  0.31111535  1.0
  N  N108  1  0.03537552  0.45651037  0.03519436  1.0
  N  N109  1  0.46461547  0.49171134  0.96480414  1.0
  N  N110  1  0.96462939  0.54348350  0.96480704  1.0
  N  N111  1  0.53536855  0.50828840  0.03517268  1.0
  O  O112  1  0.32891952  0.90637653  0.62955872  1.0
  O  O113  1  0.17119766  0.53591238  0.37045560  1.0
  O  O114  1  0.67109384  0.09363152  0.37044011  1.0
  O  O115  1  0.82883608  0.46405321  0.62953941  1.0
  O  O116  1  0.09256310  0.34418321  0.62380387  1.0
  O  O117  1  0.40731518  0.96795853  0.37622889  1.0
  O  O118  1  0.90740934  0.65582319  0.37616635  1.0
  O  O119  1  0.59266626  0.03203697  0.62378753  1.0
  O  O120  1  0.24519410  0.04469400  0.49578691  1.0
  O  O121  1  0.25482523  0.54045036  0.50425487  1.0
  O  O122  1  0.75479715  0.95532649  0.50422568  1.0
  O  O123  1  0.74512623  0.45956847  0.49573861  1.0
  O  O124  1  0.01042278  0.33176715  0.49256874  1.0
  O  O125  1  0.48966041  0.82433770  0.50745438  1.0
  O  O126  1  0.98952681  0.66820921  0.50741872  1.0
  O  O127  1  0.51037410  0.17567617  0.49255478  1.0
