# generated using pymatgen
data_Zr3H21C44Cl5O16
_symmetry_space_group_name_H-M   'P 1'
_cell_length_a   19.01946801
_cell_length_b   19.24657402
_cell_length_c   19.24596478
_cell_angle_alpha   90.60293780
_cell_angle_beta   119.61397806
_cell_angle_gamma   119.61614883
_symmetry_Int_Tables_number   1
_chemical_formula_structural   Zr3H21C44Cl5O16
_chemical_formula_sum   'Zr6 H42 C88 Cl10 O32'
_cell_volume   5013.17621447
_cell_formula_units_Z   2
loop_
 _symmetry_equiv_pos_site_id
 _symmetry_equiv_pos_as_xyz
  1  'x, y, z'
loop_
 _atom_site_type_symbol
 _atom_site_label
 _atom_site_symmetry_multiplicity
 _atom_site_fract_x
 _atom_site_fract_y
 _atom_site_fract_z
 _atom_site_occupancy
  Zr  Zr0  1  0.68504795  0.09191183  0.09192652  1.0
  Zr  Zr1  1  0.31544773  0.90810055  0.90808919  1.0
  Zr  Zr2  1  0.50169228  0.90826421  0.90825572  1.0
  Zr  Zr3  1  0.49873816  0.09170412  0.09168568  1.0
  Zr  Zr4  1  0.50025152  0.09129625  0.90873844  1.0
  Zr  Zr5  1  0.50028501  0.90875786  0.09132240  1.0
  H  H6  1  0.64682161  0.07212043  0.92829425  1.0
  H  H7  1  0.35365496  0.07169774  0.92788385  1.0
  H  H8  1  0.35578727  0.78343426  0.92727614  1.0
  H  H9  1  0.64473590  0.07274847  0.21660685  1.0
  H  H10  1  0.06800236  0.68185594  0.89004843  1.0
  H  H11  1  0.93228976  0.32149159  0.11326445  1.0
  H  H12  1  0.70987526  0.32175630  0.89106442  1.0
  H  H13  1  0.83805329  0.44646614  0.89226938  1.0
  H  H14  1  0.29043298  0.68143702  0.11203881  1.0
  H  H15  1  0.16235278  0.55399996  0.10808537  1.0
  H  H16  1  0.06814709  0.88678158  0.67869071  1.0
  H  H17  1  0.93250964  0.11000381  0.31828179  1.0
  H  H18  1  0.70998244  0.88809232  0.31874611  1.0
  H  H19  1  0.83803277  0.89224142  0.44639395  1.0
  H  H20  1  0.29051952  0.10911750  0.67852858  1.0
  H  H21  1  0.16232397  0.10808270  0.55402774  1.0
  H  H22  1  0.50416870  0.68495135  0.11240901  1.0
  H  H23  1  0.50286215  0.31828433  0.89088559  1.0
  H  H24  1  0.50281678  0.32462341  0.11326798  1.0
  H  H25  1  0.50034172  0.44921489  0.10873794  1.0
  H  H26  1  0.50348101  0.67813596  0.88967734  1.0
  H  H27  1  0.49943187  0.55037936  0.89107960  1.0
  H  H28  1  0.49717879  0.10894621  0.68153159  1.0
  H  H29  1  0.49604541  0.88754398  0.31491025  1.0
  H  H30  1  0.49664531  0.11022324  0.32166765  1.0
  H  H31  1  0.50037596  0.10867741  0.44928095  1.0
  H  H32  1  0.49720345  0.88657308  0.67508822  1.0
  H  H33  1  0.49943346  0.89103974  0.55038588  1.0
  H  H34  1  0.06702076  0.88695926  0.88991314  1.0
  H  H35  1  0.88826191  0.82307668  0.82307638  1.0
  H  H36  1  0.29008093  0.10986006  0.11279144  1.0
  H  H37  1  0.24225531  0.17681275  0.17683184  1.0
  H  H38  1  0.93348011  0.11016371  0.11296764  1.0
  H  H39  1  0.11217998  0.17693256  0.17685179  1.0
  H  H40  1  0.71040912  0.88728563  0.89009067  1.0
  H  H41  1  0.75823139  0.82321686  0.82315346  1.0
  H  H42  1  0.29421841  0.68286835  0.67953391  1.0
  H  H43  1  0.70631125  0.32044163  0.31715641  1.0
  H  H44  1  0.93430702  0.32329237  0.32025934  1.0
  H  H45  1  0.05724331  0.44762653  0.44713908  1.0
  H  H46  1  0.06622423  0.67974749  0.67668923  1.0
  H  H47  1  0.94331031  0.55286273  0.55235364  1.0
  C  C48  1  0.73472568  0.23538624  0.00303095  1.0
  C  C49  1  0.26572766  0.99698372  0.76470585  1.0
  C  C50  1  0.26557679  0.76937642  0.00163470  1.0
  C  C51  1  0.73491042  0.99837825  0.23069194  1.0
  C  C52  1  0.73673693  0.99812862  0.00218430  1.0
  C  C53  1  0.73321640  0.23568617  0.23115558  1.0
  C  C54  1  0.26375397  0.99779827  0.00190826  1.0
  C  C55  1  0.26727886  0.76883215  0.76428567  1.0
  C  C56  1  0.49660180  0.99746224  0.76474272  1.0
  C  C57  1  0.50639131  0.76958581  0.00227860  1.0
  C  C58  1  0.49402275  0.99776457  0.23038976  1.0
  C  C59  1  0.50371933  0.23517888  0.00246305  1.0
  C  C60  1  0.18833442  0.69150721  0.00133997  1.0
  C  C61  1  0.81197952  0.31259368  0.00267920  1.0
  C  C62  1  0.08856544  0.65338314  0.93846584  1.0
  C  C63  1  0.01432802  0.57962296  0.93545079  1.0
  C  C64  1  0.91175555  0.34951010  0.06437479  1.0
  C  C65  1  0.98606630  0.42110392  0.06520834  1.0
  C  C66  1  0.78725174  0.34929204  0.94045117  1.0
  C  C67  1  0.86129231  0.42054792  0.94183145  1.0
  C  C68  1  0.21307438  0.65360303  0.06235458  1.0
  C  C69  1  0.13908164  0.58069048  0.05930513  1.0
  C  C70  1  0.03630843  0.53903565  0.99750068  1.0
  C  C71  1  0.96407512  0.46135369  0.00282410  1.0
  C  C72  1  0.18844126  0.99742956  0.68762305  1.0
  C  C73  1  0.81213647  0.99874634  0.30864990  1.0
  C  C74  1  0.08866818  0.93575002  0.65074579  1.0
  C  C75  1  0.01435113  0.93500584  0.57924667  1.0
  C  C76  1  0.91190625  0.06164415  0.34681219  1.0
  C  C77  1  0.98611613  0.06474208  0.42067461  1.0
  C  C78  1  0.78735365  0.93779181  0.34660838  1.0
  C  C79  1  0.86131962  0.94093673  0.41962467  1.0
  C  C80  1  0.21315214  0.05975065  0.65101651  1.0
  C  C81  1  0.13909381  0.05844513  0.57986959  1.0
  C  C82  1  0.03630324  0.99742611  0.53903600  1.0
  C  C83  1  0.96409446  0.00275057  0.46131372  1.0
  C  C84  1  0.50503944  0.69149535  0.00178304  1.0
  C  C85  1  0.50334487  0.31240543  0.00218539  1.0
  C  C86  1  0.50350319  0.65504015  0.06357634  1.0
  C  C87  1  0.50062598  0.58120004  0.06455349  1.0
  C  C88  1  0.50236893  0.34761631  0.93915118  1.0
  C  C89  1  0.50045728  0.41910315  0.93584409  1.0
  C  C90  1  0.50241972  0.35080491  0.06328388  1.0
  C  C91  1  0.50090788  0.42194161  0.05986444  1.0
  C  C92  1  0.50319125  0.65168200  0.93935003  1.0
  C  C93  1  0.50081689  0.57863995  0.94089024  1.0
  C  C94  1  0.50007510  0.53878351  0.00232515  1.0
  C  C95  1  0.50003963  0.46100654  0.99763046  1.0
  C  C96  1  0.49670813  0.99766342  0.68738300  1.0
  C  C97  1  0.49515337  0.99816072  0.30836101  1.0
  C  C98  1  0.49760794  0.06066629  0.65214239  1.0
  C  C99  1  0.49939897  0.06394453  0.58058692  1.0
  C  C100  1  0.49662035  0.93632566  0.34476806  1.0
  C  C101  1  0.49929686  0.93526196  0.41851486  1.0
  C  C102  1  0.49686715  0.06052496  0.34809798  1.0
  C  C103  1  0.49906788  0.05890558  0.42105957  1.0
  C  C104  1  0.49756039  0.93654888  0.64892049  1.0
  C  C105  1  0.49893549  0.93993208  0.57771854  1.0
  C  C106  1  0.49977612  0.00215603  0.53865127  1.0
  C  C107  1  0.49977227  0.99745588  0.46088846  1.0
  C  C108  1  0.08568105  0.93554712  0.93807785  1.0
  C  C109  1  0.01077881  0.93496991  0.93624911  1.0
  C  C110  1  0.90793580  0.87167172  0.87211210  1.0
  C  C111  1  0.21195047  0.06174017  0.06425229  1.0
  C  C112  1  0.13954316  0.06364150  0.06492681  1.0
  C  C113  1  0.16425135  0.12781165  0.12826362  1.0
  C  C114  1  0.91480684  0.06198494  0.06437624  1.0
  C  C115  1  0.98969421  0.06377296  0.06497240  1.0
  C  C116  1  0.09252667  0.12789032  0.12828265  1.0
  C  C117  1  0.78855348  0.93581500  0.93822150  1.0
  C  C118  1  0.86094278  0.93510584  0.93632580  1.0
  C  C119  1  0.83622227  0.87175552  0.87215778  1.0
  C  C120  1  0.18533493  0.99818257  0.00157773  1.0
  C  C121  1  0.03756754  0.99944140  0.00049693  1.0
  C  C122  1  0.81514064  0.99850016  0.00175264  1.0
  C  C123  1  0.96291886  0.99950414  0.00053925  1.0
  C  C124  1  0.18984562  0.69116704  0.68715072  1.0
  C  C125  1  0.81067182  0.31283040  0.30882293  1.0
  C  C126  1  0.21622980  0.65391959  0.65100826  1.0
  C  C127  1  0.14579450  0.58046300  0.57962055  1.0
  C  C128  1  0.78429464  0.34895302  0.34609666  1.0
  C  C129  1  0.85475586  0.42037414  0.41953988  1.0
  C  C130  1  0.91106680  0.35024349  0.34738143  1.0
  C  C131  1  0.98064921  0.42132432  0.42002401  1.0
  C  C132  1  0.08946216  0.65262367  0.64974376  1.0
  C  C133  1  0.01990812  0.57997931  0.57866226  1.0
  C  C134  1  0.04170894  0.53912371  0.53855322  1.0
  C  C135  1  0.95885197  0.46144831  0.46087435  1.0
  Cl  Cl136  1  0.89762171  0.54738450  0.84772879  1.0
  Cl  Cl137  1  0.10285575  0.45045133  0.15005022  1.0
  Cl  Cl138  1  0.89754808  0.85017087  0.54988796  1.0
  Cl  Cl139  1  0.10282975  0.15246506  0.45292486  1.0
  Cl  Cl140  1  0.49693911  0.55129385  0.14907963  1.0
  Cl  Cl141  1  0.49825443  0.44612453  0.84839186  1.0
  Cl  Cl142  1  0.50146924  0.15133633  0.55350981  1.0
  Cl  Cl143  1  0.50280102  0.85064759  0.44833895  1.0
  Cl  Cl144  1  0.20348816  0.54958496  0.55151272  1.0
  Cl  Cl145  1  0.79705415  0.44846900  0.45041911  1.0
  O  O146  1  0.76389644  0.20511761  0.06163258  1.0
  O  O147  1  0.23655998  0.93836086  0.79495597  1.0
  O  O148  1  0.23640572  0.79906041  0.94245144  1.0
  O  O149  1  0.76408527  0.05747321  0.20093114  1.0
  O  O150  1  0.64679507  0.93939951  0.94297093  1.0
  O  O151  1  0.64307472  0.20496904  0.20113434  1.0
  O  O152  1  0.35369001  0.05704859  0.06061387  1.0
  O  O153  1  0.35741869  0.79881996  0.79500572  1.0
  O  O154  1  0.49712200  0.05683099  0.79590547  1.0
  O  O155  1  0.50552590  0.80011778  0.06094155  1.0
  O  O156  1  0.49494328  0.93911697  0.19990785  1.0
  O  O157  1  0.50329453  0.20409575  0.94314046  1.0
  O  O158  1  0.50650561  0.79922271  0.94322298  1.0
  O  O159  1  0.49399956  0.05684672  0.20076317  1.0
  O  O160  1  0.50278935  0.20508999  0.06110983  1.0
  O  O161  1  0.49765023  0.93887885  0.79486696  1.0
  O  O162  1  0.76468923  0.05722550  0.06096824  1.0
  O  O163  1  0.23754643  0.79868655  0.79467454  1.0
  O  O164  1  0.23580792  0.93903521  0.94280265  1.0
  O  O165  1  0.76298538  0.20528917  0.20135109  1.0
  O  O166  1  0.64499383  0.93958164  0.20036179  1.0
  O  O167  1  0.64484950  0.20447219  0.94359250  1.0
  O  O168  1  0.35559741  0.05636095  0.79554837  1.0
  O  O169  1  0.35549268  0.79973319  0.06045100  1.0
  O  O170  1  0.60361517  0.05203999  0.15504971  1.0
  O  O171  1  0.39689690  0.84499090  0.94796816  1.0
  O  O172  1  0.39545101  0.05141635  0.94836070  1.0
  O  O173  1  0.60502529  0.05163375  0.94857865  1.0
  O  O174  1  0.42405288  0.96155432  0.88581122  1.0
  O  O175  1  0.57643456  0.11420618  0.03846225  1.0
  O  O176  1  0.42305900  0.96211213  0.03776500  1.0
  O  O177  1  0.57739853  0.96226278  0.03788039  1.0
