# generated using pymatgen
data_ZnH18C25N(O2F)2
_symmetry_space_group_name_H-M   'P 1'
_cell_length_a   10.96003414
_cell_length_b   14.00163774
_cell_length_c   15.29852892
_cell_angle_alpha   87.93559802
_cell_angle_beta   87.20120339
_cell_angle_gamma   89.83843523
_symmetry_Int_Tables_number   1
_chemical_formula_structural   ZnH18C25N(O2F)2
_chemical_formula_sum   'Zn2 H36 C50 N2 O8 F4'
_cell_volume   2343.36455290
_cell_formula_units_Z   2
loop_
 _symmetry_equiv_pos_site_id
 _symmetry_equiv_pos_as_xyz
  1  'x, y, z'
loop_
 _atom_site_type_symbol
 _atom_site_label
 _atom_site_symmetry_multiplicity
 _atom_site_fract_x
 _atom_site_fract_y
 _atom_site_fract_z
 _atom_site_occupancy
  Zn  Zn0  1  0.50308333  0.60193691  0.50638227  1.0
  Zn  Zn1  1  0.50539046  0.40472180  0.49570543  1.0
  H  H2  1  0.70355009  0.20179946  0.79743121  1.0
  H  H3  1  0.29154662  0.81359218  0.20728137  1.0
  H  H4  1  0.67710827  0.06829297  0.42844154  1.0
  H  H5  1  0.38353388  0.93493648  0.62236371  1.0
  H  H6  1  0.33817887  0.25485742  0.55851485  1.0
  H  H7  1  0.59442684  0.75519927  0.38941331  1.0
  H  H8  1  0.32063277  0.07641315  0.56497432  1.0
  H  H9  1  0.60066076  0.93388055  0.37720377  1.0
  H  H10  1  0.75412052  0.36719102  0.83622466  1.0
  H  H11  1  0.23579845  0.65096275  0.16337589  1.0
  H  H12  1  0.87264792  0.25610039  0.53991894  1.0
  H  H13  1  0.14686863  0.74546307  0.46919172  1.0
  H  H14  1  0.76572416  0.14446868  0.64876094  1.0
  H  H15  1  0.24727625  0.86170603  0.36132610  1.0
  H  H16  1  0.11540113  0.38468066  0.59037875  1.0
  H  H17  1  0.89114148  0.62146814  0.41196150  1.0
  H  H18  1  0.40405152  0.38806376  0.25011572  1.0
  H  H19  1  0.60974780  0.59308188  0.76803398  1.0
  H  H20  1  0.85033327  0.55932737  0.68889675  1.0
  H  H21  1  0.83086180  0.52086289  0.80092194  1.0
  H  H22  1  0.97500134  0.51023241  0.74362966  1.0
  H  H23  1  0.14404000  0.45247745  0.30811424  1.0
  H  H24  1  0.02154553  0.50631257  0.25407708  1.0
  H  H25  1  0.16574659  0.49410093  0.19716652  1.0
  H  H26  1  0.58790215  0.71619982  0.01316986  1.0
  H  H27  1  0.45697496  0.66903821  0.96703610  1.0
  H  H28  1  0.44232402  0.73004904  0.06635349  1.0
  H  H29  1  0.49389594  0.29114372  0.01740184  1.0
  H  H30  1  0.34805345  0.27173611  0.97639473  1.0
  H  H31  1  0.48188793  0.24319470  0.91314527  1.0
  H  H32  1  0.63997947  0.67851945  0.25697232  1.0
  H  H33  1  0.62880654  0.73118320  0.15017860  1.0
  H  H34  1  0.50433250  0.73788641  0.22932909  1.0
  H  H35  1  0.32437998  0.33579781  0.72665877  1.0
  H  H36  1  0.44550863  0.26017547  0.75465949  1.0
  H  H37  1  0.31772291  0.27324278  0.83017532  1.0
  C  C38  1  0.51674072  0.52235880  0.33012351  1.0
  C  C39  1  0.48468000  0.48115968  0.67083057  1.0
  C  C40  1  0.13084289  0.49940459  0.49336654  1.0
  C  C41  1  0.87578155  0.50702659  0.50877388  1.0
  C  C42  1  0.06907001  0.56764377  0.44209879  1.0
  C  C43  1  0.93777173  0.43877174  0.56025353  1.0
  C  C44  1  0.50922476  0.58853690  0.08361011  1.0
  C  C45  1  0.45220021  0.39286926  0.91288111  1.0
  C  C46  1  0.52887058  0.59868323  0.17343506  1.0
  C  C47  1  0.44026893  0.39458274  0.82104980  1.0
  C  C48  1  0.50088198  0.52230323  0.23341322  1.0
  C  C49  1  0.48853005  0.47173068  0.76858564  1.0
  C  C50  1  0.44108432  0.44263888  0.20384135  1.0
  C  C51  1  0.55843437  0.53982063  0.80803200  1.0
  C  C52  1  0.42531777  0.43435262  0.11577079  1.0
  C  C53  1  0.56508743  0.53738300  0.89761336  1.0
  C  C54  1  0.47832870  0.49711852  0.04979585  1.0
  C  C55  1  0.49458024  0.47572068  0.95576755  1.0
  C  C56  1  0.59816894  0.10485910  0.45741065  1.0
  C  C57  1  0.43087680  0.90000484  0.56808838  1.0
  C  C58  1  0.59643213  0.20409085  0.45676849  1.0
  C  C59  1  0.43283488  0.80082456  0.56701240  1.0
  C  C60  1  0.73924274  0.51224673  0.50970985  1.0
  C  C61  1  0.26740313  0.49540104  0.49202775  1.0
  C  C62  1  0.41008250  0.20929381  0.53122155  1.0
  C  C63  1  0.55043734  0.79923700  0.43904104  1.0
  C  C64  1  0.40204442  0.11050997  0.53478484  1.0
  C  C65  1  0.55360850  0.89812730  0.43343682  1.0
  C  C66  1  0.49782620  0.05608981  0.49735347  1.0
  C  C67  1  0.49391325  0.95062517  0.49958251  1.0
  C  C68  1  0.78052266  0.34217602  0.77121686  1.0
  C  C69  1  0.21585337  0.67231892  0.23051608  1.0
  C  C70  1  0.84218965  0.40530877  0.71113690  1.0
  C  C71  1  0.15814575  0.60653316  0.29016495  1.0
  C  C72  1  0.87404754  0.37330240  0.62663959  1.0
  C  C73  1  0.13336889  0.63428405  0.37701045  1.0
  C  C74  1  0.84740434  0.27932554  0.60567150  1.0
  C  C75  1  0.16598132  0.72584399  0.40154098  1.0
  C  C76  1  0.78656713  0.21730721  0.66637524  1.0
  C  C77  1  0.22272321  0.79051887  0.34126664  1.0
  C  C78  1  0.75201570  0.24924890  0.74944857  1.0
  C  C79  1  0.24769704  0.76350117  0.25521799  1.0
  C  C80  1  0.06516556  0.43620758  0.55073964  1.0
  C  C81  1  0.94174740  0.56987558  0.45118589  1.0
  C  C82  1  0.87560261  0.50410294  0.73761087  1.0
  C  C83  1  0.12102618  0.50975401  0.26076984  1.0
  C  C84  1  0.50040208  0.68027185  0.02882214  1.0
  C  C85  1  0.44159409  0.29523067  0.95832054  1.0
  C  C86  1  0.57830934  0.69176646  0.20352807  1.0
  C  C87  1  0.37818969  0.31131824  0.78160237  1.0
  N  N88  1  0.50703154  0.25597596  0.49233495  1.0
  N  N89  1  0.49113818  0.75069250  0.50608039  1.0
  O  O90  1  0.50827056  0.60078605  0.36954934  1.0
  O  O91  1  0.46343156  0.40699329  0.62808613  1.0
  O  O92  1  0.53350520  0.44015186  0.36636082  1.0
  O  O93  1  0.50672068  0.56428750  0.63704489  1.0
  O  O94  1  0.69091896  0.59451406  0.49870893  1.0
  O  O95  1  0.31825887  0.41494558  0.47893766  1.0
  O  O96  1  0.68232723  0.43332400  0.51915617  1.0
  O  O97  1  0.32072127  0.57326440  0.50670134  1.0
  F  F98  1  0.34606071  0.36373225  0.09588205  1.0
  F  F99  1  0.65326179  0.59459614  0.92909742  1.0
  F  F100  1  0.69054580  0.25235152  0.41753347  1.0
  F  F101  1  0.37285219  0.75074515  0.63185876  1.0
