# generated using pymatgen
data_Al4H33C56Br3(NO5)4
_symmetry_space_group_name_H-M   'P 1'
_cell_length_a   6.66565292
_cell_length_b   17.12319777
_cell_length_c   19.26942683
_cell_angle_alpha   70.09814672
_cell_angle_beta   89.56549942
_cell_angle_gamma   88.90659097
_symmetry_Int_Tables_number   1
_chemical_formula_structural   Al4H33C56Br3(NO5)4
_chemical_formula_sum   'Al4 H33 C56 Br3 N4 O20'
_cell_volume   2067.63014722
_cell_formula_units_Z   1
loop_
 _symmetry_equiv_pos_site_id
 _symmetry_equiv_pos_as_xyz
  1  'x, y, z'
loop_
 _atom_site_type_symbol
 _atom_site_label
 _atom_site_symmetry_multiplicity
 _atom_site_fract_x
 _atom_site_fract_y
 _atom_site_fract_z
 _atom_site_occupancy
  Al  Al0  1  0.86256544  0.49867467  0.50197368  1.0
  Al  Al1  1  0.36369623  0.49829576  0.50276492  1.0
  Al  Al2  1  0.35788595  0.00116925  0.00451718  1.0
  Al  Al3  1  0.85741768  0.99781614  0.99954227  1.0
  H  H4  1  0.84254700  0.81795761  0.90809694  1.0
  H  H5  1  0.68066195  0.70851631  0.87281367  1.0
  H  H6  1  0.67412079  0.61929298  0.79603357  1.0
  H  H7  1  0.38808363  0.67530465  0.59790514  1.0
  H  H8  1  0.54996704  0.78597203  0.63313331  1.0
  H  H9  1  0.55671134  0.87519369  0.70975906  1.0
  H  H10  1  0.97100789  0.79319899  0.34845932  1.0
  H  H11  1  0.45480097  0.69450033  0.28185048  1.0
  H  H12  1  0.24942062  0.70177253  0.15259829  1.0
  H  H13  1  0.65415191  0.11683126  0.73617865  1.0
  H  H14  1  0.34271514  0.23473128  0.67144062  1.0
  H  H15  1  0.56084901  0.38581908  0.77034780  1.0
  H  H16  1  0.86664893  0.26637590  0.83651193  1.0
  H  H17  1  0.93670899  0.24731695  0.69620043  1.0
  H  H18  1  0.33492628  0.17706942  0.10306676  1.0
  H  H19  1  0.17218463  0.28913132  0.14136805  1.0
  H  H20  1  0.17059635  0.37614082  0.22080227  1.0
  H  H21  1  0.32903086  0.41552548  0.32082831  1.0
  H  H22  1  0.90444520  0.31240968  0.40835885  1.0
  H  H23  1  0.06603189  0.20211179  0.36849343  1.0
  H  H24  1  0.07426250  0.11934048  0.28762976  1.0
  H  H25  1  0.25199607  0.91148203  0.28769124  1.0
  H  H26  1  0.38984479  0.91300991  0.21608875  1.0
  H  H27  1  0.64792564  0.82885472  0.25243703  1.0
  H  H28  1  0.70648012  0.85178447  0.16180636  1.0
  H  H29  1  0.13620196  0.29446531  0.77990397  1.0
  H  H30  1  0.23517474  0.26467831  0.86365632  1.0
  H  H31  1  0.10273831  0.09822533  0.19333270  1.0
  H  H32  1  0.98081757  0.06059280  0.13228402  1.0
  H  H33  1  0.60779091  0.60296436  0.45208970  1.0
  H  H34  1  0.11764406  0.40375614  0.48827193  1.0
  H  H35  1  0.59847215  0.90731750  0.98329317  1.0
  H  H36  1  0.10283009  0.10197351  0.94908788  1.0
  C  C37  1  0.62267426  0.38204001  0.61523530  1.0
  C  C38  1  0.61234062  0.41787748  0.41965372  1.0
  C  C39  1  0.10682495  0.61558431  0.38796265  1.0
  C  C40  1  0.11247024  0.57364367  0.58765411  1.0
  C  C41  1  0.28032325  0.87725070  0.81523634  1.0
  C  C42  1  0.12347400  0.87327562  0.86552327  1.0
  C  C43  1  0.96456210  0.81967785  0.86969937  1.0
  C  C44  1  0.95972179  0.76822891  0.82689766  1.0
  C  C45  1  0.11763525  0.77289248  0.77530175  1.0
  C  C46  1  0.27987643  0.82899939  0.76845249  1.0
  C  C47  1  0.80086030  0.71128669  0.83330571  1.0
  C  C48  1  0.79706554  0.66184536  0.79085407  1.0
  C  C49  1  0.95119528  0.66544030  0.73763335  1.0
  C  C50  1  0.11320312  0.72165246  0.73048126  1.0
  C  C51  1  0.27115442  0.72604896  0.67893339  1.0
  C  C52  1  0.42969918  0.78314885  0.67261585  1.0
  C  C53  1  0.43374265  0.83262234  0.71510626  1.0
  C  C54  1  0.95070661  0.61671246  0.69129728  1.0
  C  C55  1  0.10657159  0.62096910  0.64056136  1.0
  C  C56  1  0.26607000  0.67438656  0.63619466  1.0
  C  C57  1  0.22463197  0.80957670  0.25753477  1.0
  C  C58  1  0.03296367  0.77382540  0.30389533  1.0
  C  C59  1  0.11221677  0.68287133  0.31526895  1.0
  C  C60  1  0.30203218  0.71858531  0.26823766  1.0
  C  C61  1  0.18798190  0.72169665  0.19670223  1.0
  C  C62  1  0.99652007  0.68653721  0.24323187  1.0
  C  C63  1  0.91624144  0.77846826  0.23206458  1.0
  C  C64  1  0.10891588  0.81264369  0.18493094  1.0
  C  C65  1  0.46046324  0.24141561  0.70814569  1.0
  C  C66  1  0.63376844  0.17739279  0.74287003  1.0
  C  C67  1  0.59753561  0.18956982  0.82008172  1.0
  C  C68  1  0.42303602  0.25364324  0.78408115  1.0
  C  C69  1  0.58205049  0.32548840  0.76313763  1.0
  C  C70  1  0.75311028  0.26096448  0.79802421  1.0
  C  C71  1  0.79074560  0.24867328  0.72209174  1.0
  C  C72  1  0.61761207  0.31244702  0.68639193  1.0
  C  C73  1  0.80154424  0.12471439  0.18027984  1.0
  C  C74  1  0.62727761  0.12507199  0.13724045  1.0
  C  C75  1  0.46148357  0.17625377  0.13892924  1.0
  C  C76  1  0.45825336  0.22788810  0.18155075  1.0
  C  C77  1  0.62439482  0.22255978  0.22992762  1.0
  C  C78  1  0.79206880  0.16929539  0.23118209  1.0
  C  C79  1  0.29674638  0.28528807  0.17893999  1.0
  C  C80  1  0.29556660  0.33333333  0.22276215  1.0
  C  C81  1  0.45593903  0.32739315  0.27376508  1.0
  C  C82  1  0.62138605  0.27166050  0.27660875  1.0
  C  C83  1  0.78383919  0.26561560  0.32635960  1.0
  C  C84  1  0.94442756  0.20814991  0.32932341  1.0
  C  C85  1  0.94850637  0.16237495  0.28339709  1.0
  C  C86  1  0.45527443  0.37386429  0.32129599  1.0
  C  C87  1  0.61666083  0.36840948  0.36910642  1.0
  C  C88  1  0.78016699  0.31555577  0.37102472  1.0
  C  C89  1  0.61702661  0.07566157  0.08760266  1.0
  C  C90  1  0.59624390  0.11925794  0.89038049  1.0
  C  C91  1  0.11297390  0.92123798  0.91771625  1.0
  C  C92  1  0.11572346  0.88242601  0.11461386  1.0
  Br  Br93  1  0.49608521  0.95169541  0.80610468  1.0
  Br  Br94  1  0.83487378  0.59976936  0.23242226  1.0
  Br  Br95  1  0.73742593  0.54115245  0.70197461  1.0
  N  N96  1  0.33892105  0.87537172  0.26640656  1.0
  N  N97  1  0.72135796  0.81042347  0.21396421  1.0
  N  N98  1  0.22996181  0.25195213  0.81560794  1.0
  N  N99  1  0.97277263  0.08175566  0.17569267  1.0
  O  O100  1  0.44095499  0.44423322  0.43281111  1.0
  O  O101  1  0.79165455  0.41443086  0.59257431  1.0
  O  O102  1  0.94880629  0.56544955  0.55802338  1.0
  O  O103  1  0.77919182  0.42868331  0.44693631  1.0
  O  O104  1  0.93528997  0.58604974  0.41141131  1.0
  O  O105  1  0.45480293  0.40459782  0.58263706  1.0
  O  O106  1  0.61082182  0.55007140  0.49229030  1.0
  O  O107  1  0.27368994  0.59409826  0.42174366  1.0
  O  O108  1  0.28458339  0.54875666  0.57425095  1.0
  O  O109  1  0.11512739  0.44889615  0.50790255  1.0
  O  O110  1  0.76610158  0.09538500  0.92173077  1.0
  O  O111  1  0.44724991  0.06803987  0.06041158  1.0
  O  O112  1  0.28290746  0.91953581  0.09638496  1.0
  O  O113  1  0.42743218  0.08707670  0.91439080  1.0
  O  O114  1  0.27302828  0.92922574  0.94983924  1.0
  O  O115  1  0.78052860  0.04301328  0.07379637  1.0
  O  O116  1  0.60762196  0.94794163  0.00804537  1.0
  O  O117  1  0.93847894  0.94740503  0.92804480  1.0
  O  O118  1  0.95459755  0.90181804  0.07689071  1.0
  O  O119  1  0.10368998  0.05146564  0.99221295  1.0
