# generated using pymatgen
data_LiH17C24(NO)6
_symmetry_space_group_name_H-M   'P 1'
_cell_length_a   4.95490911
_cell_length_b   16.05461706
_cell_length_c   37.30902824
_cell_angle_alpha   90.00006754
_cell_angle_beta   90.00003973
_cell_angle_gamma   92.62093760
_symmetry_Int_Tables_number   1
_chemical_formula_structural   LiH17C24(NO)6
_chemical_formula_sum   'Li4 H68 C96 N24 O24'
_cell_volume   2964.79752260
_cell_formula_units_Z   4
loop_
 _symmetry_equiv_pos_site_id
 _symmetry_equiv_pos_as_xyz
  1  'x, y, z'
loop_
 _atom_site_type_symbol
 _atom_site_label
 _atom_site_symmetry_multiplicity
 _atom_site_fract_x
 _atom_site_fract_y
 _atom_site_fract_z
 _atom_site_occupancy
  Li  Li0  1  0.19931730  0.48588346  0.52314563  1.0
  Li  Li1  1  0.80068014  0.01411744  0.02314564  1.0
  Li  Li2  1  0.80067897  0.51411776  0.47685445  1.0
  Li  Li3  1  0.19931999  0.98588254  0.97685417  1.0
  H  H4  1  0.09641755  0.30492274  0.68378230  1.0
  H  H5  1  0.40198144  0.27302058  0.57059442  1.0
  H  H6  1  0.51961229  0.21030947  0.62940109  1.0
  H  H7  1  0.16732463  0.39643980  0.64161532  1.0
  H  H8  1  0.04893937  0.45850670  0.58359425  1.0
  H  H9  1  0.23687670  0.08051253  0.67588067  1.0
  H  H10  1  0.13302414  0.78743276  0.75609307  1.0
  H  H11  1  0.81571437  0.95974421  0.80108440  1.0
  H  H12  1  0.17853920  0.05363320  0.77466024  1.0
  H  H13  1  0.90348503  0.98425473  0.66886440  1.0
  H  H14  1  0.54584438  0.89016591  0.69530676  1.0
  H  H15  1  0.99149574  0.24380806  0.79124344  1.0
  H  H16  1  0.60148833  0.13331696  0.98322535  1.0
  H  H17  1  0.89370516  0.22959647  0.91099300  1.0
  H  H18  1  0.02119841  0.26753047  0.84848558  1.0
  H  H19  1  0.45045630  0.07928150  0.80857055  1.0
  H  H20  1  0.31846024  0.04357794  0.87133175  1.0
  H  H21  1  0.90358436  0.19507550  0.18378269  1.0
  H  H22  1  0.59801204  0.22697921  0.07059479  1.0
  H  H23  1  0.48038336  0.28968924  0.12940148  1.0
  H  H24  1  0.83266916  0.10355957  0.14161539  1.0
  H  H25  1  0.95105400  0.04149188  0.08359430  1.0
  H  H26  1  0.76311957  0.41948880  0.17588224  1.0
  H  H27  1  0.86697779  0.71256816  0.25609293  1.0
  H  H28  1  0.18429396  0.54025747  0.30108518  1.0
  H  H29  1  0.82146763  0.44636779  0.27466155  1.0
  H  H30  1  0.09651210  0.51574408  0.16886596  1.0
  H  H31  1  0.45415290  0.60983297  0.19530733  1.0
  H  H32  1  0.00850293  0.25619173  0.29124378  1.0
  H  H33  1  0.39851317  0.36668150  0.48322524  1.0
  H  H34  1  0.10630428  0.27040366  0.41099282  1.0
  H  H35  1  0.97880260  0.23246948  0.34848573  1.0
  H  H36  1  0.54954449  0.42071834  0.30857048  1.0
  H  H37  1  0.68154512  0.45642333  0.37133198  1.0
  H  H38  1  0.90358257  0.69507724  0.31621778  1.0
  H  H39  1  0.59801694  0.72698127  0.42940593  1.0
  H  H40  1  0.48038599  0.78969176  0.37059899  1.0
  H  H41  1  0.83267549  0.60356018  0.35838476  1.0
  H  H42  1  0.95106075  0.54149328  0.41640583  1.0
  H  H43  1  0.76311755  0.91948870  0.32411887  1.0
  H  H44  1  0.86697598  0.21256722  0.24390701  1.0
  H  H45  1  0.18428768  0.04025515  0.19891568  1.0
  H  H46  1  0.82145899  0.94636740  0.22533957  1.0
  H  H47  1  0.09651298  0.01574463  0.33113514  1.0
  H  H48  1  0.45415556  0.10983282  0.30469306  1.0
  H  H49  1  0.00850429  0.75619130  0.20875637  1.0
  H  H50  1  0.39851363  0.86668177  0.01677446  1.0
  H  H51  1  0.10629707  0.77040413  0.08900681  1.0
  H  H52  1  0.97880162  0.73246889  0.15151396  1.0
  H  H53  1  0.54954383  0.92071848  0.19142953  1.0
  H  H54  1  0.68153805  0.95642329  0.12866806  1.0
  H  H55  1  0.09641961  0.80492323  0.81621766  1.0
  H  H56  1  0.40198606  0.77302077  0.92940528  1.0
  H  H57  1  0.51961658  0.71030949  0.87059860  1.0
  H  H58  1  0.16732885  0.89643979  0.85838469  1.0
  H  H59  1  0.04894594  0.95850686  0.91640578  1.0
  H  H60  1  0.23688064  0.58051180  0.82411811  1.0
  H  H61  1  0.13302610  0.28742995  0.74390688  1.0
  H  H62  1  0.81570616  0.45974251  0.69891517  1.0
  H  H63  1  0.17853249  0.55363219  0.72533826  1.0
  H  H64  1  0.90349004  0.48425590  0.83113438  1.0
  H  H65  1  0.54584906  0.39016576  0.80469302  1.0
  H  H66  1  0.99149720  0.74380825  0.70875630  1.0
  H  H67  1  0.60148319  0.63332035  0.51677484  1.0
  H  H68  1  0.89370190  0.72959632  0.58900726  1.0
  H  H69  1  0.02120156  0.76753050  0.65151462  1.0
  H  H70  1  0.45045765  0.57928164  0.69142933  1.0
  H  H71  1  0.31845527  0.54357852  0.62866809  1.0
  C  C72  1  0.79482625  0.22235201  0.69713457  1.0
  C  C73  1  0.46060081  0.13039716  0.71481390  1.0
  C  C74  1  0.73826390  0.18755303  0.75648936  1.0
  C  C75  1  0.65217525  0.40521016  0.53723980  1.0
  C  C76  1  0.71914055  0.36882625  0.57267411  1.0
  C  C77  1  0.57114797  0.29928910  0.58621719  1.0
  C  C78  1  0.63591370  0.26391184  0.61901649  1.0
  C  C79  1  0.85118036  0.29928108  0.63927192  1.0
  C  C80  1  0.99939020  0.36950163  0.62589503  1.0
  C  C81  1  0.93362689  0.40362237  0.59313486  1.0
  C  C82  1  0.43607507  0.86707243  0.76623756  1.0
  C  C83  1  0.65649587  0.91937012  0.75000774  1.0
  C  C84  1  0.83765879  0.96514389  0.77210026  1.0
  C  C85  1  0.04082115  0.01729520  0.75763325  1.0
  C  C86  1  0.06487182  0.02513998  0.72024311  1.0
  C  C87  1  0.88564374  0.97804383  0.69793189  1.0
  C  C88  1  0.68520317  0.92577402  0.71262215  1.0
  C  C89  1  0.51752262  0.11086495  0.93236151  1.0
  C  C90  1  0.59474164  0.13477860  0.89519625  1.0
  C  C91  1  0.79427558  0.19779516  0.88848905  1.0
  C  C92  1  0.86488312  0.21877795  0.85361359  1.0
  C  C93  1  0.73938469  0.17693051  0.82439518  1.0
  C  C94  1  0.54214818  0.11313428  0.83093110  1.0
  C  C95  1  0.47135792  0.09302499  0.86607219  1.0
  C  C96  1  0.20517400  0.27764814  0.19713494  1.0
  C  C97  1  0.53939770  0.36960428  0.21481408  1.0
  C  C98  1  0.26173247  0.31244604  0.25648948  1.0
  C  C99  1  0.34782007  0.09478954  0.03723928  1.0
  C  C100  1  0.28085083  0.13117292  0.07267388  1.0
  C  C101  1  0.42884551  0.20071011  0.08621754  1.0
  C  C102  1  0.36407978  0.23608622  0.11901631  1.0
  C  C103  1  0.14881140  0.20071828  0.13927144  1.0
  C  C104  1  0.00060140  0.13049707  0.12589476  1.0
  C  C105  1  0.06636461  0.09637686  0.09313379  1.0
  C  C106  1  0.56392902  0.63292914  0.26623735  1.0
  C  C107  1  0.34350795  0.58063016  0.25000855  1.0
  C  C108  1  0.16234727  0.53485708  0.27210131  1.0
  C  C109  1  0.95918146  0.48270512  0.25763459  1.0
  C  C110  1  0.93512645  0.47485961  0.22024444  1.0
  C  C111  1  0.11435566  0.52195568  0.19793212  1.0
  C  C112  1  0.31479824  0.57422491  0.21262269  1.0
  C  C113  1  0.48248079  0.38913461  0.43236142  1.0
  C  C114  1  0.40526367  0.36522148  0.39519641  1.0
  C  C115  1  0.20572565  0.30220491  0.38848890  1.0
  C  C116  1  0.13512003  0.28122264  0.35361368  1.0
  C  C117  1  0.26061829  0.32307000  0.32439530  1.0
  C  C118  1  0.45785466  0.38686500  0.33093101  1.0
  C  C119  1  0.52864521  0.40697501  0.36607238  1.0
  C  C120  1  0.20517397  0.77764859  0.30286524  1.0
  C  C121  1  0.53939555  0.86960469  0.28518591  1.0
  C  C122  1  0.26173806  0.81244571  0.24351045  1.0
  C  C123  1  0.34782102  0.59479107  0.46276054  1.0
  C  C124  1  0.28085774  0.63117498  0.42732623  1.0
  C  C125  1  0.42885022  0.70071150  0.41378315  1.0
  C  C126  1  0.36408046  0.73608876  0.38098359  1.0
  C  C127  1  0.14881802  0.70072077  0.36072762  1.0
  C  C128  1  0.00060993  0.63049835  0.37410505  1.0
  C  C129  1  0.06637121  0.59637761  0.40686548  1.0
  C  C130  1  0.56393101  0.13292692  0.23376251  1.0
  C  C131  1  0.34350599  0.08062799  0.24999234  1.0
  C  C132  1  0.16234326  0.03485546  0.22789928  1.0
  C  C133  1  0.95917898  0.98270478  0.24236656  1.0
  C  C134  1  0.93512629  0.97486000  0.27975644  1.0
  C  C135  1  0.11435620  0.02195490  0.30206792  1.0
  C  C136  1  0.31479869  0.07422409  0.28737766  1.0
  C  C137  1  0.48247539  0.88913440  0.06763830  1.0
  C  C138  1  0.40525454  0.86522200  0.10480329  1.0
  C  C139  1  0.20572059  0.80220545  0.11151076  1.0
  C  C140  1  0.13511691  0.78122140  0.14638595  1.0
  C  C141  1  0.26061524  0.82306823  0.17560437  1.0
  C  C142  1  0.45784993  0.88686570  0.16906871  1.0
  C  C143  1  0.52863826  0.90697561  0.13392736  1.0
  C  C144  1  0.79482603  0.72235122  0.80286487  1.0
  C  C145  1  0.46060453  0.63039632  0.78518600  1.0
  C  C146  1  0.73826573  0.68755456  0.74351059  1.0
  C  C147  1  0.65218006  0.90521044  0.96275999  1.0
  C  C148  1  0.71914727  0.86882706  0.92732567  1.0
  C  C149  1  0.57115058  0.79928987  0.91378227  1.0
  C  C150  1  0.63592025  0.76391314  0.88098377  1.0
  C  C151  1  0.85118661  0.79928108  0.86072864  1.0
  C  C152  1  0.99939900  0.86950478  0.87410532  1.0
  C  C153  1  0.93363350  0.90362312  0.90686603  1.0
  C  C154  1  0.43607101  0.36707021  0.73376272  1.0
  C  C155  1  0.65649419  0.41936982  0.74999153  1.0
  C  C156  1  0.83765487  0.46514290  0.72789877  1.0
  C  C157  1  0.04081664  0.51729486  0.74236602  1.0
  C  C158  1  0.06487165  0.52514037  0.77975564  1.0
  C  C159  1  0.88564455  0.47804492  0.80206742  1.0
  C  C160  1  0.68520381  0.42577444  0.78737766  1.0
  C  C161  1  0.51751969  0.61086786  0.56763866  1.0
  C  C162  1  0.59474048  0.63477850  0.60480367  1.0
  C  C163  1  0.79427832  0.69779383  0.61151118  1.0
  C  C164  1  0.86488606  0.71877672  0.64638640  1.0
  C  C165  1  0.73938578  0.67692935  0.67560504  1.0
  C  C166  1  0.54214729  0.61313373  0.66906907  1.0
  C  C167  1  0.47135693  0.59302497  0.63392770  1.0
  N  N168  1  0.58709718  0.17098581  0.68745968  1.0
  N  N169  1  0.51908850  0.13739040  0.74991024  1.0
  N  N170  1  0.88559384  0.22968107  0.73141502  1.0
  N  N171  1  0.93097538  0.27161015  0.67312003  1.0
  N  N172  1  0.25285095  0.07806327  0.70302370  1.0
  N  N173  1  0.83043345  0.20215869  0.79055110  1.0
  N  N174  1  0.41289907  0.32901494  0.18746009  1.0
  N  N175  1  0.48091003  0.36260990  0.24991067  1.0
  N  N176  1  0.11440431  0.27031730  0.23141511  1.0
  N  N177  1  0.06902455  0.22838869  0.17312036  1.0
  N  N178  1  0.74714539  0.42193752  0.20302473  1.0
  N  N179  1  0.16956320  0.29784110  0.29055147  1.0
  N  N180  1  0.41289908  0.82901542  0.31254013  1.0
  N  N181  1  0.48091162  0.86260958  0.25008957  1.0
  N  N182  1  0.11440601  0.77031704  0.26858479  1.0
  N  N183  1  0.06902272  0.72838983  0.32687951  1.0
  N  N184  1  0.74714330  0.92193796  0.29697611  1.0
  N  N185  1  0.16956842  0.79783942  0.20944844  1.0
  N  N186  1  0.58710307  0.67098504  0.81253972  1.0
  N  N187  1  0.51909028  0.63739133  0.75008941  1.0
  N  N188  1  0.88559581  0.72968268  0.76858497  1.0
  N  N189  1  0.93097741  0.77161005  0.82687972  1.0
  N  N190  1  0.25285482  0.57806308  0.79697535  1.0
  N  N191  1  0.83043509  0.70216012  0.70944887  1.0
  O  O192  1  0.82287764  0.45562190  0.52233298  1.0
  O  O193  1  0.42074729  0.38525989  0.52327105  1.0
  O  O194  1  0.28845278  0.82189156  0.74275798  1.0
  O  O195  1  0.39164519  0.86520539  0.79899907  1.0
  O  O196  1  0.34298171  0.05456294  0.93857500  1.0
  O  O197  1  0.64958036  0.15410379  0.95746698  1.0
  O  O198  1  0.17711951  0.04437713  0.02233242  1.0
  O  O199  1  0.57924813  0.11474102  0.02327137  1.0
  O  O200  1  0.71154485  0.67810808  0.24275807  1.0
  O  O201  1  0.60835735  0.63479815  0.29899886  1.0
  O  O202  1  0.65702192  0.44543789  0.43857522  1.0
  O  O203  1  0.35042484  0.34589335  0.45746632  1.0
  O  O204  1  0.17711854  0.54437870  0.47766710  1.0
  O  O205  1  0.57924898  0.61474134  0.47672930  1.0
  O  O206  1  0.71154926  0.17810779  0.25724210  1.0
  O  O207  1  0.60835897  0.13479459  0.20100128  1.0
  O  O208  1  0.65701832  0.94543642  0.06142481  1.0
  O  O209  1  0.35042343  0.84589369  0.04253337  1.0
  O  O210  1  0.82288042  0.95562160  0.97766740  1.0
  O  O211  1  0.42075006  0.88525959  0.97672871  1.0
  O  O212  1  0.28845481  0.32188878  0.75724201  1.0
  O  O213  1  0.39163901  0.36520370  0.70100095  1.0
  O  O214  1  0.34297664  0.55456521  0.56142432  1.0
  O  O215  1  0.64957353  0.65410850  0.54253403  1.0
