# generated using pymatgen
data_Zn4H18C44N8O13
_symmetry_space_group_name_H-M   'P 1'
_cell_length_a   15.11660070
_cell_length_b   26.11404220
_cell_length_c   28.22478350
_cell_angle_alpha   89.94738479
_cell_angle_beta   82.30842063
_cell_angle_gamma   89.32378987
_symmetry_Int_Tables_number   1
_chemical_formula_structural   Zn4H18C44N8O13
_chemical_formula_sum   'Zn8 H36 C88 N16 O26'
_cell_volume   11040.87354021
_cell_formula_units_Z   2
loop_
 _symmetry_equiv_pos_site_id
 _symmetry_equiv_pos_as_xyz
  1  'x, y, z'
loop_
 _atom_site_type_symbol
 _atom_site_label
 _atom_site_symmetry_multiplicity
 _atom_site_fract_x
 _atom_site_fract_y
 _atom_site_fract_z
 _atom_site_occupancy
  Zn  Zn0  1  0.57239429  0.93682112  0.49472249  1.0
  Zn  Zn1  1  0.57631931  0.06091658  0.49620509  1.0
  Zn  Zn2  1  0.57362523  0.43668796  0.99601868  1.0
  Zn  Zn3  1  0.57658185  0.56085491  0.99623132  1.0
  Zn  Zn4  1  0.42002062  0.00050858  0.56160705  1.0
  Zn  Zn5  1  0.41900038  0.50079470  0.06086913  1.0
  Zn  Zn6  1  0.43425672  0.00007947  0.44510575  1.0
  Zn  Zn7  1  0.43498902  0.49974277  0.94520086  1.0
  H  H8  1  0.57721094  0.80541215  0.41071492  1.0
  H  H9  1  0.51015956  0.72991199  0.63906188  1.0
  H  H10  1  0.50387188  0.76889535  0.13888305  1.0
  H  H11  1  0.33479982  0.29672673  0.20692937  1.0
  H  H12  1  0.42479343  0.90425648  0.32950993  1.0
  H  H13  1  0.40811608  0.10430880  0.33954202  1.0
  H  H14  1  0.42273274  0.40291334  0.83212561  1.0
  H  H15  1  0.43349202  0.59470247  0.82956434  1.0
  H  H16  1  0.01042035  0.91759309  0.43713943  1.0
  H  H17  1  0.01132340  0.41729383  0.93685412  1.0
  H  H18  1  0.98820811  0.08346431  0.56275341  1.0
  H  H19  1  0.63099500  0.17548718  0.39187451  1.0
  H  H20  1  0.98795919  0.58308789  0.06255025  1.0
  H  H21  1  0.84673613  0.05802400  0.53361212  1.0
  H  H22  1  0.84686421  0.55768959  0.03304365  1.0
  H  H23  1  0.46418482  0.15444160  0.74817566  1.0
  H  H24  1  0.46203771  0.84515767  0.74849162  1.0
  H  H25  1  0.46329202  0.65414299  0.24860969  1.0
  H  H26  1  0.62116528  0.28458408  0.18622157  1.0
  H  H27  1  0.57652205  0.73656926  0.34803007  1.0
  H  H28  1  0.63823751  0.24020289  0.32505345  1.0
  H  H29  1  0.58323390  0.23717129  0.84617801  1.0
  H  H30  1  0.58490802  0.30565084  0.90920165  1.0
  H  H31  1  0.57383627  0.76328974  0.84990352  1.0
  H  H32  1  0.84575216  0.92714169  0.44139022  1.0
  H  H33  1  0.84679691  0.42705811  0.94036397  1.0
  H  H34  1  0.45881072  0.08739704  0.68470595  1.0
  H  H35  1  0.45767512  0.91247799  0.68516448  1.0
  H  H36  1  0.45856967  0.58659127  0.18553168  1.0
  H  H37  1  0.62699916  0.34798703  0.11884555  1.0
  H  H38  1  0.57859084  0.69425898  0.91208177  1.0
  H  H39  1  0.42588271  0.83607777  0.26645758  1.0
  H  H40  1  0.41283381  0.16997645  0.27415111  1.0
  H  H41  1  0.42350737  0.33543698  0.76851783  1.0
  H  H42  1  0.43201227  0.66265449  0.76661528  1.0
  H  H43  1  0.50339259  0.27001933  0.63923138  1.0
  C  C44  1  0.48751413  0.09858211  0.59016266  1.0
  C  C45  1  0.11822733  0.47673014  0.98389016  1.0
  C  C46  1  0.11489829  0.04658145  0.54177991  1.0
  C  C47  1  0.11497944  0.54681278  0.04114547  1.0
  C  C48  1  0.02371479  0.05312716  0.54122337  1.0
  C  C49  1  0.02365666  0.55291093  0.04087204  1.0
  C  C50  1  0.50277840  0.85894872  0.37283233  1.0
  C  C51  1  0.51947032  0.13620193  0.36920327  1.0
  C  C52  1  0.50474841  0.35819711  0.87378516  1.0
  C  C53  1  0.50810258  0.64026256  0.87359145  1.0
  C  C54  1  0.45892027  0.86769526  0.33262216  1.0
  C  C55  1  0.49139983  0.90176722  0.59063448  1.0
  C  C56  1  0.45758423  0.13453384  0.33616406  1.0
  C  C57  1  0.45861611  0.36677645  0.83435405  1.0
  C  C58  1  0.46526936  0.63147483  0.83308473  1.0
  C  C59  1  0.45929098  0.83022592  0.29792757  1.0
  C  C60  1  0.46005659  0.17067723  0.30008707  1.0
  C  C61  1  0.45880641  0.32965261  0.79932939  1.0
  C  C62  1  0.46415082  0.66890364  0.79840399  1.0
  C  C63  1  0.50302370  0.78317102  0.30359216  1.0
  C  C64  1  0.52562517  0.20883959  0.29641554  1.0
  C  C65  1  0.50477037  0.28309681  0.80377817  1.0
  C  C66  1  0.48869823  0.59717612  0.09091882  1.0
  C  C67  1  0.50480506  0.71625774  0.80447377  1.0
  C  C68  1  0.54456222  0.77375690  0.34442266  1.0
  C  C69  1  0.58808431  0.21028974  0.32900202  1.0
  C  C70  1  0.54914729  0.27390375  0.84365021  1.0
  C  C71  1  0.54464024  0.72584034  0.84575727  1.0
  C  C72  1  0.50389727  0.90010834  0.40915652  1.0
  C  C73  1  0.51616059  0.09656423  0.40747122  1.0
  C  C74  1  0.50511401  0.39894267  0.91070049  1.0
  C  C75  1  0.51010569  0.59868885  0.90969117  1.0
  C  C76  1  0.54526326  0.81177214  0.37880910  1.0
  C  C77  1  0.49258076  0.40123935  0.08965586  1.0
  C  C78  1  0.58426573  0.17447890  0.36569535  1.0
  C  C79  1  0.54998112  0.31161804  0.87828795  1.0
  C  C80  1  0.54757453  0.68765610  0.87995441  1.0
  C  C81  1  0.47321179  0.16429673  0.71033368  1.0
  C  C82  1  0.47322432  0.83537214  0.71062238  1.0
  C  C83  1  0.47262949  0.66372457  0.21070356  1.0
  C  C84  1  0.56055535  0.30205603  0.17620741  1.0
  C  C85  1  0.47071762  0.12740657  0.67520846  1.0
  C  C86  1  0.47128783  0.87247818  0.67553086  1.0
  C  C87  1  0.47042604  0.62654851  0.17580439  1.0
  C  C88  1  0.97619529  0.02108375  0.51341310  1.0
  C  C89  1  0.56352028  0.33722210  0.13912837  1.0
  C  C90  1  0.48671457  0.21575885  0.69693111  1.0
  C  C91  1  0.48910107  0.78390260  0.69716884  1.0
  C  C92  1  0.48647636  0.71507327  0.19697003  1.0
  C  C93  1  0.47752762  0.28829137  0.20125779  1.0
  C  C94  1  0.48450709  0.14030029  0.62653582  1.0
  C  C95  1  0.48811199  0.85981083  0.62686513  1.0
  C  C96  1  0.48470905  0.63907646  0.12707033  1.0
  C  C97  1  0.48545414  0.36061861  0.12725072  1.0
  C  C98  1  0.49724931  0.19219686  0.61309491  1.0
  C  C99  1  0.97636967  0.52080281  0.01299892  1.0
  C  C100  1  0.50307376  0.80795116  0.61329662  1.0
  C  C101  1  0.49755985  0.69088492  0.11325916  1.0
  C  C102  1  0.40181696  0.34609996  0.15198350  1.0
  C  C103  1  0.49597563  0.22969840  0.64866618  1.0
  C  C104  1  0.50116739  0.77020096  0.64875557  1.0
  C  C105  1  0.49615139  0.72864529  0.14858603  1.0
  C  C106  1  0.39862819  0.30910379  0.18813934  1.0
  C  C107  1  0.26270447  0.00359631  0.51028223  1.0
  C  C108  1  0.26303153  0.50454537  0.00934478  1.0
  C  C109  1  0.73786473  0.99726474  0.49048245  1.0
  C  C110  1  0.02304684  0.98114115  0.48516670  1.0
  C  C111  1  0.73863691  0.49742586  0.98876509  1.0
  C  C112  1  0.16314425  0.00839069  0.51241551  1.0
  C  C113  1  0.16354620  0.50890763  0.01153591  1.0
  C  C114  1  0.83717965  0.99333298  0.48794312  1.0
  C  C115  1  0.83776413  0.49326398  0.98690660  1.0
  C  C116  1  0.97473827  0.94784281  0.45874031  1.0
  C  C117  1  0.97542490  0.44760566  0.95826727  1.0
  C  C118  1  0.88363575  0.95328054  0.46077299  1.0
  C  C119  1  0.88441726  0.45311574  0.95997594  1.0
  C  C120  1  0.88293351  0.02710980  0.51317768  1.0
  C  C121  1  0.02351563  0.48100279  0.98469520  1.0
  C  C122  1  0.88316418  0.52682693  0.01256562  1.0
  C  C123  1  0.16383024  0.93729502  0.45540972  1.0
  C  C124  1  0.16436287  0.43752276  0.95468541  1.0
  C  C125  1  0.50846144  0.20900649  0.56441417  1.0
  C  C126  1  0.51672288  0.79196234  0.56434368  1.0
  C  C127  1  0.50925781  0.70738549  0.06445659  1.0
  C  C128  1  0.31863734  0.36596626  0.14056739  1.0
  C  C129  1  0.15961783  0.08011533  0.57053318  1.0
  C  C130  1  0.15907669  0.58092340  0.06969479  1.0
  C  C131  1  0.11767513  0.97650972  0.48457231  1.0
  N  N132  1  0.50639914  0.74269854  0.27028262  1.0
  N  N133  1  0.19658994  0.40401328  0.93066681  1.0
  N  N134  1  0.51683183  0.22641328  0.52595310  1.0
  N  N135  1  0.52676356  0.77609842  0.52528208  1.0
  N  N136  1  0.51810800  0.72452918  0.02588192  1.0
  N  N137  1  0.24764975  0.37895885  0.13301510  1.0
  N  N138  1  0.19357151  0.10875641  0.59404866  1.0
  N  N139  1  0.19170856  0.61049938  0.09288139  1.0
  N  N140  1  0.53465680  0.24666161  0.26035502  1.0
  N  N141  1  0.50801945  0.24289350  0.77018110  1.0
  N  N142  1  0.50716827  0.75662414  0.77102228  1.0
  N  N143  1  0.48879734  0.25642857  0.72964986  1.0
  N  N144  1  0.49119984  0.74311521  0.72992163  1.0
  N  N145  1  0.48856176  0.75600351  0.22940573  1.0
  N  N146  1  0.46658130  0.25252758  0.23908709  1.0
  N  N147  1  0.19680042  0.90392553  0.43145631  1.0
  O  O148  1  0.49963991  0.00002192  0.50077185  1.0
  O  O149  1  0.56533583  0.60302808  0.93991873  1.0
  O  O150  1  0.43718305  0.93923340  0.60041676  1.0
  O  O151  1  0.44316448  0.05835624  0.60254163  1.0
  O  O152  1  0.43147841  0.43547148  0.09421766  1.0
  O  O153  1  0.44529448  0.55656148  0.10324048  1.0
  O  O154  1  0.45582152  0.06270599  0.40765665  1.0
  O  O155  1  0.46012918  0.94127258  0.40301980  1.0
  O  O156  1  0.45648555  0.56167855  0.90690814  1.0
  O  O157  1  0.46452268  0.44079731  0.90350193  1.0
  O  O158  1  0.29357773  0.00255783  0.55001031  1.0
  O  O159  1  0.50080552  0.49966106  0.00056939  1.0
  O  O160  1  0.29383195  0.50674950  0.04898158  1.0
  O  O161  1  0.70106755  0.04052560  0.50194093  1.0
  O  O162  1  0.69872505  0.95620630  0.48111797  1.0
  O  O163  1  0.70194746  0.54075837  0.00008515  1.0
  O  O164  1  0.69932355  0.45655595  0.97892806  1.0
  O  O165  1  0.30531697  0.00140343  0.46846704  1.0
  O  O166  1  0.30585440  0.49953486  0.96771641  1.0
  O  O167  1  0.53560551  0.10659757  0.55034230  1.0
  O  O168  1  0.54936211  0.89646139  0.55383442  1.0
  O  O169  1  0.53683862  0.60544880  0.05118973  1.0
  O  O170  1  0.55967334  0.39854839  0.05696917  1.0
  O  O171  1  0.54935252  0.89137272  0.44335554  1.0
  O  O172  1  0.57353309  0.09928602  0.43677035  1.0
  O  O173  1  0.54646100  0.38912055  0.94640595  1.0
