# generated using pymatgen
data_Zn2H7C36N2Cl17O8
_symmetry_space_group_name_H-M   'P 1'
_cell_length_a   10.90347094
_cell_length_b   16.83311184
_cell_length_c   17.69098385
_cell_angle_alpha   96.54907202
_cell_angle_beta   90.67082436
_cell_angle_gamma   90.42949392
_symmetry_Int_Tables_number   1
_chemical_formula_structural   Zn2H7C36N2Cl17O8
_chemical_formula_sum   'Zn2 H7 C36 N2 Cl17 O8'
_cell_volume   3225.45491950
_cell_formula_units_Z   1
loop_
 _symmetry_equiv_pos_site_id
 _symmetry_equiv_pos_as_xyz
  1  'x, y, z'
loop_
 _atom_site_type_symbol
 _atom_site_label
 _atom_site_symmetry_multiplicity
 _atom_site_fract_x
 _atom_site_fract_y
 _atom_site_fract_z
 _atom_site_occupancy
  Zn  Zn0  1  0.49965364  0.40803915  0.48620836  1.0
  Zn  Zn1  1  0.50425671  0.58661833  0.50301065  1.0
  H  H2  1  0.50284017  0.00296207  0.60228110  1.0
  H  H3  1  0.48719137  0.99048173  0.42744665  1.0
  H  H4  1  0.39313086  0.44950081  0.99878749  1.0
  H  H5  1  0.60287324  0.57166751  0.99425840  1.0
  H  H6  1  0.88549071  0.36358442  0.43975744  1.0
  H  H7  1  0.88711039  0.60396455  0.55111785  1.0
  H  H8  1  0.11597622  0.36470950  0.44397617  1.0
  C  C9  1  0.50324101  0.50842594  0.35005363  1.0
  C  C10  1  0.26845686  0.48066611  0.49596157  1.0
  C  C11  1  0.49773852  0.51525961  0.64154097  1.0
  C  C12  1  0.73550341  0.48462008  0.49315920  1.0
  C  C13  1  0.41761926  0.75721579  0.47643377  1.0
  C  C14  1  0.41051022  0.84131203  0.48325981  1.0
  C  C15  1  0.49159425  0.88762777  0.53326263  1.0
  C  C16  1  0.57382162  0.84582936  0.57604372  1.0
  C  C17  1  0.57594955  0.76184494  0.56559554  1.0
  C  C18  1  0.49500048  0.97543151  0.54359031  1.0
  C  C19  1  0.49531575  0.02033241  0.48536499  1.0
  C  C20  1  0.43468835  0.14530588  0.43503126  1.0
  C  C21  1  0.50113985  0.10765175  0.48988308  1.0
  C  C22  1  0.57377705  0.15779298  0.54223216  1.0
  C  C23  1  0.57602438  0.24100333  0.53811617  1.0
  C  C24  1  0.44207843  0.22853884  0.43481673  1.0
  C  C25  1  0.49702989  0.50686517  0.26442194  1.0
  C  C26  1  0.38353436  0.51263271  0.22797196  1.0
  C  C27  1  0.37663319  0.50852383  0.14849514  1.0
  C  C28  1  0.48280609  0.49924234  0.10336131  1.0
  C  C29  1  0.59693660  0.49419463  0.14113088  1.0
  C  C30  1  0.60329164  0.49774254  0.22092509  1.0
  C  C31  1  0.46643191  0.49071996  0.02020646  1.0
  C  C32  1  0.52989046  0.53070547  0.97163403  1.0
  C  C33  1  0.62234159  0.53127675  0.84483281  1.0
  C  C34  1  0.51561971  0.52362052  0.88855581  1.0
  C  C35  1  0.40231261  0.51255569  0.84854600  1.0
  C  C36  1  0.39719856  0.50870984  0.76875739  1.0
  C  C37  1  0.50371668  0.51673677  0.72706356  1.0
  C  C38  1  0.61643397  0.52765966  0.76533804  1.0
  C  C39  1  0.13119650  0.48434862  0.49908634  1.0
  C  C40  1  0.87284365  0.48406038  0.49454706  1.0
  C  C41  1  0.06529260  0.55176333  0.53029950  1.0
  C  C42  1  0.93687350  0.41604879  0.46461610  1.0
  C  C43  1  0.93738852  0.55154003  0.52734378  1.0
  C  C44  1  0.06419858  0.41685676  0.46706188  1.0
  N  N45  1  0.49939238  0.71874589  0.51639527  1.0
  N  N46  1  0.51002757  0.27527825  0.48613108  1.0
  Cl  Cl47  1  0.67945259  0.71243787  0.61515709  1.0
  Cl  Cl48  1  0.67472257  0.89795858  0.63855848  1.0
  Cl  Cl49  1  0.32066241  0.70142718  0.41572702  1.0
  Cl  Cl50  1  0.29990564  0.88483442  0.43245512  1.0
  Cl  Cl51  1  0.66457159  0.11967580  0.60888803  1.0
  Cl  Cl52  1  0.66656685  0.30074438  0.59991431  1.0
  Cl  Cl53  1  0.34328115  0.08948576  0.36920181  1.0
  Cl  Cl54  1  0.36538275  0.27340659  0.36703985  1.0
  Cl  Cl55  1  0.74169444  0.48907112  0.26717021  1.0
  Cl  Cl56  1  0.72994401  0.47937593  0.09014719  1.0
  Cl  Cl57  1  0.25296950  0.52411315  0.28203224  1.0
  Cl  Cl58  1  0.23615706  0.51634809  0.10455199  1.0
  Cl  Cl59  1  0.26594821  0.50766894  0.89594799  1.0
  Cl  Cl60  1  0.25955300  0.49515189  0.72012766  1.0
  Cl  Cl61  1  0.76339928  0.54368352  0.88977869  1.0
  Cl  Cl62  1  0.74756205  0.53562031  0.71296823  1.0
  Cl  Cl63  1  0.13569462  0.63646248  0.57696473  1.0
  O  O64  1  0.48705785  0.44180665  0.37497510  1.0
  O  O65  1  0.52222474  0.57638286  0.38738405  1.0
  O  O66  1  0.32623678  0.54527588  0.49066743  1.0
  O  O67  1  0.31600205  0.41148792  0.49620990  1.0
  O  O68  1  0.48419673  0.58279326  0.61742670  1.0
  O  O69  1  0.50851558  0.44769657  0.60331387  1.0
  O  O70  1  0.68197252  0.41715039  0.47619492  1.0
  O  O71  1  0.68364630  0.55155769  0.50980471  1.0
