# generated using pymatgen
data_ZnHC4N11
_symmetry_space_group_name_H-M   'P 1'
_cell_length_a   14.64376030
_cell_length_b   14.68077574
_cell_length_c   14.68076960
_cell_angle_alpha   70.47783543
_cell_angle_beta   70.57981759
_cell_angle_gamma   109.42015470
_symmetry_Int_Tables_number   1
_chemical_formula_structural   ZnHC4N11
_chemical_formula_sum   'Zn6 H6 C24 N66'
_cell_volume   2431.09599962
_cell_formula_units_Z   6
loop_
 _symmetry_equiv_pos_site_id
 _symmetry_equiv_pos_as_xyz
  1  'x, y, z'
loop_
 _atom_site_type_symbol
 _atom_site_label
 _atom_site_symmetry_multiplicity
 _atom_site_fract_x
 _atom_site_fract_y
 _atom_site_fract_z
 _atom_site_occupancy
  Zn  Zn0  1  0.69294594  0.24564683  0.50732973  1.0
  Zn  Zn1  1  0.44729854  0.24702318  0.24564681  1.0
  Zn  Zn2  1  0.20027490  0.50732981  0.24702316  1.0
  Zn  Zn3  1  0.30705460  0.75435292  0.49267028  1.0
  Zn  Zn4  1  0.55270244  0.75297772  0.75435275  1.0
  Zn  Zn5  1  0.79972430  0.49266973  0.75297735  1.0
  H  H6  1  0.06776802  0.36181894  0.63933303  1.0
  H  H7  1  0.70595016  0.99884754  0.36181767  1.0
  H  H8  1  0.70710190  0.63933379  0.99884757  1.0
  H  H9  1  0.93223349  0.63818333  0.36066434  1.0
  H  H10  1  0.29405062  0.00115171  0.63818209  1.0
  H  H11  1  0.29289890  0.36066663  0.00115134  1.0
  C  C12  1  0.95049119  0.36710880  0.50034919  1.0
  C  C13  1  0.87449895  0.35813710  0.59803120  1.0
  C  C14  1  0.94807746  0.37732965  0.39971092  1.0
  C  C15  1  0.76937639  0.35792385  0.63028302  1.0
  C  C16  1  0.58338435  0.13254264  0.36710765  1.0
  C  C17  1  0.51636354  0.04383218  0.35813575  1.0
  C  C18  1  0.57074951  0.22295977  0.37732871  1.0
  C  C19  1  0.41145317  0.01179301  0.35792346  1.0
  C  C20  1  0.45084058  0.50034890  0.13254297  1.0
  C  C21  1  0.47253212  0.59803220  0.04383150  1.0
  C  C22  1  0.34778926  0.39971122  0.22295927  1.0
  C  C23  1  0.39965997  0.63028258  0.01179464  1.0
  C  C24  1  0.04950870  0.63289144  0.49965063  1.0
  C  C25  1  0.12550008  0.64186197  0.40196864  1.0
  C  C26  1  0.05192201  0.62267058  0.60028848  1.0
  C  C27  1  0.23062213  0.64207502  0.36971816  1.0
  C  C28  1  0.41661566  0.86745574  0.63289455  1.0
  C  C29  1  0.48363650  0.95616737  0.64186559  1.0
  C  C30  1  0.42925052  0.77703977  0.62267264  1.0
  C  C31  1  0.58854669  0.98820606  0.64207722  1.0
  C  C32  1  0.54915904  0.49965065  0.86745795  1.0
  C  C33  1  0.52746776  0.40196802  0.95616833  1.0
  C  C34  1  0.65221104  0.60028901  0.77704097  1.0
  C  C35  1  0.60033965  0.36971697  0.98820629  1.0
  N  N36  1  0.03990256  0.37068166  0.50977045  1.0
  N  N37  1  0.01552983  0.36338427  0.60823296  1.0
  N  N38  1  0.91890408  0.35557382  0.66535803  1.0
  N  N39  1  0.73336938  0.39939481  0.69457183  1.0
  N  N40  1  0.63102313  0.38070658  0.70881967  1.0
  N  N41  1  0.60583359  0.33084071  0.65513902  1.0
  N  N42  1  0.69137014  0.31587081  0.60433839  1.0
  N  N43  1  0.03899524  0.42942624  0.29875438  1.0
  N  N44  1  0.00182817  0.42012623  0.22719794  1.0
  N  N45  1  0.89317178  0.36559605  0.28184575  1.0
  N  N46  1  0.85680921  0.33759057  0.39054275  1.0
  N  N47  1  0.66922240  0.11954849  0.37068026  1.0
  N  N48  1  0.65214651  0.02838287  0.36338294  1.0
  N  N49  1  0.56333040  0.97906881  0.35557346  1.0
  N  N50  1  0.33397397  0.90603334  0.39939589  1.0
  N  N51  1  0.25031770  0.91047564  0.38070714  1.0
  N  N52  1  0.27499363  0.01402121  0.33084026  1.0
  N  N53  1  0.37550000  0.07979125  0.31587060  1.0
  N  N54  1  0.60956860  0.27181817  0.42942696  1.0
  N  N55  1  0.58170221  0.35267588  0.42012633  1.0
  N  N56  1  0.52757581  0.35255682  0.36559623  1.0
  N  N57  1  0.51921957  0.27186665  0.33758946  1.0
  N  N58  1  0.54967326  0.50977037  0.11954878  1.0
  N  N59  1  0.62376354  0.60823373  0.02838156  1.0
  N  N60  1  0.58426148  0.66535748  0.97906849  1.0
  N  N61  1  0.42794292  0.69457294  0.90603351  1.0
  N  N62  1  0.33984302  0.70882005  0.91047440  1.0
  N  N63  1  0.26097266  0.65513841  0.01402109  1.0
  N  N64  1  0.29570840  0.60433678  0.07979178  1.0
  N  N65  1  0.33774962  0.29875495  0.27181823  1.0
  N  N66  1  0.22902713  0.22719834  0.35267469  1.0
  N  N67  1  0.17501823  0.28184608  0.35255714  1.0
  N  N68  1  0.24735297  0.39054414  0.27186646  1.0
  N  N69  1  0.96009735  0.62931973  0.49022851  1.0
  N  N70  1  0.98446963  0.63661596  0.39176645  1.0
  N  N71  1  0.08109627  0.64442429  0.33464217  1.0
  N  N72  1  0.26662896  0.60060357  0.30542870  1.0
  N  N73  1  0.36897631  0.61929248  0.29118060  1.0
  N  N74  1  0.39416544  0.66915836  0.34486082  1.0
  N  N75  1  0.30862812  0.68412738  0.39566389  1.0
  N  N76  1  0.96100446  0.57057349  0.70124480  1.0
  N  N77  1  0.99817148  0.57987449  0.77280211  1.0
  N  N78  1  0.10682837  0.63440486  0.71815298  1.0
  N  N79  1  0.14318984  0.66240966  0.60945624  1.0
  N  N80  1  0.33077737  0.88045037  0.62932218  1.0
  N  N81  1  0.34785287  0.97161716  0.63661822  1.0
  N  N82  1  0.43666990  0.02093142  0.64442678  1.0
  N  N83  1  0.66602523  0.09396621  0.60060461  1.0
  N  N84  1  0.74968440  0.08952711  0.61929130  1.0
  N  N85  1  0.72500761  0.98598037  0.66915821  1.0
  N  N86  1  0.62450099  0.92020967  0.68412896  1.0
  N  N87  1  0.39043033  0.72818069  0.57057465  1.0
  N  N88  1  0.41829919  0.64732503  0.57987365  1.0
  N  N89  1  0.47242583  0.64744360  0.63440352  1.0
  N  N90  1  0.48078183  0.72813425  0.66241052  1.0
  N  N91  1  0.45032702  0.49022870  0.88045232  1.0
  N  N92  1  0.37623685  0.39176670  0.97161693  1.0
  N  N93  1  0.41573883  0.33464276  0.02093175  1.0
  N  N94  1  0.57205889  0.30542796  0.09396690  1.0
  N  N95  1  0.66015704  0.29118067  0.08952608  1.0
  N  N96  1  0.73902722  0.34486182  0.98597874  1.0
  N  N97  1  0.70429170  0.39566180  0.92020867  1.0
  N  N98  1  0.66225075  0.70124432  0.72818111  1.0
  N  N99  1  0.77097484  0.77280180  0.64732306  1.0
  N  N100  1  0.82498214  0.71815319  0.64744220  1.0
  N  N101  1  0.75264706  0.60945541  0.72813488  1.0
