# generated using pymatgen
data_Al2H18C30(SO7)3
_symmetry_space_group_name_H-M   'P 1'
_cell_length_a   4.18014327
_cell_length_b   16.92484541
_cell_length_c   16.92391564
_cell_angle_alpha   59.99858156
_cell_angle_beta   89.99866988
_cell_angle_gamma   90.00059424
_symmetry_Int_Tables_number   1
_chemical_formula_structural   Al2H18C30(SO7)3
_chemical_formula_sum   'Al2 H18 C30 S3 O21'
_cell_volume   1036.91021608
_cell_formula_units_Z   1
loop_
 _symmetry_equiv_pos_site_id
 _symmetry_equiv_pos_as_xyz
  1  'x, y, z'
loop_
 _atom_site_type_symbol
 _atom_site_label
 _atom_site_symmetry_multiplicity
 _atom_site_fract_x
 _atom_site_fract_y
 _atom_site_fract_z
 _atom_site_occupancy
  Al  Al0  1  0.86232389  0.50000489  0.99998982  1.0
  Al  Al1  1  0.13176242  0.16666695  0.66667193  1.0
  H  H2  1  0.39662539  0.14674596  0.43012400  1.0
  H  H3  1  0.98287004  0.44891489  0.38656316  1.0
  H  H4  1  0.58338597  0.46745173  0.41024303  1.0
  H  H5  1  0.45812494  0.54804207  0.24265863  1.0
  H  H6  1  0.85428619  0.52682166  0.21911655  1.0
  H  H7  1  0.39674781  0.42312230  0.64673276  1.0
  H  H8  1  0.98288510  0.16450341  0.94892466  1.0
  H  H9  1  0.58340968  0.12230567  0.96744827  1.0
  H  H10  1  0.45809630  0.20929728  0.04803286  1.0
  H  H11  1  0.85430171  0.25404712  0.02682087  1.0
  H  H12  1  0.39666547  0.93010502  0.92316299  1.0
  H  H13  1  0.98284049  0.88659027  0.66449992  1.0
  H  H14  1  0.58336497  0.91025970  0.62229923  1.0
  H  H15  1  0.45811494  0.74267569  0.70929104  1.0
  H  H16  1  0.85431281  0.71914216  0.75404168  1.0
  H  H17  1  0.79489173  0.22023160  0.18954027  1.0
  H  H18  1  0.79495652  0.59021675  0.72023386  1.0
  H  H19  1  0.79493177  0.68953136  0.09024834  1.0
  C  C20  1  0.36924240  0.63569952  0.95455503  1.0
  C  C21  1  0.36923130  0.40975769  0.13568052  1.0
  C  C22  1  0.36927353  0.45453992  0.90975371  1.0
  C  C23  1  0.62348490  0.21765050  0.53069836  1.0
  C  C24  1  0.62345465  0.25165500  0.71766918  1.0
  C  C25  1  0.62347178  0.03069220  0.75164143  1.0
  C  C26  1  0.57354079  0.26651217  0.43039019  1.0
  C  C27  1  0.43013433  0.35829267  0.23688724  1.0
  C  C28  1  0.62605725  0.35935051  0.37317674  1.0
  C  C29  1  0.38870595  0.26314544  0.29505776  1.0
  C  C30  1  0.54912062  0.40372416  0.28016450  1.0
  C  C31  1  0.44888710  0.21928204  0.38876120  1.0
  C  C32  1  0.73050232  0.44670882  0.36987365  1.0
  C  C33  1  0.64827746  0.49669484  0.26468230  1.0
  C  C34  1  0.57351943  0.30310489  0.76651839  1.0
  C  C35  1  0.43018384  0.40481322  0.85828264  1.0
  C  C36  1  0.62608835  0.26747274  0.85934791  1.0
  C  C37  1  0.38879176  0.44180940  0.76313360  1.0
  C  C38  1  0.54914819  0.31610753  0.90372189  1.0
  C  C39  1  0.44891669  0.39196500  0.71927261  1.0
  C  C40  1  0.73052762  0.18341451  0.94670804  1.0
  C  C41  1  0.64828795  0.23861588  0.99669379  1.0
  C  C42  1  0.57354400  0.93038896  0.80310385  1.0
  C  C43  1  0.43015487  0.73689999  0.90481146  1.0
  C  C44  1  0.62605608  0.87318718  0.76746831  1.0
  C  C45  1  0.38878819  0.79505127  0.94180870  1.0
  C  C46  1  0.54911543  0.78017752  0.81610028  1.0
  C  C47  1  0.44892090  0.88875778  0.89197128  1.0
  C  C48  1  0.73049115  0.86989087  0.68340713  1.0
  C  C49  1  0.64828710  0.76470161  0.73860647  1.0
  S  S50  1  0.25272990  0.18945411  0.25573714  1.0
  S  S51  1  0.25281832  0.55482052  0.68943878  1.0
  S  S52  1  0.25281626  0.75570886  0.05482983  1.0
  O  O53  1  0.11759370  0.43367334  0.95810866  1.0
  O  O54  1  0.11754772  0.60821364  0.93368942  1.0
  O  O55  1  0.11752883  0.45809761  0.10819905  1.0
  O  O56  1  0.58523226  0.51023404  0.90413853  1.0
  O  O57  1  0.58517372  0.40415815  0.08558815  1.0
  O  O58  1  0.58517073  0.58561884  0.01025359  1.0
  O  O59  1  0.40784592  0.07903595  0.76094386  1.0
  O  O60  1  0.40787381  0.15999382  0.57904604  1.0
  O  O61  1  0.40780946  0.26093694  0.66003624  1.0
  O  O62  1  0.87437645  0.06017021  0.70253469  1.0
  O  O63  1  0.87441389  0.20257887  0.73728384  1.0
  O  O64  1  0.87438467  0.23727814  0.56017578  1.0
  O  O65  1  0.51915104  0.16864889  0.21247965  1.0
  O  O66  1  0.09552385  0.11220033  0.32900936  1.0
  O  O67  1  0.02459823  0.25163842  0.17707201  1.0
  O  O68  1  0.51922160  0.61889143  0.66864015  1.0
  O  O69  1  0.09568982  0.55878868  0.61219220  1.0
  O  O70  1  0.02469078  0.57130815  0.75162793  1.0
  O  O71  1  0.51920846  0.71245214  0.11889846  1.0
  O  O72  1  0.09561194  0.82898776  0.05879774  1.0
  O  O73  1  0.02465395  0.67704674  0.07132380  1.0
