# generated using pymatgen
data_Zn2H26C37(N4F)2
_symmetry_space_group_name_H-M   'P 1'
_cell_length_a   15.40971845
_cell_length_b   17.69683989
_cell_length_c   18.52658498
_cell_angle_alpha   66.56951554
_cell_angle_beta   67.89602446
_cell_angle_gamma   83.22766902
_symmetry_Int_Tables_number   1
_chemical_formula_structural   Zn2H26C37(N4F)2
_chemical_formula_sum   'Zn4 H52 C74 N16 F4'
_cell_volume   4291.97060990
_cell_formula_units_Z   2
loop_
 _symmetry_equiv_pos_site_id
 _symmetry_equiv_pos_as_xyz
  1  'x, y, z'
loop_
 _atom_site_type_symbol
 _atom_site_label
 _atom_site_symmetry_multiplicity
 _atom_site_fract_x
 _atom_site_fract_y
 _atom_site_fract_z
 _atom_site_occupancy
  Zn  Zn0  1  0.37179016  0.10440124  0.01348163  1.0
  Zn  Zn1  1  0.61186684  0.94767302  0.98459016  1.0
  Zn  Zn2  1  0.46738925  0.99637013  0.89362948  1.0
  Zn  Zn3  1  0.53030117  0.05640480  0.10039893  1.0
  H  H4  1  0.14739307  0.07590596  0.04745723  1.0
  H  H5  1  0.26365222  0.83935672  0.41485447  1.0
  H  H6  1  0.08473985  0.94429663  0.27067624  1.0
  H  H7  1  0.94648624  0.90768468  0.40243724  1.0
  H  H8  1  0.84190821  0.79501735  0.55027195  1.0
  H  H9  1  0.90147644  0.94448324  0.70414258  1.0
  H  H10  1  0.03338323  0.91695684  0.59210465  1.0
  H  H11  1  0.47117395  0.44902041  0.37799150  1.0
  H  H12  1  0.51905067  0.57733901  0.25310251  1.0
  H  H13  1  0.42779585  0.71592259  0.41251326  1.0
  H  H14  1  0.38077246  0.58795072  0.53736575  1.0
  H  H15  1  0.78954088  0.89942851  0.84730051  1.0
  H  H16  1  0.31898008  0.47108886  0.63834069  1.0
  H  H17  1  0.33664883  0.84090462  0.98923151  1.0
  H  H18  1  0.53282717  0.37088866  0.47190386  1.0
  H  H19  1  0.49360084  0.60902055  0.13532860  1.0
  H  H20  1  0.32585842  0.71777834  0.98070602  1.0
  H  H21  1  0.52350323  0.45976752  0.17820148  1.0
  H  H22  1  0.30487348  0.58340964  0.97865373  1.0
  H  H23  1  0.51252663  0.32752790  0.16678195  1.0
  H  H24  1  0.34776797  0.43718799  0.00961598  1.0
  H  H25  1  0.79134924  0.84234790  0.01995472  1.0
  H  H26  1  0.54604076  0.13753728  0.71646040  1.0
  H  H27  1  0.37919465  0.95273307  0.29952292  1.0
  H  H28  1  0.69427455  0.90167091  0.24096738  1.0
  H  H29  1  0.85256981  0.96001710  0.20140337  1.0
  H  H30  1  0.11363256  0.93170397  0.88279905  1.0
  H  H31  1  0.01638156  0.98932204  0.10623517  1.0
  H  H32  1  0.55620644  0.74551759  0.09048383  1.0
  H  H33  1  0.22500669  0.95632958  0.14507834  1.0
  H  H34  1  0.43279259  0.83145486  0.28500528  1.0
  H  H35  1  0.30221797  0.28631068  0.04865819  1.0
  H  H36  1  0.77493858  0.53855905  0.18382767  1.0
  H  H37  1  0.73226252  0.13428578  0.06868116  1.0
  H  H38  1  0.86243682  0.61855278  0.11830055  1.0
  H  H39  1  0.86008543  0.55322027  0.22077502  1.0
  H  H40  1  0.79294267  0.69156358  0.21910512  1.0
  H  H41  1  0.70619717  0.61156142  0.28550531  1.0
  H  H42  1  0.64978644  0.64048486  0.16701704  1.0
  H  H43  1  0.73533603  0.71984023  0.10117261  1.0
  H  H44  1  0.50715719  0.75464358  0.81335385  1.0
  H  H45  1  0.53501786  0.68191238  0.76460112  1.0
  H  H46  1  0.53597219  0.65340408  0.86765785  1.0
  H  H47  1  0.70172600  0.67951347  0.76522395  1.0
  H  H48  1  0.80878501  0.03665494  0.87429368  1.0
  H  H49  1  0.67043215  0.75445556  0.80993410  1.0
  H  H50  1  0.62999469  0.84679096  0.67833619  1.0
  H  H51  1  0.68427822  0.77470632  0.63357175  1.0
  H  H52  1  0.40201356  0.27867246  0.86936005  1.0
  H  H53  1  0.56233882  0.23491251  0.09533234  1.0
  H  H54  1  0.59262838  0.94401287  0.71986644  1.0
  H  H55  1  0.12518096  0.80561861  0.54656241  1.0
  C  C56  1  0.19335002  0.04818827  0.00450030  1.0
  C  C57  1  0.43789179  0.23333998  0.84375170  1.0
  C  C58  1  0.49801461  0.23450772  0.08423664  1.0
  C  C59  1  0.62235483  0.74692177  0.19629484  1.0
  C  C60  1  0.62958985  0.93531645  0.76200846  1.0
  C  C61  1  0.43045203  0.29491591  0.07673715  1.0
  C  C62  1  0.72114298  0.90915541  0.75590323  1.0
  C  C63  1  0.46776258  0.23704763  0.76039037  1.0
  C  C64  1  0.81447435  0.10188361  0.95557691  1.0
  C  C65  1  0.11618874  0.83608887  0.48590365  1.0
  C  C66  1  0.19427159  0.85560454  0.41155308  1.0
  C  C67  1  0.53109934  0.73425029  0.25574011  1.0
  C  C68  1  0.18546511  0.89819028  0.33249182  1.0
  C  C69  1  0.09422492  0.91196649  0.33096094  1.0
  C  C70  1  0.01597380  0.89122839  0.40530378  1.0
  C  C71  1  0.39477997  0.83066734  0.01116447  1.0
  C  C72  1  0.02578462  0.85696389  0.48437001  1.0
  C  C73  1  0.85504693  0.82818983  0.58408743  1.0
  C  C74  1  0.77954848  0.84005841  0.64995400  1.0
  C  C75  1  0.79571946  0.88579777  0.69174851  1.0
  C  C76  1  0.88832621  0.90996849  0.67165369  1.0
  C  C77  1  0.96276477  0.89452148  0.60866353  1.0
  C  C78  1  0.43420610  0.75635090  0.04801083  1.0
  C  C79  1  0.94681666  0.85643716  0.56097829  1.0
  C  C80  1  0.46301741  0.50741203  0.38636349  1.0
  C  C81  1  0.49015741  0.58045488  0.31525868  1.0
  C  C82  1  0.48329074  0.65706346  0.32287983  1.0
  C  C83  1  0.35426953  0.95930659  0.24983887  1.0
  C  C84  1  0.43637869  0.65741347  0.40434523  1.0
  C  C85  1  0.40970391  0.58460214  0.47525438  1.0
  C  C86  1  0.42833582  0.50750944  0.46832292  1.0
  C  C87  1  0.37175230  0.42666689  0.62577747  1.0
  C  C88  1  0.38621437  0.36348967  0.69374084  1.0
  C  C89  1  0.26750747  0.93439049  0.25571562  1.0
  C  C90  1  0.45195328  0.30151900  0.68776784  1.0
  C  C91  1  0.49888872  0.30750748  0.60409068  1.0
  C  C92  1  0.48803093  0.36976218  0.53389406  1.0
  C  C93  1  0.42556740  0.43282532  0.54312453  1.0
  C  C94  1  0.41306604  0.67372043  0.05742621  1.0
  C  C95  1  0.50657954  0.78195255  0.06308368  1.0
  C  C96  1  0.43023465  0.37326579  0.08590574  1.0
  C  C97  1  0.48504479  0.45499506  0.14115439  1.0
  C  C98  1  0.47936669  0.38131976  0.13430701  1.0
  C  C99  1  0.38509191  0.44130845  0.04777858  1.0
  C  C100  1  0.36613395  0.26103712  0.05922108  1.0
  C  C101  1  0.38932929  0.51786371  0.05390705  1.0
  C  C102  1  0.44208431  0.52599174  0.10005449  1.0
  C  C103  1  0.45202331  0.60402207  0.10089017  1.0
  C  C104  1  0.35742812  0.66394515  0.01496733  1.0
  C  C105  1  0.34592823  0.58883206  0.01334330  1.0
  C  C106  1  0.73470623  0.86699448  0.13373500  1.0
  C  C107  1  0.27484708  0.96248281  0.17118292  1.0
  C  C108  1  0.07654475  0.96536757  0.99235531  1.0
  C  C109  1  0.97090605  0.90061182  0.96382814  1.0
  C  C110  1  0.05882768  0.93204766  0.94063076  1.0
  C  C111  1  0.73029191  0.91447540  0.82635540  1.0
  C  C112  1  0.00412218  0.96497824  0.06514628  1.0
  C  C113  1  0.91383605  0.93276331  0.08876794  1.0
  C  C114  1  0.89523935  0.89856925  0.03749016  1.0
  C  C115  1  0.80458033  0.86634965  0.06073452  1.0
  C  C116  1  0.75191975  0.90128835  0.18465499  1.0
  C  C117  1  0.83934217  0.93327127  0.16248712  1.0
  C  C118  1  0.50181267  0.81436051  0.25221543  1.0
  C  C119  1  0.25745049  0.98516035  0.91851216  1.0
  C  C120  1  0.16917098  0.99827048  0.97117072  1.0
  C  C121  1  0.68977763  0.68789199  0.16723324  1.0
  C  C122  1  0.51160101  0.16140849  0.76549618  1.0
  C  C123  1  0.75148928  0.64474638  0.21948553  1.0
  C  C124  1  0.81590965  0.58546431  0.18387716  1.0
  C  C125  1  0.68430101  0.80047198  0.67872629  1.0
  C  C126  1  0.65616057  0.73195831  0.76787714  1.0
  C  C127  1  0.55318700  0.70376894  0.80524714  1.0
  C  C128  1  0.73810916  0.10348740  0.02655756  1.0
  C  C129  1  0.77750976  0.05445653  0.92838973  1.0
  N  N130  1  0.28661473  0.06145920  0.97470952  1.0
  N  N131  1  0.44085838  0.89531645  0.00376881  1.0
  N  N132  1  0.40771457  0.99874781  0.16835005  1.0
  N  N133  1  0.50946159  0.86472423  0.03667137  1.0
  N  N134  1  0.35887228  0.00175351  0.11933449  1.0
  N  N135  1  0.56861753  0.87217176  0.19883426  1.0
  N  N136  1  0.32737611  0.02141340  0.92023001  1.0
  N  N137  1  0.39278637  0.18595605  0.05825046  1.0
  N  N138  1  0.65076948  0.94087190  0.87055324  1.0
  N  N139  1  0.50533673  0.11619372  0.84570651  1.0
  N  N140  1  0.66229099  0.05779200  0.04328542  1.0
  N  N141  1  0.68678755  0.02711953  0.98074415  1.0
  N  N142  1  0.46025632  0.16087261  0.89374920  1.0
  N  N143  1  0.47502699  0.17015261  0.07298212  1.0
  N  N144  1  0.58804919  0.95358089  0.83112452  1.0
  N  N145  1  0.64300171  0.83082452  0.16413782  1.0
  F  F146  1  0.33256638  0.36201882  0.77232462  1.0
  F  F147  1  0.56281501  0.24953162  0.59000301  1.0
  F  F148  1  0.95438120  0.86935345  0.91310498  1.0
  F  F149  1  0.27856739  0.93983972  0.87049110  1.0
