# generated using pymatgen
data_Ag2H8C17(O2F3)2
_symmetry_space_group_name_H-M   'P 1'
_cell_length_a   6.61947997
_cell_length_b   31.36205622
_cell_length_c   31.36262144
_cell_angle_alpha   89.99982009
_cell_angle_beta   89.99989060
_cell_angle_gamma   89.99995712
_symmetry_Int_Tables_number   1
_chemical_formula_structural   Ag2H8C17(O2F3)2
_chemical_formula_sum   'Ag16 H64 C136 O32 F48'
_cell_volume   6510.89598524
_cell_formula_units_Z   8
loop_
 _symmetry_equiv_pos_site_id
 _symmetry_equiv_pos_as_xyz
  1  'x, y, z'
loop_
 _atom_site_type_symbol
 _atom_site_label
 _atom_site_symmetry_multiplicity
 _atom_site_fract_x
 _atom_site_fract_y
 _atom_site_fract_z
 _atom_site_occupancy
  Ag  Ag0  1  0.00643345  0.56980175  0.51970694  1.0
  Ag  Ag1  1  0.67803180  0.53535600  0.47734274  1.0
  Ag  Ag2  1  0.00644261  0.93019672  0.98029287  1.0
  Ag  Ag3  1  0.67804374  0.96464394  0.02265813  1.0
  Ag  Ag4  1  0.49358917  0.51971283  0.93019366  1.0
  Ag  Ag5  1  0.82196231  0.47734149  0.96464231  1.0
  Ag  Ag6  1  0.49359606  0.98028939  0.56980182  1.0
  Ag  Ag7  1  0.82200907  0.02265514  0.53536099  1.0
  Ag  Ag8  1  0.50641012  0.48028724  0.06980390  1.0
  Ag  Ag9  1  0.17802338  0.52265699  0.03535844  1.0
  Ag  Ag10  1  0.50642890  0.01971005  0.43019606  1.0
  Ag  Ag11  1  0.17805970  0.97733632  0.46464390  1.0
  Ag  Ag12  1  0.99355677  0.43019769  0.48029222  1.0
  Ag  Ag13  1  0.32195389  0.46464535  0.52265801  1.0
  Ag  Ag14  1  0.99358537  0.06980750  0.01971202  1.0
  Ag  Ag15  1  0.32195857  0.03535773  0.97734229  1.0
  H  H16  1  0.06250889  0.70212479  0.45873446  1.0
  H  H17  1  0.95574675  0.77155135  0.42804382  1.0
  H  H18  1  0.41964608  0.71221129  0.37744397  1.0
  H  H19  1  0.52853377  0.64380596  0.40869719  1.0
  H  H20  1  0.57653093  0.79394653  0.46652597  1.0
  H  H21  1  0.58877021  0.85708581  0.51373557  1.0
  H  H22  1  0.80700523  0.93348656  0.40956236  1.0
  H  H23  1  0.77040754  0.87226329  0.36129609  1.0
  H  H24  1  0.06251979  0.79787651  0.04127080  1.0
  H  H25  1  0.95576366  0.72844982  0.07196205  1.0
  H  H26  1  0.41966529  0.78778837  0.12256210  1.0
  H  H27  1  0.52854396  0.85619496  0.09131044  1.0
  H  H28  1  0.57652262  0.70605852  0.03347749  1.0
  H  H29  1  0.58876079  0.64292341  0.98626242  1.0
  H  H30  1  0.80697274  0.56651431  0.09043273  1.0
  H  H31  1  0.77039096  0.62773535  0.13870252  1.0
  H  H32  1  0.43749186  0.45873809  0.79787734  1.0
  H  H33  1  0.54424687  0.42804951  0.72844981  1.0
  H  H34  1  0.08034014  0.37744116  0.78778749  1.0
  H  H35  1  0.97145054  0.40868894  0.85619578  1.0
  H  H36  1  0.92347306  0.46652946  0.70605551  1.0
  H  H37  1  0.91124422  0.51374011  0.64291786  1.0
  H  H38  1  0.69302825  0.40956532  0.56651501  1.0
  H  H39  1  0.72961401  0.36129670  0.62773828  1.0
  H  H40  1  0.43747349  0.04126306  0.70212260  1.0
  H  H41  1  0.54422620  0.07195353  0.77155009  1.0
  H  H42  1  0.08034553  0.12255175  0.71221194  1.0
  H  H43  1  0.97146426  0.09129969  0.64380746  1.0
  H  H44  1  0.92347348  0.03347162  0.79394265  1.0
  H  H45  1  0.91126493  0.98626109  0.85708129  1.0
  H  H46  1  0.69301199  0.09043292  0.93348228  1.0
  H  H47  1  0.72958153  0.13869994  0.87226028  1.0
  H  H48  1  0.56252253  0.54126390  0.20212118  1.0
  H  H49  1  0.45576601  0.57195375  0.27154838  1.0
  H  H50  1  0.91964403  0.62254839  0.21221325  1.0
  H  H51  1  0.02852608  0.59130029  0.14380656  1.0
  H  H52  1  0.07654133  0.53347029  0.29394333  1.0
  H  H53  1  0.08875355  0.48625900  0.35708034  1.0
  H  H54  1  0.30698463  0.59043316  0.43348223  1.0
  H  H55  1  0.27041247  0.63869986  0.37226024  1.0
  H  H56  1  0.56251824  0.95873223  0.29787623  1.0
  H  H57  1  0.45575496  0.92804463  0.22845034  1.0
  H  H58  1  0.91962958  0.87745247  0.28778785  1.0
  H  H59  1  0.02852444  0.90869910  0.35619456  1.0
  H  H60  1  0.07652883  0.96653005  0.20605809  1.0
  H  H61  1  0.08877816  0.01374281  0.14292201  1.0
  H  H62  1  0.30698578  0.90956810  0.06651719  1.0
  H  H63  1  0.27037848  0.86129822  0.12773824  1.0
  H  H64  1  0.93747529  0.29787942  0.54126629  1.0
  H  H65  1  0.04422383  0.22845287  0.57195629  1.0
  H  H66  1  0.58034263  0.28778751  0.62255231  1.0
  H  H67  1  0.47146551  0.35619571  0.59130292  1.0
  H  H68  1  0.42344116  0.20605737  0.53347063  1.0
  H  H69  1  0.41123361  0.14291777  0.48626007  1.0
  H  H70  1  0.19304844  0.06651032  0.59043743  1.0
  H  H71  1  0.22961138  0.12773455  0.63870306  1.0
  H  H72  1  0.93748101  0.20212389  0.95873250  1.0
  H  H73  1  0.04423260  0.27155057  0.92804061  1.0
  H  H74  1  0.58032946  0.21221171  0.87743833  1.0
  H  H75  1  0.47145079  0.14380416  0.90869126  1.0
  H  H76  1  0.42346458  0.29394187  0.96652326  1.0
  H  H77  1  0.41122943  0.35707794  0.01373737  1.0
  H  H78  1  0.19303259  0.43348767  0.90956515  1.0
  H  H79  1  0.22962192  0.37226695  0.86129600  1.0
  C  C80  1  0.84809342  0.62632200  0.45549841  1.0
  C  C81  1  0.79958509  0.66853387  0.43576786  1.0
  C  C82  1  0.92160214  0.70464309  0.44094815  1.0
  C  C83  1  0.86117595  0.74356500  0.42364757  1.0
  C  C84  1  0.67943670  0.74730204  0.40094350  1.0
  C  C85  1  0.55967210  0.71092148  0.39542044  1.0
  C  C86  1  0.61962695  0.67226039  0.41280775  1.0
  C  C87  1  0.62382509  0.79051194  0.38089856  1.0
  C  C88  1  0.39235831  0.79428213  0.37212414  1.0
  C  C89  1  0.73487632  0.79274655  0.33701222  1.0
  C  C90  1  0.67281362  0.82836974  0.41030834  1.0
  C  C91  1  0.62585354  0.82451342  0.45378942  1.0
  C  C92  1  0.63410625  0.85979837  0.48047973  1.0
  C  C93  1  0.69819890  0.89944790  0.46483651  1.0
  C  C94  1  0.68667815  0.93747948  0.49334587  1.0
  C  C95  1  0.75633962  0.90292190  0.42213312  1.0
  C  C96  1  0.73827042  0.86793253  0.39497473  1.0
  C  C97  1  0.84810551  0.87367919  0.04450623  1.0
  C  C98  1  0.79958809  0.83146733  0.06423584  1.0
  C  C99  1  0.92160532  0.79535872  0.05905646  1.0
  C  C100  1  0.86118062  0.75643460  0.07635674  1.0
  C  C101  1  0.67945779  0.75269821  0.09906088  1.0
  C  C102  1  0.55969602  0.78908071  0.10458558  1.0
  C  C103  1  0.61964182  0.82774146  0.08719888  1.0
  C  C104  1  0.62382803  0.70948832  0.11910393  1.0
  C  C105  1  0.39235815  0.70572008  0.12787748  1.0
  C  C106  1  0.73486977  0.70724924  0.16299150  1.0
  C  C107  1  0.67280490  0.67163179  0.08969285  1.0
  C  C108  1  0.62584220  0.67549258  0.04621180  1.0
  C  C109  1  0.63408322  0.64020763  0.01951893  1.0
  C  C110  1  0.69817285  0.60055618  0.03515989  1.0
  C  C111  1  0.68663590  0.56252364  0.00664958  1.0
  C  C112  1  0.75631770  0.59707993  0.07786231  1.0
  C  C113  1  0.73825264  0.63206899  0.10502517  1.0
  C  C114  1  0.65190563  0.45549805  0.87367804  1.0
  C  C115  1  0.70040666  0.43576631  0.83146731  1.0
  C  C116  1  0.57839573  0.44095003  0.79535842  1.0
  C  C117  1  0.63882214  0.42365084  0.75643566  1.0
  C  C118  1  0.82055098  0.40094505  0.75269682  1.0
  C  C119  1  0.94031098  0.39541888  0.78907929  1.0
  C  C120  1  0.88035892  0.41280384  0.82774026  1.0
  C  C121  1  0.87617494  0.38090114  0.70948904  1.0
  C  C122  1  0.10764481  0.37212531  0.70572070  1.0
  C  C123  1  0.76512401  0.33701436  0.70725271  1.0
  C  C124  1  0.82719840  0.41031127  0.67163120  1.0
  C  C125  1  0.87415516  0.45379278  0.67549017  1.0
  C  C126  1  0.86591143  0.48048433  0.64020450  1.0
  C  C127  1  0.80183109  0.46483874  0.60055447  1.0
  C  C128  1  0.81337593  0.49334873  0.56252125  1.0
  C  C129  1  0.74368010  0.42213842  0.59707843  1.0
  C  C130  1  0.76175240  0.39497561  0.63206981  1.0
  C  C131  1  0.65190308  0.04449892  0.62632309  1.0
  C  C132  1  0.70040816  0.06422970  0.66853476  1.0
  C  C133  1  0.57838633  0.05904855  0.70464051  1.0
  C  C134  1  0.63881230  0.07634997  0.74356420  1.0
  C  C135  1  0.82054706  0.09905445  0.74730202  1.0
  C  C136  1  0.94031192  0.10457582  0.71091951  1.0
  C  C137  1  0.88036483  0.08718959  0.67225983  1.0
  C  C138  1  0.87616599  0.11909899  0.79051042  1.0
  C  C139  1  0.10763277  0.12787301  0.79427682  1.0
  C  C140  1  0.76511185  0.16298546  0.79274679  1.0
  C  C141  1  0.82719222  0.08968791  0.82836796  1.0
  C  C142  1  0.87416278  0.04620767  0.82450801  1.0
  C  C143  1  0.86592032  0.01951612  0.85979433  1.0
  C  C144  1  0.80182745  0.03515917  0.89944406  1.0
  C  C145  1  0.81337506  0.00664950  0.93747823  1.0
  C  C146  1  0.74366569  0.07786013  0.90291916  1.0
  C  C147  1  0.76173369  0.10502199  0.86792905  1.0
  C  C148  1  0.34809970  0.54449756  0.12632238  1.0
  C  C149  1  0.29959263  0.56423026  0.16853184  1.0
  C  C150  1  0.42160960  0.55904973  0.20464010  1.0
  C  C151  1  0.36118771  0.57634956  0.24356253  1.0
  C  C152  1  0.17945132  0.59905407  0.24730170  1.0
  C  C153  1  0.05968226  0.60457482  0.21092018  1.0
  C  C154  1  0.11963281  0.58718986  0.17225985  1.0
  C  C155  1  0.12383643  0.61909861  0.29051043  1.0
  C  C156  1  0.89236807  0.62787476  0.29427941  1.0
  C  C157  1  0.23489340  0.66298571  0.29274645  1.0
  C  C158  1  0.17281599  0.58968625  0.32836764  1.0
  C  C159  1  0.12585772  0.54620570  0.32450803  1.0
  C  C160  1  0.13409087  0.51951415  0.35979466  1.0
  C  C161  1  0.19816668  0.53515878  0.39944373  1.0
  C  C162  1  0.18661126  0.50665039  0.43747759  1.0
  C  C163  1  0.25633429  0.57786038  0.40291817  1.0
  C  C164  1  0.23826955  0.60502192  0.36792903  1.0
  C  C165  1  0.34810224  0.95549828  0.37367798  1.0
  C  C166  1  0.29958659  0.93576910  0.33146726  1.0
  C  C167  1  0.42160540  0.94094833  0.29535991  1.0
  C  C168  1  0.36116885  0.92364915  0.25643559  1.0
  C  C169  1  0.17943410  0.90094658  0.25269809  1.0
  C  C170  1  0.05966621  0.89542616  0.28908220  1.0
  C  C171  1  0.11962690  0.91281112  0.32774124  1.0
  C  C172  1  0.12381970  0.88090236  0.20948969  1.0
  C  C173  1  0.89235141  0.87212546  0.20572011  1.0
  C  C174  1  0.23487988  0.83701620  0.20725396  1.0
  C  C175  1  0.17280253  0.91031312  0.17163151  1.0
  C  C176  1  0.12585614  0.95379368  0.17549338  1.0
  C  C177  1  0.13411370  0.98048810  0.14020833  1.0
  C  C178  1  0.19819449  0.96484441  0.10055892  1.0
  C  C179  1  0.18665897  0.99335312  0.06252539  1.0
  C  C180  1  0.25633360  0.92214153  0.09708127  1.0
  C  C181  1  0.23825049  0.89497745  0.13206914  1.0
  C  C182  1  0.15189378  0.37368063  0.54450298  1.0
  C  C183  1  0.20040059  0.33146844  0.56423161  1.0
  C  C184  1  0.07838959  0.29536049  0.55905164  1.0
  C  C185  1  0.13881276  0.25643635  0.57634999  1.0
  C  C186  1  0.32055201  0.25269739  0.59905470  1.0
  C  C187  1  0.44031056  0.28907924  0.60457616  1.0
  C  C188  1  0.38036931  0.32774095  0.58719172  1.0
  C  C189  1  0.37615757  0.20948654  0.61909932  1.0
  C  C190  1  0.60762436  0.20571890  0.62787756  1.0
  C  C191  1  0.26509124  0.20725289  0.66298598  1.0
  C  C192  1  0.32718415  0.17163002  0.58968858  1.0
  C  C193  1  0.37413517  0.17548920  0.54620750  1.0
  C  C194  1  0.36589303  0.14020393  0.51951623  1.0
  C  C195  1  0.30182304  0.10055249  0.53516041  1.0
  C  C196  1  0.31337552  0.06251964  0.50665201  1.0
  C  C197  1  0.24367930  0.09707721  0.57786349  1.0
  C  C198  1  0.26174095  0.13206690  0.60502410  1.0
  C  C199  1  0.15188622  0.12632439  0.95549898  1.0
  C  C200  1  0.20039609  0.16853307  0.93576746  1.0
  C  C201  1  0.07839245  0.20464294  0.94094684  1.0
  C  C202  1  0.13882017  0.24356612  0.92364560  1.0
  C  C203  1  0.32054754  0.24730282  0.90094018  1.0
  C  C204  1  0.44030327  0.21091904  0.89541581  1.0
  C  C205  1  0.38035444  0.17225925  0.91280218  1.0
  C  C206  1  0.37617428  0.29051239  0.88089650  1.0
  C  C207  1  0.60764265  0.29427808  0.87212327  1.0
  C  C208  1  0.26512800  0.29274892  0.83700924  1.0
  C  C209  1  0.32719892  0.32836924  0.91030662  1.0
  C  C210  1  0.37415406  0.32450940  0.95378831  1.0
  C  C211  1  0.36590549  0.35979340  0.98048023  1.0
  C  C212  1  0.30182039  0.39944517  0.96483894  1.0
  C  C213  1  0.31335130  0.43747707  0.99334830  1.0
  C  C214  1  0.24367856  0.40292269  0.92213589  1.0
  C  C215  1  0.26175420  0.36793236  0.89497399  1.0
  O  O216  1  0.73229440  0.59544044  0.44545404  1.0
  O  O217  1  0.99742980  0.62502165  0.48154595  1.0
  O  O218  1  0.53934318  0.93684492  0.51969925  1.0
  O  O219  1  0.81644359  0.96767616  0.48934677  1.0
  O  O220  1  0.73230778  0.90456204  0.05455000  1.0
  O  O221  1  0.99743156  0.87497824  0.01845767  1.0
  O  O222  1  0.53931449  0.56316080  0.98029430  1.0
  O  O223  1  0.81638783  0.53232344  0.01065373  1.0
  O  O224  1  0.76768498  0.44544955  0.90456034  1.0
  O  O225  1  0.50259172  0.48155152  0.87497575  1.0
  O  O226  1  0.96071072  0.51970030  0.56315537  1.0
  O  O227  1  0.68360456  0.48934681  0.53232514  1.0
  O  O228  1  0.76769479  0.05454582  0.59544171  1.0
  O  O229  1  0.50258023  0.01844930  0.62502161  1.0
  O  O230  1  0.96071406  0.98029802  0.93684471  1.0
  O  O231  1  0.68360792  0.01065111  0.96767470  1.0
  O  O232  1  0.23229768  0.55454479  0.09544200  1.0
  O  O233  1  0.49741511  0.51844792  0.12502085  1.0
  O  O234  1  0.03927346  0.48029881  0.43684410  1.0
  O  O235  1  0.31638263  0.51065326  0.46767433  1.0
  O  O236  1  0.23231809  0.94544947  0.40455968  1.0
  O  O237  1  0.49742359  0.98154694  0.37497786  1.0
  O  O238  1  0.03933507  0.01970747  0.06316050  1.0
  O  O239  1  0.31642611  0.98935087  0.03232827  1.0
  O  O240  1  0.26768222  0.40456346  0.55454990  1.0
  O  O241  1  0.00257401  0.37497843  0.51845129  1.0
  O  O242  1  0.46070444  0.06315515  0.48029959  1.0
  O  O243  1  0.18362519  0.03231945  0.51065525  1.0
  O  O244  1  0.26767639  0.09544154  0.94545138  1.0
  O  O245  1  0.00257075  0.12502534  0.98154977  1.0
  O  O246  1  0.46068178  0.43684215  0.01970262  1.0
  O  O247  1  0.18359182  0.46767440  0.98934701  1.0
  F  F248  1  0.32942759  0.76927011  0.33938458  1.0
  F  F249  1  0.28541622  0.78275286  0.40763014  1.0
  F  F250  1  0.33719382  0.83482126  0.36269025  1.0
  F  F251  1  0.72079986  0.75563358  0.31510722  1.0
  F  F252  1  0.93450676  0.80107697  0.34263192  1.0
  F  F253  1  0.65891271  0.82402547  0.31118271  1.0
  F  F254  1  0.32941946  0.73072924  0.16061738  1.0
  F  F255  1  0.28542391  0.71725191  0.09237088  1.0
  F  F256  1  0.33718315  0.66517968  0.13730789  1.0
  F  F257  1  0.72078994  0.74436125  0.18490033  1.0
  F  F258  1  0.93450332  0.69891814  0.15737333  1.0
  F  F259  1  0.65889244  0.67596905  0.18881594  1.0
  F  F260  1  0.17056812  0.33938316  0.73073012  1.0
  F  F261  1  0.21458813  0.40763157  0.71725346  1.0
  F  F262  1  0.16282005  0.36269423  0.66518072  1.0
  F  F263  1  0.77919749  0.31510726  0.74436603  1.0
  F  F264  1  0.56549658  0.34263552  0.69892148  1.0
  F  F265  1  0.84109242  0.31118606  0.67597505  1.0
  F  F266  1  0.17055771  0.16061803  0.76926800  1.0
  F  F267  1  0.21457332  0.09236770  0.78274242  1.0
  F  F268  1  0.16281967  0.13730281  0.83481645  1.0
  F  F269  1  0.77919315  0.18489320  0.75563442  1.0
  F  F270  1  0.56547831  0.15736593  0.80107490  1.0
  F  F271  1  0.84107834  0.18881184  0.82402601  1.0
  F  F272  1  0.82944778  0.66061851  0.26926967  1.0
  F  F273  1  0.78542173  0.59237042  0.28274825  1.0
  F  F274  1  0.83719283  0.63730775  0.33481971  1.0
  F  F275  1  0.22081539  0.68489377  0.25563568  1.0
  F  F276  1  0.43452386  0.65736392  0.30107576  1.0
  F  F277  1  0.15893557  0.68881273  0.32402665  1.0
  F  F278  1  0.82942647  0.83938523  0.23073083  1.0
  F  F279  1  0.78541237  0.90763333  0.21724972  1.0
  F  F280  1  0.83718415  0.86269248  0.16518015  1.0
  F  F281  1  0.22080915  0.81510942  0.24436664  1.0
  F  F282  1  0.43451191  0.84263796  0.19892297  1.0
  F  F283  1  0.15892094  0.81118696  0.17597601  1.0
  F  F284  1  0.67054450  0.23072932  0.66061999  1.0
  F  F285  1  0.71458004  0.21724785  0.59237411  1.0
  F  F286  1  0.66279036  0.16517785  0.63731273  1.0
  F  F287  1  0.27915863  0.24436745  0.68489034  1.0
  F  F288  1  0.06545929  0.19892119  0.65736437  1.0
  F  F289  1  0.34105333  0.17597588  0.68881485  1.0
  F  F290  1  0.67057076  0.26926669  0.83938432  1.0
  F  F291  1  0.71457990  0.28274625  0.90763050  1.0
  F  F292  1  0.66281613  0.33481784  0.86269190  1.0
  F  F293  1  0.27919424  0.25563659  0.81510201  1.0
  F  F294  1  0.06549596  0.30108257  0.84262678  1.0
  F  F295  1  0.34110986  0.32402688  0.81118289  1.0
