# generated using pymatgen
data_MgH6C11NO3
_symmetry_space_group_name_H-M   'P 1'
_cell_length_a   6.85814360
_cell_length_b   35.17799310
_cell_length_c   35.17665734
_cell_angle_alpha   119.59232406
_cell_angle_beta   93.73436865
_cell_angle_gamma   93.71615534
_symmetry_Int_Tables_number   1
_chemical_formula_structural   MgH6C11NO3
_chemical_formula_sum   'Mg6 H36 C66 N6 O18'
_cell_volume   7317.78789744
_cell_formula_units_Z   6
loop_
 _symmetry_equiv_pos_site_id
 _symmetry_equiv_pos_as_xyz
  1  'x, y, z'
loop_
 _atom_site_type_symbol
 _atom_site_label
 _atom_site_symmetry_multiplicity
 _atom_site_fract_x
 _atom_site_fract_y
 _atom_site_fract_z
 _atom_site_occupancy
  Mg  Mg0  1  0.20149651  0.63370565  0.30793946  1.0
  Mg  Mg1  1  0.56776959  0.67422537  0.36632351  1.0
  Mg  Mg2  1  0.89348239  0.69208214  0.32582667  1.0
  Mg  Mg3  1  0.98294013  0.36522245  0.69394070  1.0
  Mg  Mg4  1  0.61772625  0.32871683  0.63476434  1.0
  Mg  Mg5  1  0.28907122  0.30605984  0.67126455  1.0
  H  H6  1  0.86383020  0.62549150  0.44010493  1.0
  H  H7  1  0.23793015  0.81458073  0.37451317  1.0
  H  H8  1  0.42378107  0.55991934  0.18540983  1.0
  H  H9  1  0.07107731  0.59180477  0.47352253  1.0
  H  H10  1  0.47887405  0.88170237  0.40814163  1.0
  H  H11  1  0.59756722  0.52649229  0.11828845  1.0
  H  H12  1  0.20607058  0.52685761  0.45072834  1.0
  H  H13  1  0.67931984  0.92390010  0.47313756  1.0
  H  H14  1  0.75564775  0.54924255  0.07610033  1.0
  H  H15  1  0.74901348  0.56069664  0.49084252  1.0
  H  H16  1  0.18854428  0.93011679  0.43928513  1.0
  H  H17  1  0.25861366  0.50918339  0.06983551  1.0
  H  H18  1  0.94117570  0.52872871  0.52929569  1.0
  H  H19  1  0.41266527  0.00054342  0.47129164  1.0
  H  H20  1  0.41229365  0.47074900  0.99939506  1.0
  H  H21  1  0.42132530  0.44680666  0.51785722  1.0
  H  H22  1  0.97461127  0.07106143  0.55319457  1.0
  H  H23  1  0.90358643  0.48213856  0.92890504  1.0
  H  H24  1  0.22903897  0.47883348  0.47949181  1.0
  H  H25  1  0.75035009  0.00066867  0.52115063  1.0
  H  H26  1  0.74962988  0.52046124  0.99931483  1.0
  H  H27  1  0.96542848  0.48112658  0.55782652  1.0
  H  H28  1  0.48446016  0.07669087  0.51891322  1.0
  H  H29  1  0.40781101  0.44218243  0.92330757  1.0
  H  H30  1  0.64885838  0.41230730  0.61115197  1.0
  H  H31  1  0.23669267  0.19885677  0.58771744  1.0
  H  H32  1  0.03799270  0.38881997  0.80114388  1.0
  H  H33  1  0.31817869  0.38293830  0.56592075  1.0
  H  H34  1  0.93543001  0.18296231  0.61705581  1.0
  H  H35  1  0.75239757  0.43413452  0.81700440  1.0
  H  H36  1  0.10430351  0.41677938  0.53384291  1.0
  H  H37  1  0.68769421  0.11706246  0.58321688  1.0
  H  H38  1  0.57071392  0.46612531  0.88295219  1.0
  H  H39  1  0.53442834  0.59368388  0.39681512  1.0
  H  H40  1  0.94041229  0.80312773  0.40630482  1.0
  H  H41  1  0.13766978  0.60322193  0.19691242  1.0
  C  C42  1  0.27096860  0.61895219  0.38633572  1.0
  C  C43  1  0.65171566  0.76736586  0.38105454  1.0
  C  C44  1  0.88468516  0.61370343  0.23266133  1.0
  C  C45  1  0.07720087  0.62798345  0.39922925  1.0
  C  C46  1  0.44890259  0.77122926  0.37202483  1.0
  C  C47  1  0.67804896  0.60077777  0.22878716  1.0
  C  C48  1  0.01008768  0.61759004  0.43040031  1.0
  C  C49  1  0.39211751  0.81278858  0.38240598  1.0
  C  C50  1  0.57976121  0.56960652  0.18721646  1.0
  C  C51  1  0.12404237  0.59847145  0.44862463  1.0
  C  C52  1  0.52519825  0.85013494  0.40147826  1.0
  C  C53  1  0.67550779  0.55138284  0.14986524  1.0
  C  C54  1  0.31450804  0.58911789  0.43592238  1.0
  C  C55  1  0.72503267  0.84678807  0.41081505  1.0
  C  C56  1  0.87865723  0.56409005  0.15322172  1.0
  C  C57  1  0.36269589  0.54033079  0.46102956  1.0
  C  C58  1  0.82238638  0.92069354  0.45962804  1.0
  C  C59  1  0.90199705  0.53895799  0.07929538  1.0
  C  C60  1  0.47813191  0.52183930  0.48291531  1.0
  C  C61  1  0.95644043  0.96106355  0.47813686  1.0
  C  C62  1  0.99555609  0.51708027  0.03890200  1.0
  C  C63  1  0.67965229  0.53579067  0.49702082  1.0
  C  C64  1  0.14407909  0.96120589  0.46420488  1.0
  C  C65  1  0.18307564  0.50301588  0.03874440  1.0
  C  C66  1  0.78467852  0.51794463  0.51823769  1.0
  C  C67  1  0.26693370  0.00027001  0.48206456  1.0
  C  C68  1  0.26684263  0.48180867  0.99967263  1.0
  C  C69  1  0.69221254  0.48572520  0.52584912  1.0
  C  C70  1  0.20661996  0.04011696  0.51427538  1.0
  C  C71  1  0.16662295  0.47418510  0.95984532  1.0
  C  C72  1  0.49066822  0.47176396  0.51174468  1.0
  C  C73  1  0.01902791  0.03998858  0.52822612  1.0
  C  C74  1  0.97909297  0.48826067  0.95998186  1.0
  C  C75  1  0.38552924  0.48965046  0.49055089  1.0
  C  C76  1  0.89603342  0.00090391  0.51033636  1.0
  C  C77  1  0.89512471  0.50942788  0.99906503  1.0
  C  C78  1  0.80924158  0.46728597  0.54755103  1.0
  C  C79  1  0.34209943  0.08025768  0.53274493  1.0
  C  C80  1  0.26192798  0.45246562  0.91971867  1.0
  C  C81  1  0.86437540  0.41820492  0.57185304  1.0
  C  C82  1  0.44628913  0.15364531  0.58182740  1.0
  C  C83  1  0.29284849  0.42811709  0.84633544  1.0
  C  C84  1  0.79672595  0.40637316  0.60163054  1.0
  C  C85  1  0.39048905  0.19526335  0.59365588  1.0
  C  C86  1  0.19537123  0.39834223  0.80471657  1.0
  C  C87  1  0.91489501  0.38699303  0.62006585  1.0
  C  C88  1  0.52806997  0.23307385  0.61302134  1.0
  C  C89  1  0.29500443  0.37992337  0.76689763  1.0
  C  C90  1  0.10846342  0.37875200  0.60673313  1.0
  C  C91  1  0.72991047  0.22798304  0.62127742  1.0
  C  C92  1  0.50186639  0.39331069  0.77199589  1.0
  C  C93  1  0.17207825  0.39027942  0.57606900  1.0
  C  C94  1  0.78198297  0.18577987  0.60972534  1.0
  C  C95  1  0.59619430  0.42396266  0.81419888  1.0
  C  C96  1  0.05457213  0.40955769  0.55863177  1.0
  C  C97  1  0.64516859  0.14907433  0.59044642  1.0
  C  C98  1  0.49622202  0.44134979  0.85092788  1.0
  C  C99  1  0.24299996  0.35681033  0.62176248  1.0
  C  C100  1  0.88643242  0.26494952  0.64319926  1.0
  C  C101  1  0.62139343  0.37827464  0.73503123  1.0
  C  C102  1  0.38626005  0.60016830  0.40590393  1.0
  C  C103  1  0.78574948  0.80572403  0.39980248  1.0
  C  C104  1  0.98041874  0.59412203  0.19430418  1.0
  C  C105  1  0.94450236  0.64894381  0.38258199  1.0
  C  C106  1  0.29539958  0.73361318  0.35107965  1.0
  C  C107  1  0.56201038  0.61742508  0.26639914  1.0
  N  N108  1  0.43740159  0.57034552  0.45374502  1.0
  N  N109  1  0.86678839  0.88337342  0.42956701  1.0
  N  N110  1  0.98380789  0.54624760  0.11662064  1.0
  N  N111  1  0.73765709  0.43685865  0.55457624  1.0
  N  N112  1  0.30092122  0.11771990  0.56317743  1.0
  N  N113  1  0.18334929  0.44540556  0.88224641  1.0
  O  O114  1  0.77977547  0.65924898  0.39743892  1.0
  O  O115  1  0.12029057  0.73816588  0.34080713  1.0
  O  O116  1  0.38242702  0.60256606  0.26184928  1.0
  O  O117  1  0.99796948  0.65644368  0.35201828  1.0
  O  O118  1  0.34149565  0.69554389  0.34354550  1.0
  O  O119  1  0.64603518  0.64798751  0.30447339  1.0
  O  O120  1  0.34790310  0.62786871  0.35707999  1.0
  O  O121  1  0.71985355  0.72921848  0.37220504  1.0
  O  O122  1  0.99086484  0.64299254  0.27083147  1.0
  O  O123  1  0.40825897  0.34762556  0.60678209  1.0
  O  O124  1  0.06090868  0.25915174  0.65236844  1.0
  O  O125  1  0.80165558  0.39325420  0.74084353  1.0
  O  O126  1  0.19059583  0.34695398  0.65086080  1.0
  O  O127  1  0.84374004  0.30390460  0.65306004  1.0
  O  O128  1  0.53982771  0.34916702  0.69607433  1.0
  O  O129  1  0.83944762  0.37661912  0.64849626  1.0
  O  O130  1  0.46300846  0.27188191  0.62337857  1.0
  O  O131  1  0.19108055  0.35148284  0.72809501  1.0
