# generated using pymatgen
data_Zn2H19C23N2O10F
_symmetry_space_group_name_H-M   'P 1'
_cell_length_a   9.86744500
_cell_length_b   11.28594050
_cell_length_c   16.10395895
_cell_angle_alpha   90.02256979
_cell_angle_beta   102.45640468
_cell_angle_gamma   94.79309718
_symmetry_Int_Tables_number   1
_chemical_formula_structural   Zn2H19C23N2O10F
_chemical_formula_sum   'Zn2 H19 C23 N2 O10 F1'
_cell_volume   1744.73929245
_cell_formula_units_Z   1
loop_
 _symmetry_equiv_pos_site_id
 _symmetry_equiv_pos_as_xyz
  1  'x, y, z'
loop_
 _atom_site_type_symbol
 _atom_site_label
 _atom_site_symmetry_multiplicity
 _atom_site_fract_x
 _atom_site_fract_y
 _atom_site_fract_z
 _atom_site_occupancy
  Zn  Zn0  1  0.64223497  0.48518545  0.51962309  1.0
  Zn  Zn1  1  0.35905792  0.51279519  0.47554484  1.0
  H  H2  1  0.58894694  0.33497736  0.08167610  1.0
  H  H3  1  0.89949003  0.40538022  0.58618277  1.0
  H  H4  1  0.57739331  0.32999655  0.93499328  1.0
  H  H5  1  0.10192514  0.59391161  0.40930311  1.0
  H  H6  1  0.27374835  0.51806078  0.90106848  1.0
  H  H7  1  0.31993486  0.36999101  0.90526008  1.0
  H  H8  1  0.33628641  0.36887918  0.05229810  1.0
  H  H9  1  0.28238045  0.51436394  0.04764830  1.0
  H  H10  1  0.64265568  0.65782232  0.94331471  1.0
  H  H11  1  0.46616634  0.69177358  0.91702446  1.0
  H  H12  1  0.73789520  0.81086830  0.18738257  1.0
  H  H13  1  0.70643314  0.45109633  0.94736737  1.0
  H  H14  1  0.71808950  0.45588951  0.09318694  1.0
  H  H15  1  0.44929894  0.68564370  0.05880862  1.0
  H  H16  1  0.38248243  0.89603162  0.47948843  1.0
  H  H17  1  0.62021379  0.10414545  0.50233439  1.0
  H  H18  1  0.30062800  0.10469429  0.47206035  1.0
  H  H19  1  0.87941333  0.57075189  0.44475249  1.0
  H  H20  1  0.12445271  0.43549777  0.55479148  1.0
  C  C21  1  0.43888177  0.26944261  0.48826013  1.0
  C  C22  1  0.51294765  0.06457877  0.49188670  1.0
  C  C23  1  0.58934190  0.86137217  0.50045541  1.0
  C  C24  1  0.49296437  0.50133168  0.65971394  1.0
  C  C25  1  0.48862491  0.93756052  0.48940369  1.0
  C  C26  1  0.07556726  0.49285311  0.50385830  1.0
  C  C27  1  0.92763141  0.51143932  0.49452451  1.0
  C  C28  1  0.56391178  0.72914726  0.50183647  1.0
  C  C29  1  0.50954146  0.50281175  0.33556317  1.0
  C  C30  1  0.60525155  0.42072581  0.96143154  1.0
  C  C31  1  0.35133966  0.45944428  0.93340741  1.0
  C  C32  1  0.61322614  0.42403085  0.05834607  1.0
  C  C33  1  0.35896932  0.45908563  0.03036407  1.0
  C  C34  1  0.51157840  0.50508602  0.24605087  1.0
  C  C35  1  0.49522209  0.50253637  0.91546120  1.0
  C  C36  1  0.66949894  0.69588804  0.09983832  1.0
  C  C37  1  0.50663222  0.50585669  0.07980763  1.0
  C  C38  1  0.53484405  0.63545918  0.04814675  1.0
  C  C39  1  0.53742625  0.63037302  0.95225939  1.0
  C  C40  1  0.51095265  0.50667020  0.17052686  1.0
  C  C41  1  0.49108387  0.50210249  0.82474149  1.0
  C  C42  1  0.49087414  0.50167027  0.74921287  1.0
  C  C43  1  0.41000654  0.13863531  0.48313104  1.0
  N  N44  1  0.15163525  0.54048185  0.45572277  1.0
  N  N45  1  0.85051552  0.46075998  0.54090275  1.0
  O  O46  1  0.56614710  0.31199068  0.50388587  1.0
  O  O47  1  0.64598448  0.77849366  0.15561864  1.0
  O  O48  1  0.33297190  0.33044269  0.47680725  1.0
  O  O49  1  0.61084483  0.49180775  0.64102159  1.0
  O  O50  1  0.37742728  0.51072017  0.60741641  1.0
  O  O51  1  0.66985583  0.66971984  0.51846405  1.0
  O  O52  1  0.43636307  0.68872932  0.48620857  1.0
  O  O53  1  0.62570901  0.49613297  0.38771007  1.0
  O  O54  1  0.39080323  0.50760338  0.35408859  1.0
  O  O55  1  0.78662763  0.67515830  0.09382955  1.0
  F  F56  1  0.72570695  0.90301878  0.51314573  1.0
