# generated using pymatgen
data_Zn4H8C24(SO4)5
_symmetry_space_group_name_H-M   'P 1'
_cell_length_a   19.64056147
_cell_length_b   19.71460473
_cell_length_c   33.22485975
_cell_angle_alpha   79.09170060
_cell_angle_beta   79.34092913
_cell_angle_gamma   64.02494286
_symmetry_Int_Tables_number   1
_chemical_formula_structural   Zn4H8C24(SO4)5
_chemical_formula_sum   'Zn16 H32 C96 S20 O80'
_cell_volume   11280.15447090
_cell_formula_units_Z   4
loop_
 _symmetry_equiv_pos_site_id
 _symmetry_equiv_pos_as_xyz
  1  'x, y, z'
loop_
 _atom_site_type_symbol
 _atom_site_label
 _atom_site_symmetry_multiplicity
 _atom_site_fract_x
 _atom_site_fract_y
 _atom_site_fract_z
 _atom_site_occupancy
  Zn  Zn0  1  0.05546455  0.39898559  0.47938066  1.0
  Zn  Zn1  1  0.98671095  0.48085046  0.56092433  1.0
  Zn  Zn2  1  0.05638114  0.56204523  0.48057282  1.0
  Zn  Zn3  1  0.90148784  0.55764648  0.47978441  1.0
  Zn  Zn4  1  0.69049157  0.35148799  0.27243521  1.0
  Zn  Zn5  1  0.68847772  0.19182044  0.26678645  1.0
  Zn  Zn6  1  0.77074425  0.26802902  0.19100308  1.0
  Zn  Zn7  1  0.84768719  0.19842593  0.27276813  1.0
  Zn  Zn8  1  0.26872392  0.76471035  0.68854726  1.0
  Zn  Zn9  1  0.35070600  0.69619952  0.77003588  1.0
  Zn  Zn10  1  0.19077065  0.84592393  0.77038922  1.0
  Zn  Zn11  1  0.19069809  0.68744515  0.76646996  1.0
  Zn  Zn12  1  0.55849675  0.06199689  0.98273107  1.0
  Zn  Zn13  1  0.40125562  0.05511532  0.97733805  1.0
  Zn  Zn14  1  0.55496930  0.90125660  0.97831328  1.0
  Zn  Zn15  1  0.48300362  0.98443470  0.06054160  1.0
  H  H16  1  0.95208942  0.25588833  0.35055530  1.0
  H  H17  1  0.74114986  0.45683290  0.35307712  1.0
  H  H18  1  0.99895792  0.30718510  0.39785238  1.0
  H  H19  1  0.09336780  0.59956792  0.69820790  1.0
  H  H20  1  0.20583052  0.69833726  0.59718013  1.0
  H  H21  1  0.04584264  0.55572530  0.64750824  1.0
  H  H22  1  0.55600700  0.04826184  0.15323054  1.0
  H  H23  1  0.64912116  0.15698693  0.04750006  1.0
  H  H24  1  0.60793214  0.09667675  0.19934651  1.0
  H  H25  1  0.49741146  0.79348207  0.89912609  1.0
  H  H26  1  0.29738931  0.00520413  0.89749191  1.0
  H  H27  1  0.44378066  0.74959112  0.85159320  1.0
  H  H28  1  0.84309905  0.57619692  0.40093309  1.0
  H  H29  1  0.07056645  0.68547476  0.51181092  1.0
  H  H30  1  0.79414920  0.18189025  0.12224348  1.0
  H  H31  1  0.17695292  0.90666467  0.84778428  1.0
  H  H32  1  0.32444549  0.53986601  0.40182390  1.0
  H  H33  1  0.42243284  0.20847336  0.35359569  1.0
  H  H34  1  0.75782354  0.54110412  0.68508723  1.0
  H  H35  1  0.49814963  0.70145890  0.56474637  1.0
  H  H36  1  0.04400684  0.25287363  0.68512592  1.0
  H  H37  1  0.20865563  0.99311702  0.56665239  1.0
  H  H38  1  0.74479117  0.81374751  0.38388686  1.0
  H  H39  1  0.00230172  0.93672197  0.36301568  1.0
  H  H40  1  0.70615793  0.49307959  0.06583925  1.0
  H  H41  1  0.54098128  0.75362586  0.18436200  1.0
  H  H42  1  0.15038059  0.07532717  0.22054947  1.0
  H  H43  1  0.10213274  0.16953628  0.03009626  1.0
  H  H44  1  0.50744435  0.43407925  0.86410027  1.0
  H  H45  1  0.24532940  0.31781849  0.88511236  1.0
  H  H46  1  0.92106461  0.70713304  0.85343075  1.0
  H  H47  1  0.82826221  0.03861112  0.89915554  1.0
  C  C48  1  0.06156856  0.31456864  0.56271947  1.0
  C  C49  1  0.06527914  0.57473510  0.56722063  1.0
  C  C50  1  0.18113543  0.43959334  0.43844320  1.0
  C  C51  1  0.93487117  0.68694080  0.43800437  1.0
  C  C52  1  0.93262205  0.43622506  0.42866761  1.0
  C  C53  1  0.82029240  0.55967975  0.56287245  1.0
  C  C54  1  0.56450369  0.31037660  0.31263861  1.0
  C  C55  1  0.68760171  0.17744719  0.18047394  1.0
  C  C56  1  0.68703750  0.43342004  0.18821273  1.0
  C  C57  1  0.93647611  0.19055919  0.19030242  1.0
  C  C58  1  0.81561587  0.32383026  0.32020288  1.0
  C  C59  1  0.81124705  0.06751017  0.30962076  1.0
  C  C60  1  0.43566933  0.68698758  0.68706660  1.0
  C  C61  1  0.31409924  0.81829608  0.82053429  1.0
  C  C62  1  0.19166433  0.93150517  0.68873429  1.0
  C  C63  1  0.06367600  0.80804858  0.81025108  1.0
  C  C64  1  0.18112414  0.67883058  0.68025758  1.0
  C  C65  1  0.31475301  0.56836489  0.81218374  1.0
  C  C66  1  0.43661957  0.18477903  0.93802315  1.0
  C  C67  1  0.43110869  0.92959101  0.92993892  1.0
  C  C68  1  0.68304867  0.94008678  0.93887619  1.0
  C  C69  1  0.56126539  0.81700297  0.06201053  1.0
  C  C70  1  0.56922324  0.07072631  0.06937530  1.0
  C  C71  1  0.31595402  0.06076609  0.06064342  1.0
  C  C72  1  0.89755299  0.41063986  0.40156424  1.0
  C  C73  1  0.84416138  0.35346235  0.34871350  1.0
  C  C74  1  0.82388543  0.45280580  0.38880157  1.0
  C  C75  1  0.91673235  0.31093060  0.36144249  1.0
  C  C76  1  0.79793099  0.42407412  0.36264590  1.0
  C  C77  1  0.94261615  0.33950221  0.38761211  1.0
  C  C78  1  0.09814355  0.60273491  0.59422891  1.0
  C  C79  1  0.15205209  0.65183614  0.65073043  1.0
  C  C80  1  0.14391049  0.64336768  0.58007814  1.0
  C  C81  1  0.10716379  0.61147562  0.66510057  1.0
  C  C82  1  0.17035455  0.66742576  0.60826998  1.0
  C  C83  1  0.08083371  0.58730138  0.63696753  1.0
  C  C84  1  0.30215207  0.45454616  0.40149052  1.0
  C  C85  1  0.44375593  0.29524824  0.35026833  1.0
  C  C86  1  0.25555656  0.41555515  0.41393411  1.0
  C  C87  1  0.49007379  0.33431176  0.33735733  1.0
  C  C88  1  0.37522993  0.33935062  0.37364832  1.0
  C  C89  1  0.37093112  0.41034124  0.37818658  1.0
  C  C90  1  0.72890924  0.57561843  0.63047178  1.0
  C  C91  1  0.52732552  0.66965484  0.61946364  1.0
  C  C92  1  0.74611229  0.58330225  0.58760141  1.0
  C  C93  1  0.51000723  0.66219292  0.66233755  1.0
  C  C94  1  0.60742542  0.63756977  0.60793500  1.0
  C  C95  1  0.64892193  0.60695574  0.64200523  1.0
  C  C96  1  0.07789711  0.22372720  0.63071399  1.0
  C  C97  1  0.17608220  0.02264770  0.62107587  1.0
  C  C98  1  0.08642494  0.24066230  0.58781222  1.0
  C  C99  1  0.16770767  0.00581328  0.66398294  1.0
  C  C100  1  0.14347999  0.10235216  0.60908003  1.0
  C  C101  1  0.11100372  0.14398668  0.64279668  1.0
  C  C102  1  0.84158119  0.80244229  0.39538471  1.0
  C  C103  1  0.90453661  0.95097102  0.35184240  1.0
  C  C104  1  0.90978628  0.76070358  0.41289593  1.0
  C  C105  1  0.83655507  0.99293639  0.33417551  1.0
  C  C106  1  0.90636174  0.88114871  0.37381943  1.0
  C  C107  1  0.84009170  0.87172626  0.37274015  1.0
  C  C108  1  0.65807341  0.15316843  0.14976279  1.0
  C  C109  1  0.59966326  0.09925945  0.09758303  1.0
  C  C110  1  0.66928219  0.17022021  0.10634944  1.0
  C  C111  1  0.58780925  0.08242465  0.14041042  1.0
  C  C112  1  0.64027879  0.14330716  0.08081362  1.0
  C  C113  1  0.61673287  0.10929360  0.16593949  1.0
  C  C114  1  0.67315819  0.52401133  0.12004162  1.0
  C  C115  1  0.57630275  0.72531349  0.12983669  1.0
  C  C116  1  0.66336140  0.50720881  0.16293436  1.0
  C  C117  1  0.58566941  0.74269969  0.08701836  1.0
  C  C118  1  0.60815270  0.64550833  0.14169820  1.0
  C  C119  1  0.64103767  0.60389119  0.10799733  1.0
  C  C120  1  0.08343595  0.12406326  0.17867536  1.0
  C  C121  1  0.16886814  0.12402775  0.07234032  1.0
  C  C122  1  0.01088914  0.16378198  0.16575426  1.0
  C  C123  1  0.24146747  0.08538216  0.08532190  1.0
  C  C124  1  0.11122486  0.13799819  0.10656636  1.0
  C  C125  1  0.14097621  0.10962614  0.14447916  1.0
  C  C126  1  0.34072734  0.85164014  0.84810485  1.0
  C  C127  1  0.40059125  0.90180425  0.90140250  1.0
  C  C128  1  0.29950936  0.92462179  0.86129915  1.0
  C  C129  1  0.44205490  0.82978420  0.88839099  1.0
  C  C130  1  0.32950699  0.94890914  0.88763548  1.0
  C  C131  1  0.41217186  0.80549467  0.86203623  1.0
  C  C132  1  0.40826882  0.45055854  0.85407027  1.0
  C  C133  1  0.34370930  0.30252858  0.89602794  1.0
  C  C134  1  0.34006508  0.49386984  0.83681432  1.0
  C  C135  1  0.41182507  0.25936182  0.91339376  1.0
  C  C136  1  0.34272699  0.37227440  0.87431010  1.0
  C  C137  1  0.40946743  0.38064497  0.87564106  1.0
  C  C138  1  0.94344445  0.79342937  0.84942540  1.0
  C  C139  1  0.80465130  0.95347623  0.90103814  1.0
  C  C140  1  0.98998817  0.83206381  0.83561802  1.0
  C  C141  1  0.75763896  0.91520425  0.91428485  1.0
  C  C142  1  0.87248595  0.90882693  0.87727072  1.0
  C  C143  1  0.87581554  0.83796071  0.87327474  1.0
  S  S144  1  0.29560720  0.32570626  0.39725200  1.0
  S  S145  1  0.44996126  0.42432447  0.35378744  1.0
  S  S146  1  0.66504016  0.62780826  0.56159512  1.0
  S  S147  1  0.59111124  0.61641201  0.68833121  1.0
  S  S148  1  0.13468623  0.15953789  0.56246636  1.0
  S  S149  1  0.12060292  0.08680357  0.68943919  1.0
  S  S150  1  0.97160901  0.80564129  0.40173754  1.0
  S  S151  1  0.77535614  0.94725919  0.34450289  1.0
  S  S152  1  0.61571573  0.58835527  0.18828766  1.0
  S  S153  1  0.63337676  0.66164121  0.06153504  1.0
  S  S154  1  0.01312615  0.18287824  0.11210323  1.0
  S  S155  1  0.23917925  0.06609732  0.13896142  1.0
  S  S156  1  0.27803566  0.44912628  0.84677195  1.0
  S  S157  1  0.47407026  0.30383827  0.90328675  1.0
  S  S158  1  0.95130038  0.92217908  0.85186332  1.0
  S  S159  1  0.79638373  0.82510528  0.89806234  1.0
  S  S160  1  0.75528460  0.54193657  0.40605375  1.0
  S  S161  1  0.17722250  0.66314029  0.52676200  1.0
  S  S162  1  0.71479847  0.23091676  0.07990259  1.0
  S  S163  1  0.21015002  0.99444806  0.84422732  1.0
  O  O164  1  0.00086306  0.49813450  0.50033542  1.0
  O  O165  1  0.07935831  0.31363052  0.52350168  1.0
  O  O166  1  0.04765193  0.52006261  0.58329557  1.0
  O  O167  1  0.15442723  0.50406723  0.45181078  1.0
  O  O168  1  0.02462982  0.37323985  0.58161304  1.0
  O  O169  1  0.14929294  0.39311181  0.44432014  1.0
  O  O170  1  0.05480615  0.60796433  0.53018745  1.0
  O  O171  1  0.00356604  0.65861675  0.44721133  1.0
  O  O172  1  0.90767132  0.50776310  0.43081444  1.0
  O  O173  1  0.88741963  0.65679600  0.44881740  1.0
  O  O174  1  0.98701837  0.38493107  0.44733140  1.0
  O  O175  1  0.87944438  0.53251572  0.58184403  1.0
  O  O176  1  0.81868725  0.56922941  0.52359752  1.0
  O  O177  1  0.74824297  0.25265069  0.25105660  1.0
  O  O178  1  0.59362316  0.35913006  0.30453027  1.0
  O  O179  1  0.65433719  0.17834101  0.21706675  1.0
  O  O180  1  0.72146062  0.37425332  0.16947084  1.0
  O  O181  1  0.59377418  0.24398692  0.30137039  1.0
  O  O182  1  0.67074895  0.43523561  0.22739547  1.0
  O  O183  1  0.74531818  0.19403352  0.16888731  1.0
  O  O184  1  0.87888001  0.22668890  0.16963183  1.0
  O  O185  1  0.86056075  0.25874499  0.30919105  1.0
  O  O186  1  0.93439149  0.17651573  0.22950795  1.0
  O  O187  1  0.74943506  0.36616531  0.30949309  1.0
  O  O188  1  0.74693449  0.09145585  0.29537796  1.0
  O  O189  1  0.85452382  0.10203183  0.30465715  1.0
  O  O190  1  0.25072810  0.74812110  0.74917445  1.0
  O  O191  1  0.37679144  0.72090209  0.66784531  1.0
  O  O192  1  0.36509022  0.76507695  0.80131140  1.0
  O  O193  1  0.17674305  0.93208426  0.72808144  1.0
  O  O194  1  0.43671333  0.67203332  0.72641112  1.0
  O  O195  1  0.22453331  0.87327821  0.66936974  1.0
  O  O196  1  0.24215668  0.84325769  0.81851108  1.0
  O  O197  1  0.09224151  0.85738151  0.80137856  1.0
  O  O198  1  0.16439660  0.66172108  0.71862818  1.0
  O  O199  1  0.09328728  0.74160316  0.79908377  1.0
  O  O200  1  0.21994737  0.71664823  0.66416302  1.0
  O  O201  1  0.35840006  0.60289298  0.80600842  1.0
  O  O202  1  0.24964285  0.59216619  0.79900365  1.0
  O  O203  1  0.49985875  0.99998143  0.99987993  1.0
  O  O204  1  0.50276457  0.15895815  0.95029435  1.0
  O  O205  1  0.38846083  0.99542640  0.94047126  1.0
  O  O206  1  0.65251757  0.89247802  0.94629284  1.0
  O  O207  1  0.39127817  0.15220896  0.94509965  1.0
  O  O208  1  0.65518377  0.00593833  0.95058841  1.0
  O  O209  1  0.49663306  0.88518964  0.94111326  1.0
  O  O210  1  0.57628996  0.81586757  0.02275242  1.0
  O  O211  1  0.53163798  0.03192286  0.08640217  1.0
  O  O212  1  0.52760026  0.87572219  0.08103627  1.0
  O  O213  1  0.58373574  0.08789604  0.03083668  1.0
  O  O214  1  0.31672832  0.07398362  0.02152985  1.0
  O  O215  1  0.37402057  0.02790379  0.08106103  1.0
  O  O216  1  0.79532304  0.59763797  0.38705658  1.0
  O  O217  1  0.68906695  0.56809222  0.38499189  1.0
  O  O218  1  0.74843573  0.53287900  0.45047964  1.0
  O  O219  1  0.09980265  0.71785447  0.50775185  1.0
  O  O220  1  0.21824074  0.70889310  0.52467529  1.0
  O  O221  1  0.21259002  0.59258789  0.50906631  1.0
  O  O222  1  0.79980770  0.18448101  0.09126514  1.0
  O  O223  1  0.71927910  0.23099679  0.03627456  1.0
  O  O224  1  0.67863500  0.30128726  0.09778031  1.0
  O  O225  1  0.15428647  0.95412042  0.86193672  1.0
  O  O226  1  0.18418907  0.05903389  0.86620483  1.0
  O  O227  1  0.21933799  0.00362947  0.79975989  1.0
  O  O228  1  0.28206718  0.52522479  0.41056525  1.0
  O  O229  1  0.46288774  0.22445851  0.34119010  1.0
  O  O230  1  0.78276292  0.54210722  0.65689189  1.0
  O  O231  1  0.47361530  0.70351865  0.59309313  1.0
  O  O232  1  0.04241609  0.27749192  0.65674240  1.0
  O  O233  1  0.21094908  0.96879788  0.59508498  1.0
  O  O234  1  0.78576204  0.77804810  0.39998074  1.0
  O  O235  1  0.96073070  0.97479006  0.34802093  1.0
  O  O236  1  0.70935996  0.46983963  0.09444323  1.0
  O  O237  1  0.54101195  0.77874734  0.15612092  1.0
  O  O238  1  0.09574496  0.10291520  0.21888658  1.0
  O  O239  1  0.15675974  0.14514749  0.03217921  1.0
  O  O240  1  0.46513887  0.47352699  0.85015871  1.0
  O  O241  1  0.28692642  0.27953312  0.89999205  1.0
  O  O242  1  0.96164503  0.72268520  0.84061345  1.0
  O  O243  1  0.78633219  0.02400706  0.91003692  1.0
