# generated using pymatgen
data_ZnH12C31(N3O7)2
_symmetry_space_group_name_H-M   'P 1'
_cell_length_a   14.55497321
_cell_length_b   14.79099670
_cell_length_c   16.04279897
_cell_angle_alpha   88.21098554
_cell_angle_beta   71.01567277
_cell_angle_gamma   81.42930040
_symmetry_Int_Tables_number   1
_chemical_formula_structural   ZnH12C31(N3O7)2
_chemical_formula_sum   'Zn2 H24 C62 N12 O28'
_cell_volume   3228.85660451
_cell_formula_units_Z   2
loop_
 _symmetry_equiv_pos_site_id
 _symmetry_equiv_pos_as_xyz
  1  'x, y, z'
loop_
 _atom_site_type_symbol
 _atom_site_label
 _atom_site_symmetry_multiplicity
 _atom_site_fract_x
 _atom_site_fract_y
 _atom_site_fract_z
 _atom_site_occupancy
  Zn  Zn0  1  0.59942391  0.52537175  0.46011257  1.0
  Zn  Zn1  1  0.40000058  0.47210622  0.52973227  1.0
  H  H2  1  0.46299380  0.35855715  0.94660644  1.0
  H  H3  1  0.53633093  0.63995389  0.04515685  1.0
  H  H4  1  0.52874307  0.76767152  0.53414925  1.0
  H  H5  1  0.47664085  0.21251479  0.57149890  1.0
  H  H6  1  0.22094793  0.76815435  0.60498736  1.0
  H  H7  1  0.77840566  0.24391954  0.45016511  1.0
  H  H8  1  0.92260474  0.37085456  0.69770182  1.0
  H  H9  1  0.07158911  0.63693386  0.30127833  1.0
  H  H10  1  0.75335769  0.48648966  0.52597246  1.0
  H  H11  1  0.24621871  0.50443524  0.46168430  1.0
  H  H12  1  0.08136247  0.35056843  0.73422875  1.0
  H  H13  1  0.91161712  0.66314068  0.26783278  1.0
  H  H14  1  0.82835756  0.43452304  0.60294939  1.0
  H  H15  1  0.16733168  0.56844627  0.39306967  1.0
  H  H16  1  0.24814632  0.51269274  0.98874616  1.0
  H  H17  1  0.08044543  0.48011693  0.06815668  1.0
  H  H18  1  0.04068430  0.41591601  0.21915861  1.0
  H  H19  1  0.17078471  0.38554817  0.29041949  1.0
  H  H20  1  0.33813473  0.42113402  0.21252965  1.0
  H  H21  1  0.75420601  0.47905326  0.99879995  1.0
  H  H22  1  0.92054882  0.51529204  0.91968537  1.0
  H  H23  1  0.95567842  0.58983617  0.77344434  1.0
  H  H24  1  0.82257454  0.62607460  0.70596479  1.0
  H  H25  1  0.65697363  0.58689674  0.78308383  1.0
  C  C26  1  0.58946193  0.33360200  0.48629694  1.0
  C  C27  1  0.40298731  0.66145289  0.53548724  1.0
  C  C28  1  0.50957277  0.50597645  0.65299555  1.0
  C  C29  1  0.49185014  0.49415156  0.33828847  1.0
  C  C30  1  0.56329000  0.42778388  0.00600835  1.0
  C  C31  1  0.43599481  0.57077632  0.98584466  1.0
  C  C32  1  0.47904449  0.42164892  0.96880783  1.0
  C  C33  1  0.52015458  0.57688362  0.02305805  1.0
  C  C34  1  0.50874998  0.50739668  0.74301735  1.0
  C  C35  1  0.49029498  0.49208537  0.24895298  1.0
  C  C36  1  0.59341651  0.51286758  0.94572862  1.0
  C  C37  1  0.40580528  0.48567007  0.04614901  1.0
  C  C38  1  0.50593464  0.50582942  0.90762132  1.0
  C  C39  1  0.49323415  0.49267600  0.08428212  1.0
  C  C40  1  0.50814075  0.50843342  0.81894381  1.0
  C  C41  1  0.49099483  0.49045716  0.17300297  1.0
  C  C42  1  0.62275116  0.23641334  0.50537973  1.0
  C  C43  1  0.37887550  0.75854033  0.56994497  1.0
  C  C44  1  0.75176572  0.11070700  0.49857216  1.0
  C  C45  1  0.26559855  0.89351484  0.63041325  1.0
  C  C46  1  0.72302466  0.20052329  0.48148794  1.0
  C  C47  1  0.28221416  0.80303621  0.60359690  1.0
  C  C48  1  0.55378532  0.18290659  0.55181098  1.0
  C  C49  1  0.45607876  0.80431027  0.56729156  1.0
  C  C50  1  0.58162436  0.09076142  0.56946434  1.0
  C  C51  1  0.44108055  0.89352905  0.60141345  1.0
  C  C52  1  0.68229363  0.04992496  0.53662059  1.0
  C  C53  1  0.34215483  0.94191040  0.63342539  1.0
  C  C54  1  0.50598322  0.03578631  0.61030911  1.0
  C  C55  1  0.52365774  0.94083583  0.59486082  1.0
  C  C56  1  0.62503357  0.90094884  0.56785826  1.0
  C  C57  1  0.40938580  0.07354306  0.66596636  1.0
  C  C58  1  0.70074050  0.95256750  0.54158844  1.0
  C  C59  1  0.32952153  0.03094562  0.67232069  1.0
  C  C60  1  0.11335999  0.38514788  0.67301218  1.0
  C  C61  1  0.88085888  0.62372309  0.32604043  1.0
  C  C62  1  0.21065857  0.39604774  0.64662000  1.0
  C  C63  1  0.78424385  0.61087139  0.35065849  1.0
  C  C64  1  0.20502742  0.47124129  0.52066247  1.0
  C  C65  1  0.79288997  0.52515229  0.47050650  1.0
  C  C66  1  0.10426674  0.46580759  0.54050006  1.0
  C  C67  1  0.89233164  0.53449417  0.45353482  1.0
  C  C68  1  0.05773155  0.41838035  0.61804842  1.0
  C  C69  1  0.93762766  0.58597454  0.37862477  1.0
  C  C70  1  0.04832343  0.50614061  0.48560069  1.0
  C  C71  1  0.94816047  0.49404307  0.50844813  1.0
  C  C72  1  0.90526977  0.44338762  0.58495390  1.0
  C  C73  1  0.09075553  0.55862279  0.41038352  1.0
  C  C74  1  0.95743608  0.40733742  0.63846189  1.0
  C  C75  1  0.03767378  0.59752879  0.35865230  1.0
  C  C76  1  0.30465579  0.46969532  0.09562028  1.0
  C  C77  1  0.23128961  0.48596841  0.05536212  1.0
  C  C78  1  0.13673411  0.46726462  0.10004464  1.0
  C  C79  1  0.11449971  0.43121245  0.18470044  1.0
  C  C80  1  0.18734289  0.41422971  0.22462882  1.0
  C  C81  1  0.28182944  0.43378524  0.18075526  1.0
  C  C82  1  0.69412524  0.52990235  0.89604087  1.0
  C  C83  1  0.76915439  0.51010716  0.93405453  1.0
  C  C84  1  0.86288813  0.53099761  0.88959843  1.0
  C  C85  1  0.88255031  0.57269082  0.80751503  1.0
  C  C86  1  0.80810632  0.59297633  0.76972397  1.0
  C  C87  1  0.71443392  0.57129876  0.81330948  1.0
  N  N88  1  0.25784221  0.43597682  0.57116079  1.0
  N  N89  1  0.73969736  0.56278722  0.42128929  1.0
  N  N90  1  0.72246246  0.65608049  0.29937044  1.0
  N  N91  1  0.27007435  0.35924143  0.70262246  1.0
  N  N92  1  0.63529534  0.34887309  0.01084415  1.0
  N  N93  1  0.36378627  0.64945968  0.98112676  1.0
  N  N94  1  0.80186220  0.90155264  0.50961249  1.0
  N  N95  1  0.22919674  0.07532764  0.72501441  1.0
  N  N96  1  0.85807177  0.08534199  0.48286634  1.0
  N  N97  1  0.16307473  0.93825661  0.64720680  1.0
  N  N98  1  0.65208670  0.80083457  0.57521680  1.0
  N  N99  1  0.40285754  0.14321645  0.73468085  1.0
  O  O100  1  0.65408258  0.38665765  0.46360903  1.0
  O  O101  1  0.33433642  0.61355462  0.55011496  1.0
  O  O102  1  0.49854891  0.35400483  0.49647717  1.0
  O  O103  1  0.49366947  0.63576558  0.49579123  1.0
  O  O104  1  0.58800235  0.52167925  0.59386637  1.0
  O  O105  1  0.41101017  0.48836203  0.39951100  1.0
  O  O106  1  0.43094507  0.48902614  0.64202337  1.0
  O  O107  1  0.57419745  0.50160298  0.34674216  1.0
  O  O108  1  0.76489736  0.66910565  0.22048948  1.0
  O  O109  1  0.63444981  0.67911872  0.33997806  1.0
  O  O110  1  0.35390171  0.32026066  0.66395845  1.0
  O  O111  1  0.23051628  0.36928716  0.78307919  1.0
  O  O112  1  0.66060161  0.29260472  0.94890478  1.0
  O  O113  1  0.66748381  0.34592012  0.07364668  1.0
  O  O114  1  0.33913444  0.70625874  0.04261667  1.0
  O  O115  1  0.33061730  0.65172936  0.91897856  1.0
  O  O116  1  0.83070502  0.85280552  0.56240923  1.0
  O  O117  1  0.84710742  0.91046599  0.43068212  1.0
  O  O118  1  0.18408704  0.03189713  0.78802549  1.0
  O  O119  1  0.19878017  0.14902051  0.69845918  1.0
  O  O120  1  0.91545156  0.11550613  0.41678103  1.0
  O  O121  1  0.88126333  0.03992013  0.54120392  1.0
  O  O122  1  0.15277146  0.01230507  0.61052986  1.0
  O  O123  1  0.09675240  0.89648102  0.69135967  1.0
  O  O124  1  0.62324615  0.76983755  0.64989650  1.0
  O  O125  1  0.70159102  0.75701264  0.50689839  1.0
  O  O126  1  0.47959941  0.17035236  0.73308236  1.0
  O  O127  1  0.32277733  0.16264313  0.79292376  1.0
