# generated using pymatgen
data_Zr3H24C44(BrO8)2
_symmetry_space_group_name_H-M   'P 1'
_cell_length_a   19.05414077
_cell_length_b   19.11690648
_cell_length_c   19.11692798
_cell_angle_alpha   60.09416016
_cell_angle_beta   60.10660596
_cell_angle_gamma   60.10667161
_symmetry_Int_Tables_number   1
_chemical_formula_structural   Zr3H24C44(BrO8)2
_chemical_formula_sum   'Zr6 H48 C88 Br4 O32'
_cell_volume   4935.34277277
_cell_formula_units_Z   2
loop_
 _symmetry_equiv_pos_site_id
 _symmetry_equiv_pos_as_xyz
  1  'x, y, z'
loop_
 _atom_site_type_symbol
 _atom_site_label
 _atom_site_symmetry_multiplicity
 _atom_site_fract_x
 _atom_site_fract_y
 _atom_site_fract_z
 _atom_site_occupancy
  Zr  Zr0  1  0.59302579  0.09251038  0.90752318  1.0
  Zr  Zr1  1  0.40755404  0.90746942  0.09253173  1.0
  Zr  Zr2  1  0.59302367  0.90752892  0.09250489  1.0
  Zr  Zr3  1  0.40755558  0.09253405  0.90746694  1.0
  Zr  Zr4  1  0.59255359  0.90766757  0.90766394  1.0
  Zr  Zr5  1  0.40781739  0.09235316  0.09234908  1.0
  H  H6  1  0.71889810  0.92715810  0.92715440  1.0
  H  H7  1  0.42749723  0.92709491  0.92709022  1.0
  H  H8  1  0.42758188  0.92735257  0.21794209  1.0
  H  H9  1  0.42758245  0.21794589  0.92734846  1.0
  H  H10  1  0.17768814  0.88865398  0.32036082  1.0
  H  H11  1  0.05022781  0.88670065  0.45005627  1.0
  H  H12  1  0.82098252  0.11292712  0.67798018  1.0
  H  H13  1  0.95055377  0.11272251  0.55035597  1.0
  H  H14  1  0.82008901  0.88876744  0.67833575  1.0
  H  H15  1  0.94970508  0.88676149  0.55069514  1.0
  H  H16  1  0.17844174  0.11283415  0.32010973  1.0
  H  H17  1  0.05093861  0.11266874  0.44981629  1.0
  H  H18  1  0.38825052  0.67809789  0.11285838  1.0
  H  H19  1  0.38639463  0.55053942  0.11267084  1.0
  H  H20  1  0.61342467  0.32045334  0.88862247  1.0
  H  H21  1  0.61303290  0.45020682  0.88665659  1.0
  H  H22  1  0.38871655  0.32014226  0.11278565  1.0
  H  H23  1  0.38657698  0.44990774  0.11263216  1.0
  H  H24  1  0.61295808  0.67834497  0.88867775  1.0
  H  H25  1  0.61286459  0.55076364  0.88671519  1.0
  H  H26  1  0.38871925  0.11278840  0.32013891  1.0
  H  H27  1  0.38657774  0.11263471  0.44990423  1.0
  H  H28  1  0.61295768  0.88867943  0.67834381  1.0
  H  H29  1  0.61286364  0.88671815  0.55076116  1.0
  H  H30  1  0.38825010  0.11286527  0.67809245  1.0
  H  H31  1  0.38639470  0.11267529  0.55053305  1.0
  H  H32  1  0.61342332  0.88862625  0.32044976  1.0
  H  H33  1  0.61303201  0.88665838  0.45020364  1.0
  H  H34  1  0.82008939  0.67833894  0.88876321  1.0
  H  H35  1  0.94970468  0.55069886  0.88675823  1.0
  H  H36  1  0.17844186  0.32011445  0.11282945  1.0
  H  H37  1  0.05093835  0.44982087  0.11266344  1.0
  H  H38  1  0.17768728  0.32036463  0.88865031  1.0
  H  H39  1  0.05022525  0.45006035  0.88669724  1.0
  H  H40  1  0.82098191  0.67798188  0.11292330  1.0
  H  H41  1  0.95055140  0.55035826  0.11271983  1.0
  H  H42  1  0.17829135  0.88903218  0.11256781  1.0
  H  H43  1  0.17829184  0.11257330  0.88902651  1.0
  H  H44  1  0.82123367  0.11257019  0.88896498  1.0
  H  H45  1  0.82123510  0.88897086  0.11256211  1.0
  H  H46  1  0.61340458  0.67797056  0.32049213  1.0
  H  H47  1  0.61314873  0.55055338  0.45006350  1.0
  H  H48  1  0.38843422  0.32036682  0.67808252  1.0
  H  H49  1  0.38637009  0.44993854  0.55065891  1.0
  H  H50  1  0.61340199  0.32049552  0.67796657  1.0
  H  H51  1  0.61314809  0.45006528  0.55054935  1.0
  H  H52  1  0.38843535  0.67808689  0.32036249  1.0
  H  H53  1  0.38637248  0.55066206  0.44993277  1.0
  C  C54  1  0.73340145  0.00203260  0.76316581  1.0
  C  C55  1  0.50173659  0.76316689  0.00199566  1.0
  C  C56  1  0.26295906  0.00193610  0.23291333  1.0
  C  C57  1  0.50247551  0.23289409  0.00198032  1.0
  C  C58  1  0.73477401  0.00188338  0.00187758  1.0
  C  C59  1  0.50217419  0.23312578  0.76297911  1.0
  C  C60  1  0.26228012  0.00192893  0.00192376  1.0
  C  C61  1  0.50217590  0.76298084  0.23312266  1.0
  C  C62  1  0.73340011  0.76316947  0.00203094  1.0
  C  C63  1  0.50247706  0.00198592  0.23288828  1.0
  C  C64  1  0.26295970  0.23291915  0.00193027  1.0
  C  C65  1  0.50173486  0.00200123  0.76316265  1.0
  C  C66  1  0.18592760  0.00111961  0.31160757  1.0
  C  C67  1  0.81192725  0.00125287  0.68598586  1.0
  C  C68  1  0.14904495  0.93751856  0.34946440  1.0
  C  C69  1  0.07708758  0.93706602  0.42277824  1.0
  C  C70  1  0.84989495  0.06376889  0.64916889  1.0
  C  C71  1  0.92310782  0.06292974  0.57711139  1.0
  C  C72  1  0.84940065  0.93763049  0.64939111  1.0
  C  C73  1  0.92262274  0.93714073  0.57734968  1.0
  C  C74  1  0.14945988  0.06366273  0.34929402  1.0
  C  C75  1  0.07749618  0.06285569  0.42258453  1.0
  C  C76  1  0.03898893  0.99982631  0.46129985  1.0
  C  C77  1  0.96144672  0.99987198  0.53889895  1.0
  C  C78  1  0.50101724  0.68605969  0.00119418  1.0
  C  C79  1  0.50149030  0.31166723  0.00110155  1.0
  C  C80  1  0.43729886  0.64927703  0.06369919  1.0
  C  C81  1  0.43690851  0.57724944  0.06286065  1.0
  C  C82  1  0.56407142  0.34956209  0.93748073  1.0
  C  C83  1  0.56311153  0.42289990  0.93701825  1.0
  C  C84  1  0.43766119  0.34936347  0.06362419  1.0
  C  C85  1  0.43708551  0.42268263  0.06281424  1.0
  C  C86  1  0.56369160  0.64944813  0.93756563  1.0
  C  C87  1  0.56293079  0.57742895  0.93709008  1.0
  C  C88  1  0.49981343  0.53900176  0.99982581  1.0
  C  C89  1  0.49990648  0.46140313  0.99978422  1.0
  C  C90  1  0.50149091  0.00110633  0.31166263  1.0
  C  C91  1  0.50101558  0.00119637  0.68605782  1.0
  C  C92  1  0.43766221  0.06362934  0.34935744  1.0
  C  C93  1  0.43708605  0.06281876  0.42267825  1.0
  C  C94  1  0.56369031  0.93756980  0.64944517  1.0
  C  C95  1  0.56293207  0.93709195  0.57742641  1.0
  C  C96  1  0.43729852  0.06370549  0.64927133  1.0
  C  C97  1  0.43690925  0.06286544  0.57724534  1.0
  C  C98  1  0.56407157  0.93748471  0.34955733  1.0
  C  C99  1  0.56311137  0.93702160  0.42289657  1.0
  C  C100  1  0.49990603  0.99978735  0.46140030  1.0
  C  C101  1  0.49981250  0.99982908  0.53900112  1.0
  C  C102  1  0.81192593  0.68598759  0.00125173  1.0
  C  C103  1  0.18592788  0.31161272  0.00111389  1.0
  C  C104  1  0.84940073  0.64939302  0.93762910  1.0
  C  C105  1  0.92262249  0.57734978  0.93714054  1.0
  C  C106  1  0.14946177  0.34929770  0.06365800  1.0
  C  C107  1  0.07749571  0.42258905  0.06285208  1.0
  C  C108  1  0.14904502  0.34946862  0.93751351  1.0
  C  C109  1  0.07708637  0.42278375  0.93706080  1.0
  C  C110  1  0.84989329  0.64917089  0.06376714  1.0
  C  C111  1  0.92310830  0.57711285  0.06292787  1.0
  C  C112  1  0.96144471  0.53890327  0.99986946  1.0
  C  C113  1  0.03898839  0.46130391  0.99982230  1.0
  C  C114  1  0.14867333  0.93734965  0.06396366  1.0
  C  C115  1  0.07577164  0.93538887  0.06475907  1.0
  C  C116  1  0.03663439  0.87069521  0.12900246  1.0
  C  C117  1  0.14867252  0.06397118  0.93734464  1.0
  C  C118  1  0.07577239  0.06476519  0.93538390  1.0
  C  C119  1  0.03663142  0.12901059  0.87069185  1.0
  C  C120  1  0.85104160  0.06391544  0.93734681  1.0
  C  C121  1  0.92511510  0.06472917  0.93539139  1.0
  C  C122  1  0.96462922  0.12900677  0.87071072  1.0
  C  C123  1  0.85104357  0.93735019  0.06391048  1.0
  C  C124  1  0.92511610  0.93539829  0.06472155  1.0
  C  C125  1  0.96463014  0.87071378  0.12900071  1.0
  C  C126  1  0.18437863  0.00118433  0.00117847  1.0
  C  C127  1  0.03786236  0.99995513  0.99994946  1.0
  C  C128  1  0.81425122  0.00112444  0.00111837  1.0
  C  C129  1  0.96330503  0.99994429  0.99993698  1.0
  C  C130  1  0.50131580  0.68593808  0.31174234  1.0
  C  C131  1  0.50131424  0.31174572  0.68593676  1.0
  C  C132  1  0.56401645  0.64918066  0.34959690  1.0
  C  C133  1  0.56314711  0.57726093  0.42280250  1.0
  C  C134  1  0.43747462  0.34951323  0.64923930  1.0
  C  C135  1  0.43696279  0.42271825  0.57731535  1.0
  C  C136  1  0.56401366  0.34959722  0.64917945  1.0
  C  C137  1  0.56314669  0.42280415  0.57725891  1.0
  C  C138  1  0.43747786  0.64924189  0.34951079  1.0
  C  C139  1  0.43696595  0.57731704  0.42271605  1.0
  C  C140  1  0.49988429  0.53893829  0.46140973  1.0
  C  C141  1  0.49988329  0.46140827  0.53893958  1.0
  Br  Br142  1  0.91378727  0.78542108  0.21424217  1.0
  Br  Br143  1  0.08744019  0.78536720  0.21428859  1.0
  Br  Br144  1  0.91378609  0.21424838  0.78541676  1.0
  Br  Br145  1  0.08743621  0.21429880  0.78536542  1.0
  O  O146  1  0.70306930  0.06134037  0.79390109  1.0
  O  O147  1  0.44212732  0.79387185  0.06136280  1.0
  O  O148  1  0.29348849  0.94255282  0.20219852  1.0
  O  O149  1  0.56220546  0.20209667  0.94270852  1.0
  O  O150  1  0.70443551  0.94241965  0.06124478  1.0
  O  O151  1  0.44248354  0.20248194  0.79366841  1.0
  O  O152  1  0.29268771  0.06129182  0.94244588  1.0
  O  O153  1  0.56181731  0.79364966  0.20256260  1.0
  O  O154  1  0.70258338  0.79398410  0.94255955  1.0
  O  O155  1  0.44284643  0.06132961  0.20226182  1.0
  O  O156  1  0.29383543  0.20227818  0.06131223  1.0
  O  O157  1  0.56123140  0.94252064  0.79394888  1.0
  O  O158  1  0.56220688  0.94271291  0.20209265  1.0
  O  O159  1  0.29348902  0.20220399  0.94254861  1.0
  O  O160  1  0.44212669  0.06136700  0.79386808  1.0
  O  O161  1  0.70307060  0.79390472  0.06133647  1.0
  O  O162  1  0.70443314  0.06125415  0.94241262  1.0
  O  O163  1  0.44248294  0.79367113  0.20247870  1.0
  O  O164  1  0.29269027  0.94244773  0.06129006  1.0
  O  O165  1  0.56181874  0.20256476  0.79364752  1.0
  O  O166  1  0.44284784  0.20226654  0.06132409  1.0
  O  O167  1  0.70258649  0.94256287  0.79398218  1.0
  O  O168  1  0.56123067  0.79395468  0.94251605  1.0
  O  O169  1  0.29383467  0.06131758  0.20227296  1.0
  O  O170  1  0.44831516  0.15594708  0.94793234  1.0
  O  O171  1  0.44831376  0.94793590  0.15594278  1.0
  O  O172  1  0.44758741  0.94813908  0.94813553  1.0
  O  O173  1  0.65671080  0.94815412  0.94814878  1.0
  O  O174  1  0.53858253  0.88493268  0.03848028  1.0
  O  O175  1  0.53858507  0.03848386  0.88492849  1.0
  O  O176  1  0.38471794  0.03831435  0.03831246  1.0
  O  O177  1  0.53914285  0.03831670  0.03831018  1.0
