# generated using pymatgen
data_AlH9(C3O2)6
_symmetry_space_group_name_H-M   'P 1'
_cell_length_a   4.27434959
_cell_length_b   17.17650138
_cell_length_c   17.17646364
_cell_angle_alpha   59.99998474
_cell_angle_beta   89.99977520
_cell_angle_gamma   90.00006647
_symmetry_Int_Tables_number   1
_chemical_formula_structural   AlH9(C3O2)6
_chemical_formula_sum   'Al2 H18 C36 O24'
_cell_volume   1092.11674828
_cell_formula_units_Z   2
loop_
 _symmetry_equiv_pos_site_id
 _symmetry_equiv_pos_as_xyz
  1  'x, y, z'
loop_
 _atom_site_type_symbol
 _atom_site_label
 _atom_site_symmetry_multiplicity
 _atom_site_fract_x
 _atom_site_fract_y
 _atom_site_fract_z
 _atom_site_occupancy
  Al  Al0  1  0.98884439  0.99999961  0.49999923  1.0
  Al  Al1  1  0.01065759  0.66666670  0.16666689  1.0
  H  H2  1  0.29049134  0.41781362  0.47604596  1.0
  H  H3  1  0.70475321  0.41881617  0.47445811  1.0
  H  H4  1  0.71021263  0.24902244  0.56049793  1.0
  H  H5  1  0.29599055  0.24804746  0.55999357  1.0
  H  H6  1  0.29048851  0.97604377  0.10614077  1.0
  H  H7  1  0.70475036  0.97445544  0.10672631  1.0
  H  H8  1  0.71021273  0.06049403  0.19048043  1.0
  H  H9  1  0.29599297  0.05999095  0.19196060  1.0
  H  H10  1  0.29048603  0.60614104  0.91781685  1.0
  H  H11  1  0.70475022  0.60672611  0.91881599  1.0
  H  H12  1  0.71020519  0.69047926  0.74902304  1.0
  H  H13  1  0.29598312  0.69195867  0.74804833  1.0
  H  H14  1  0.89104255  0.20550973  0.23788532  1.0
  H  H15  1  0.10873564  0.46102780  0.11014222  1.0
  H  H16  1  0.89104367  0.73788430  0.55660581  1.0
  H  H17  1  0.10874756  0.61013995  0.42883191  1.0
  H  H18  1  0.89104091  0.05660332  0.70551210  1.0
  H  H19  1  0.10873715  0.92882770  0.96102772  1.0
  C  C20  1  0.49247525  0.92931423  0.63592927  1.0
  C  C21  1  0.49247729  0.13593021  0.43475525  1.0
  C  C22  1  0.49248155  0.93475431  0.42931452  1.0
  C  C23  1  0.50725158  0.53066956  0.23721996  1.0
  C  C24  1  0.50725210  0.73721947  0.23211001  1.0
  C  C25  1  0.50725833  0.73211050  0.03066966  1.0
  C  C26  1  0.49621537  0.43017802  0.28690108  1.0
  C  C27  1  0.50355797  0.23641838  0.38389397  1.0
  C  C28  1  0.49471020  0.38030396  0.38033944  1.0
  C  C29  1  0.49792522  0.28589984  0.28889486  1.0
  C  C30  1  0.50558847  0.28637568  0.42735603  1.0
  C  C31  1  0.50166672  0.38057904  0.24149465  1.0
  C  C32  1  0.49721286  0.38646309  0.46545788  1.0
  C  C33  1  0.50347046  0.28034412  0.51857740  1.0
  C  C34  1  0.49622092  0.78689918  0.28292151  1.0
  C  C35  1  0.50356187  0.88389082  0.37968894  1.0
  C  C36  1  0.49470546  0.88033672  0.23935642  1.0
  C  C37  1  0.49793003  0.78889363  0.42520640  1.0
  C  C38  1  0.50558873  0.92735425  0.28626781  1.0
  C  C39  1  0.50167588  0.74149293  0.37792709  1.0
  C  C40  1  0.49720967  0.96545648  0.14807923  1.0
  C  C41  1  0.50347232  0.01857473  0.20107894  1.0
  C  C42  1  0.49622524  0.78292086  0.93017854  1.0
  C  C43  1  0.50355206  0.87968756  0.73641770  1.0
  C  C44  1  0.49470951  0.73935739  0.88030353  1.0
  C  C45  1  0.49792286  0.92520527  0.78589895  1.0
  C  C46  1  0.50558218  0.78626682  0.78637560  1.0
  C  C47  1  0.50167229  0.87792679  0.88057729  1.0
  C  C48  1  0.49720320  0.64807918  0.88646309  1.0
  C  C49  1  0.50346007  0.70107857  0.78034452  1.0
  C  C50  1  0.45191382  0.23629276  0.23840123  1.0
  C  C51  1  0.54768865  0.43017146  0.14140931  1.0
  C  C52  1  0.45191277  0.73840241  0.52530624  1.0
  C  C53  1  0.54769162  0.64140949  0.42842122  1.0
  C  C54  1  0.45190712  0.02530620  0.73629207  1.0
  C  C55  1  0.54769540  0.92841990  0.93017030  1.0
  O  O56  1  0.72148503  0.98702501  0.41696533  1.0
  O  O57  1  0.72148347  0.91696640  0.59600803  1.0
  O  O58  1  0.72148474  0.09600769  0.48702517  1.0
  O  O59  1  0.25253586  0.92153222  0.47868770  1.0
  O  O60  1  0.25253905  0.09978021  0.42153117  1.0
  O  O61  1  0.25253739  0.97868930  0.59977788  1.0
  O  O62  1  0.74718464  0.74526329  0.06688716  1.0
  O  O63  1  0.74717861  0.56688684  0.18785038  1.0
  O  O64  1  0.74718078  0.68784912  0.24526246  1.0
  O  O65  1  0.27815872  0.67985323  0.07057427  1.0
  O  O66  1  0.27815335  0.74957344  0.17985205  1.0
  O  O67  1  0.27814538  0.57057386  0.24957257  1.0
  O  O68  1  0.67000768  0.18212855  0.23928113  1.0
  O  O69  1  0.20181527  0.24348580  0.19925269  1.0
  O  O70  1  0.32969111  0.48440765  0.08813689  1.0
  O  O71  1  0.79780881  0.42294218  0.10948450  1.0
  O  O72  1  0.67001104  0.73928179  0.57858879  1.0
  O  O73  1  0.20182526  0.69925344  0.55726235  1.0
  O  O74  1  0.32970746  0.58813444  0.42745891  1.0
  O  O75  1  0.79782988  0.60948483  0.46757798  1.0
  O  O76  1  0.67000868  0.07859002  0.68212980  1.0
  O  O77  1  0.20181295  0.05726174  0.74348681  1.0
  O  O78  1  0.32968754  0.92745236  0.98440855  1.0
  O  O79  1  0.79780144  0.96757222  0.92294228  1.0
