# generated using pymatgen
data_ZnH13C24(NO2)3
_symmetry_space_group_name_H-M   'P 1'
_cell_length_a   11.77631818
_cell_length_b   13.16651944
_cell_length_c   23.82384195
_cell_angle_alpha   89.61354678
_cell_angle_beta   86.55945668
_cell_angle_gamma   85.20179094
_symmetry_Int_Tables_number   1
_chemical_formula_structural   ZnH13C24(NO2)3
_chemical_formula_sum   'Zn2 H26 C48 N6 O12'
_cell_volume   3674.37535367
_cell_formula_units_Z   2
loop_
 _symmetry_equiv_pos_site_id
 _symmetry_equiv_pos_as_xyz
  1  'x, y, z'
loop_
 _atom_site_type_symbol
 _atom_site_label
 _atom_site_symmetry_multiplicity
 _atom_site_fract_x
 _atom_site_fract_y
 _atom_site_fract_z
 _atom_site_occupancy
  Zn  Zn0  1  0.61650650  0.49960977  0.49462997  1.0
  Zn  Zn1  1  0.38349188  0.50038945  0.50536685  1.0
  H  H2  1  0.49886997  0.75460863  0.94455627  1.0
  H  H3  1  0.49780141  0.24373619  0.94932962  1.0
  H  H4  1  0.67682983  0.43977046  0.21211141  1.0
  H  H5  1  0.32317632  0.56023853  0.78788852  1.0
  H  H6  1  0.66886981  0.44549047  0.31765682  1.0
  H  H7  1  0.33113412  0.55452540  0.68234358  1.0
  H  H8  1  0.32738204  0.56547543  0.21615699  1.0
  H  H9  1  0.67262598  0.43454266  0.78384328  1.0
  H  H10  1  0.35981991  0.18089034  0.49331464  1.0
  H  H11  1  0.64016690  0.81910448  0.50668127  1.0
  H  H12  1  0.72301352  0.17148386  0.50321651  1.0
  H  H13  1  0.50112875  0.24539741  0.05544472  1.0
  H  H14  1  0.27697794  0.82850554  0.49678389  1.0
  H  H15  1  0.26386748  0.01888235  0.49267765  1.0
  H  H16  1  0.73611973  0.98110712  0.50732161  1.0
  H  H17  1  0.29722535  0.57839283  0.36871605  1.0
  H  H18  1  0.23912793  0.62186147  0.30600305  1.0
  H  H19  1  0.70277340  0.42162387  0.63128408  1.0
  H  H20  1  0.76087759  0.37815592  0.69399310  1.0
  H  H21  1  0.81688463  0.39919012  0.54583241  1.0
  H  H22  1  0.18310905  0.60080383  0.45416540  1.0
  H  H23  1  0.77144824  0.63316061  0.43049512  1.0
  H  H24  1  0.22855480  0.36683320  0.56950325  1.0
  H  H25  1  0.01813868  0.34273319  0.57895208  1.0
  H  H26  1  0.98186407  0.65726444  0.42104587  1.0
  H  H27  1  0.50220139  0.75627209  0.05066957  1.0
  C  C28  1  0.46694777  0.69947395  0.50260369  1.0
  C  C29  1  0.60465388  0.45970009  0.70195602  1.0
  C  C30  1  0.40207054  0.53889081  0.23877010  1.0
  C  C31  1  0.59793703  0.46112196  0.76123020  1.0
  C  C32  1  0.50194567  0.50352763  0.20909329  1.0
  C  C33  1  0.49806212  0.49648209  0.79090742  1.0
  C  C34  1  0.53976880  0.18646593  0.49848686  1.0
  C  C35  1  0.46021534  0.81353043  0.50151248  1.0
  C  C36  1  0.34609390  0.97502214  0.49585853  1.0
  C  C37  1  0.65389103  0.02497498  0.50414121  1.0
  C  C38  1  0.35287033  0.87024564  0.49790528  1.0
  C  C39  1  0.53304993  0.30052299  0.49739357  1.0
  C  C40  1  0.64711544  0.12975146  0.50209610  1.0
  C  C41  1  0.55850504  0.86377135  0.50363804  1.0
  C  C42  1  0.44148267  0.13622268  0.49636078  1.0
  C  C43  1  0.49721511  0.50692088  0.38879624  1.0
  C  C44  1  0.50278945  0.49308662  0.61120121  1.0
  C  C45  1  0.55427244  0.97140821  0.50207774  1.0
  C  C46  1  0.44570931  0.02858591  0.49792167  1.0
  C  C47  1  0.05143016  0.40002506  0.55062516  1.0
  C  C48  1  0.94856686  0.59996959  0.44937632  1.0
  C  C49  1  0.16640382  0.41263216  0.54587001  1.0
  C  C50  1  0.59970946  0.46864312  0.23635514  1.0
  C  C51  1  0.83359059  0.58736330  0.45412903  1.0
  C  C52  1  0.14262800  0.54427329  0.48047190  1.0
  C  C53  1  0.85737214  0.45572514  0.51952613  1.0
  C  C54  1  0.02321403  0.53731660  0.48182666  1.0
  C  C55  1  0.97678639  0.46267799  0.51817683  1.0
  C  C56  1  0.49571056  0.40265730  0.87965679  1.0
  C  C57  1  0.50429559  0.59735169  0.12034397  1.0
  C  C58  1  0.49778729  0.59339423  0.87781693  1.0
  C  C59  1  0.50221278  0.40661637  0.12218234  1.0
  C  C60  1  0.49822207  0.59271715  0.94010355  1.0
  C  C61  1  0.40029913  0.53136735  0.76364513  1.0
  C  C62  1  0.50177085  0.40728668  0.05989888  1.0
  C  C63  1  0.49897988  0.49954525  0.97013142  1.0
  C  C64  1  0.50101559  0.50045855  0.02987135  1.0
  C  C65  1  0.49777962  0.40544739  0.94186301  1.0
  C  C66  1  0.50221830  0.59455790  0.05813801  1.0
  C  C67  1  0.49934246  0.68410601  0.96882787  1.0
  C  C68  1  0.50065410  0.31589475  0.03117151  1.0
  C  C69  1  0.50128312  0.68503050  0.02771679  1.0
  C  C70  1  0.49871605  0.31496944  0.97228503  1.0
  C  C71  1  0.59451356  0.47116411  0.29466819  1.0
  C  C72  1  0.40549559  0.52885016  0.70533164  1.0
  C  C73  1  0.49460106  0.50595119  0.32643849  1.0
  C  C74  1  0.50540827  0.49406079  0.67356092  1.0
  C  C75  1  0.39535612  0.54031417  0.29804337  1.0
  N  N76  1  0.49639950  0.49751043  0.85166449  1.0
  N  N77  1  0.50360013  0.50248342  0.14833650  1.0
  N  N78  1  0.78958532  0.51578640  0.48898735  1.0
  N  N79  1  0.21041159  0.48420980  0.51100868  1.0
  N  N80  1  0.29400733  0.57330777  0.32622832  1.0
  N  N81  1  0.70599836  0.42670733  0.67376993  1.0
  O  O82  1  0.56648459  0.65247965  0.50001033  1.0
  O  O83  1  0.50628775  0.67708464  0.14663184  1.0
  O  O84  1  0.49944043  0.67200889  0.84985734  1.0
  O  O85  1  0.50056000  0.32798569  0.15014699  1.0
  O  O86  1  0.43351209  0.34751960  0.49998569  1.0
  O  O87  1  0.37315695  0.65745750  0.50579989  1.0
  O  O88  1  0.62683996  0.34253871  0.49419403  1.0
  O  O89  1  0.59456600  0.49945983  0.40989010  1.0
  O  O90  1  0.40543539  0.50054467  0.59010872  1.0
  O  O91  1  0.40152537  0.51506994  0.41807882  1.0
  O  O92  1  0.59847869  0.48493300  0.58191824  1.0
  O  O93  1  0.49372364  0.32291133  0.85336754  1.0
