# generated using pymatgen
data_ZnH28C30N(ClO2)2
_symmetry_space_group_name_H-M   'P 1'
_cell_length_a   16.62450145
_cell_length_b   17.62686849
_cell_length_c   17.81140293
_cell_angle_alpha   90.45613606
_cell_angle_beta   92.06470713
_cell_angle_gamma   95.07717541
_symmetry_Int_Tables_number   1
_chemical_formula_structural   ZnH28C30N(ClO2)2
_chemical_formula_sum   'Zn2 H56 C60 N2 Cl4 O8'
_cell_volume   5195.23603117
_cell_formula_units_Z   2
loop_
 _symmetry_equiv_pos_site_id
 _symmetry_equiv_pos_as_xyz
  1  'x, y, z'
loop_
 _atom_site_type_symbol
 _atom_site_label
 _atom_site_symmetry_multiplicity
 _atom_site_fract_x
 _atom_site_fract_y
 _atom_site_fract_z
 _atom_site_occupancy
  Zn  Zn0  1  0.41090204  0.49701378  0.49698531  1.0
  Zn  Zn1  1  0.59277645  0.50325797  0.50254386  1.0
  H  H2  1  0.00976129  0.58749337  0.50539681  1.0
  H  H3  1  0.99384393  0.41306026  0.49465340  1.0
  H  H4  1  0.44171646  0.00156219  0.42802969  1.0
  H  H5  1  0.54801125  0.99785273  0.57150855  1.0
  H  H6  1  0.36538206  0.46351724  0.73232587  1.0
  H  H7  1  0.62466709  0.49400079  0.74059250  1.0
  H  H8  1  0.36678221  0.51603566  0.25857711  1.0
  H  H9  1  0.62604401  0.52656836  0.26678393  1.0
  H  H10  1  0.72985515  0.56635816  0.66922639  1.0
  H  H11  1  0.65981178  0.59775348  0.60179588  1.0
  H  H12  1  0.75238122  0.65340856  0.62302079  1.0
  H  H13  1  0.88571658  0.66962204  0.61201666  1.0
  H  H14  1  0.96185514  0.60504907  0.61458591  1.0
  H  H15  1  0.87779799  0.59085418  0.67258265  1.0
  H  H16  1  0.69917897  0.44522706  0.34381501  1.0
  H  H17  1  0.64982082  0.40036351  0.41991285  1.0
  H  H18  1  0.74042532  0.36683786  0.38758300  1.0
  H  H19  1  0.88497542  0.38268359  0.38581021  1.0
  H  H20  1  0.94015900  0.47140139  0.36944134  1.0
  H  H21  1  0.84198009  0.45012954  0.32774256  1.0
  H  H22  1  0.15987326  0.54537508  0.67447009  1.0
  H  H23  1  0.06227142  0.52569283  0.63108615  1.0
  H  H24  1  0.11837443  0.61448655  0.61744423  1.0
  H  H25  1  0.26455583  0.62732825  0.62031607  1.0
  H  H26  1  0.35509696  0.59296922  0.58948270  1.0
  H  H27  1  0.30009590  0.54506056  0.66119592  1.0
  H  H28  1  0.12103122  0.41833576  0.32530883  1.0
  H  H29  1  0.04169614  0.39390157  0.38662819  1.0
  H  H30  1  0.12342294  0.33600618  0.38059334  1.0
  H  H31  1  0.25884552  0.35313633  0.37443190  1.0
  H  H32  1  0.34449300  0.42006753  0.38569710  1.0
  H  H33  1  0.26169757  0.43957160  0.32512832  1.0
  H  H34  1  0.30435581  0.26828876  0.45488170  1.0
  H  H35  1  0.34273456  0.31369842  0.53884631  1.0
  H  H36  1  0.29311625  0.22005384  0.54119450  1.0
  H  H37  1  0.30256048  0.08914583  0.53926271  1.0
  H  H38  1  0.33437274  0.04197983  0.45941572  1.0
  H  H39  1  0.28595226  0.12714212  0.44896951  1.0
  H  H40  1  0.67997804  0.22784245  0.56613859  1.0
  H  H41  1  0.63709978  0.31614834  0.57669018  1.0
  H  H42  1  0.67706376  0.29230255  0.49058044  1.0
  H  H43  1  0.68151963  0.15072747  0.46809089  1.0
  H  H44  1  0.62642413  0.05969251  0.46382426  1.0
  H  H45  1  0.66253186  0.09955908  0.55136046  1.0
  H  H46  1  0.33421788  0.88670684  0.44000394  1.0
  H  H47  1  0.36339453  0.93157889  0.52722933  1.0
  H  H48  1  0.31391135  0.83799156  0.52442923  1.0
  H  H49  1  0.32748922  0.70375873  0.51347785  1.0
  H  H50  1  0.37377658  0.66590669  0.43563145  1.0
  H  H51  1  0.32700027  0.75244989  0.42696054  1.0
  H  H52  1  0.70948039  0.88190173  0.55730465  1.0
  H  H53  1  0.65586593  0.96389352  0.54861253  1.0
  H  H54  1  0.69362318  0.92282945  0.46818933  1.0
  H  H55  1  0.71474978  0.79629420  0.46934586  1.0
  H  H56  1  0.66993185  0.70147160  0.45549863  1.0
  H  H57  1  0.69869426  0.73515734  0.54665718  1.0
  C  C58  1  0.49499124  0.35300304  0.49902968  1.0
  C  C59  1  0.49692014  0.51495715  0.35487981  1.0
  C  C60  1  0.51701528  0.64723761  0.50052177  1.0
  C  C61  1  0.49510307  0.48535200  0.64421554  1.0
  C  C62  1  0.75869714  0.47069717  0.45178171  1.0
  C  C63  1  0.84314734  0.47938085  0.44544319  1.0
  C  C64  1  0.89002169  0.52342708  0.50020225  1.0
  C  C65  1  0.85048370  0.56179235  0.55580789  1.0
  C  C66  1  0.76560091  0.55410390  0.55565572  1.0
  C  C67  1  0.97914952  0.52998887  0.50109832  1.0
  C  C68  1  0.02445301  0.47057052  0.49879067  1.0
  C  C69  1  0.15318706  0.44134220  0.44252901  1.0
  C  C70  1  0.11361743  0.47728576  0.49969618  1.0
  C  C71  1  0.16038275  0.51918851  0.55600015  1.0
  C  C72  1  0.24498465  0.52730709  0.55062073  1.0
  C  C73  1  0.23802239  0.45050695  0.44181184  1.0
  C  C74  1  0.48975737  0.26751160  0.50699190  1.0
  C  C75  1  0.56152021  0.22945961  0.51433576  1.0
  C  C76  1  0.55783001  0.15011756  0.50158809  1.0
  C  C77  1  0.48233028  0.10736518  0.48992233  1.0
  C  C78  1  0.41039508  0.14444403  0.49131352  1.0
  C  C79  1  0.41362416  0.22400974  0.50094758  1.0
  C  C80  1  0.47715424  0.02398385  0.47761814  1.0
  C  C81  1  0.51290421  0.97445391  0.52212802  1.0
  C  C82  1  0.58723513  0.85910253  0.51073887  1.0
  C  C83  1  0.51229972  0.89139674  0.50991865  1.0
  C  C84  1  0.43975036  0.84434314  0.49642365  1.0
  C  C85  1  0.44209472  0.76519628  0.48636022  1.0
  C  C86  1  0.51688303  0.73239679  0.49322576  1.0
  C  C87  1  0.59026501  0.78027279  0.49944279  1.0
  C  C88  1  0.49499017  0.48050776  0.72846260  1.0
  C  C89  1  0.42190003  0.47183809  0.76524049  1.0
  C  C90  1  0.42212491  0.47531926  0.84314033  1.0
  C  C91  1  0.49522969  0.48633884  0.88716072  1.0
  C  C92  1  0.56832391  0.49062569  0.84790762  1.0
  C  C93  1  0.56829841  0.48852002  0.77003038  1.0
  C  C94  1  0.49528167  0.49466931  0.96564376  1.0
  C  C95  1  0.49539012  0.50453576  0.03355871  1.0
  C  C96  1  0.49576797  0.51318609  0.11202142  1.0
  C  C97  1  0.42292889  0.51294880  0.15132683  1.0
  C  C98  1  0.42309290  0.51680898  0.22923113  1.0
  C  C99  1  0.49636840  0.51979538  0.27067021  1.0
  C  C100  1  0.56946120  0.52296086  0.23383359  1.0
  C  C101  1  0.56909373  0.52055491  0.15596662  1.0
  C  C102  1  0.72402123  0.59517498  0.61487277  1.0
  C  C103  1  0.89668560  0.60910914  0.61650290  1.0
  C  C104  1  0.70911040  0.41790943  0.39826787  1.0
  C  C105  1  0.87967201  0.44410001  0.37885101  1.0
  C  C106  1  0.12313359  0.55281656  0.62308565  1.0
  C  C107  1  0.29437402  0.57571071  0.60796906  1.0
  C  C108  1  0.10709938  0.39515007  0.38100582  1.0
  C  C109  1  0.27890410  0.41415095  0.37901441  1.0
  C  C110  1  0.33453346  0.25874987  0.50959440  1.0
  C  C111  1  0.32942871  0.09843838  0.48400501  1.0
  C  C112  1  0.64314203  0.26867769  0.53821960  1.0
  C  C113  1  0.63597000  0.11306335  0.49597258  1.0
  C  C114  1  0.35878079  0.87691441  0.49710273  1.0
  C  C115  1  0.36371362  0.71899450  0.46443502  1.0
  C  C116  1  0.66523036  0.90936769  0.52206422  1.0
  C  C117  1  0.67268716  0.75159923  0.49209264  1.0
  N  N118  1  0.72098115  0.50834615  0.50514577  1.0
  N  N119  1  0.28270490  0.49304901  0.49484343  1.0
  Cl  Cl120  1  0.65932335  0.50053646  0.89842736  1.0
  Cl  Cl121  1  0.33132099  0.46767231  0.88781015  1.0
  Cl  Cl122  1  0.65980449  0.52451551  0.11127986  1.0
  Cl  Cl123  1  0.33187532  0.50594627  0.10083802  1.0
  O  O124  1  0.43291981  0.38418578  0.47443741  1.0
  O  O125  1  0.56335997  0.39015194  0.51343747  1.0
  O  O126  1  0.56199273  0.49745837  0.38666633  1.0
  O  O127  1  0.43152413  0.52682054  0.38657944  1.0
  O  O128  1  0.58162472  0.61599333  0.48769025  1.0
  O  O129  1  0.45305397  0.61015341  0.52301259  1.0
  O  O130  1  0.42776796  0.46937274  0.60876900  1.0
  O  O131  1  0.56230206  0.50677143  0.61612975  1.0
