# generated using pymatgen
data_Al2H10C24O13
_symmetry_space_group_name_H-M   'P 1'
_cell_length_a   6.67109152
_cell_length_b   18.40004109
_cell_length_c   20.40689757
_cell_angle_alpha   87.40737959
_cell_angle_beta   89.99988341
_cell_angle_gamma   89.99798331
_symmetry_Int_Tables_number   1
_chemical_formula_structural   Al2H10C24O13
_chemical_formula_sum   'Al4 H20 C48 O26'
_cell_volume   2502.34915007
_cell_formula_units_Z   2
loop_
 _symmetry_equiv_pos_site_id
 _symmetry_equiv_pos_as_xyz
  1  'x, y, z'
loop_
 _atom_site_type_symbol
 _atom_site_label
 _atom_site_symmetry_multiplicity
 _atom_site_fract_x
 _atom_site_fract_y
 _atom_site_fract_z
 _atom_site_occupancy
  Al  Al0  1  0.93170269  0.49779033  0.50329920  1.0
  Al  Al1  1  0.43170636  0.50221199  0.49670564  1.0
  Al  Al2  1  0.31476325  0.00221044  0.99606788  1.0
  Al  Al3  1  0.81475904  0.99779262  0.00393003  1.0
  H  H4  1  0.80153233  0.40439614  0.77767219  1.0
  H  H5  1  0.30157749  0.59560644  0.22231836  1.0
  H  H6  1  0.23832560  0.14665170  0.81679101  1.0
  H  H7  1  0.73829667  0.85335429  0.18320985  1.0
  H  H8  1  0.32523975  0.15021506  0.72449121  1.0
  H  H9  1  0.82518767  0.84979195  0.27551116  1.0
  H  H10  1  0.48746180  0.16738403  0.61661293  1.0
  H  H11  1  0.98738329  0.83262500  0.38339543  1.0
  H  H12  1  0.95220776  0.41719930  0.67088000  1.0
  H  H13  1  0.45222906  0.58279977  0.32911157  1.0
  H  H14  1  0.79061237  0.17099587  0.98095153  1.0
  H  H15  1  0.29063296  0.82900703  0.01904491  1.0
  H  H16  1  0.70988379  0.38297643  0.86076709  1.0
  H  H17  1  0.20996217  0.61701672  0.13921794  1.0
  H  H18  1  0.45217047  0.32939056  0.52198614  1.0
  H  H19  1  0.95213594  0.67061787  0.47801238  1.0
  H  H20  1  0.66733042  0.46471688  0.58131765  1.0
  H  H21  1  0.16733008  0.53523873  0.41866753  1.0
  H  H22  1  0.58001866  0.03096832  0.91714494  1.0
  H  H23  1  0.08001674  0.96904979  0.08285791  1.0
  C  C24  1  0.68597553  0.41482770  0.41258028  1.0
  C  C25  1  0.18601019  0.58517334  0.58742296  1.0
  C  C26  1  0.68791120  0.60974408  0.42822636  1.0
  C  C27  1  0.18790748  0.39025425  0.57177637  1.0
  C  C28  1  0.85103772  0.29189795  0.86843837  1.0
  C  C29  1  0.35107390  0.70809926  0.13155019  1.0
  C  C30  1  0.02942674  0.17827846  0.88895130  1.0
  C  C31  1  0.52943032  0.82172335  0.11104353  1.0
  C  C32  1  0.35659790  0.27256390  0.59557770  1.0
  C  C33  1  0.85655089  0.72744421  0.40442715  1.0
  C  C34  1  0.38676543  0.20852720  0.63476709  1.0
  C  C35  1  0.88669732  0.79148155  0.36523925  1.0
  C  C36  1  0.29534721  0.19987062  0.69507791  1.0
  C  C37  1  0.79529538  0.80013558  0.30492592  1.0
  C  C38  1  0.16683463  0.25347968  0.71966442  1.0
  C  C39  1  0.66681853  0.74652294  0.28033441  1.0
  C  C40  1  0.12087819  0.31561628  0.67792572  1.0
  C  C41  1  0.62087847  0.68438255  0.32207306  1.0
  C  C42  1  0.08227876  0.24619900  0.78518005  1.0
  C  C43  1  0.58228064  0.75380316  0.21481628  1.0
  C  C44  1  0.94475843  0.30028852  0.80619073  1.0
  C  C45  1  0.44478428  0.69970997  0.19380279  1.0
  C  C46  1  0.90336052  0.36153518  0.76286527  1.0
  C  C47  1  0.40338914  0.63846287  0.23712578  1.0
  C  C48  1  0.98754908  0.36933105  0.70191412  1.0
  C  C49  1  0.48757033  0.63066596  0.29807745  1.0
  C  C50  1  0.12886309  0.18765470  0.82917755  1.0
  C  C51  1  0.62885348  0.81234732  0.17082077  1.0
  C  C52  1  0.88355111  0.22933766  0.90846761  1.0
  C  C53  1  0.38357535  0.77066118  0.09152343  1.0
  C  C54  1  0.21705124  0.32473742  0.61542462  1.0
  C  C55  1  0.71703376  0.67526161  0.38457862  1.0
  C  C56  1  0.06123985  0.86145259  0.86315124  1.0
  C  C57  1  0.56123049  0.13854423  0.13685681  1.0
  C  C58  1  0.08140544  0.81771352  0.82003325  1.0
  C  C59  1  0.58139413  0.18227732  0.17997967  1.0
  C  C60  1  0.10675030  0.77039716  0.77270092  1.0
  C  C61  1  0.60674262  0.22958997  0.22731444  1.0
  C  C62  1  0.13420552  0.72745774  0.72886088  1.0
  C  C63  1  0.63421245  0.27253101  0.27114910  1.0
  C  C64  1  0.16061315  0.68062683  0.68120333  1.0
  C  C65  1  0.66062676  0.31937210  0.31880381  1.0
  C  C66  1  0.18265996  0.63756905  0.63760424  1.0
  C  C67  1  0.68267168  0.36242828  0.36239799  1.0
  C  C68  1  0.55872666  0.88926273  0.06991079  1.0
  C  C69  1  0.05872651  0.11073917  0.93008553  1.0
  C  C70  1  0.55937320  0.08563920  0.08701821  1.0
  C  C71  1  0.05934962  0.91436276  0.91298596  1.0
  O  O72  1  0.51502475  0.58289566  0.44004843  1.0
  O  O73  1  0.01498395  0.41706422  0.55991463  1.0
  O  O74  1  0.85585218  0.43399759  0.43436516  1.0
  O  O75  1  0.35588004  0.56605957  0.56560183  1.0
  O  O76  1  0.85068187  0.58337868  0.45362752  1.0
  O  O77  1  0.35068324  0.41665680  0.54642026  1.0
  O  O78  1  0.01385971  0.56247186  0.57032652  1.0
  O  O79  1  0.51381055  0.43747149  0.42971247  1.0
  O  O80  1  0.67799321  0.49137403  0.53939801  1.0
  O  O81  1  0.17798614  0.50862369  0.46060766  1.0
  O  O82  1  0.73194441  0.06299498  0.07044107  1.0
  O  O83  1  0.23191833  0.93704126  0.92953697  1.0
  O  O84  1  0.39610285  0.91626271  0.04528596  1.0
  O  O85  1  0.89610946  0.08372051  0.95468238  1.0
  O  O86  1  0.39005720  0.06625049  0.06500525  1.0
  O  O87  1  0.89004615  0.93371655  0.93501596  1.0
  O  O88  1  0.23158117  0.08270806  0.93878335  1.0
  O  O89  1  0.73154706  0.91731519  0.06123874  1.0
  O  O90  1  0.56913530  0.00826558  0.96076401  1.0
  O  O91  1  0.06914204  0.99173771  0.03923429  1.0
  O  O92  1  0.77826704  0.22220022  0.96531123  1.0
  O  O93  1  0.27828968  0.77780101  0.03467929  1.0
  O  O94  1  0.72040575  0.34158173  0.89197595  1.0
  O  O95  1  0.22046376  0.65841272  0.10801253  1.0
  O  O96  1  0.46266901  0.27850525  0.53892915  1.0
  O  O97  1  0.96261897  0.72150753  0.46107628  1.0
