# generated using pymatgen
data_ZnH14C15BrNO4
_symmetry_space_group_name_H-M   'P 1'
_cell_length_a   9.59480329
_cell_length_b   10.86791110
_cell_length_c   16.12163937
_cell_angle_alpha   89.62707143
_cell_angle_beta   90.73963124
_cell_angle_gamma   89.77268890
_symmetry_Int_Tables_number   1
_chemical_formula_structural   ZnH14C15BrNO4
_chemical_formula_sum   'Zn2 H28 C30 Br2 N2 O8'
_cell_volume   1680.90203651
_cell_formula_units_Z   2
loop_
 _symmetry_equiv_pos_site_id
 _symmetry_equiv_pos_as_xyz
  1  'x, y, z'
loop_
 _atom_site_type_symbol
 _atom_site_label
 _atom_site_symmetry_multiplicity
 _atom_site_fract_x
 _atom_site_fract_y
 _atom_site_fract_z
 _atom_site_occupancy
  Zn  Zn0  1  0.35170041  0.50017157  0.49848214  1.0
  Zn  Zn1  1  0.64452947  0.49756192  0.50024964  1.0
  H  H2  1  0.60528501  0.31066193  0.05561371  1.0
  H  H3  1  0.29775660  0.88958698  0.44874568  1.0
  H  H4  1  0.52237787  0.89039428  0.36855107  1.0
  H  H5  1  0.69042029  0.10787048  0.57248891  1.0
  H  H6  1  0.53646921  0.11032511  0.63123933  1.0
  H  H7  1  0.53420920  0.89546415  0.63561428  1.0
  H  H8  1  0.69056156  0.89208384  0.57910282  1.0
  H  H9  1  0.68025084  0.10713739  0.42084860  1.0
  H  H10  1  0.68433689  0.89218890  0.42207670  1.0
  H  H11  1  0.87268385  0.30416468  0.49981610  1.0
  H  H12  1  0.37094136  0.32262364  0.94634514  1.0
  H  H13  1  0.89377916  0.37272921  0.59860395  1.0
  H  H14  1  0.13901661  0.35743893  0.57962742  1.0
  H  H15  1  0.11658409  0.31428043  0.47489658  1.0
  H  H16  1  0.87334462  0.43578982  0.37727580  1.0
  H  H17  1  0.11861080  0.46090031  0.36902975  1.0
  H  H18  1  0.87641724  0.68601746  0.52437003  1.0
  H  H19  1  0.87172297  0.59095829  0.61395712  1.0
  H  H20  1  0.11983473  0.57043398  0.61608337  1.0
  H  H21  1  0.12258369  0.68680109  0.53853333  1.0
  H  H22  1  0.85685435  0.59670948  0.38815996  1.0
  H  H23  1  0.74260703  0.48768493  0.95550062  1.0
  H  H24  1  0.62808800  0.67791347  0.05390548  1.0
  H  H25  1  0.39328229  0.68998235  0.94517514  1.0
  H  H26  1  0.25619870  0.51271462  0.04514764  1.0
  H  H27  1  0.28980472  0.10426472  0.45019039  1.0
  H  H28  1  0.30226487  0.10399925  0.55932838  1.0
  H  H29  1  0.30105779  0.88842729  0.55780967  1.0
  C  C30  1  0.50246283  0.25973884  0.49916138  1.0
  C  C31  1  0.49459256  0.50058701  0.08537995  1.0
  C  C32  1  0.44016945  0.60572767  0.97058495  1.0
  C  C33  1  0.50390103  0.50006343  0.91504999  1.0
  C  C34  1  0.57110632  0.59899348  0.02918281  1.0
  C  C35  1  0.63459784  0.49328828  0.97601224  1.0
  C  C36  1  0.49178368  0.49909566  0.17304236  1.0
  C  C37  1  0.50323266  0.49907698  0.82731073  1.0
  C  C38  1  0.35086267  0.06814791  0.50308494  1.0
  C  C39  1  0.35353903  0.92607910  0.50305104  1.0
  C  C40  1  0.57526399  0.06824972  0.42283726  1.0
  C  C41  1  0.48887404  0.49616041  0.33802083  1.0
  C  C42  1  0.58388045  0.07140348  0.57542809  1.0
  C  C43  1  0.49946075  0.11893858  0.49865495  1.0
  C  C44  1  0.50437031  0.87825650  0.50262774  1.0
  C  C45  1  0.57644658  0.92652131  0.42359680  1.0
  C  C46  1  0.58384994  0.92899849  0.57869943  1.0
  C  C47  1  0.92293138  0.37998924  0.53314900  1.0
  C  C48  1  0.08268932  0.38016212  0.52190127  1.0
  C  C49  1  0.90919528  0.51489415  0.41367571  1.0
  C  C50  1  0.91695692  0.60062145  0.55205845  1.0
  C  C51  1  0.06925601  0.52634728  0.41089411  1.0
  C  C52  1  0.50947324  0.73768520  0.50213427  1.0
  C  C53  1  0.07774980  0.59746920  0.55505936  1.0
  C  C54  1  0.49331714  0.49704954  0.66209885  1.0
  C  C55  1  0.42762447  0.40148908  0.97138103  1.0
  C  C56  1  0.55849937  0.39477158  0.02992704  1.0
  C  C57  1  0.48966775  0.49686577  0.24861086  1.0
  C  C58  1  0.49829196  0.49774247  0.75168154  1.0
  C  C59  1  0.36404637  0.50717159  0.02440053  1.0
  Br  Br60  1  0.49014272  0.13387127  0.31773690  1.0
  Br  Br61  1  0.12021209  0.68771326  0.36449992  1.0
  N  N62  1  0.86323304  0.49726466  0.50045264  1.0
  N  N63  1  0.13088190  0.50525243  0.49493200  1.0
  O  O64  1  0.38946413  0.31534639  0.51526614  1.0
  O  O65  1  0.61939542  0.31062787  0.48552095  1.0
  O  O66  1  0.37352821  0.47207454  0.37281440  1.0
  O  O67  1  0.60397537  0.52071579  0.37460871  1.0
  O  O68  1  0.39491877  0.68181757  0.49014942  1.0
  O  O69  1  0.62785043  0.68638763  0.51269777  1.0
  O  O70  1  0.37478856  0.51591585  0.62761180  1.0
  O  O71  1  0.60872575  0.47768986  0.62572208  1.0
