# generated using pymatgen
data_Zr3H5C30N9O16
_symmetry_space_group_name_H-M   'P 1'
_cell_length_a   16.43329659
_cell_length_b   16.44436137
_cell_length_c   16.52557134
_cell_angle_alpha   84.79463673
_cell_angle_beta   89.54521467
_cell_angle_gamma   89.70128651
_symmetry_Int_Tables_number   1
_chemical_formula_structural   Zr3H5C30N9O16
_chemical_formula_sum   'Zr6 H10 C60 N18 O32'
_cell_volume   4447.18620350
_cell_formula_units_Z   2
loop_
 _symmetry_equiv_pos_site_id
 _symmetry_equiv_pos_as_xyz
  1  'x, y, z'
loop_
 _atom_site_type_symbol
 _atom_site_label
 _atom_site_symmetry_multiplicity
 _atom_site_fract_x
 _atom_site_fract_y
 _atom_site_fract_z
 _atom_site_occupancy
  Zr  Zr0  1  0.96591601  0.79953335  0.15965927  1.0
  Zr  Zr1  1  0.84693700  0.75472734  0.99173547  1.0
  Zr  Zr2  1  0.99156021  0.00210953  0.07175902  1.0
  Zr  Zr3  1  0.79311120  0.92068906  0.10384279  1.0
  Zr  Zr4  1  0.04423144  0.83663573  0.95887269  1.0
  Zr  Zr5  1  0.87155014  0.95847870  0.90413317  1.0
  H  H6  1  0.80015163  0.75239511  0.15783346  1.0
  H  H7  1  0.11293277  0.87957002  0.10438856  1.0
  H  H8  1  0.84264422  0.07299234  0.02081839  1.0
  H  H9  1  0.92262277  0.81326349  0.84123138  1.0
  H  H10  1  0.93158255  0.47468031  0.51749938  1.0
  H  H11  1  0.91754757  0.28648699  0.54568841  1.0
  H  H12  1  0.32644584  0.36719193  0.02919118  1.0
  H  H13  1  0.51303227  0.39292461  0.02481296  1.0
  H  H14  1  0.40679494  0.88602856  0.62288012  1.0
  H  H15  1  0.43258667  0.87910541  0.43778300  1.0
  C  C16  1  0.20156456  0.93490695  0.45233009  1.0
  C  C17  1  0.30573930  0.91018254  0.54020455  1.0
  C  C18  1  0.17946956  0.94014448  0.58672675  1.0
  C  C19  1  0.63373367  0.82940504  0.61374166  1.0
  C  C20  1  0.66136058  0.82938327  0.47969514  1.0
  C  C21  1  0.53266962  0.85530435  0.52237939  1.0
  C  C22  1  0.49302310  0.16916385  0.96590311  1.0
  C  C23  1  0.40705970  0.26963527  0.99805938  1.0
  C  C24  1  0.35761968  0.14656691  0.96962343  1.0
  C  C25  1  0.34185149  0.58714078  0.08944856  1.0
  C  C26  1  0.43065068  0.48972071  0.05554592  1.0
  C  C27  1  0.47610918  0.61537594  0.08042943  1.0
  C  C28  1  0.98036157  0.47848648  0.74696676  1.0
  C  C29  1  0.95146104  0.41098134  0.63702021  1.0
  C  C30  1  0.97324352  0.34089315  0.75983186  1.0
  C  C31  1  0.86647853  0.27591065  0.31909079  1.0
  C  C32  1  0.89764257  0.34765530  0.42559065  1.0
  C  C33  1  0.87834418  0.41308062  0.30018799  1.0
  C  C34  1  0.07153076  0.92945761  0.24540514  1.0
  C  C35  1  0.89100885  0.62231136  0.14817444  1.0
  C  C36  1  0.81399171  0.83668946  0.28455898  1.0
  C  C37  1  0.13221584  0.71499676  0.09275501  1.0
  C  C38  1  0.75848324  0.83072120  0.82355423  1.0
  C  C39  1  0.95659478  0.13145172  0.91049411  1.0
  C  C40  1  0.66903757  0.76997255  0.06815679  1.0
  C  C41  1  0.98072370  0.66889311  0.88639906  1.0
  C  C42  1  0.16496740  0.99212703  0.98540319  1.0
  C  C43  1  0.86089293  0.08250016  0.18471931  1.0
  C  C44  1  0.69995221  0.03507976  0.96761483  1.0
  C  C45  1  0.02770207  0.93018186  0.78200966  1.0
  C  C46  1  0.85530947  0.20140997  0.28258525  1.0
  C  C47  1  0.85242789  0.14391958  0.24131693  1.0
  C  C48  1  0.88090661  0.54461949  0.19553747  1.0
  C  C49  1  0.87846863  0.48553854  0.24534985  1.0
  C  C50  1  0.97456415  0.26673970  0.81211597  1.0
  C  C51  1  0.97156340  0.20705145  0.86110034  1.0
  C  C52  1  0.98905089  0.55116523  0.78710468  1.0
  C  C53  1  0.99056312  0.60648622  0.83114988  1.0
  C  C54  1  0.93255620  0.41401181  0.55021842  1.0
  C  C55  1  0.91663632  0.34674882  0.51212626  1.0
  C  C56  1  0.26181028  0.61852507  0.10057949  1.0
  C  C57  1  0.19900899  0.65775373  0.10273539  1.0
  C  C58  1  0.59439117  0.72390815  0.07972029  1.0
  C  C59  1  0.54062976  0.67320659  0.08222763  1.0
  C  C60  1  0.23733814  0.04064675  0.96879826  1.0
  C  C61  1  0.29151238  0.09090498  0.96602357  1.0
  C  C62  1  0.57191457  0.13400445  0.95752448  1.0
  C  C63  1  0.63267548  0.09158528  0.95656597  1.0
  C  C64  1  0.39055220  0.35210042  0.02116786  1.0
  C  C65  1  0.44876809  0.40735390  0.03281737  1.0
  C  C66  1  0.66571406  0.82322351  0.69412411  1.0
  C  C67  1  0.70376134  0.82248437  0.75699572  1.0
  C  C68  1  0.71949344  0.82441373  0.41542637  1.0
  C  C69  1  0.76944538  0.82529771  0.36064417  1.0
  C  C70  1  0.07421205  0.94635002  0.70767389  1.0
  C  C71  1  0.12355954  0.94729207  0.65240118  1.0
  C  C72  1  0.12506362  0.93868123  0.31260633  1.0
  C  C73  1  0.16602998  0.93893742  0.37353154  1.0
  C  C74  1  0.39086259  0.88960980  0.55864960  1.0
  C  C75  1  0.44772420  0.87535537  0.50220148  1.0
  N  N76  1  0.28050037  0.91546370  0.46219742  1.0
  N  N77  1  0.25755162  0.92137621  0.60496808  1.0
  N  N78  1  0.14796753  0.94945417  0.51168841  1.0
  N  N79  1  0.69010328  0.81831088  0.55578728  1.0
  N  N80  1  0.58359831  0.84721043  0.45898150  1.0
  N  N81  1  0.55489290  0.84749876  0.60132013  1.0
  N  N82  1  0.48494988  0.24572846  0.98688804  1.0
  N  N83  1  0.34105181  0.22216741  0.99096917  1.0
  N  N84  1  0.43194342  0.11693963  0.95450237  1.0
  N  N85  1  0.35236778  0.51055855  0.06941565  1.0
  N  N86  1  0.49497808  0.53997990  0.05976768  1.0
  N  N87  1  0.40115965  0.64232839  0.09740867  1.0
  N  N88  1  0.96318857  0.48374707  0.66717717  1.0
  N  N89  1  0.95494167  0.33763690  0.68103342  1.0
  N  N90  1  0.98793781  0.40919744  0.79633783  1.0
  N  N91  1  0.88328571  0.27378742  0.39875071  1.0
  N  N92  1  0.89662901  0.41934930  0.37861866  1.0
  N  N93  1  0.86163576  0.34345078  0.26675019  1.0
  O  O94  1  0.06002687  0.98969928  0.19319996  1.0
  O  O95  1  0.85825649  0.63578355  0.07899563  1.0
  O  O96  1  0.88304896  0.80397508  0.27544886  1.0
  O  O97  1  0.08388105  0.72400655  0.15138003  1.0
  O  O98  1  0.13114026  0.75365790  0.02175821  1.0
  O  O99  1  0.77407680  0.88130191  0.23060096  1.0
  O  O100  1  0.93365668  0.67251363  0.18499533  1.0
  O  O101  1  0.04060717  0.85795182  0.24600210  1.0
  O  O102  1  0.96036251  0.77730373  0.03785061  1.0
  O  O103  1  0.91657782  0.91442905  0.13141086  1.0
  O  O104  1  0.83398986  0.78809318  0.12191949  1.0
  O  O105  1  0.05744434  0.87901657  0.08483187  1.0
  O  O106  1  0.77136590  0.76990193  0.87467251  1.0
  O  O107  1  0.98878620  0.11812872  0.97996526  1.0
  O  O108  1  0.67838942  0.83742849  0.09832391  1.0
  O  O109  1  0.03861147  0.71780200  0.89552296  1.0
  O  O110  1  0.15574317  0.92428749  0.95588720  1.0
  O  O111  1  0.80237325  0.03476968  0.17439318  1.0
  O  O112  1  0.74909658  0.02689440  0.90939672  1.0
  O  O113  1  0.95816962  0.96200594  0.79103758  1.0
  O  O114  1  0.70253322  0.99823727  0.03937018  1.0
  O  O115  1  0.06502185  0.88042102  0.83349292  1.0
  O  O116  1  0.72166623  0.73310700  0.02657433  1.0
  O  O117  1  0.93029890  0.08468123  0.14851623  1.0
  O  O118  1  0.11533899  0.02579575  0.03269798  1.0
  O  O119  1  0.91040773  0.66844449  0.92061708  1.0
  O  O120  1  0.79104160  0.90156091  0.82169729  1.0
  O  O121  1  0.90835979  0.08399297  0.87649924  1.0
  O  O122  1  0.98162793  0.94578200  0.96488701  1.0
  O  O123  1  0.81743544  0.87803536  0.99231431  1.0
  O  O124  1  0.86301000  0.01732991  0.02376645  1.0
  O  O125  1  0.92141813  0.83069363  0.89576751  1.0
