# generated using pymatgen
data_InH9(C7O3)2
_symmetry_space_group_name_H-M   'P 1'
_cell_length_a   13.96867155
_cell_length_b   13.96864678
_cell_length_c   25.03958770
_cell_angle_alpha   105.02935905
_cell_angle_beta   105.02932063
_cell_angle_gamma   94.02160338
_symmetry_Int_Tables_number   1
_chemical_formula_structural   InH9(C7O3)2
_chemical_formula_sum   'In8 H72 C112 O48'
_cell_volume   4507.57352885
_cell_formula_units_Z   8
loop_
 _symmetry_equiv_pos_site_id
 _symmetry_equiv_pos_as_xyz
  1  'x, y, z'
loop_
 _atom_site_type_symbol
 _atom_site_label
 _atom_site_symmetry_multiplicity
 _atom_site_fract_x
 _atom_site_fract_y
 _atom_site_fract_z
 _atom_site_occupancy
  In  In0  1  0.12500037  0.37500025  0.74999874  1.0
  In  In1  1  0.62500128  0.37500138  0.75000074  1.0
  In  In2  1  0.62499783  0.87500061  0.24999961  1.0
  In  In3  1  0.62499760  0.37499752  0.24999979  1.0
  In  In4  1  0.86187292  0.36188181  0.72367516  1.0
  In  In5  1  0.63811247  0.13812924  0.27632801  1.0
  In  In6  1  0.38813009  0.38811415  0.77632917  1.0
  In  In7  1  0.61188816  0.61187576  0.22367289  1.0
  H  H8  1  0.18854456  0.56841157  0.93326086  1.0
  H  H9  1  0.87420859  0.57928420  0.86828990  1.0
  H  H10  1  0.18905028  0.67664189  0.03106165  1.0
  H  H11  1  0.87333493  0.68451086  0.96543338  1.0
  H  H12  1  0.92463466  0.57625612  0.04914170  1.0
  H  H13  1  0.97813339  0.89824561  0.11629103  1.0
  H  H14  1  0.79239547  0.56917773  0.09932222  1.0
  H  H15  1  0.84517107  0.88996488  0.16696011  1.0
  H  H16  1  0.53650154  0.28876528  0.80965199  1.0
  H  H17  1  0.74472403  0.36475947  0.93326400  1.0
  H  H18  1  0.99398209  0.28871405  0.86823288  1.0
  H  H19  1  0.84199462  0.35429134  0.03104371  1.0
  H  H20  1  0.09204945  0.28081061  0.96539157  1.0
  H  H21  1  0.12470756  0.47288090  0.04917628  1.0
  H  H22  1  0.13824449  0.21798228  0.11627954  1.0
  H  H23  1  0.30717922  0.53001364  0.09930993  1.0
  H  H24  1  0.32182644  0.27688786  0.16701172  1.0
  H  H25  1  0.27305705  0.52087230  0.80961633  1.0
  H  H26  1  0.43159217  0.81145793  0.06673974  1.0
  H  H27  1  0.42071511  0.12579265  0.13170909  1.0
  H  H28  1  0.32336245  0.81094874  0.96893814  1.0
  H  H29  1  0.31548924  0.12666298  0.03456559  1.0
  H  H30  1  0.42374358  0.07536285  0.95085635  1.0
  H  H31  1  0.10175349  0.02186682  0.88371013  1.0
  H  H32  1  0.43082331  0.20760507  0.90067847  1.0
  H  H33  1  0.11003675  0.15483051  0.83304163  1.0
  H  H34  1  0.71123386  0.46349908  0.19034723  1.0
  H  H35  1  0.63523936  0.25527570  0.06673664  1.0
  H  H36  1  0.71128854  0.00601726  0.13176829  1.0
  H  H37  1  0.64570858  0.15800336  0.96895723  1.0
  H  H38  1  0.71919296  0.90795067  0.03460985  1.0
  H  H39  1  0.52712068  0.87529103  0.95082503  1.0
  H  H40  1  0.78201671  0.86175564  0.88372081  1.0
  H  H41  1  0.46998709  0.69281983  0.90069052  1.0
  H  H42  1  0.72311180  0.67817384  0.83298794  1.0
  H  H43  1  0.47912757  0.72694265  0.19038289  1.0
  H  H44  1  0.06145550  0.18158964  0.56673901  1.0
  H  H45  1  0.37579042  0.17071475  0.63170949  1.0
  H  H46  1  0.06094845  0.07336011  0.46893774  1.0
  H  H47  1  0.37666383  0.06549113  0.53456583  1.0
  H  H48  1  0.32536267  0.17374068  0.45085574  1.0
  H  H49  1  0.27186550  0.85175193  0.38370914  1.0
  H  H50  1  0.45760517  0.18082204  0.40067792  1.0
  H  H51  1  0.40482787  0.86003337  0.33303996  1.0
  H  H52  1  0.71350352  0.46123447  0.69034840  1.0
  H  H53  1  0.50527707  0.38523804  0.56673530  1.0
  H  H54  1  0.25601979  0.46128418  0.63176683  1.0
  H  H55  1  0.40800481  0.39570996  0.46895629  1.0
  H  H56  1  0.15795316  0.46919286  0.53460981  1.0
  H  H57  1  0.12529319  0.27711962  0.45082359  1.0
  H  H58  1  0.11175749  0.53201881  0.38372152  1.0
  H  H59  1  0.94282313  0.21998766  0.40068909  1.0
  H  H60  1  0.92817575  0.47311473  0.33298919  1.0
  H  H61  1  0.97694356  0.22912742  0.69038221  1.0
  H  H62  1  0.81840762  0.93854632  0.43326013  1.0
  H  H63  1  0.82928212  0.62420932  0.36829167  1.0
  H  H64  1  0.92663635  0.93905396  0.53106137  1.0
  H  H65  1  0.93450839  0.62333883  0.46543534  1.0
  H  H66  1  0.82625519  0.67463667  0.54914322  1.0
  H  H67  1  0.14824326  0.72813419  0.61628896  1.0
  H  H68  1  0.81917739  0.54239539  0.59932219  1.0
  H  H69  1  0.13996481  0.59517072  0.66695727  1.0
  H  H70  1  0.53876381  0.28650066  0.30965247  1.0
  H  H71  1  0.61475913  0.49472162  0.43326496  1.0
  H  H72  1  0.53871708  0.74398104  0.36823156  1.0
  H  H73  1  0.60428848  0.59199465  0.53104387  1.0
  H  H74  1  0.53081054  0.84204836  0.46539020  1.0
  H  H75  1  0.72287790  0.87470491  0.54917545  1.0
  H  H76  1  0.46798184  0.88824485  0.61627936  1.0
  H  H77  1  0.78001213  0.05717538  0.59930915  1.0
  H  H78  1  0.52688739  0.07182591  0.66701101  1.0
  H  H79  1  0.77087296  0.02305637  0.30961712  1.0
  C  C80  1  0.02925347  0.50342936  0.83704481  1.0
  C  C81  1  0.03147951  0.56794221  0.89497381  1.0
  C  C82  1  0.12029511  0.59498560  0.94073902  1.0
  C  C83  1  0.94274316  0.60063967  0.90421748  1.0
  C  C84  1  0.12084745  0.65393404  0.99494435  1.0
  C  C85  1  0.94216204  0.65898730  0.95823907  1.0
  C  C86  1  0.03157049  0.68517697  0.00343351  1.0
  C  C87  1  0.95834894  0.73819782  0.08031983  1.0
  C  C88  1  0.90657455  0.64483628  0.07466951  1.0
  C  C89  1  0.93654477  0.82693923  0.11294807  1.0
  C  C90  1  0.83282351  0.64106653  0.10255939  1.0
  C  C91  1  0.86298558  0.82206027  0.14075799  1.0
  C  C92  1  0.81063219  0.72928190  0.13602844  1.0
  C  C93  1  0.73495981  0.72636096  0.16819196  1.0
  C  C94  1  0.80779160  0.33356049  0.83701247  1.0
  C  C95  1  0.86345373  0.32689850  0.89493734  1.0
  C  C96  1  0.82044117  0.34563908  0.94072426  1.0
  C  C97  1  0.96138917  0.30335254  0.90415906  1.0
  C  C98  1  0.87409498  0.34085954  0.99492853  1.0
  C  C99  1  0.01601590  0.29911492  0.95820525  1.0
  C  C100  1  0.97190899  0.31816739  0.00343415  1.0
  C  C101  1  0.12212406  0.34208337  0.08032701  1.0
  C  C102  1  0.16827783  0.42981506  0.07470730  1.0
  C  C103  1  0.17653624  0.28591792  0.11293473  1.0
  C  C104  1  0.26991834  0.46141487  0.10257038  1.0
  C  C105  1  0.27788395  0.31859606  0.14077980  1.0
  C  C106  1  0.32553035  0.40662703  0.13604020  1.0
  C  C107  1  0.43334877  0.44175155  0.16821972  1.0
  C  C108  1  0.49657219  0.97075004  0.16295523  1.0
  C  C109  1  0.43206102  0.96852254  0.10502507  1.0
  C  C110  1  0.40501991  0.87970739  0.05926185  1.0
  C  C111  1  0.39936314  0.05725849  0.09578248  1.0
  C  C112  1  0.34606900  0.87915335  0.00505471  1.0
  C  C113  1  0.34101314  0.05783879  0.04175958  1.0
  C  C114  1  0.31482505  0.96842962  0.99656651  1.0
  C  C115  1  0.26180290  0.04164941  0.91967930  1.0
  C  C116  1  0.35516518  0.09342371  0.92532931  1.0
  C  C117  1  0.17306308  0.06345651  0.88705252  1.0
  C  C118  1  0.35893357  0.16717594  0.89744061  1.0
  C  C119  1  0.17794024  0.13701500  0.85924224  1.0
  C  C120  1  0.27071749  0.18936782  0.86397194  1.0
  C  C121  1  0.27363925  0.26504135  0.83180991  1.0
  C  C122  1  0.66643924  0.19220791  0.16298907  1.0
  C  C123  1  0.67310141  0.13654666  0.10506355  1.0
  C  C124  1  0.65436027  0.17955700  0.05927662  1.0
  C  C125  1  0.69665057  0.03860953  0.09584129  1.0
  C  C126  1  0.65914007  0.12590647  0.00507247  1.0
  C  C127  1  0.70088762  0.98398524  0.04179617  1.0
  C  C128  1  0.68183454  0.02809129  0.99656821  1.0
  C  C129  1  0.65791582  0.87787667  0.91967466  1.0
  C  C130  1  0.57018532  0.83172182  0.92529359  1.0
  C  C131  1  0.71408243  0.82346166  0.88706549  1.0
  C  C132  1  0.53858678  0.73008155  0.89743112  1.0
  C  C133  1  0.68140371  0.72211662  0.85922112  1.0
  C  C134  1  0.59337207  0.67446956  0.86396013  1.0
  C  C135  1  0.55824876  0.56665119  0.83178039  1.0
  C  C136  1  0.22074788  0.24657037  0.66295464  1.0
  C  C137  1  0.21852056  0.18205901  0.60502567  1.0
  C  C138  1  0.12970496  0.15501561  0.55926086  1.0
  C  C139  1  0.30725670  0.14936005  0.59578175  1.0
  C  C140  1  0.12915178  0.09606642  0.50505529  1.0
  C  C141  1  0.30783716  0.09101247  0.54175909  1.0
  C  C142  1  0.21842868  0.06482280  0.49656562  1.0
  C  C143  1  0.29165019  0.01180124  0.41967861  1.0
  C  C144  1  0.34342404  0.10516426  0.42532946  1.0
  C  C145  1  0.31345370  0.92306057  0.38705077  1.0
  C  C146  1  0.41717385  0.10893097  0.39743994  1.0
  C  C147  1  0.38701263  0.92793798  0.35924197  1.0
  C  C148  1  0.43936803  0.02071487  0.36397040  1.0
  C  C149  1  0.51504061  0.02363729  0.33180872  1.0
  C  C150  1  0.44220726  0.41643701  0.66298770  1.0
  C  C151  1  0.38654684  0.42310052  0.60506211  1.0
  C  C152  1  0.42955939  0.40435992  0.55927678  1.0
  C  C153  1  0.28861068  0.44664716  0.59584096  1.0
  C  C154  1  0.37590569  0.40914022  0.50507104  1.0
  C  C155  1  0.23398660  0.45088780  0.54179600  1.0
  C  C156  1  0.27809297  0.43183616  0.49656735  1.0
  C  C157  1  0.12787880  0.40791640  0.41967505  1.0
  C  C158  1  0.08172472  0.32018772  0.42529316  1.0
  C  C159  1  0.07346373  0.46408466  0.38706586  1.0
  C  C160  1  0.98008336  0.28858714  0.39742984  1.0
  C  C161  1  0.97211825  0.43140654  0.35922112  1.0
  C  C162  1  0.92447283  0.34337500  0.36396104  1.0
  C  C163  1  0.81665367  0.30825047  0.33178061  1.0
  C  C164  1  0.75342707  0.77925047  0.33704442  1.0
  C  C165  1  0.81793771  0.78147946  0.39497392  1.0
  C  C166  1  0.84497967  0.87029536  0.44073817  1.0
  C  C167  1  0.85063558  0.69274350  0.40421850  1.0
  C  C168  1  0.90392909  0.87084939  0.49494549  1.0
  C  C169  1  0.90898471  0.69216452  0.45824160  1.0
  C  C170  1  0.93517182  0.78157529  0.50343504  1.0
  C  C171  1  0.98819502  0.70834936  0.58032044  1.0
  C  C172  1  0.89483201  0.65657507  0.57466953  1.0
  C  C173  1  0.07693676  0.68654528  0.61294634  1.0
  C  C174  1  0.89106576  0.58282527  0.60255956  1.0
  C  C175  1  0.07206069  0.61298698  0.64075588  1.0
  C  C176  1  0.97928226  0.56063114  0.63602756  1.0
  C  C177  1  0.97636061  0.48495836  0.66819092  1.0
  C  C178  1  0.58356317  0.55779094  0.33701213  1.0
  C  C179  1  0.57690037  0.61345295  0.39493687  1.0
  C  C180  1  0.59563906  0.57044108  0.44072481  1.0
  C  C181  1  0.55335505  0.71138877  0.40416096  1.0
  C  C182  1  0.59085831  0.62409534  0.49492777  1.0
  C  C183  1  0.54911525  0.76601455  0.45820350  1.0
  C  C184  1  0.56816486  0.72190748  0.50343294  1.0
  C  C185  1  0.59208244  0.87212228  0.58032542  1.0
  C  C186  1  0.67981264  0.91827488  0.57470612  1.0
  C  C187  1  0.53591526  0.92653806  0.61293443  1.0
  C  C188  1  0.71141286  0.01991665  0.60256865  1.0
  C  C189  1  0.56859504  0.02788536  0.64077889  1.0
  C  C190  1  0.65662535  0.07552864  0.63603892  1.0
  C  C191  1  0.69175036  0.18334852  0.66821913  1.0
  O  O192  1  0.10854747  0.46533284  0.83202272  1.0
  O  O193  1  0.94872272  0.49017965  0.79635597  1.0
  O  O194  1  0.03729085  0.74712213  0.05731413  1.0
  O  O195  1  0.68458167  0.64092593  0.16058226  1.0
  O  O196  1  0.72713478  0.80946156  0.20149316  1.0
  O  O197  1  0.98545628  0.28038252  0.72667085  1.0
  O  O198  1  0.72347946  0.36663664  0.83199866  1.0
  O  O199  1  0.84769665  0.30618770  0.79633104  1.0
  O  O200  1  0.02012886  0.31020967  0.05733554  1.0
  O  O201  1  0.47620407  0.51947549  0.16055890  1.0
  O  O202  1  0.47434762  0.39201607  0.20159206  1.0
  O  O203  1  0.74120694  0.44625611  0.72664088  1.0
  O  O204  1  0.53466761  0.89145491  0.16797698  1.0
  O  O205  1  0.50982349  0.05127899  0.20364524  1.0
  O  O206  1  0.25287877  0.96270768  0.94268544  1.0
  O  O207  1  0.35907369  0.31541713  0.83941678  1.0
  O  O208  1  0.19053654  0.27286809  0.79850905  1.0
  O  O209  1  0.71961588  0.01454574  0.27333010  1.0
  O  O210  1  0.63336376  0.27652041  0.16800143  1.0
  O  O211  1  0.69381125  0.15230379  0.20367016  1.0
  O  O212  1  0.68979053  0.97987247  0.94266512  1.0
  O  O213  1  0.48052547  0.52379623  0.83944096  1.0
  O  O214  1  0.60798449  0.52565183  0.79840721  1.0
  O  O215  1  0.55374265  0.25879397  0.27335998  1.0
  O  O216  1  0.14145313  0.28466687  0.66797621  1.0
  O  O217  1  0.30127809  0.25982155  0.70364441  1.0
  O  O218  1  0.21270763  0.00287766  0.44268471  1.0
  O  O219  1  0.56541558  0.10907082  0.33941574  1.0
  O  O220  1  0.52286554  0.94053595  0.29850780  1.0
  O  O221  1  0.26454644  0.46961646  0.77332949  1.0
  O  O222  1  0.52652121  0.38336312  0.66800131  1.0
  O  O223  1  0.40230596  0.44381052  0.70367037  1.0
  O  O224  1  0.22987354  0.43979165  0.44266490  1.0
  O  O225  1  0.77379836  0.23052653  0.33944223  1.0
  O  O226  1  0.77565289  0.35798503  0.29840719  1.0
  O  O227  1  0.50879429  0.30374286  0.77335964  1.0
  O  O228  1  0.71533186  0.85854709  0.33202291  1.0
  O  O229  1  0.74017725  0.69872153  0.29635543  1.0
  O  O230  1  0.99711670  0.78729481  0.55731448  1.0
  O  O231  1  0.89092923  0.43458333  0.66058500  1.0
  O  O232  1  0.05946522  0.47713462  0.70149129  1.0
  O  O233  1  0.53038339  0.73545477  0.22666955  1.0
  O  O234  1  0.61663854  0.47347769  0.33199924  1.0
  O  O235  1  0.55618907  0.59769372  0.29633040  1.0
  O  O236  1  0.56020538  0.77012779  0.55733334  1.0
  O  O237  1  0.76947757  0.22620500  0.66055976  1.0
  O  O238  1  0.64201534  0.22434718  0.70159213  1.0
  O  O239  1  0.69625576  0.49120578  0.22663983  1.0
