# generated using pymatgen
data_Ti4H8C17O14
_symmetry_space_group_name_H-M   'P 1'
_cell_length_a   12.11356390
_cell_length_b   21.86423357
_cell_length_c   21.86422879
_cell_angle_alpha   119.99996865
_cell_angle_beta   90.00005786
_cell_angle_gamma   90.00000035
_symmetry_Int_Tables_number   1
_chemical_formula_structural   Ti4H8C17O14
_chemical_formula_sum   'Ti24 H48 C102 O84'
_cell_volume   5015.00216528
_cell_formula_units_Z   6
loop_
 _symmetry_equiv_pos_site_id
 _symmetry_equiv_pos_as_xyz
  1  'x, y, z'
loop_
 _atom_site_type_symbol
 _atom_site_label
 _atom_site_symmetry_multiplicity
 _atom_site_fract_x
 _atom_site_fract_y
 _atom_site_fract_z
 _atom_site_occupancy
  Ti  Ti0  1  0.14945635  0.28067880  0.56135779  1.0
  Ti  Ti1  1  0.85054291  0.71932077  0.28067816  1.0
  Ti  Ti2  1  0.14945624  0.71932112  0.43864301  1.0
  Ti  Ti3  1  0.14945650  0.28067823  0.71932100  1.0
  Ti  Ti4  1  0.85054317  0.28067893  0.56135714  1.0
  Ti  Ti5  1  0.85054332  0.43864364  0.71932190  1.0
  Ti  Ti6  1  0.14945650  0.43864244  0.71932156  1.0
  Ti  Ti7  1  0.14945692  0.56135695  0.28067806  1.0
  Ti  Ti8  1  0.85054374  0.56135708  0.28067832  1.0
  Ti  Ti9  1  0.85054306  0.71932125  0.43864281  1.0
  Ti  Ti10  1  0.14945609  0.71932116  0.28067816  1.0
  Ti  Ti11  1  0.85054414  0.28067890  0.71932199  1.0
  Ti  Ti12  1  0.35161243  0.38722446  0.61277512  1.0
  Ti  Ti13  1  0.64838848  0.61277511  0.22555067  1.0
  Ti  Ti14  1  0.35161140  0.61277501  0.38722420  1.0
  Ti  Ti15  1  0.35161656  0.22555124  0.61277560  1.0
  Ti  Ti16  1  0.64839214  0.22555077  0.61277545  1.0
  Ti  Ti17  1  0.64838801  0.38722398  0.61277542  1.0
  Ti  Ti18  1  0.35161175  0.38722495  0.77444903  1.0
  Ti  Ti19  1  0.35161207  0.61277558  0.22555128  1.0
  Ti  Ti20  1  0.64838781  0.61277507  0.38722431  1.0
  Ti  Ti21  1  0.64838781  0.77444881  0.38722409  1.0
  Ti  Ti22  1  0.35161222  0.77444875  0.38722398  1.0
  Ti  Ti23  1  0.64838816  0.38722447  0.77444887  1.0
  H  H24  1  0.00000047  0.20749843  0.25451062  1.0
  H  H25  1  0.00000028  0.79250160  0.04701182  1.0
  H  H26  1  0.99999977  0.79250162  0.74548953  1.0
  H  H27  1  0.99999981  0.04701197  0.79250126  1.0
  H  H28  1  0.99999932  0.04701210  0.25451025  1.0
  H  H29  1  0.99999816  0.74548993  0.79250163  1.0
  H  H30  1  0.99999913  0.74548937  0.95298769  1.0
  H  H31  1  0.00000028  0.25451016  0.04701174  1.0
  H  H32  1  0.00000042  0.25451065  0.20749878  1.0
  H  H33  1  0.99999977  0.95298814  0.74548936  1.0
  H  H34  1  0.00000042  0.95298861  0.20749870  1.0
  H  H35  1  0.00000028  0.20749826  0.95298795  1.0
  H  H36  1  0.10846163  0.25373612  0.36741816  1.0
  H  H37  1  0.89153896  0.74626406  0.11368198  1.0
  H  H38  1  0.10845940  0.74626379  0.63258170  1.0
  H  H39  1  0.10846115  0.11368205  0.74626406  1.0
  H  H40  1  0.89153836  0.11368176  0.36741793  1.0
  H  H41  1  0.89153871  0.63258199  0.74626343  1.0
  H  H42  1  0.10846211  0.63258234  0.88631817  1.0
  H  H43  1  0.10846057  0.36741756  0.11368168  1.0
  H  H44  1  0.89153826  0.36741768  0.25373629  1.0
  H  H45  1  0.89153860  0.88631844  0.63258205  1.0
  H  H46  1  0.10846070  0.88631839  0.25373561  1.0
  H  H47  1  0.89153884  0.25373615  0.88631801  1.0
  H  H48  1  0.89153860  0.74626393  0.63258199  1.0
  H  H49  1  0.10846128  0.25373599  0.88631817  1.0
  H  H50  1  0.89153836  0.25373574  0.36741773  1.0
  H  H51  1  0.89153826  0.88631853  0.25373590  1.0
  H  H52  1  0.10846105  0.88631830  0.63258268  1.0
  H  H53  1  0.10846153  0.36741753  0.25373600  1.0
  H  H54  1  0.89153895  0.36741718  0.11368171  1.0
  H  H55  1  0.89153884  0.63258195  0.88631774  1.0
  H  H56  1  0.10846198  0.63258184  0.74626359  1.0
  H  H57  1  0.10846163  0.11368214  0.36741790  1.0
  H  H58  1  0.89153871  0.11368167  0.74626363  1.0
  H  H59  1  0.10845975  0.74626391  0.11368169  1.0
  H  H60  1  0.31906363  0.43468243  0.43468263  1.0
  H  H61  1  0.68093692  0.56531857  0.00000052  1.0
  H  H62  1  0.31906292  0.56531755  0.56531829  1.0
  H  H63  1  0.31906292  0.99999997  0.56531810  1.0
  H  H64  1  0.68093731  0.00000008  0.43468296  1.0
  H  H65  1  0.68093661  0.56531737  0.56531737  1.0
  H  H66  1  0.31906415  0.56531797  0.00000020  1.0
  H  H67  1  0.31906406  0.43468201  0.00000027  1.0
  H  H68  1  0.68093731  0.43468250  0.43468231  1.0
  H  H69  1  0.68093661  0.00000004  0.56531732  1.0
  H  H70  1  0.31906280  0.00000001  0.43468237  1.0
  H  H71  1  0.68093692  0.43468208  0.99999995  1.0
  C  C72  1  0.00000015  0.26049340  0.26049357  1.0
  C  C73  1  1.00000000  0.73950625  0.99999927  1.0
  C  C74  1  0.99999976  0.73950607  0.73950655  1.0
  C  C75  1  0.99999976  0.00000006  0.73950605  1.0
  C  C76  1  0.00000015  0.00000018  0.26049310  1.0
  C  C77  1  0.00000032  0.26049328  0.99999978  1.0
  C  C78  1  0.10052997  0.30207498  0.30207468  1.0
  C  C79  1  0.89946972  0.69792500  0.99999966  1.0
  C  C80  1  0.10052868  0.69792573  0.69792464  1.0
  C  C81  1  0.10053033  0.99999990  0.69792456  1.0
  C  C82  1  0.89946908  0.00000015  0.30207513  1.0
  C  C83  1  0.89946944  0.69792535  0.69792513  1.0
  C  C84  1  0.10052978  0.69792538  0.00000100  1.0
  C  C85  1  0.10052978  0.30207452  0.99999984  1.0
  C  C86  1  0.89946908  0.30207484  0.30207531  1.0
  C  C87  1  0.89946862  0.00000006  0.69792486  1.0
  C  C88  1  0.10052997  0.00000105  0.30207536  1.0
  C  C89  1  0.89947054  0.30207468  0.00000014  1.0
  C  C90  1  0.14119848  0.29446391  0.35759622  1.0
  C  C91  1  0.85880205  0.70553681  0.06313298  1.0
  C  C92  1  0.14119626  0.70553495  0.64240451  1.0
  C  C93  1  0.14119715  0.06313225  0.70553654  1.0
  C  C94  1  0.85880150  0.06313142  0.35759494  1.0
  C  C95  1  0.85880264  0.64240403  0.70553642  1.0
  C  C96  1  0.14119901  0.64240384  0.93686649  1.0
  C  C97  1  0.14119821  0.35759608  0.06313248  1.0
  C  C98  1  0.85880144  0.35759510  0.29446301  1.0
  C  C99  1  0.85880176  0.93686772  0.64240404  1.0
  C  C100  1  0.14119760  0.93686767  0.29446380  1.0
  C  C101  1  0.85880285  0.29446337  0.93686698  1.0
  C  C102  1  0.85880176  0.70553667  0.64240374  1.0
  C  C103  1  0.14119818  0.29446377  0.93686789  1.0
  C  C104  1  0.85880315  0.29446352  0.35759622  1.0
  C  C105  1  0.85880061  0.93686780  0.29446315  1.0
  C  C106  1  0.14119709  0.93686759  0.64240423  1.0
  C  C107  1  0.14119842  0.35759603  0.29446419  1.0
  C  C108  1  0.85880288  0.35759569  0.06313203  1.0
  C  C109  1  0.85880120  0.64240397  0.93686813  1.0
  C  C110  1  0.14119880  0.64240336  0.70553680  1.0
  C  C111  1  0.14119931  0.06313181  0.35759585  1.0
  C  C112  1  0.85880181  0.06313239  0.70553681  1.0
  C  C113  1  0.14119656  0.70553509  0.06313009  1.0
  C  C114  1  0.21951569  0.34152812  0.40512552  1.0
  C  C115  1  0.78048489  0.65847206  0.06359732  1.0
  C  C116  1  0.21951338  0.65847235  0.59487422  1.0
  C  C117  1  0.21951592  0.06359702  0.65847114  1.0
  C  C118  1  0.78048437  0.06359719  0.40512515  1.0
  C  C119  1  0.78048378  0.59487454  0.65847150  1.0
  C  C120  1  0.21951700  0.59487543  0.93640339  1.0
  C  C121  1  0.21951538  0.40512505  0.06359773  1.0
  C  C122  1  0.78048349  0.40512509  0.34152768  1.0
  C  C123  1  0.78048372  0.93640244  0.59487357  1.0
  C  C124  1  0.21951481  0.93640292  0.34152788  1.0
  C  C125  1  0.78048486  0.34152809  0.93640258  1.0
  C  C126  1  0.78048455  0.65847246  0.59487489  1.0
  C  C127  1  0.21951535  0.34152747  0.93640257  1.0
  C  C128  1  0.78048437  0.34152822  0.40512573  1.0
  C  C129  1  0.78048432  0.93640249  0.34152828  1.0
  C  C130  1  0.21951586  0.93640286  0.59487408  1.0
  C  C131  1  0.21951563  0.40512551  0.34152773  1.0
  C  C132  1  0.78048489  0.40512515  0.06359794  1.0
  C  C133  1  0.78048403  0.59487500  0.93640287  1.0
  C  C134  1  0.21951675  0.59487497  0.65847202  1.0
  C  C135  1  0.21951486  0.06359814  0.40512547  1.0
  C  C136  1  0.78048295  0.06359661  0.65847109  1.0
  C  C137  1  0.21951455  0.65847301  0.06359809  1.0
  C  C138  1  0.26061506  0.39678961  0.39678974  1.0
  C  C139  1  0.73938636  0.60321087  0.99999983  1.0
  C  C140  1  0.26061443  0.60321011  0.60321146  1.0
  C  C141  1  0.26061030  0.99999995  0.60321102  1.0
  C  C142  1  0.73938581  0.00000009  0.39678958  1.0
  C  C143  1  0.73938517  0.60321073  0.60321053  1.0
  C  C144  1  0.26061562  0.60321079  0.99999874  1.0
  C  C145  1  0.26061562  0.39678918  0.99999948  1.0
  C  C146  1  0.73938498  0.39678942  0.39678934  1.0
  C  C147  1  0.73938517  0.00000005  0.60321029  1.0
  C  C148  1  0.26061506  1.00000000  0.39678986  1.0
  C  C149  1  0.73938553  0.39678928  0.00000012  1.0
  C  C150  1  0.24357390  0.33639316  0.46935620  1.0
  C  C151  1  0.75642597  0.66360804  0.13296345  1.0
  C  C152  1  0.24357396  0.66360679  0.53064421  1.0
  C  C153  1  0.24357491  0.13296334  0.66360740  1.0
  C  C154  1  0.75642710  0.13296296  0.46935582  1.0
  C  C155  1  0.75642728  0.53064475  0.66360787  1.0
  C  C156  1  0.24357592  0.53064461  0.86703674  1.0
  C  C157  1  0.24357277  0.46935535  0.13296322  1.0
  C  C158  1  0.75642615  0.46935487  0.33639175  1.0
  C  C159  1  0.75642468  0.86703667  0.53064289  1.0
  C  C160  1  0.24357461  0.86703767  0.33639354  1.0
  C  C161  1  0.75642581  0.33639264  0.86703716  1.0
  C  C162  1  0.75642468  0.66360689  0.53064349  1.0
  C  C163  1  0.24357509  0.33639307  0.86703723  1.0
  C  C164  1  0.75642628  0.33639221  0.46935587  1.0
  C  C165  1  0.75642533  0.86703672  0.33639321  1.0
  C  C166  1  0.24357478  0.86703710  0.53064387  1.0
  C  C167  1  0.24357378  0.46935530  0.33639228  1.0
  C  C168  1  0.75642597  0.46935492  0.13296315  1.0
  C  C169  1  0.75642499  0.53064471  0.86703693  1.0
  C  C170  1  0.24357491  0.53064413  0.66360787  1.0
  C  C171  1  0.24357555  0.13296338  0.46935680  1.0
  C  C172  1  0.75642645  0.13296291  0.66360733  1.0
  C  C173  1  0.24357442  0.66360689  0.13296273  1.0
  O  O174  1  0.17669682  0.29743352  0.47999360  1.0
  O  O175  1  0.82330064  0.70256714  0.18255978  1.0
  O  O176  1  0.17669685  0.70256746  0.52000775  1.0
  O  O177  1  0.17669784  0.18256040  0.70256739  1.0
  O  O178  1  0.82330421  0.18255951  0.47999262  1.0
  O  O179  1  0.82329946  0.52000730  0.70256651  1.0
  O  O180  1  0.17669877  0.52000716  0.81743928  1.0
  O  O181  1  0.17670067  0.47999331  0.18255998  1.0
  O  O182  1  0.82330239  0.47999287  0.29743296  1.0
  O  O183  1  0.82330425  0.81743961  0.52000633  1.0
  O  O184  1  0.17669665  0.81744007  0.29743324  1.0
  O  O185  1  0.82330122  0.29743198  0.81743917  1.0
  O  O186  1  0.82330094  0.70256759  0.52000708  1.0
  O  O187  1  0.17669960  0.29743239  0.81743919  1.0
  O  O188  1  0.82330091  0.29743259  0.47999286  1.0
  O  O189  1  0.82330404  0.81744019  0.29743394  1.0
  O  O190  1  0.17669603  0.81743948  0.52000608  1.0
  O  O191  1  0.17669995  0.47999275  0.29743272  1.0
  O  O192  1  0.82330146  0.47999237  0.18256015  1.0
  O  O193  1  0.82330122  0.52000728  0.81743998  1.0
  O  O194  1  0.17669867  0.52000718  0.70256764  1.0
  O  O195  1  0.17669599  0.18256098  0.47999363  1.0
  O  O196  1  0.82330276  0.18255999  0.70256737  1.0
  O  O197  1  0.17669737  0.70256702  0.18256000  1.0
  O  O198  1  0.32229396  0.37091921  0.51058578  1.0
  O  O199  1  0.67770513  0.62908093  0.13966642  1.0
  O  O200  1  0.32229229  0.62908183  0.48941567  1.0
  O  O201  1  0.32229490  0.13966683  0.62908086  1.0
  O  O202  1  0.67770795  0.13966639  0.51058491  1.0
  O  O203  1  0.67770475  0.48941419  0.62907944  1.0
  O  O204  1  0.32229428  0.48941512  0.86033379  1.0
  O  O205  1  0.32229610  0.51058592  0.13966584  1.0
  O  O206  1  0.67770534  0.51058541  0.37091921  1.0
  O  O207  1  0.67770710  0.86033267  0.48941439  1.0
  O  O208  1  0.32229301  0.86033369  0.37091897  1.0
  O  O209  1  0.67770579  0.37091919  0.86033340  1.0
  O  O210  1  0.67770627  0.62908137  0.48941463  1.0
  O  O211  1  0.32229428  0.37091965  0.86033399  1.0
  O  O212  1  0.67770629  0.37091928  0.51058546  1.0
  O  O213  1  0.67770699  0.86033270  0.37091811  1.0
  O  O214  1  0.32229312  0.86033261  0.48941426  1.0
  O  O215  1  0.32229548  0.51058586  0.37091979  1.0
  O  O216  1  0.67770595  0.51058546  0.13966617  1.0
  O  O217  1  0.67770496  0.48941467  0.86033412  1.0
  O  O218  1  0.32229490  0.48941465  0.62908094  1.0
  O  O219  1  0.32229314  0.13966791  0.51058557  1.0
  O  O220  1  0.67770640  0.13966636  0.62908027  1.0
  O  O221  1  0.32229197  0.62908192  0.13966636  1.0
  O  O222  1  0.33425500  0.28929938  0.57859884  1.0
  O  O223  1  0.66574512  0.71069965  0.28929872  1.0
  O  O224  1  0.33425485  0.71070061  0.42140118  1.0
  O  O225  1  0.33425512  0.28929935  0.71070045  1.0
  O  O226  1  0.66574704  0.28929944  0.57859851  1.0
  O  O227  1  0.66574551  0.42140144  0.71070029  1.0
  O  O228  1  0.33425429  0.42140138  0.71070063  1.0
  O  O229  1  0.33425473  0.57859861  0.28929940  1.0
  O  O230  1  0.66574594  0.57859867  0.28929906  1.0
  O  O231  1  0.66574524  0.71070014  0.42140104  1.0
  O  O232  1  0.33425556  0.71070012  0.28929886  1.0
  O  O233  1  0.66574716  0.28929941  0.71070103  1.0
  O  O234  1  0.00000042  0.27948857  0.55897461  1.0
  O  O235  1  0.00000017  0.72051171  0.27948674  1.0
  O  O236  1  0.00000032  0.72051167  0.44102546  1.0
  O  O237  1  0.00000089  0.27948676  0.72051399  1.0
  O  O238  1  0.00000089  0.44102478  0.72051223  1.0
  O  O239  1  0.00000049  0.55897456  0.27948682  1.0
  O  O240  1  0.17346173  0.37856532  0.62143521  1.0
  O  O241  1  0.82653921  0.62143477  0.24286980  1.0
  O  O242  1  0.17346233  0.62143462  0.37856470  1.0
  O  O243  1  0.17346008  0.24287047  0.62143516  1.0
  O  O244  1  0.82654038  0.24287006  0.62143514  1.0
  O  O245  1  0.82653873  0.37856544  0.62143545  1.0
  O  O246  1  0.17346185  0.37856528  0.75713035  1.0
  O  O247  1  0.17346221  0.62143518  0.24286982  1.0
  O  O248  1  0.82653851  0.62143474  0.37856494  1.0
  O  O249  1  0.82653933  0.75712959  0.37856499  1.0
  O  O250  1  0.17346068  0.75712946  0.37856474  1.0
  O  O251  1  0.82653885  0.37856541  0.75713014  1.0
  O  O252  1  0.50000063  0.39206051  0.60793978  1.0
  O  O253  1  0.50000027  0.60793958  0.21587946  1.0
  O  O254  1  0.49999961  0.60793955  0.39206037  1.0
  O  O255  1  0.50000393  0.21587764  0.60793884  1.0
  O  O256  1  0.49999997  0.39206046  0.78412068  1.0
  O  O257  1  0.49999961  0.78412347  0.39206138  1.0
