# generated using pymatgen
data_Zn2H38C31N2O11
_symmetry_space_group_name_H-M   'P 1'
_cell_length_a   9.65877841
_cell_length_b   11.03083581
_cell_length_c   16.06128871
_cell_angle_alpha   87.89398870
_cell_angle_beta   88.91742694
_cell_angle_gamma   88.69212245
_symmetry_Int_Tables_number   1
_chemical_formula_structural   Zn2H38C31N2O11
_chemical_formula_sum   'Zn2 H38 C31 N2 O11'
_cell_volume   1709.35978266
_cell_formula_units_Z   1
loop_
 _symmetry_equiv_pos_site_id
 _symmetry_equiv_pos_as_xyz
  1  'x, y, z'
loop_
 _atom_site_type_symbol
 _atom_site_label
 _atom_site_symmetry_multiplicity
 _atom_site_fract_x
 _atom_site_fract_y
 _atom_site_fract_z
 _atom_site_occupancy
  Zn  Zn0  1  0.35456192  0.50467247  0.49745373  1.0
  Zn  Zn1  1  0.63589878  0.50674517  0.49370797  1.0
  H  H2  1  0.39009429  0.66257206  0.06545867  1.0
  H  H3  1  0.27904443  0.51032035  0.93331356  1.0
  H  H4  1  0.61960291  0.32852569  0.05947053  1.0
  H  H5  1  0.40266462  0.08668813  0.52401605  1.0
  H  H6  1  0.69452880  0.89124662  0.47337567  1.0
  H  H7  1  0.38029329  0.91767544  0.44899005  1.0
  H  H8  1  0.13304117  0.35661659  0.42337666  1.0
  H  H9  1  0.08830551  0.58863550  0.50377319  1.0
  H  H10  1  0.87415119  0.41552354  0.38392558  1.0
  H  H11  1  0.34636986  0.65806798  0.92491248  1.0
  H  H12  1  0.89475575  0.50805975  0.55182416  1.0
  H  H13  1  0.72266451  0.54400653  0.91887606  1.0
  H  H14  1  0.61770223  0.67667939  0.92918465  1.0
  H  H15  1  0.72428186  0.51654625  0.06390232  1.0
  H  H16  1  0.42385254  0.32965743  0.92046273  1.0
  H  H17  1  0.60634009  0.33577108  0.91451250  1.0
  H  H18  1  0.43993689  0.30782225  0.06543312  1.0
  H  H19  1  0.25926195  0.36283978  0.13284996  1.0
  H  H20  1  0.20402845  0.38255894  0.02734314  1.0
  H  H21  1  0.04185229  0.46776347  0.18110760  1.0
  H  H22  1  0.98495647  0.48232935  0.07743854  1.0
  H  H23  1  0.98559088  0.25253753  0.06894895  1.0
  H  H24  1  0.87669506  0.30237733  0.15174396  1.0
  H  H25  1  0.04317370  0.23839308  0.17319236  1.0
  H  H26  1  0.84358727  0.13024976  0.33407036  1.0
  H  H27  1  0.77191242  0.98628880  0.35926836  1.0
  H  H28  1  0.97534034  0.11926284  0.46724243  1.0
  H  H29  1  0.91007430  0.97424466  0.49149217  1.0
  H  H30  1  0.02720823  0.89360335  0.36068090  1.0
  H  H31  1  0.14830482  0.95603844  0.42770026  1.0
  H  H32  1  0.09414646  0.03968307  0.33715794  1.0
  H  H33  1  0.75412956  0.82426786  0.10394234  1.0
  H  H34  1  0.84367448  0.69917988  0.05952724  1.0
  H  H35  1  0.71762307  0.70302997  0.23681962  1.0
  H  H36  1  0.80461323  0.57724936  0.19478645  1.0
  H  H37  1  0.02505416  0.69801766  0.17713113  1.0
  H  H38  1  0.96538896  0.69370629  0.28227562  1.0
  H  H39  1  0.93689354  0.82611611  0.21841233  1.0
  C  C40  1  0.48570600  0.74139238  0.47087422  1.0
  C  C41  1  0.37285555  0.56933908  0.04721792  1.0
  C  C42  1  0.50373097  0.49520398  0.07736630  1.0
  C  C43  1  0.51956317  0.36790886  0.03927626  1.0
  C  C44  1  0.51356455  0.37721717  0.94328235  1.0
  C  C45  1  0.50695339  0.48468375  0.16733318  1.0
  C  C46  1  0.50066264  0.52023311  0.82333364  1.0
  C  C47  1  0.50062312  0.52375767  0.74759090  1.0
  C  C48  1  0.59803486  0.07380789  0.46505962  1.0
  C  C49  1  0.49003887  0.13790092  0.49921077  1.0
  C  C50  1  0.59647356  0.94131724  0.46514691  1.0
  C  C51  1  0.50233920  0.52385151  0.65753510  1.0
  C  C52  1  0.48187651  0.87532569  0.45945709  1.0
  C  C53  1  0.07581442  0.43455698  0.44855562  1.0
  C  C54  1  0.92367939  0.44442643  0.44063577  1.0
  C  C55  1  0.47849435  0.27018743  0.50443056  1.0
  C  C56  1  0.51783778  0.48262983  0.33232445  1.0
  C  C57  1  0.36579044  0.56610529  0.95130877  1.0
  C  C58  1  0.62659246  0.57985033  0.94738432  1.0
  C  C59  1  0.63099675  0.56837645  0.04379869  1.0
  C  C60  1  0.51233196  0.47731633  0.24282825  1.0
  C  C61  1  0.50165327  0.51226252  0.91373435  1.0
  C  C62  1  0.19638245  0.42121369  0.09001016  1.0
  C  C63  1  0.04630140  0.42380249  0.12063883  1.0
  C  C64  1  0.98468465  0.29748176  0.12901905  1.0
  C  C65  1  0.81507032  0.06744780  0.38622542  1.0
  C  C66  1  0.94092911  0.03570100  0.43912656  1.0
  C  C67  1  0.05888361  0.97814242  0.38833122  1.0
  C  C68  1  0.76223053  0.72447514  0.10550152  1.0
  C  C69  1  0.80070283  0.67716561  0.19269430  1.0
  C  C70  1  0.93952649  0.72624593  0.21882657  1.0
  N  N71  1  0.14495325  0.51463141  0.48415120  1.0
  N  N72  1  0.84557221  0.48680917  0.49821106  1.0
  O  O73  1  0.36867756  0.69080051  0.48012507  1.0
  O  O74  1  0.60406797  0.68739714  0.47168702  1.0
  O  O75  1  0.38528368  0.51688444  0.62267096  1.0
  O  O76  1  0.62043779  0.52993851  0.62116987  1.0
  O  O77  1  0.35587478  0.31739686  0.50617086  1.0
  O  O78  1  0.58985559  0.32978528  0.50778518  1.0
  O  O79  1  0.40164555  0.48702457  0.37116707  1.0
  O  O80  1  0.63746309  0.48495622  0.36433929  1.0
  O  O81  1  0.24427630  0.54275301  0.08869953  1.0
  O  O82  1  0.71069657  0.13241029  0.43328240  1.0
  O  O83  1  0.62970879  0.68501036  0.07944271  1.0
