# generated using pymatgen
data_AlH24(C5O)6
_symmetry_space_group_name_H-M   'P 1'
_cell_length_a   3.94473771
_cell_length_b   29.06241546
_cell_length_c   29.06023586
_cell_angle_alpha   119.99057289
_cell_angle_beta   89.99921586
_cell_angle_gamma   89.99810151
_symmetry_Int_Tables_number   1
_chemical_formula_structural   AlH24(C5O)6
_chemical_formula_sum   'Al2 H48 C60 O12'
_cell_volume   2885.49849494
_cell_formula_units_Z   2
loop_
 _symmetry_equiv_pos_site_id
 _symmetry_equiv_pos_as_xyz
  1  'x, y, z'
loop_
 _atom_site_type_symbol
 _atom_site_label
 _atom_site_symmetry_multiplicity
 _atom_site_fract_x
 _atom_site_fract_y
 _atom_site_fract_z
 _atom_site_occupancy
  Al  Al0  1  0.99960744  0.99998773  0.50000240  1.0
  Al  Al1  1  0.00094231  0.33333894  0.16665266  1.0
  H  H2  1  0.45454097  0.57998781  0.36372809  1.0
  H  H3  1  0.54571068  0.58002677  0.21624255  1.0
  H  H4  1  0.54436594  0.75330499  0.45041400  1.0
  H  H5  1  0.45531580  0.75331391  0.30292071  1.0
  H  H6  1  0.45459735  0.13626980  0.21626275  1.0
  H  H7  1  0.54580460  0.28375679  0.36377019  1.0
  H  H8  1  0.54448481  0.04960001  0.30291294  1.0
  H  H9  1  0.45533280  0.19708517  0.45040437  1.0
  H  H10  1  0.45461204  0.28374600  0.91999499  1.0
  H  H11  1  0.54559673  0.13623411  0.91998109  1.0
  H  H12  1  0.54445873  0.19707016  0.74668487  1.0
  H  H13  1  0.45519316  0.04957393  0.74667678  1.0
  H  H14  1  0.71185793  0.46201599  0.33070052  1.0
  H  H15  1  0.30782163  0.43727528  0.30359848  1.0
  H  H16  1  0.34500045  0.49943282  0.36362340  1.0
  H  H17  1  0.28920584  0.46205058  0.13133757  1.0
  H  H18  1  0.69332211  0.43731247  0.13362248  1.0
  H  H19  1  0.65584193  0.49948165  0.13575075  1.0
  H  H20  1  0.28767315  0.87132681  0.53538046  1.0
  H  H21  1  0.69172976  0.89603441  0.53300576  1.0
  H  H22  1  0.65436845  0.83388152  0.53091766  1.0
  H  H23  1  0.71203302  0.87132076  0.33598631  1.0
  H  H24  1  0.30785589  0.89603595  0.36302900  1.0
  H  H25  1  0.34533603  0.83388119  0.30298652  1.0
  H  H26  1  0.71190850  0.16928883  0.13130767  1.0
  H  H27  1  0.30789568  0.19639746  0.13367644  1.0
  H  H28  1  0.34506867  0.13636920  0.13581867  1.0
  H  H29  1  0.28925521  0.36866303  0.33070639  1.0
  H  H30  1  0.69333520  0.36638233  0.30367545  1.0
  H  H31  1  0.65594354  0.36424263  0.36370925  1.0
  H  H32  1  0.28766181  0.96462972  0.33596417  1.0
  H  H33  1  0.69170905  0.96698482  0.36303071  1.0
  H  H34  1  0.65435810  0.96909233  0.30297430  1.0
  H  H35  1  0.71209652  0.16401574  0.53534793  1.0
  H  H36  1  0.30788070  0.13697415  0.53301907  1.0
  H  H37  1  0.34535398  0.19701512  0.53090314  1.0
  H  H38  1  0.71197289  0.36869000  0.03795958  1.0
  H  H39  1  0.30797692  0.36633405  0.06270361  1.0
  H  H40  1  0.34512048  0.36419385  0.00053338  1.0
  H  H41  1  0.28916608  0.16930301  0.03794742  1.0
  H  H42  1  0.69329376  0.19632414  0.06270221  1.0
  H  H43  1  0.65583367  0.13629486  0.00053373  1.0
  H  H44  1  0.28778643  0.16404020  0.62866818  1.0
  H  H45  1  0.69188485  0.13695600  0.60395323  1.0
  H  H46  1  0.65447812  0.19700713  0.66611132  1.0
  H  H47  1  0.71199918  0.96463285  0.62866834  1.0
  H  H48  1  0.30781975  0.96698194  0.60396031  1.0
  H  H49  1  0.34529204  0.96908678  0.66611250  1.0
  C  C50  1  0.49973287  0.04122270  0.58245475  1.0
  C  C51  1  0.49962128  0.91753417  0.45877870  1.0
  C  C52  1  0.49962448  0.04122220  0.45877725  1.0
  C  C53  1  0.50068257  0.41579330  0.20789190  1.0
  C  C54  1  0.50077571  0.29209811  0.20787600  1.0
  C  C55  1  0.50083462  0.29211470  0.08420120  1.0
  C  C56  1  0.50093139  0.47508611  0.23752628  1.0
  C  C57  1  0.48081774  0.50258514  0.29352774  1.0
  C  C58  1  0.47629094  0.55792028  0.32051300  1.0
  C  C59  1  0.50032686  0.58632483  0.29314433  1.0
  C  C60  1  0.52424559  0.55792951  0.23736996  1.0
  C  C61  1  0.52066804  0.50258965  0.20901794  1.0
  C  C62  1  0.49968613  0.64243504  0.32120802  1.0
  C  C63  1  0.49940598  0.69090515  0.34546584  1.0
  C  C64  1  0.49954097  0.74700661  0.37351999  1.0
  C  C65  1  0.52320715  0.77539732  0.42928620  1.0
  C  C66  1  0.51917710  0.83073006  0.45763604  1.0
  C  C67  1  0.49966399  0.85823421  0.42912870  1.0
  C  C68  1  0.48021354  0.83072981  0.37312078  1.0
  C  C69  1  0.47605788  0.77539830  0.34614113  1.0
  C  C70  1  0.50102008  0.26246899  0.23754438  1.0
  C  C71  1  0.48093183  0.20646976  0.20905093  1.0
  C  C72  1  0.47648390  0.17948379  0.23740782  1.0
  C  C73  1  0.50044671  0.20685666  0.29317793  1.0
  C  C74  1  0.52431466  0.26262707  0.32054904  1.0
  C  C75  1  0.52074668  0.29097773  0.29355261  1.0
  C  C76  1  0.49985461  0.17879285  0.32123069  1.0
  C  C77  1  0.49958973  0.15454496  0.34545329  1.0
  C  C78  1  0.49970744  0.12648512  0.37350115  1.0
  C  C79  1  0.52325456  0.07072162  0.34612901  1.0
  C  C80  1  0.51919212  0.04236781  0.37311423  1.0
  C  C81  1  0.49974007  0.07087714  0.42912488  1.0
  C  C82  1  0.48028944  0.12688335  0.45762350  1.0
  C  C83  1  0.47611576  0.15386579  0.42926726  1.0
  C  C84  1  0.50099547  0.26245021  0.02491043  1.0
  C  C85  1  0.48089831  0.29095584  0.99741002  1.0
  C  C86  1  0.47645517  0.26260436  0.94207154  1.0
  C  C87  1  0.50038517  0.20683689  0.91367299  1.0
  C  C88  1  0.52433964  0.17945587  0.94206948  1.0
  C  C89  1  0.52074174  0.20644631  0.99741167  1.0
  C  C90  1  0.49983081  0.17877740  0.85755791  1.0
  C  C91  1  0.49950633  0.15453054  0.80909167  1.0
  C  C92  1  0.49958826  0.12647661  0.75298350  1.0
  C  C93  1  0.52332010  0.15385499  0.72459153  1.0
  C  C94  1  0.51922927  0.12687810  0.66925680  1.0
  C  C95  1  0.49974694  0.07087367  0.64175390  1.0
  C  C96  1  0.48027152  0.04236342  0.66925658  1.0
  C  C97  1  0.47605249  0.07071296  0.72459237  1.0
  C  C98  1  0.45873349  0.47376778  0.32442986  1.0
  C  C99  1  0.54244249  0.47380582  0.14929921  1.0
  C  C100  1  0.54080983  0.85954226  0.51735827  1.0
  C  C101  1  0.45882214  0.85954344  0.34220511  1.0
  C  C102  1  0.45881004  0.17556070  0.14933763  1.0
  C  C103  1  0.54249249  0.35069588  0.32448843  1.0
  C  C104  1  0.54079533  0.98264703  0.34219434  1.0
  C  C105  1  0.45888249  0.15779581  0.51734716  1.0
  C  C106  1  0.45887281  0.35066758  0.02620625  1.0
  C  C107  1  0.54244354  0.17551605  0.02620583  1.0
  C  C108  1  0.54092287  0.15779548  0.64044680  1.0
  C  C109  1  0.45881972  0.98264284  0.64044793  1.0
  O  O110  1  0.26433590  0.00722538  0.44859121  1.0
  O  O111  1  0.26437799  0.05139933  0.55864284  1.0
  O  O112  1  0.26429384  0.94134300  0.49277184  1.0
  O  O113  1  0.73501324  0.05139464  0.49275894  1.0
  O  O114  1  0.73496015  0.94134726  0.44860215  1.0
  O  O115  1  0.73508513  0.00723304  0.55865046  1.0
  O  O116  1  0.26553717  0.28194016  0.10802184  1.0
  O  O117  1  0.26544133  0.39197821  0.17388646  1.0
  O  O118  1  0.26547279  0.32609226  0.21805223  1.0
  O  O119  1  0.73597245  0.32612610  0.10802312  1.0
  O  O120  1  0.73596830  0.28192240  0.17387019  1.0
  O  O121  1  0.73588702  0.39196500  0.21806795  1.0
