# generated using pymatgen
data_AlH6C8NO5
_symmetry_space_group_name_H-M   'P 1'
_cell_length_a   6.68619289
_cell_length_b   11.63830230
_cell_length_c   17.67441517
_cell_angle_alpha   90.06318071
_cell_angle_beta   91.15782209
_cell_angle_gamma   90.67252236
_symmetry_Int_Tables_number   1
_chemical_formula_structural   AlH6C8NO5
_chemical_formula_sum   'Al4 H24 C32 N4 O20'
_cell_volume   1374.97436092
_cell_formula_units_Z   4
loop_
 _symmetry_equiv_pos_site_id
 _symmetry_equiv_pos_as_xyz
  1  'x, y, z'
loop_
 _atom_site_type_symbol
 _atom_site_label
 _atom_site_symmetry_multiplicity
 _atom_site_fract_x
 _atom_site_fract_y
 _atom_site_fract_z
 _atom_site_occupancy
  Al  Al0  1  0.99490036  0.99597034  0.50375827  1.0
  Al  Al1  1  0.49500443  0.99890830  0.49984594  1.0
  Al  Al2  1  0.00458004  0.49816128  0.99987715  1.0
  Al  Al3  1  0.50502605  0.49570922  0.00070525  1.0
  H  H4  1  0.23952001  0.84902516  0.48055330  1.0
  H  H5  1  0.75143819  0.15213312  0.49855361  1.0
  H  H6  1  0.26080027  0.64727022  0.01601900  1.0
  H  H7  1  0.75729337  0.34944511  0.02171463  1.0
  H  H8  1  0.05604226  0.75101911  0.83441730  1.0
  H  H9  1  0.43799054  0.65484145  0.80131986  1.0
  H  H10  1  0.04220350  0.85930624  0.71128687  1.0
  H  H11  1  0.55658408  0.23974780  0.17286181  1.0
  H  H12  1  0.94446078  0.34151970  0.19494812  1.0
  H  H13  1  0.53445552  0.13346570  0.29616751  1.0
  H  H14  1  0.93850462  0.24871946  0.82457048  1.0
  H  H15  1  0.55587324  0.34858033  0.80389429  1.0
  H  H16  1  0.95733968  0.14231859  0.70083879  1.0
  H  H17  1  0.06692661  0.65057486  0.21447235  1.0
  H  H18  1  0.45326600  0.73256919  0.16525097  1.0
  H  H19  1  0.04327512  0.75234207  0.33899830  1.0
  H  H20  1  0.36837858  0.81054626  0.62555787  1.0
  H  H21  1  0.26119116  0.72125030  0.69366086  1.0
  H  H22  1  0.86717246  0.18567568  0.36957365  1.0
  H  H23  1  0.76227000  0.27635025  0.30100515  1.0
  H  H24  1  0.62777299  0.19529973  0.62837749  1.0
  H  H25  1  0.73498358  0.28513697  0.69755582  1.0
  H  H26  1  0.37648297  0.88786778  0.33992306  1.0
  H  H27  1  0.27408819  0.84488476  0.25175413  1.0
  C  C28  1  0.73913835  0.86390923  0.39534084  1.0
  C  C29  1  0.74591854  0.87389425  0.61197813  1.0
  C  C30  1  0.25483173  0.12972385  0.60750446  1.0
  C  C31  1  0.23798915  0.12281311  0.39083973  1.0
  C  C32  1  0.76539912  0.62580441  0.10835717  1.0
  C  C33  1  0.74788465  0.62825510  0.89547280  1.0
  C  C34  1  0.24332904  0.36992085  0.89314223  1.0
  C  C35  1  0.25853871  0.36383011  0.10562183  1.0
  C  C36  1  0.73768137  0.81355446  0.68506763  1.0
  C  C37  1  0.74656347  0.69534901  0.82348077  1.0
  C  C38  1  0.55970509  0.75779816  0.71051520  1.0
  C  C39  1  0.92050748  0.75291583  0.79921110  1.0
  C  C40  1  0.57064458  0.69903715  0.78047580  1.0
  C  C41  1  0.91233046  0.81145951  0.73110509  1.0
  C  C42  1  0.23328839  0.18228476  0.31714593  1.0
  C  C43  1  0.25086171  0.29826620  0.17818400  1.0
  C  C44  1  0.05951786  0.23894011  0.28826385  1.0
  C  C45  1  0.42069847  0.23989837  0.20584669  1.0
  C  C46  1  0.07407674  0.29643901  0.21809404  1.0
  C  C47  1  0.40823003  0.18223478  0.27403566  1.0
  C  C48  1  0.26065548  0.19122288  0.68039902  1.0
  C  C49  1  0.24720293  0.30620114  0.81976142  1.0
  C  C50  1  0.43629717  0.24821059  0.70939781  1.0
  C  C51  1  0.07436566  0.24883036  0.79156715  1.0
  C  C52  1  0.42399737  0.30483714  0.77992593  1.0
  C  C53  1  0.08503622  0.19138258  0.72322834  1.0
  C  C54  1  0.73861092  0.80246324  0.32230778  1.0
  C  C55  1  0.76024461  0.68844723  0.18229954  1.0
  C  C56  1  0.56651611  0.79824468  0.27288043  1.0
  C  C57  1  0.93025036  0.69310736  0.23085329  1.0
  C  C58  1  0.58315889  0.73915123  0.20339843  1.0
  C  C59  1  0.91578501  0.74896044  0.29966622  1.0
  N  N60  1  0.38450520  0.75584319  0.66996860  1.0
  N  N61  1  0.88492615  0.24243821  0.32653328  1.0
  N  N62  1  0.61110791  0.25253364  0.67112770  1.0
  N  N63  1  0.39074644  0.84923142  0.28896855  1.0
  O  O64  1  0.90697055  0.88487874  0.42888627  1.0
  O  O65  1  0.57970999  0.89615048  0.57764082  1.0
  O  O66  1  0.42132636  0.10525588  0.57633893  1.0
  O  O67  1  0.07097925  0.09802036  0.42195135  1.0
  O  O68  1  0.08385464  0.10342531  0.57857025  1.0
  O  O69  1  0.40949698  0.09873052  0.41965289  1.0
  O  O70  1  0.56965712  0.89430890  0.42164142  1.0
  O  O71  1  0.91721698  0.90051107  0.58600674  1.0
  O  O72  1  0.24440406  0.92546951  0.50234682  1.0
  O  O73  1  0.74705435  0.06902746  0.49939144  1.0
  O  O74  1  0.93585793  0.59558664  0.08489010  1.0
  O  O75  1  0.57953072  0.59291895  0.91903028  1.0
  O  O76  1  0.41083753  0.38824307  0.92674247  1.0
  O  O77  1  0.09179112  0.38545811  0.07280875  1.0
  O  O78  1  0.07360133  0.40143354  0.91643103  1.0
  O  O79  1  0.43070157  0.39369252  0.08233879  1.0
  O  O80  1  0.59775770  0.60704949  0.07457518  1.0
  O  O81  1  0.91648446  0.61035400  0.92810671  1.0
  O  O82  1  0.25697091  0.56686278  0.00201867  1.0
  O  O83  1  0.75433302  0.42656252  0.00125904  1.0
