# generated using pymatgen
data_ZnH15C21N5O4
_symmetry_space_group_name_H-M   'P 1'
_cell_length_a   10.84255765
_cell_length_b   13.78803084
_cell_length_c   15.23419511
_cell_angle_alpha   89.72721280
_cell_angle_beta   89.58529441
_cell_angle_gamma   90.86404142
_symmetry_Int_Tables_number   1
_chemical_formula_structural   ZnH15C21N5O4
_chemical_formula_sum   'Zn2 H30 C42 N10 O8'
_cell_volume   2277.12875051
_cell_formula_units_Z   2
loop_
 _symmetry_equiv_pos_site_id
 _symmetry_equiv_pos_as_xyz
  1  'x, y, z'
loop_
 _atom_site_type_symbol
 _atom_site_label
 _atom_site_symmetry_multiplicity
 _atom_site_fract_x
 _atom_site_fract_y
 _atom_site_fract_z
 _atom_site_occupancy
  Zn  Zn0  1  0.49661219  0.40119916  0.50174265  1.0
  Zn  Zn1  1  0.50352035  0.60346419  0.50054501  1.0
  H  H2  1  0.09373412  0.41391557  0.61922872  1.0
  H  H3  1  0.90536488  0.58988465  0.37343420  1.0
  H  H4  1  0.45584721  0.25071816  0.92406205  1.0
  H  H5  1  0.54683351  0.74301312  0.07783430  1.0
  H  H6  1  0.67179065  0.25566979  0.44440011  1.0
  H  H7  1  0.32738113  0.74963369  0.55612645  1.0
  H  H8  1  0.32592083  0.25074655  0.55540804  1.0
  H  H9  1  0.67914672  0.75509378  0.45456424  1.0
  H  H10  1  0.97225141  0.26055192  0.50608137  1.0
  H  H11  1  0.83549740  0.30429126  0.53583831  1.0
  H  H12  1  0.02796515  0.74090072  0.47245401  1.0
  H  H13  1  0.17062242  0.69670180  0.46648062  1.0
  H  H14  1  0.00521810  0.39080064  0.30278265  1.0
  H  H15  1  0.14272399  0.44452042  0.31057634  1.0
  H  H16  1  0.99573279  0.63870556  0.67286312  1.0
  H  H17  1  0.88606684  0.55611809  0.69507156  1.0
  H  H18  1  0.54275499  0.65330220  0.22053379  1.0
  H  H19  1  0.45351547  0.34140468  0.78076814  1.0
  H  H20  1  0.50585647  0.34339086  0.22605736  1.0
  H  H21  1  0.50050101  0.65055580  0.77630423  1.0
  H  H22  1  0.47708559  0.25125959  0.08565554  1.0
  H  H23  1  0.52758290  0.74224453  0.91574183  1.0
  H  H24  1  0.20224210  0.16859069  0.61634246  1.0
  H  H25  1  0.14765683  0.06256584  0.65465465  1.0
  H  H26  1  0.80401853  0.83985564  0.38327262  1.0
  H  H27  1  0.88820238  0.94466051  0.38757488  1.0
  H  H28  1  0.85670028  0.08603135  0.35283207  1.0
  H  H29  1  0.82093195  0.18108107  0.41646321  1.0
  H  H30  1  0.17285484  0.82717517  0.57813724  1.0
  H  H31  1  0.10281173  0.93486048  0.58523647  1.0
  C  C32  1  0.47280062  0.49611379  0.67177848  1.0
  C  C33  1  0.52586390  0.50122093  0.33007897  1.0
  C  C34  1  0.50769604  0.49690004  0.04729614  1.0
  C  C35  1  0.49601535  0.49656810  0.95443037  1.0
  C  C36  1  0.52545237  0.58667730  0.09253667  1.0
  C  C37  1  0.47699883  0.40708740  0.90891523  1.0
  C  C38  1  0.48218246  0.31906503  0.04838952  1.0
  C  C39  1  0.52211982  0.67465484  0.95329333  1.0
  C  C40  1  0.47039927  0.31878955  0.95913884  1.0
  C  C41  1  0.53281951  0.67504399  0.04251150  1.0
  C  C42  1  0.59839228  0.20827166  0.46985323  1.0
  C  C43  1  0.40201933  0.79697041  0.53251174  1.0
  C  C44  1  0.40114677  0.20511741  0.53323136  1.0
  C  C45  1  0.60187116  0.80024116  0.47365827  1.0
  C  C46  1  0.39597969  0.10346871  0.53578563  1.0
  C  C47  1  0.60607422  0.90186594  0.47007696  1.0
  C  C48  1  0.60604922  0.10678309  0.47013946  1.0
  C  C49  1  0.39493941  0.89838760  0.53312917  1.0
  C  C50  1  0.50093818  0.05364914  0.50250539  1.0
  C  C51  1  0.50048088  0.95183629  0.50178201  1.0
  C  C52  1  0.29118516  0.04974939  0.56897574  1.0
  C  C53  1  0.71236679  0.95533640  0.43825294  1.0
  C  C54  1  0.71282669  0.05668118  0.43823101  1.0
  C  C55  1  0.28779536  0.94863212  0.56412727  1.0
  C  C56  1  0.73840809  0.50173812  0.51141025  1.0
  C  C57  1  0.26044739  0.50429412  0.48493289  1.0
  C  C58  1  0.95723649  0.40724637  0.49604249  1.0
  C  C59  1  0.04020491  0.59600521  0.49645259  1.0
  C  C60  1  0.03335999  0.45815842  0.41941631  1.0
  C  C61  1  0.96537141  0.54524038  0.57322431  1.0
  C  C62  1  0.04907985  0.45238275  0.56514686  1.0
  C  C63  1  0.94888684  0.55084045  0.42765591  1.0
  C  C64  1  0.12362529  0.50457234  0.48890006  1.0
  C  C65  1  0.87435545  0.49860036  0.50299889  1.0
  C  C66  1  0.53273848  0.58563813  0.18429725  1.0
  C  C67  1  0.46690871  0.40867251  0.81711574  1.0
  C  C68  1  0.52505955  0.49852094  0.23159244  1.0
  C  C69  1  0.47604618  0.49604029  0.77026599  1.0
  C  C70  1  0.51110213  0.41025381  0.18757469  1.0
  C  C71  1  0.49337615  0.58370597  0.81464537  1.0
  C  C72  1  0.50091848  0.40776553  0.09576557  1.0
  C  C73  1  0.50337293  0.58582211  0.90624714  1.0
  N  N74  1  0.49892901  0.25411515  0.50063833  1.0
  N  N75  1  0.50260073  0.75095209  0.50372320  1.0
  N  N76  1  0.90692533  0.31078558  0.49182777  1.0
  N  N77  1  0.08837069  0.69352766  0.49973782  1.0
  N  N78  1  0.07559861  0.40727273  0.34447380  1.0
  N  N79  1  0.92541640  0.59827465  0.64704198  1.0
  N  N80  1  0.18800736  0.09735269  0.60246116  1.0
  N  N81  1  0.81654357  0.90516334  0.41230476  1.0
  N  N82  1  0.81868848  0.10731255  0.41071879  1.0
  N  N83  1  0.18311383  0.89881214  0.59367764  1.0
  O  O84  1  0.45297935  0.41527714  0.63384706  1.0
  O  O85  1  0.50904879  0.58345696  0.36532876  1.0
  O  O86  1  0.54092839  0.42121946  0.37069477  1.0
  O  O87  1  0.49259907  0.57728125  0.63357728  1.0
  O  O88  1  0.68063584  0.42358408  0.53297196  1.0
  O  O89  1  0.31526332  0.58647629  0.49242808  1.0
  O  O90  1  0.31221966  0.42276926  0.47605197  1.0
  O  O91  1  0.68980271  0.58367486  0.49705404  1.0
