# generated using pymatgen
data_Zn4H15C24N3O13
_symmetry_space_group_name_H-M   'P 1'
_cell_length_a   15.50770769
_cell_length_b   16.23161620
_cell_length_c   16.91451558
_cell_angle_alpha   65.63702879
_cell_angle_beta   62.76325259
_cell_angle_gamma   62.39771558
_symmetry_Int_Tables_number   1
_chemical_formula_structural   Zn4H15C24N3O13
_chemical_formula_sum   'Zn8 H30 C48 N6 O26'
_cell_volume   3244.32214241
_cell_formula_units_Z   2
loop_
 _symmetry_equiv_pos_site_id
 _symmetry_equiv_pos_as_xyz
  1  'x, y, z'
loop_
 _atom_site_type_symbol
 _atom_site_label
 _atom_site_symmetry_multiplicity
 _atom_site_fract_x
 _atom_site_fract_y
 _atom_site_fract_z
 _atom_site_occupancy
  Zn  Zn0  1  0.03698206  0.89896150  0.94987936  1.0
  Zn  Zn1  1  0.03003104  0.09449986  0.94023986  1.0
  Zn  Zn2  1  0.23145890  0.90902852  0.95940681  1.0
  Zn  Zn3  1  0.01995826  0.92674998  0.13329357  1.0
  Zn  Zn4  1  0.63146048  0.50599696  0.55940376  1.0
  Zn  Zn5  1  0.61072913  0.32466251  0.53948554  1.0
  Zn  Zn6  1  0.60330378  0.52647131  0.37345362  1.0
  Zn  Zn7  1  0.42566408  0.52312050  0.54979773  1.0
  H  H8  1  0.44952981  0.22838660  0.01172772  1.0
  H  H9  1  0.52675004  0.13964340  0.07172006  1.0
  H  H10  1  0.52404498  0.29976993  0.84616920  1.0
  H  H11  1  0.85587900  0.19942983  0.72532154  1.0
  H  H12  1  0.71197179  0.08608877  0.01348050  1.0
  H  H13  1  0.31502060  0.01878436  0.40630092  1.0
  H  H14  1  0.24271355  0.08788254  0.48206703  1.0
  H  H15  1  0.40376796  0.84718101  0.45185306  1.0
  H  H16  1  0.37048270  0.71992971  0.73939226  1.0
  H  H17  1  0.22097403  0.02450433  0.64445612  1.0
  H  H18  1  0.11038284  0.35850076  0.23538380  1.0
  H  H19  1  0.17084277  0.42443782  0.13780460  1.0
  H  H20  1  0.94302692  0.42790095  0.33673171  1.0
  H  H21  1  0.80816903  0.73741951  0.26883110  1.0
  H  H22  1  0.11507967  0.60046888  0.10447087  1.0
  H  H23  1  0.28449206  0.36884045  0.00142601  1.0
  H  H24  1  0.23461508  0.28175579  0.07504793  1.0
  H  H25  1  0.35921374  0.38754171  0.83756814  1.0
  H  H26  1  0.33752106  0.20077440  0.73142681  1.0
  H  H27  1  0.23019897  0.16399210  0.02473186  1.0
  H  H28  1  0.44946909  0.35751871  0.18352437  1.0
  H  H29  1  0.52641129  0.28714719  0.10572039  1.0
  H  H30  1  0.52447190  0.37866917  0.27307737  1.0
  H  H31  1  0.82843995  0.18099813  0.27905266  1.0
  H  H32  1  0.71123993  0.20130229  0.08177873  1.0
  H  H33  1  0.28805828  0.37818913  0.32365832  1.0
  H  H34  1  0.23035794  0.43667156  0.24328810  1.0
  H  H35  1  0.35483237  0.44438648  0.37413579  1.0
  H  H36  1  0.32818196  0.74257473  0.25151427  1.0
  H  H37  1  0.22119752  0.60853930  0.15731416  1.0
  C  C38  1  0.60646177  0.19587016  0.94073517  1.0
  C  C39  1  0.59949681  0.25415851  0.85369180  1.0
  C  C40  1  0.68839261  0.25328325  0.77641733  1.0
  C  C41  1  0.78619396  0.19753610  0.78452164  1.0
  C  C42  1  0.79277581  0.13752658  0.87078095  1.0
  C  C43  1  0.70424411  0.13470722  0.94747508  1.0
  C  C44  1  0.89399291  0.07705740  0.88588156  1.0
  C  C45  1  0.67613675  0.31431027  0.68424064  1.0
  C  C46  1  0.31618529  0.94728958  0.53805243  1.0
  C  C47  1  0.37403680  0.85571133  0.52132206  1.0
  C  C48  1  0.39334421  0.77526842  0.59358539  1.0
  C  C49  1  0.35521745  0.78337467  0.68349247  1.0
  C  C50  1  0.29069704  0.87332518  0.70068629  1.0
  C  C51  1  0.27142784  0.95481141  0.62933679  1.0
  C  C52  1  0.23541565  0.87951541  0.79840602  1.0
  C  C53  1  0.44648705  0.67682951  0.57815139  1.0
  C  C54  1  0.04092320  0.50354991  0.22006213  1.0
  C  C55  1  0.94984025  0.49778937  0.29310858  1.0
  C  C56  1  0.86545059  0.58137062  0.30811532  1.0
  C  C57  1  0.87291041  0.67204113  0.25569987  1.0
  C  C58  1  0.96463817  0.67738311  0.18388946  1.0
  C  C59  1  0.04657102  0.59386899  0.16390658  1.0
  C  C60  1  0.97846225  0.77197302  0.12567910  1.0
  C  C61  1  0.76460904  0.56934166  0.37530237  1.0
  C  C62  1  0.29652603  0.27680560  0.94076685  1.0
  C  C63  1  0.33886030  0.32599319  0.85085077  1.0
  C  C64  1  0.35633772  0.29659375  0.77630175  1.0
  C  C65  1  0.32576259  0.22182444  0.78995424  1.0
  C  C66  1  0.27710862  0.17720905  0.87986575  1.0
  C  C67  1  0.26550685  0.20195437  0.95497110  1.0
  C  C68  1  0.22934107  0.10595762  0.89931048  1.0
  C  C69  1  0.40731091  0.34910150  0.68239025  1.0
  C  C70  1  0.60218871  0.28690990  0.17988645  1.0
  C  C71  1  0.59410760  0.32115065  0.24816054  1.0
  C  C72  1  0.67480089  0.28390568  0.28284347  1.0
  C  C73  1  0.76628284  0.21156070  0.25087767  1.0
  C  C74  1  0.77859533  0.18506817  0.17618552  1.0
  C  C75  1  0.69858423  0.22225005  0.14080202  1.0
  C  C76  1  0.87956661  0.11985729  0.12830826  1.0
  C  C77  1  0.66290570  0.32999378  0.34985777  1.0
  C  C78  1  0.28988048  0.51464281  0.26389217  1.0
  C  C79  1  0.33219900  0.51109091  0.32325481  1.0
  C  C80  1  0.34783759  0.59195306  0.31687614  1.0
  C  C81  1  0.31623171  0.67981044  0.25533500  1.0
  C  C82  1  0.26728399  0.68502773  0.20078018  1.0
  C  C83  1  0.25659634  0.60317482  0.20280407  1.0
  C  C84  1  0.22278213  0.77986893  0.14019999  1.0
  C  C85  1  0.40179419  0.57925947  0.37678353  1.0
  N  N86  1  0.51983358  0.20088120  0.02011449  1.0
  N  N87  1  0.30429267  0.02921174  0.46572380  1.0
  N  N88  1  0.12767127  0.42010074  0.20527798  1.0
  N  N89  1  0.29016901  0.29952227  0.01559705  1.0
  N  N90  1  0.52152126  0.31908275  0.14890794  1.0
  N  N91  1  0.28640489  0.43009050  0.26387883  1.0
  O  O92  1  0.08088942  0.95783341  0.99958007  1.0
  O  O93  1  0.96167560  0.11690208  0.85505369  1.0
  O  O94  1  0.90424530  0.98980068  0.93220153  1.0
  O  O95  1  0.68127448  0.27238349  0.63206865  1.0
  O  O96  1  0.66041612  0.40334387  0.66734515  1.0
  O  O97  1  0.28639874  0.87731724  0.84107755  1.0
  O  O98  1  0.14154621  0.88466708  0.82981028  1.0
  O  O99  1  0.40111665  0.65328341  0.54831046  1.0
  O  O100  1  0.52899839  0.62435039  0.59822776  1.0
  O  O101  1  0.94411264  0.83834811  0.16509658  1.0
  O  O102  1  0.02638722  0.77710350  0.03975259  1.0
  O  O103  1  0.69691860  0.59439785  0.33886700  1.0
  O  O104  1  0.75622293  0.53297114  0.45987125  1.0
  O  O105  1  0.27297448  0.01849272  0.93505410  1.0
  O  O106  1  0.14624593  0.14208498  0.88013487  1.0
  O  O107  1  0.37806969  0.44006518  0.67034928  1.0
  O  O108  1  0.47546930  0.30147089  0.62344317  1.0
  O  O109  1  0.92592156  0.04202316  0.17772286  1.0
  O  O110  1  0.91074219  0.14793801  0.04067890  1.0
  O  O111  1  0.64772375  0.41999679  0.31964913  1.0
  O  O112  1  0.66821934  0.27738343  0.42968209  1.0
  O  O113  1  0.27434063  0.79467953  0.05455077  1.0
  O  O114  1  0.13711319  0.83689423  0.17983732  1.0
  O  O115  1  0.37144483  0.53269529  0.46055494  1.0
  O  O116  1  0.47645220  0.61152654  0.34051831  1.0
  O  O117  1  0.57709944  0.46363980  0.50456520  1.0
