# generated using pymatgen
data_Zn4H12C26S4O13
_symmetry_space_group_name_H-M   'P 1'
_cell_length_a   19.64643151
_cell_length_b   19.65448151
_cell_length_c   33.36859219
_cell_angle_alpha   79.10237345
_cell_angle_beta   79.13776655
_cell_angle_gamma   63.97575349
_symmetry_Int_Tables_number   1
_chemical_formula_structural   Zn4H12C26S4O13
_chemical_formula_sum   'Zn16 H48 C104 S16 O52'
_cell_volume   11288.17985022
_cell_formula_units_Z   4
loop_
 _symmetry_equiv_pos_site_id
 _symmetry_equiv_pos_as_xyz
  1  'x, y, z'
loop_
 _atom_site_type_symbol
 _atom_site_label
 _atom_site_symmetry_multiplicity
 _atom_site_fract_x
 _atom_site_fract_y
 _atom_site_fract_z
 _atom_site_occupancy
  Zn  Zn0  1  0.05216303  0.40223163  0.47636884  1.0
  Zn  Zn1  1  0.98654200  0.48169970  0.56044886  1.0
  Zn  Zn2  1  0.06023387  0.55846902  0.48265461  1.0
  Zn  Zn3  1  0.89875668  0.55461600  0.47998597  1.0
  Zn  Zn4  1  0.69477366  0.34691438  0.27315230  1.0
  Zn  Zn5  1  0.68935920  0.18790130  0.26586739  1.0
  Zn  Zn6  1  0.76210298  0.27226678  0.18998498  1.0
  Zn  Zn7  1  0.84854078  0.19153220  0.27031100  1.0
  Zn  Zn8  1  0.26831872  0.76363214  0.68956458  1.0
  Zn  Zn9  1  0.34771795  0.69808601  0.77378763  1.0
  Zn  Zn10  1  0.19567416  0.85153432  0.76991820  1.0
  Zn  Zn11  1  0.19095069  0.69072091  0.76747170  1.0
  Zn  Zn12  1  0.56195291  0.06070385  0.98408334  1.0
  Zn  Zn13  1  0.40297321  0.05544899  0.97688711  1.0
  Zn  Zn14  1  0.55873728  0.90163259  0.97941279  1.0
  Zn  Zn15  1  0.47768353  0.98728185  0.05986538  1.0
  H  H16  1  0.74778707  0.44013809  0.35071386  1.0
  H  H17  1  0.99699955  0.30163788  0.40295679  1.0
  H  H18  1  0.20454039  0.69607790  0.60205751  1.0
  H  H19  1  0.05638465  0.54286900  0.64834688  1.0
  H  H20  1  0.28767805  0.50540019  0.41130618  1.0
  H  H21  1  0.45876745  0.24052819  0.33567786  1.0
  H  H22  1  0.77475505  0.54617651  0.65277742  1.0
  H  H23  1  0.48148622  0.69754157  0.60520696  1.0
  H  H24  1  0.05242034  0.26836796  0.64493954  1.0
  H  H25  1  0.20404459  0.97556850  0.59704392  1.0
  H  H26  1  0.79404818  0.78471091  0.40983188  1.0
  H  H27  1  0.95565548  0.95924023  0.33783937  1.0
  H  H28  1  0.64515792  0.15111550  0.04978609  1.0
  H  H29  1  0.59623530  0.10635012  0.20031784  1.0
  H  H30  1  0.70658668  0.48376578  0.10643167  1.0
  H  H31  1  0.53636808  0.77756650  0.15105102  1.0
  H  H32  1  0.08112722  0.10448781  0.20558108  1.0
  H  H33  1  0.15794935  0.15295175  0.03606042  1.0
  H  H34  1  0.30844964  0.00240974  0.89967381  1.0
  H  H35  1  0.44898402  0.75388838  0.84704658  1.0
  H  H36  1  0.44356700  0.48011506  0.85539867  1.0
  H  H37  1  0.30886263  0.27432651  0.89751611  1.0
  H  H38  1  0.97374403  0.73599678  0.84807415  1.0
  H  H39  1  0.78197016  0.01709814  0.90396795  1.0
  H  H40  1  0.78700163  0.56470388  0.39099147  1.0
  H  H41  1  0.74729573  0.52122383  0.43378938  1.0
  H  H42  1  0.71261659  0.53955549  0.38532317  1.0
  H  H43  1  0.99477883  0.22016397  0.31972600  1.0
  H  H44  1  0.95852003  0.17642756  0.36388832  1.0
  H  H45  1  0.03310943  0.20318423  0.36696842  1.0
  H  H46  1  0.11987531  0.69753368  0.52149921  1.0
  H  H47  1  0.20237292  0.61159263  0.52067105  1.0
  H  H48  1  0.20538839  0.69294509  0.53535599  1.0
  H  H49  1  0.05392192  0.62725476  0.72918393  1.0
  H  H50  1  0.14128067  0.54633892  0.72949389  1.0
  H  H51  1  0.06083552  0.54094855  0.71515671  1.0
  H  H52  1  0.76539005  0.19324260  0.09469774  1.0
  H  H53  1  0.68065575  0.27662821  0.09070483  1.0
  H  H54  1  0.71495653  0.21512610  0.05137395  1.0
  H  H55  1  0.55171221  0.98681856  0.15380065  1.0
  H  H56  1  0.47095294  0.07250513  0.16131756  1.0
  H  H57  1  0.53703608  0.03159252  0.19847964  1.0
  H  H58  1  0.18491135  0.96152889  0.85902666  1.0
  H  H59  1  0.22760047  0.00297050  0.81668113  1.0
  H  H60  1  0.20861314  0.03637238  0.86555168  1.0
  H  H61  1  0.53028998  0.75637589  0.93019712  1.0
  H  H62  1  0.57340139  0.79376996  0.88622734  1.0
  H  H63  1  0.54764658  0.71872087  0.88274662  1.0
  C  C64  1  0.06571318  0.31430649  0.55865840  1.0
  C  C65  1  0.07513687  0.56635786  0.56815131  1.0
  C  C66  1  0.18045060  0.43926428  0.43533839  1.0
  C  C67  1  0.93651842  0.68322033  0.43957162  1.0
  C  C68  1  0.92247397  0.43204607  0.43241718  1.0
  C  C69  1  0.81887148  0.55890908  0.56513599  1.0
  C  C70  1  0.56583740  0.30770082  0.31167320  1.0
  C  C71  1  0.67571226  0.18729730  0.17933569  1.0
  C  C72  1  0.68677396  0.43913339  0.19232383  1.0
  C  C73  1  0.92935138  0.19172641  0.18561051  1.0
  C  C74  1  0.82242038  0.31050132  0.32085973  1.0
  C  C75  1  0.81298775  0.06119361  0.30822996  1.0
  C  C76  1  0.43588358  0.68508770  0.69153128  1.0
  C  C77  1  0.31827855  0.82743375  0.81775783  1.0
  C  C78  1  0.19055915  0.93110522  0.68468191  1.0
  C  C79  1  0.06750791  0.81374320  0.81123162  1.0
  C  C80  1  0.18275452  0.67573311  0.68217333  1.0
  C  C81  1  0.31053148  0.56959703  0.81435537  1.0
  C  C82  1  0.44172619  0.18419982  0.93816747  1.0
  C  C83  1  0.43845890  0.92857526  0.92936466  1.0
  C  C84  1  0.68821626  0.93880752  0.94111307  1.0
  C  C85  1  0.55695310  0.82023245  0.06396092  1.0
  C  C86  1  0.56356685  0.07241940  0.07072386  1.0
  C  C87  1  0.31069804  0.06456077  0.05757608  1.0
  C  C88  1  0.89340855  0.40319712  0.40390547  1.0
  C  C89  1  0.85113848  0.33845359  0.34997383  1.0
  C  C90  1  0.82120250  0.44450272  0.38938492  1.0
  C  C91  1  0.92330753  0.29710334  0.36450055  1.0
  C  C92  1  0.80269762  0.41012507  0.36267992  1.0
  C  C93  1  0.94186654  0.33148428  0.39120531  1.0
  C  C94  1  0.10530483  0.59499345  0.59621083  1.0
  C  C95  1  0.15451038  0.64507322  0.65418325  1.0
  C  C96  1  0.14815477  0.63880954  0.58190376  1.0
  C  C97  1  0.11214394  0.60078915  0.66849923  1.0
  C  C98  1  0.17147603  0.66228263  0.61180220  1.0
  C  C99  1  0.08904137  0.57707929  0.63860250  1.0
  C  C100  1  0.30312409  0.45055931  0.40111774  1.0
  C  C101  1  0.44300919  0.29563428  0.34563310  1.0
  C  C102  1  0.25559210  0.41314924  0.41067940  1.0
  C  C103  1  0.49030861  0.33333333  0.33598185  1.0
  C  C104  1  0.37465856  0.33835073  0.36922708  1.0
  C  C105  1  0.37119893  0.40802267  0.37732855  1.0
  C  C106  1  0.72958020  0.57403449  0.63296119  1.0
  C  C107  1  0.52663473  0.66913614  0.62500615  1.0
  C  C108  1  0.74430992  0.58351125  0.59050369  1.0
  C  C109  1  0.51158654  0.65945534  0.66739302  1.0
  C  C110  1  0.60584100  0.63776774  0.61247787  1.0
  C  C111  1  0.65028465  0.60484670  0.64564473  1.0
  C  C112  1  0.08091753  0.22333983  0.62510812  1.0
  C  C113  1  0.17593875  0.02059587  0.61691574  1.0
  C  C114  1  0.09108422  0.23858971  0.58274770  1.0
  C  C115  1  0.16604298  0.00567751  0.65935187  1.0
  C  C116  1  0.14524377  0.09990237  0.60432260  1.0
  C  C117  1  0.11202404  0.14412058  0.63754461  1.0
  C  C118  1  0.84103014  0.80177942  0.40124412  1.0
  C  C119  1  0.90857324  0.94230927  0.34637182  1.0
  C  C120  1  0.91232946  0.75748583  0.41398402  1.0
  C  C121  1  0.83723959  0.98668035  0.33363202  1.0
  C  C122  1  0.91005594  0.87502689  0.37100217  1.0
  C  C123  1  0.83952150  0.86911164  0.37665672  1.0
  C  C124  1  0.64789693  0.15923884  0.14990620  1.0
  C  C125  1  0.59109504  0.10067414  0.10017754  1.0
  C  C126  1  0.66307482  0.17313379  0.10666648  1.0
  C  C127  1  0.57602567  0.08665471  0.14341392  1.0
  C  C128  1  0.63409132  0.14253287  0.08317122  1.0
  C  C129  1  0.60575358  0.11651773  0.16692062  1.0
  C  C130  1  0.67410746  0.52916020  0.12575333  1.0
  C  C131  1  0.56854575  0.73195975  0.13181513  1.0
  C  C132  1  0.66093140  0.51477968  0.16806051  1.0
  C  C133  1  0.58170586  0.74584059  0.08944743  1.0
  C  C134  1  0.60188155  0.65300121  0.14516513  1.0
  C  C135  1  0.64030541  0.60800714  0.11256826  1.0
  C  C136  1  0.07424700  0.12432822  0.17328730  1.0
  C  C137  1  0.16461693  0.13251321  0.06834401  1.0
  C  C138  1  0.00338137  0.16713654  0.15978163  1.0
  C  C139  1  0.23532271  0.08954150  0.08208018  1.0
  C  C140  1  0.10571432  0.14490566  0.10148085  1.0
  C  C141  1  0.13279496  0.11130913  0.14004729  1.0
  C  C142  1  0.34679773  0.85681526  0.84625053  1.0
  C  C143  1  0.41083631  0.89973338  0.90019244  1.0
  C  C144  1  0.30487408  0.92884051  0.86084247  1.0
  C  C145  1  0.45286497  0.82780664  0.88553614  1.0
  C  C146  1  0.33892881  0.94766387  0.88758884  1.0
  C  C147  1  0.41874341  0.80888279  0.85885619  1.0
  C  C148  1  0.40245249  0.45612374  0.85737348  1.0
  C  C149  1  0.35013398  0.29815048  0.89546305  1.0
  C  C150  1  0.33592081  0.49437636  0.83896744  1.0
  C  C151  1  0.41673761  0.25970122  0.91379126  1.0
  C  C152  1  0.34492872  0.36954556  0.87486019  1.0
  C  C153  1  0.40782821  0.38458461  0.87789739  1.0
  C  C154  1  0.95264796  0.79538441  0.85292410  1.0
  C  C155  1  0.80305367  0.95762930  0.89926957  1.0
  C  C156  1  0.99298766  0.83895722  0.83651090  1.0
  C  C157  1  0.76282899  0.91398855  0.91584790  1.0
  C  C158  1  0.87220220  0.91455185  0.87639695  1.0
  C  C159  1  0.88355007  0.83843947  0.87582483  1.0
  C  C160  1  0.76383040  0.52166034  0.40044598  1.0
  C  C161  1  0.98066301  0.22010441  0.35316571  1.0
  C  C162  1  0.17023958  0.66147610  0.53747211  1.0
  C  C163  1  0.09086941  0.57748026  0.71295833  1.0
  C  C164  1  0.70848436  0.21684576  0.08460798  1.0
  C  C165  1  0.53173622  0.04179637  0.16548990  1.0
  C  C166  1  0.22731901  0.98558077  0.84996238  1.0
  C  C167  1  0.53017337  0.77100402  0.89677044  1.0
  S  S168  1  0.29317397  0.32636014  0.39094071  1.0
  S  S169  1  0.45235546  0.42038456  0.35543663  1.0
  S  S170  1  0.66236388  0.62986531  0.56588323  1.0
  S  S171  1  0.59327066  0.61239888  0.69221028  1.0
  S  S172  1  0.13828266  0.15711661  0.55781999  1.0
  S  S173  1  0.11944014  0.08738816  0.68407523  1.0
  S  S174  1  0.97769758  0.79717654  0.39631611  1.0
  S  S175  1  0.77187162  0.94701692  0.35137695  1.0
  S  S176  1  0.60766337  0.59684541  0.19201899  1.0
  S  S177  1  0.63434022  0.66356745  0.06565879  1.0
  S  S178  1  0.00747150  0.19175322  0.10676203  1.0
  S  S179  1  0.23078186  0.06410310  0.13501627  1.0
  S  S180  1  0.27968488  0.44402222  0.84648214  1.0
  S  S181  1  0.47318879  0.30985728  0.90614917  1.0
  S  S182  1  0.94745534  0.93209887  0.84864932  1.0
  S  S183  1  0.80852705  0.82075760  0.90376473  1.0
  O  O184  1  0.99902310  0.49925511  0.50007112  1.0
  O  O185  1  0.08459327  0.31575743  0.51973772  1.0
  O  O186  1  0.04019133  0.52452844  0.58495388  1.0
  O  O187  1  0.15765679  0.50180016  0.45049207  1.0
  O  O188  1  0.02712657  0.37145329  0.57875266  1.0
  O  O189  1  0.14476016  0.39683108  0.43949620  1.0
  O  O190  1  0.08587154  0.58578800  0.52955190  1.0
  O  O191  1  0.00549805  0.65311914  0.44792991  1.0
  O  O192  1  0.88206758  0.49952858  0.44211690  1.0
  O  O193  1  0.88705784  0.65552983  0.45097644  1.0
  O  O194  1  0.98661934  0.38648581  0.44503781  1.0
  O  O195  1  0.87834663  0.52623890  0.58383034  1.0
  O  O196  1  0.81677845  0.57275220  0.52618023  1.0
  O  O197  1  0.74872022  0.24940013  0.25000949  1.0
  O  O198  1  0.59843990  0.35323374  0.30594942  1.0
  O  O199  1  0.66848494  0.16113160  0.21726723  1.0
  O  O200  1  0.72641884  0.38220740  0.17217374  1.0
  O  O201  1  0.59181765  0.24289035  0.29852363  1.0
  O  O202  1  0.66731800  0.43690062  0.23121639  1.0
  O  O203  1  0.70441465  0.23523097  0.16474306  1.0
  O  O204  1  0.86989715  0.22627815  0.16675547  1.0
  O  O205  1  0.86237480  0.24293180  0.31119364  1.0
  O  O206  1  0.93119105  0.17642145  0.22444012  1.0
  O  O207  1  0.75913264  0.35711783  0.30765598  1.0
  O  O208  1  0.74363503  0.09237174  0.30044214  1.0
  O  O209  1  0.86290467  0.08825087  0.29638025  1.0
  O  O210  1  0.25084755  0.75123115  0.74993784  1.0
  O  O211  1  0.37867181  0.72333313  0.67141605  1.0
  O  O212  1  0.36288777  0.76191305  0.80651603  1.0
  O  O213  1  0.17638969  0.93321309  0.72361701  1.0
  O  O214  1  0.43452871  0.66674066  0.73050336  1.0
  O  O215  1  0.22348335  0.87163401  0.66601705  1.0
  O  O216  1  0.25198838  0.86902326  0.80669142  1.0
  O  O217  1  0.09554360  0.86311259  0.79987998  1.0
  O  O218  1  0.16135006  0.66723903  0.72066612  1.0
  O  O219  1  0.09743806  0.74493856  0.80299023  1.0
  O  O220  1  0.22625482  0.70885700  0.66539336  1.0
  O  O221  1  0.35302626  0.60500824  0.81024387  1.0
  O  O222  1  0.24780290  0.59262981  0.79912641  1.0
  O  O223  1  0.50054076  0.00128019  0.99989625  1.0
  O  O224  1  0.50561676  0.15923109  0.95245528  1.0
  O  O225  1  0.39080584  0.99052227  0.94360383  1.0
  O  O226  1  0.66170991  0.88834873  0.95340136  1.0
  O  O227  1  0.39738152  0.15064572  0.94289038  1.0
  O  O228  1  0.65648217  0.00819968  0.94845760  1.0
  O  O229  1  0.50687060  0.89000024  0.93801954  1.0
  O  O230  1  0.57223196  0.81866750  0.02500643  1.0
  O  O231  1  0.51462364  0.04491362  0.08515751  1.0
  O  O232  1  0.52281775  0.87940137  0.08285541  1.0
  O  O233  1  0.59098583  0.07828762  0.03293255  1.0
  O  O234  1  0.31311277  0.08552882  0.01889960  1.0
  O  O235  1  0.36765273  0.02355798  0.07773159  1.0
