# generated using pymatgen
data_Cu3H12C15N7
_symmetry_space_group_name_H-M   'P 1'
_cell_length_a   23.57534990
_cell_length_b   23.59065042
_cell_length_c   23.62360866
_cell_angle_alpha   90.07679838
_cell_angle_beta   90.05039916
_cell_angle_gamma   89.98961802
_symmetry_Int_Tables_number   1
_chemical_formula_structural   Cu3H12C15N7
_chemical_formula_sum   'Cu12 H48 C60 N28'
_cell_volume   13138.43802027
_cell_formula_units_Z   4
loop_
 _symmetry_equiv_pos_site_id
 _symmetry_equiv_pos_as_xyz
  1  'x, y, z'
loop_
 _atom_site_type_symbol
 _atom_site_label
 _atom_site_symmetry_multiplicity
 _atom_site_fract_x
 _atom_site_fract_y
 _atom_site_fract_z
 _atom_site_occupancy
  Cu  Cu0  1  0.81834940  0.87332432  0.92622271  1.0
  Cu  Cu1  1  0.93367150  0.82320933  0.87221771  1.0
  Cu  Cu2  1  0.87319234  0.92664387  0.81591994  1.0
  Cu  Cu3  1  0.32263122  0.12796447  0.56710236  1.0
  Cu  Cu4  1  0.42910764  0.18477019  0.62196578  1.0
  Cu  Cu5  1  0.37227700  0.07467479  0.67955241  1.0
  Cu  Cu6  1  0.68040027  0.37282659  0.06920440  1.0
  Cu  Cu7  1  0.57279689  0.31722736  0.12253069  1.0
  Cu  Cu8  1  0.62876560  0.42842073  0.17963247  1.0
  Cu  Cu9  1  0.18119870  0.62630265  0.42838555  1.0
  Cu  Cu10  1  0.06751891  0.67815505  0.37314492  1.0
  Cu  Cu11  1  0.12099389  0.56814346  0.32291679  1.0
  H  H12  1  0.80513824  0.79130715  0.03223702  1.0
  H  H13  1  0.96468286  0.73171372  0.96366679  1.0
  H  H14  1  0.77867607  0.01457852  0.78149379  1.0
  H  H15  1  0.71027645  0.95499745  0.94078501  1.0
  H  H16  1  0.04055145  0.80792348  0.78882563  1.0
  H  H17  1  0.96507110  0.96248227  0.72463012  1.0
  H  H18  1  0.28791555  0.22199104  0.47746446  1.0
  H  H19  1  0.44738906  0.29036272  0.53801818  1.0
  H  H20  1  0.28849614  0.96851463  0.69440938  1.0
  H  H21  1  0.23632132  0.03220031  0.53052779  1.0
  H  H22  1  0.52493996  0.21134734  0.71048968  1.0
  H  H23  1  0.45179531  0.06197092  0.78776287  1.0
  H  H24  1  0.71561262  0.27797618  0.98038428  1.0
  H  H25  1  0.55430130  0.21174910  0.03797388  1.0
  H  H26  1  0.71123235  0.53581348  0.19351260  1.0
  H  H27  1  0.76733820  0.46783986  0.03258572  1.0
  H  H28  1  0.47706118  0.29091484  0.21083717  1.0
  H  H29  1  0.54861910  0.44184192  0.28709008  1.0
  H  H30  1  0.19531571  0.70897266  0.53425525  1.0
  H  H31  1  0.03832764  0.77198743  0.46279942  1.0
  H  H32  1  0.21302692  0.47734217  0.28910515  1.0
  H  H33  1  0.29185794  0.54795449  0.43908503  1.0
  H  H34  1  0.96464974  0.69806204  0.28569509  1.0
  H  H35  1  0.02535959  0.53236256  0.23459985  1.0
  H  H36  1  0.80592524  0.68234858  0.07733837  1.0
  H  H37  1  0.93677146  0.69121947  0.07511203  1.0
  H  H38  1  0.44655556  0.33501476  0.42813454  1.0
  H  H39  1  0.31580576  0.33419693  0.43851542  1.0
  H  H40  1  0.55589791  0.16788959  0.92818829  1.0
  H  H41  1  0.68653096  0.16638615  0.93999738  1.0
  H  H42  1  0.19617209  0.81969589  0.57876490  1.0
  H  H43  1  0.06531756  0.81189521  0.57483243  1.0
  H  H44  1  0.66646224  0.06499594  0.94045417  1.0
  H  H45  1  0.66715601  0.05553766  0.80987859  1.0
  H  H46  1  0.33505507  0.43629369  0.44133595  1.0
  H  H47  1  0.32987496  0.44313387  0.31075490  1.0
  H  H48  1  0.18152434  0.92174534  0.68989016  1.0
  H  H49  1  0.19428789  0.92168127  0.55959229  1.0
  H  H50  1  0.81768591  0.58308152  0.19020842  1.0
  H  H51  1  0.80832062  0.57926135  0.05967732  1.0
  H  H52  1  0.08346542  0.80763592  0.67770986  1.0
  H  H53  1  0.07922944  0.93835573  0.68659959  1.0
  H  H54  1  0.43494857  0.44724004  0.32830651  1.0
  H  H55  1  0.44100672  0.31633654  0.32581518  1.0
  H  H56  1  0.91863259  0.69460154  0.17722911  1.0
  H  H57  1  0.91782960  0.56410151  0.18960205  1.0
  H  H58  1  0.56446846  0.05529611  0.82891654  1.0
  H  H59  1  0.56144307  0.18627676  0.82548139  1.0
  C  C60  1  0.84283740  0.78241183  0.00740539  1.0
  C  C61  1  0.88688229  0.74353122  0.01785803  1.0
  C  C62  1  0.92478662  0.75275123  0.97289909  1.0
  C  C63  1  0.76944995  0.99351740  0.82127615  1.0
  C  C64  1  0.72444098  0.00266501  0.85921049  1.0
  C  C65  1  0.73508926  0.96388361  0.90315861  1.0
  C  C66  1  0.01405821  0.84419575  0.77880335  1.0
  C  C67  1  0.02275865  0.88754920  0.73887152  1.0
  C  C68  1  0.97603460  0.92372428  0.74681240  1.0
  C  C69  1  0.32775396  0.23111028  0.49867013  1.0
  C  C70  1  0.36567551  0.27625607  0.49003388  1.0
  C  C71  1  0.40973871  0.26552656  0.52878059  1.0
  C  C72  1  0.28130056  0.99221974  0.65571459  1.0
  C  C73  1  0.24471823  0.98017514  0.61013617  1.0
  C  C74  1  0.25540999  0.02424090  0.57159665  1.0
  C  C75  1  0.50044756  0.17413380  0.72194671  1.0
  C  C76  1  0.50650649  0.13812282  0.76891442  1.0
  C  C77  1  0.46385439  0.09720824  0.76083464  1.0
  C  C78  1  0.67535113  0.26935546  0.00088618  1.0
  C  C79  1  0.63691328  0.22479308  0.99133674  1.0
  C  C80  1  0.59246793  0.23604201  0.02948240  1.0
  C  C81  1  0.71941102  0.51108687  0.15560866  1.0
  C  C82  1  0.75678514  0.52213670  0.11052257  1.0
  C  C83  1  0.74732578  0.47683119  0.07298115  1.0
  C  C84  1  0.50117336  0.32849594  0.22204655  1.0
  C  C85  1  0.49470898  0.36490986  0.26873273  1.0
  C  C86  1  0.53691259  0.40620209  0.26041412  1.0
  C  C87  1  0.15825264  0.71863240  0.50874036  1.0
  C  C88  1  0.11501820  0.75861293  0.51832487  1.0
  C  C89  1  0.07754702  0.75003824  0.47279281  1.0
  C  C90  1  0.22471888  0.50099927  0.32679331  1.0
  C  C91  1  0.27284854  0.49533135  0.36148112  1.0
  C  C92  1  0.26443536  0.53625970  0.40403509  1.0
  C  C93  1  0.98749272  0.65866596  0.27894574  1.0
  C  C94  1  0.97535803  0.61354324  0.24180281  1.0
  C  C95  1  0.01804129  0.57362771  0.25361682  1.0
  C  C96  1  0.84999260  0.67771255  0.09092972  1.0
  C  C97  1  0.89346419  0.70291162  0.06334611  1.0
  C  C98  1  0.40258706  0.34905168  0.42401236  1.0
  C  C99  1  0.35910969  0.32197667  0.44972010  1.0
  C  C100  1  0.59958889  0.15296563  0.92432913  1.0
  C  C101  1  0.64328606  0.17915575  0.95074067  1.0
  C  C102  1  0.15192836  0.82466420  0.59160164  1.0
  C  C103  1  0.10858603  0.79960594  0.56357555  1.0
  C  C104  1  0.65255585  0.06976862  0.89657631  1.0
  C  C105  1  0.67918688  0.04374814  0.85299145  1.0
  C  C106  1  0.34787187  0.43110439  0.39718814  1.0
  C  C107  1  0.31902743  0.45540163  0.35406400  1.0
  C  C108  1  0.17813978  0.90733113  0.64605532  1.0
  C  C109  1  0.20458285  0.93424652  0.60296167  1.0
  C  C110  1  0.82227334  0.59619529  0.14610868  1.0
  C  C111  1  0.79687699  0.56803440  0.10308702  1.0
  C  C112  1  0.09649273  0.85182977  0.67307942  1.0
  C  C113  1  0.06821898  0.89490383  0.69829205  1.0
  C  C114  1  0.42951158  0.40330011  0.34180413  1.0
  C  C115  1  0.45375620  0.35932152  0.31411007  1.0
  C  C116  1  0.90430752  0.65072154  0.17349612  1.0
  C  C117  1  0.93043854  0.60736411  0.20044582  1.0
  C  C118  1  0.57103411  0.09921046  0.84214980  1.0
  C  C119  1  0.54768568  0.14346270  0.81420602  1.0
  N  N120  1  0.39551519  0.39669752  0.38972655  1.0
  N  N121  1  0.85696703  0.64357224  0.13866569  1.0
  N  N122  1  0.14419692  0.85939394  0.63892776  1.0
  N  N123  1  0.60570389  0.10532605  0.88975900  1.0
  N  N124  1  0.90458840  0.79342117  0.93823968  1.0
  N  N125  1  0.85384187  0.81215350  0.95983065  1.0
  N  N126  1  0.78291005  0.93430994  0.89214807  1.0
  N  N127  1  0.80435733  0.95303368  0.84148458  1.0
  N  N128  1  0.94205744  0.90313727  0.78777017  1.0
  N  N129  1  0.96575532  0.85397243  0.80793151  1.0
  N  N130  1  0.39873710  0.21753439  0.55786938  1.0
  N  N131  1  0.34803740  0.19605673  0.53888185  1.0
  N  N132  1  0.29469298  0.05991411  0.59291905  1.0
  N  N133  1  0.31108335  0.03990682  0.64499776  1.0
  N  N134  1  0.43491510  0.10814697  0.71268622  1.0
  N  N135  1  0.45795715  0.15571454  0.68839358  1.0
  N  N136  1  0.60375639  0.28377035  0.05905394  1.0
  N  N137  1  0.65503443  0.30456455  0.04101759  1.0
  N  N138  1  0.70795190  0.44141119  0.09439381  1.0
  N  N139  1  0.69029768  0.46281339  0.14552514  1.0
  N  N140  1  0.56598955  0.39507529  0.21240183  1.0
  N  N141  1  0.54347421  0.34701000  0.18843247  1.0
  N  N142  1  0.09727179  0.70869149  0.43861066  1.0
  N  N143  1  0.14721972  0.68885769  0.46109553  1.0
  N  N144  1  0.21500646  0.56385878  0.39523614  1.0
  N  N145  1  0.19022966  0.54163151  0.34749127  1.0
  N  N146  1  0.05306132  0.59372245  0.29404803  1.0
  N  N147  1  0.03396330  0.64635269  0.31004815  1.0
