# generated using pymatgen
data_GdH24C25S2N3O8
_symmetry_space_group_name_H-M   'P 1'
_cell_length_a   16.07708595
_cell_length_b   16.07709759
_cell_length_c   27.86891525
_cell_angle_alpha   80.26060258
_cell_angle_beta   80.26059537
_cell_angle_gamma   63.02682949
_symmetry_Int_Tables_number   1
_chemical_formula_structural   GdH24C25S2N3O8
_chemical_formula_sum   'Gd4 H96 C100 S8 N12 O32'
_cell_volume   6292.11040573
_cell_formula_units_Z   4
loop_
 _symmetry_equiv_pos_site_id
 _symmetry_equiv_pos_as_xyz
  1  'x, y, z'
loop_
 _atom_site_type_symbol
 _atom_site_label
 _atom_site_symmetry_multiplicity
 _atom_site_fract_x
 _atom_site_fract_y
 _atom_site_fract_z
 _atom_site_occupancy
  Gd  Gd0  1  0.93411411  0.46993108  0.95479237  1.0
  Gd  Gd1  1  0.53006912  0.06588526  0.54520807  1.0
  Gd  Gd2  1  0.06588585  0.53006901  0.04520800  1.0
  Gd  Gd3  1  0.46993083  0.93411343  0.45479244  1.0
  H  H4  1  0.93795266  0.37060160  0.79618288  1.0
  H  H5  1  0.62939919  0.06204567  0.70381725  1.0
  H  H6  1  0.06204732  0.62939989  0.20381627  1.0
  H  H7  1  0.37060139  0.93795301  0.29618248  1.0
  H  H8  1  0.89376039  0.29175910  0.74044200  1.0
  H  H9  1  0.70824089  0.10623848  0.75955887  1.0
  H  H10  1  0.10623772  0.70824380  0.25955756  1.0
  H  H11  1  0.29175844  0.89376161  0.24044120  1.0
  H  H12  1  0.79612603  0.15226010  0.86625080  1.0
  H  H13  1  0.84773994  0.20387367  0.63374998  1.0
  H  H14  1  0.20387395  0.84774139  0.13374870  1.0
  H  H15  1  0.15226033  0.79612572  0.36625007  1.0
  H  H16  1  0.84076112  0.23162741  0.92188878  1.0
  H  H17  1  0.76837383  0.15923757  0.57811199  1.0
  H  H18  1  0.15924044  0.76837338  0.07811100  1.0
  H  H19  1  0.23162768  0.84076042  0.42188808  1.0
  H  H20  1  0.83208314  0.31584180  0.08270731  1.0
  H  H21  1  0.68415682  0.16791830  0.41729303  1.0
  H  H22  1  0.16791839  0.68415759  0.91729297  1.0
  H  H23  1  0.31584186  0.83208039  0.58270796  1.0
  H  H24  1  0.76755896  0.24425867  0.15840828  1.0
  H  H25  1  0.75573931  0.23244331  0.34159204  1.0
  H  H26  1  0.23244164  0.75574142  0.84159203  1.0
  H  H27  1  0.24425785  0.76755889  0.65840983  1.0
  H  H28  1  0.85610147  0.37543348  0.24816644  1.0
  H  H29  1  0.62456800  0.14389687  0.25183357  1.0
  H  H30  1  0.14389818  0.62456731  0.75183389  1.0
  H  H31  1  0.37543260  0.85610321  0.74816638  1.0
  H  H32  1  0.91977501  0.44794030  0.17183170  1.0
  H  H33  1  0.55206007  0.08022465  0.32816864  1.0
  H  H34  1  0.08022558  0.55205979  0.82816860  1.0
  H  H35  1  0.44794051  0.91977404  0.67183145  1.0
  H  H36  1  0.79887169  0.83323941  0.05607971  1.0
  H  H37  1  0.16676050  0.20112815  0.44392103  1.0
  H  H38  1  0.20112764  0.16676068  0.94392072  1.0
  H  H39  1  0.83323978  0.79887264  0.55607852  1.0
  H  H40  1  0.63805352  0.96633330  0.04547993  1.0
  H  H41  1  0.03366657  0.36194670  0.45452005  1.0
  H  H42  1  0.36194548  0.03366610  0.95452096  1.0
  H  H43  1  0.96633371  0.63805409  0.54547950  1.0
  H  H44  1  0.58227253  0.80280505  0.95979702  1.0
  H  H45  1  0.19719589  0.41772854  0.54020210  1.0
  H  H46  1  0.41772744  0.19719504  0.04020263  1.0
  H  H47  1  0.80280533  0.58227154  0.45979743  1.0
  H  H48  1  0.74397259  0.67084674  0.96915873  1.0
  H  H49  1  0.32915385  0.25602879  0.53084076  1.0
  H  H50  1  0.25602833  0.32915405  0.03084112  1.0
  H  H51  1  0.67084644  0.74397200  0.46915843  1.0
  H  H52  1  0.64578553  0.71585136  0.88754089  1.0
  H  H53  1  0.28414971  0.35421453  0.61245940  1.0
  H  H54  1  0.35421506  0.28414873  0.11245942  1.0
  H  H55  1  0.71585152  0.64578556  0.38754049  1.0
  H  H56  1  0.65578204  0.71341112  0.82255976  1.0
  H  H57  1  0.28658991  0.34421733  0.67744060  1.0
  H  H58  1  0.34421792  0.28658897  0.17744061  1.0
  H  H59  1  0.71341099  0.65578205  0.32255939  1.0
  H  H60  1  0.71381563  0.76775527  0.84758930  1.0
  H  H61  1  0.23224490  0.28618531  0.65241063  1.0
  H  H62  1  0.28618496  0.23224482  0.15241065  1.0
  H  H63  1  0.76775445  0.71381618  0.34758858  1.0
  H  H64  1  0.86440069  0.67652329  0.79722386  1.0
  H  H65  1  0.32347537  0.13559886  0.70277600  1.0
  H  H66  1  0.13559831  0.32347610  0.20277560  1.0
  H  H67  1  0.67652239  0.86440194  0.29722380  1.0
  H  H68  1  0.82050363  0.60956291  0.77156934  1.0
  H  H69  1  0.39043613  0.17949458  0.72843097  1.0
  H  H70  1  0.17949474  0.39043648  0.22843090  1.0
  H  H71  1  0.60956255  0.82050411  0.27156930  1.0
  H  H72  1  0.92600202  0.54984063  0.80185788  1.0
  H  H73  1  0.45015857  0.07399696  0.69814198  1.0
  H  H74  1  0.07399698  0.45015876  0.19814158  1.0
  H  H75  1  0.54983917  0.92600244  0.30185796  1.0
  H  H76  1  0.59749021  0.53128956  0.94521871  1.0
  H  H77  1  0.46871054  0.40250917  0.55478102  1.0
  H  H78  1  0.40250944  0.46871123  0.05478126  1.0
  H  H79  1  0.53128973  0.59749021  0.44521867  1.0
  H  H80  1  0.60532345  0.41872666  0.97474219  1.0
  H  H81  1  0.58127350  0.39467584  0.52525827  1.0
  H  H82  1  0.39467652  0.58127343  0.02525818  1.0
  H  H83  1  0.41872677  0.60532355  0.47474214  1.0
  H  H84  1  0.69095712  0.42337852  0.92509525  1.0
  H  H85  1  0.57662095  0.30904258  0.57490523  1.0
  H  H86  1  0.30904284  0.57662157  0.07490476  1.0
  H  H87  1  0.42337869  0.69095681  0.42509524  1.0
  H  H88  1  0.66739454  0.53074091  0.07076494  1.0
  H  H89  1  0.46926006  0.33260509  0.42923499  1.0
  H  H90  1  0.33260606  0.46925918  0.92923501  1.0
  H  H91  1  0.53074083  0.66739430  0.57076463  1.0
  H  H92  1  0.59089147  0.48363434  0.06011260  1.0
  H  H93  1  0.51636662  0.40910782  0.43988736  1.0
  H  H94  1  0.40910849  0.51636575  0.93988705  1.0
  H  H95  1  0.48363460  0.59089227  0.56011252  1.0
  H  H96  1  0.58535862  0.59236581  0.02577108  1.0
  H  H97  1  0.40763398  0.41464136  0.47422857  1.0
  H  H98  1  0.41464197  0.40763428  0.97422886  1.0
  H  H99  1  0.59236598  0.58535873  0.52577108  1.0
  C  C100  1  0.90966491  0.35891341  0.89461950  1.0
  C  C101  1  0.64108680  0.09033491  0.60538089  1.0
  C  C102  1  0.09033631  0.64108668  0.10538038  1.0
  C  C103  1  0.35891283  0.90966448  0.39461922  1.0
  C  C104  1  0.89034345  0.30636939  0.86194632  1.0
  C  C105  1  0.69363190  0.10965506  0.63805410  1.0
  C  C106  1  0.10965653  0.69363210  0.13805319  1.0
  C  C107  1  0.30636930  0.89034363  0.36194592  1.0
  C  C108  1  0.90692411  0.32248304  0.81083592  1.0
  C  C109  1  0.67751768  0.09307480  0.68916452  1.0
  C  C110  1  0.09307462  0.67751986  0.18916357  1.0
  C  C111  1  0.32248259  0.90692459  0.31083553  1.0
  C  C112  1  0.88305342  0.27910036  0.78015263  1.0
  C  C113  1  0.72090053  0.11694576  0.71984776  1.0
  C  C114  1  0.11694595  0.72090253  0.21984680  1.0
  C  C115  1  0.27910007  0.88305432  0.28015183  1.0
  C  C116  1  0.84188464  0.21837592  0.80058994  1.0
  C  C117  1  0.78162442  0.15811493  0.69941046  1.0
  C  C118  1  0.15811347  0.78162698  0.19940925  1.0
  C  C119  1  0.21837648  0.84188446  0.30058952  1.0
  C  C120  1  0.82744716  0.20021211  0.85166240  1.0
  C  C121  1  0.79978878  0.17255221  0.64833797  1.0
  C  C122  1  0.17255283  0.79978938  0.14833711  1.0
  C  C123  1  0.20021149  0.82744718  0.35166172  1.0
  C  C124  1  0.85170560  0.24398541  0.88215393  1.0
  C  C125  1  0.75601507  0.14829344  0.61784688  1.0
  C  C126  1  0.14829439  0.75601608  0.11784558  1.0
  C  C127  1  0.24398550  0.85170525  0.38215321  1.0
  C  C128  1  0.91647876  0.43010334  0.07861136  1.0
  C  C129  1  0.56989666  0.08351883  0.42138815  1.0
  C  C130  1  0.08352059  0.56989815  0.92138821  1.0
  C  C131  1  0.43010354  0.91647635  0.57861161  1.0
  C  C132  1  0.87806193  0.38688112  0.12337256  1.0
  C  C133  1  0.61311745  0.12193866  0.37662787  1.0
  C  C134  1  0.12193928  0.61311756  0.87662818  1.0
  C  C135  1  0.38688156  0.87806073  0.62337302  1.0
  C  C136  1  0.83558063  0.32915220  0.11924803  1.0
  C  C137  1  0.67084596  0.16442067  0.38075201  1.0
  C  C138  1  0.16442027  0.67084718  0.88075232  1.0
  C  C139  1  0.32915368  0.83557872  0.61924845  1.0
  C  C140  1  0.80026439  0.28954538  0.16080612  1.0
  C  C141  1  0.71045299  0.19973669  0.33919393  1.0
  C  C142  1  0.19973682  0.71045330  0.83919391  1.0
  C  C143  1  0.28954572  0.80026341  0.66080692  1.0
  C  C144  1  0.80727757  0.30736328  0.20741244  1.0
  C  C145  1  0.69263469  0.19272310  0.29258805  1.0
  C  C146  1  0.19272270  0.69263611  0.79258833  1.0
  C  C147  1  0.30736277  0.80727840  0.70741315  1.0
  C  C148  1  0.85096953  0.36385902  0.21155033  1.0
  C  C149  1  0.63614142  0.14903091  0.28844993  1.0
  C  C150  1  0.14903137  0.63614037  0.78845001  1.0
  C  C151  1  0.36385918  0.85096918  0.71155074  1.0
  C  C152  1  0.88588603  0.40353598  0.16978743  1.0
  C  C153  1  0.59646395  0.11411417  0.33021218  1.0
  C  C154  1  0.11411487  0.59646340  0.83021255  1.0
  C  C155  1  0.40353663  0.88588452  0.66978826  1.0
  C  C156  1  0.87660952  0.66794553  0.01876886  1.0
  C  C157  1  0.33205417  0.12338999  0.48123085  1.0
  C  C158  1  0.12339012  0.33205386  0.98123125  1.0
  C  C159  1  0.66794546  0.87660939  0.51876818  1.0
  C  C160  1  0.78059360  0.74516160  0.01284893  1.0
  C  C161  1  0.25483911  0.21940693  0.48715094  1.0
  C  C162  1  0.21940636  0.25483849  0.98715072  1.0
  C  C163  1  0.74516211  0.78059316  0.51284859  1.0
  C  C164  1  0.75066153  0.82816881  0.03480411  1.0
  C  C165  1  0.17183153  0.24933799  0.46519590  1.0
  C  C166  1  0.24933780  0.17183128  0.96519632  1.0
  C  C167  1  0.82816906  0.75066210  0.53480297  1.0
  C  C168  1  0.66230942  0.90126386  0.02911402  1.0
  C  C169  1  0.09873672  0.33769064  0.47088591  1.0
  C  C170  1  0.33769022  0.09873553  0.97088645  1.0
  C  C171  1  0.90126419  0.66231014  0.52911358  1.0
  C  C172  1  0.60208402  0.89163131  0.00142434  1.0
  C  C173  1  0.10836892  0.39791619  0.49857525  1.0
  C  C174  1  0.39791531  0.10836878  0.99857573  1.0
  C  C175  1  0.89163105  0.60208390  0.50142404  1.0
  C  C176  1  0.63131192  0.80799892  0.98050869  1.0
  C  C177  1  0.19200215  0.36868918  0.51949042  1.0
  C  C178  1  0.36868804  0.19200117  0.01949096  1.0
  C  C179  1  0.80799877  0.63131160  0.48050871  1.0
  C  C180  1  0.72028800  0.73536126  0.98578460  1.0
  C  C181  1  0.26463832  0.27971260  0.51421506  1.0
  C  C182  1  0.27971227  0.26463812  0.01421509  1.0
  C  C183  1  0.73536197  0.72028819  0.48578449  1.0
  C  C184  1  0.69184108  0.71109174  0.85325022  1.0
  C  C185  1  0.28890936  0.30815839  0.64674976  1.0
  C  C186  1  0.30815889  0.28890835  0.14674978  1.0
  C  C187  1  0.71109123  0.69184170  0.35324983  1.0
  C  C188  1  0.85733196  0.61089581  0.80100045  1.0
  C  C189  1  0.38910390  0.14266661  0.69899977  1.0
  C  C190  1  0.14266674  0.38910428  0.19899933  1.0
  C  C191  1  0.61089448  0.85733279  0.30100047  1.0
  C  C192  1  0.64477716  0.45810157  0.95659137  1.0
  C  C193  1  0.54189887  0.35522223  0.54340868  1.0
  C  C194  1  0.35522280  0.54189852  0.04340864  1.0
  C  C195  1  0.45810203  0.64477716  0.45659130  1.0
  C  C196  1  0.63085507  0.52318511  0.04312231  1.0
  C  C197  1  0.47681560  0.36914455  0.45687765  1.0
  C  C198  1  0.36914490  0.47681498  0.95687770  1.0
  C  C199  1  0.52318530  0.63085483  0.54312198  1.0
  S  S200  1  0.79296595  0.59855028  0.85925214  1.0
  S  S201  1  0.40144999  0.20703306  0.64074833  1.0
  S  S202  1  0.20703369  0.40144911  0.14074797  1.0
  S  S203  1  0.59855028  0.79296633  0.35925172  1.0
  S  S204  1  0.72102138  0.45623432  0.99802597  1.0
  S  S205  1  0.54376614  0.27897798  0.50197445  1.0
  S  S206  1  0.27897859  0.54376577  0.00197440  1.0
  S  S207  1  0.45623446  0.72102211  0.49802550  1.0
  N  N208  1  0.80809216  0.17644111  0.77300804  1.0
  N  N209  1  0.82355784  0.19190734  0.72699323  1.0
  N  N210  1  0.19190719  0.82356039  0.22699189  1.0
  N  N211  1  0.17644119  0.80809346  0.27300680  1.0
  N  N212  1  0.77280034  0.27240207  0.25215083  1.0
  N  N213  1  0.72759831  0.22719944  0.24784950  1.0
  N  N214  1  0.22720026  0.72759802  0.74784983  1.0
  N  N215  1  0.27240229  0.77280065  0.75215116  1.0
  N  N216  1  0.51136022  0.96091562  0.99234843  1.0
  N  N217  1  0.03908524  0.48863989  0.50765080  1.0
  N  N218  1  0.48863879  0.03908377  0.00765175  1.0
  N  N219  1  0.96091568  0.51136090  0.49234833  1.0
  O  O220  1  0.94442343  0.41613551  0.87552826  1.0
  O  O221  1  0.58386553  0.05557594  0.62447174  1.0
  O  O222  1  0.05557749  0.58386528  0.12447158  1.0
  O  O223  1  0.41613474  0.94442345  0.37552831  1.0
  O  O224  1  0.88768385  0.34826755  0.94063328  1.0
  O  O225  1  0.65173311  0.11231563  0.55936711  1.0
  O  O226  1  0.11231737  0.65173253  0.05936661  1.0
  O  O227  1  0.34826683  0.88768306  0.44063304  1.0
  O  O228  1  0.90501555  0.41587721  0.03710378  1.0
  O  O229  1  0.58412211  0.09498257  0.46289718  1.0
  O  O230  1  0.09498317  0.58412429  0.96289729  1.0
  O  O231  1  0.41587719  0.90501472  0.53710389  1.0
  O  O232  1  0.95709539  0.47782515  0.08600033  1.0
  O  O233  1  0.52217600  0.04290361  0.41399857  1.0
  O  O234  1  0.04290239  0.52217704  0.91399969  1.0
  O  O235  1  0.47782521  0.95709507  0.58600074  1.0
  O  O236  1  0.90558352  0.59502595  0.99618125  1.0
  O  O237  1  0.40497364  0.09441613  0.50381958  1.0
  O  O238  1  0.09441581  0.40497415  0.00381918  1.0
  O  O239  1  0.59502600  0.90558326  0.49618089  1.0
  O  O240  1  0.92734169  0.67609401  0.04613917  1.0
  O  O241  1  0.32390629  0.07265881  0.45386145  1.0
  O  O242  1  0.07265860  0.32390678  0.95386073  1.0
  O  O243  1  0.67609463  0.92734198  0.54613839  1.0
  O  O244  1  0.84519949  0.60735471  0.89709403  1.0
  O  O245  1  0.39264516  0.15479986  0.60290609  1.0
  O  O246  1  0.15480047  0.39264538  0.10290598  1.0
  O  O247  1  0.60735511  0.84519952  0.39709396  1.0
  O  O248  1  0.76028220  0.52362259  0.97149250  1.0
  O  O249  1  0.47637705  0.23971747  0.52850796  1.0
  O  O250  1  0.23971807  0.47637680  0.02850754  1.0
  O  O251  1  0.52362290  0.76028122  0.47149219  1.0
