# generated using pymatgen
data_Al6H80(C15O4)7
_symmetry_space_group_name_H-M   'P 1'
_cell_length_a   12.79697697
_cell_length_b   12.84822211
_cell_length_c   27.59220184
_cell_angle_alpha   90.49027084
_cell_angle_beta   90.23947669
_cell_angle_gamma   61.64184942
_symmetry_Int_Tables_number   1
_chemical_formula_structural   Al6H80(C15O4)7
_chemical_formula_sum   'Al6 H80 C105 O28'
_cell_volume   3992.10033797
_cell_formula_units_Z   1
loop_
 _symmetry_equiv_pos_site_id
 _symmetry_equiv_pos_as_xyz
  1  'x, y, z'
loop_
 _atom_site_type_symbol
 _atom_site_label
 _atom_site_symmetry_multiplicity
 _atom_site_fract_x
 _atom_site_fract_y
 _atom_site_fract_z
 _atom_site_occupancy
  Al  Al0  1  0.43358945  0.41467776  0.49736101  1.0
  Al  Al1  1  0.41285320  0.17611702  0.49541358  1.0
  Al  Al2  1  0.18720009  0.40704494  0.49767269  1.0
  Al  Al3  1  0.90872166  0.91203560  0.98684208  1.0
  Al  Al4  1  0.92875572  0.15151200  0.98065175  1.0
  Al  Al5  1  0.15509845  0.92163182  0.98304842  1.0
  H  H6  1  0.06738880  0.35260919  0.18492940  1.0
  H  H7  1  0.29151677  0.97915386  0.20414345  1.0
  H  H8  1  0.97392690  0.77872190  0.21373557  1.0
  H  H9  1  0.74311375  0.30119444  0.21449814  1.0
  H  H10  1  0.02786282  0.30774221  0.86593899  1.0
  H  H11  1  0.32274667  0.69029156  0.86881210  1.0
  H  H12  1  0.72623353  0.97396359  0.86030920  1.0
  H  H13  1  0.09011579  0.39140347  0.62772456  1.0
  H  H14  1  0.39983102  0.53575372  0.63066060  1.0
  H  H15  1  0.57279874  0.02891851  0.62252213  1.0
  H  H16  1  0.99316785  0.44477751  0.79666245  1.0
  H  H17  1  0.35351785  0.60412603  0.19674520  1.0
  H  H18  1  0.45630440  0.61162327  0.79676920  1.0
  H  H19  1  0.65563846  0.90601483  0.78828857  1.0
  H  H20  1  0.01413910  0.47459802  0.70982126  1.0
  H  H21  1  0.48360324  0.55829696  0.70954022  1.0
  H  H22  1  0.60308921  0.92343296  0.70112505  1.0
  H  H23  1  0.23261703  0.93150574  0.84484104  1.0
  H  H24  1  0.95673968  0.77283970  0.85833613  1.0
  H  H25  1  0.80434016  0.26254416  0.84805302  1.0
  H  H26  1  0.30146752  0.84791110  0.76192970  1.0
  H  H27  1  0.87224129  0.75451038  0.77891913  1.0
  H  H28  1  0.61282997  0.05604963  0.18094645  1.0
  H  H29  1  0.78787463  0.35893259  0.76771868  1.0
  H  H30  1  0.32431194  0.87777057  0.67527339  1.0
  H  H31  1  0.89834338  0.70451255  0.69159080  1.0
  H  H32  1  0.73224318  0.37841487  0.68090376  1.0
  H  H33  1  0.29805944  0.01553818  0.60675240  1.0
  H  H34  1  0.03291068  0.62166731  0.61971390  1.0
  H  H35  1  0.64834282  0.31941515  0.61031009  1.0
  H  H36  1  0.12588316  0.04445368  0.28415849  1.0
  H  H37  1  0.05651091  0.85368724  0.29928761  1.0
  H  H38  1  0.84448042  0.11859219  0.29115354  1.0
  H  H39  1  0.19768023  0.33680022  0.27100055  1.0
  H  H40  1  0.00466480  0.18719026  0.29147748  1.0
  H  H41  1  0.20682469  0.81601672  0.30792184  1.0
  H  H42  1  0.82371902  0.99245835  0.29060732  1.0
  H  H43  1  0.97882556  0.21822571  0.20715250  1.0
  H  H44  1  0.23934683  0.82207304  0.22416654  1.0
  H  H45  1  0.82686311  0.98197054  0.20518246  1.0
  H  H46  1  0.06721470  0.06320343  0.20231680  1.0
  H  H47  1  0.08278426  0.89813214  0.21935055  1.0
  H  H48  1  0.88718976  0.08010331  0.20801502  1.0
  H  H49  1  0.35752736  0.13459582  0.26507579  1.0
  H  H50  1  0.31448435  0.49023001  0.27770371  1.0
  H  H51  1  0.10456018  0.55198410  0.26943404  1.0
  H  H52  1  0.52815265  0.34025218  0.27202954  1.0
  H  H53  1  0.33860075  0.01371220  0.28349964  1.0
  H  H54  1  0.99517105  0.69071779  0.29061134  1.0
  H  H55  1  0.66359646  0.32698663  0.29351179  1.0
  H  H56  1  0.35649274  0.06673319  0.18588501  1.0
  H  H57  1  0.04628066  0.63209197  0.19154221  1.0
  H  H58  1  0.59500699  0.35682825  0.19471318  1.0
  H  H59  1  0.86105024  0.62790386  0.30624373  1.0
  H  H60  1  0.79567646  0.53933996  0.32358316  1.0
  H  H61  1  0.49068495  0.17581686  0.26785470  1.0
  H  H62  1  0.85854915  0.59319021  0.36824681  1.0
  H  H63  1  0.99536607  0.37866683  0.34981941  1.0
  H  H64  1  0.06137475  0.46664074  0.33559921  1.0
  H  H65  1  0.98770095  0.47666488  0.24808636  1.0
  H  H66  1  0.94416076  0.37104887  0.26296394  1.0
  H  H67  1  0.63394771  0.49853929  0.32142534  1.0
  H  H68  1  0.55650441  0.64596005  0.34319842  1.0
  H  H69  1  0.59768494  0.52614260  0.38382422  1.0
  H  H70  1  0.38079531  0.61756730  0.36358730  1.0
  H  H71  1  0.45636559  0.46990690  0.34450579  1.0
  H  H72  1  0.22302465  0.29349699  0.18887298  1.0
  H  H73  1  0.47733271  0.54037272  0.26049790  1.0
  H  H74  1  0.38650307  0.68631768  0.27929780  1.0
  H  H75  1  0.51498872  0.84244457  0.29431973  1.0
  H  H76  1  0.66834546  0.76947602  0.30847318  1.0
  H  H77  1  0.56199072  0.82579126  0.35581877  1.0
  H  H78  1  0.65034905  0.95998084  0.34288096  1.0
  H  H79  1  0.49839303  0.03293611  0.33000399  1.0
  H  H80  1  0.55447794  0.96997289  0.24011126  1.0
  H  H81  1  0.70174795  0.92732432  0.25579173  1.0
  H  H82  1  0.27503178  0.52227943  0.19558208  1.0
  H  H83  1  0.51252126  0.20835316  0.18718576  1.0
  H  H84  1  0.52910814  0.51805987  0.46788200  1.0
  H  H85  1  0.85145035  0.76720988  0.97006343  1.0
  C  C86  1  0.21088035  0.55285548  0.43316658  1.0
  C  C87  1  0.15219784  0.14995680  0.13773237  1.0
  C  C88  1  0.40383468  0.59472012  0.28542328  1.0
  C  C89  1  0.44706055  0.55818683  0.33739824  1.0
  C  C90  1  0.56500832  0.55722143  0.34708154  1.0
  C  C91  1  0.60919453  0.98911375  0.26602756  1.0
  C  C92  1  0.58403141  0.96125820  0.31715668  1.0
  C  C93  1  0.58221759  0.84346810  0.31910499  1.0
  C  C94  1  0.15436234  0.73813582  0.14985719  1.0
  C  C95  1  0.72062298  0.16320769  0.14143744  1.0
  C  C96  1  0.19117822  0.18954167  0.33573603  1.0
  C  C97  1  0.17798364  0.63867148  0.34483105  1.0
  C  C98  1  0.63515585  0.16727176  0.33718604  1.0
  C  C99  1  0.20867866  0.19431080  0.37889008  1.0
  C  C100  1  0.18040123  0.61044585  0.38692929  1.0
  C  C101  1  0.60558283  0.18460690  0.37950302  1.0
  C  C102  1  0.80340666  0.10250972  0.91040079  1.0
  C  C103  1  0.54920881  0.21810569  0.42612878  1.0
  C  C104  1  0.11247602  0.09701185  0.91158498  1.0
  C  C105  1  0.11577214  0.77871434  0.91872200  1.0
  C  C106  1  0.78724857  0.12662772  0.04983381  1.0
  C  C107  1  0.11391252  0.11368714  0.04667837  1.0
  C  C108  1  0.11517452  0.80316213  0.05789201  1.0
  C  C109  1  0.12771327  0.30267836  0.64271051  1.0
  C  C110  1  0.31366785  0.56848206  0.64822312  1.0
  C  C111  1  0.60553124  0.08488658  0.63937803  1.0
  C  C112  1  0.11353037  0.28716578  0.69201671  1.0
  C  C113  1  0.29968189  0.60008818  0.69736071  1.0
  C  C114  1  0.23482282  0.21769165  0.42721689  1.0
  C  C115  1  0.64000575  0.06972079  0.68816234  1.0
  C  C116  1  0.08918786  0.25231391  0.79245114  1.0
  C  C117  1  0.26853027  0.66037234  0.79778311  1.0
  C  C118  1  0.70134576  0.04876230  0.78829797  1.0
  C  C119  1  0.24198761  0.52854442  0.57031418  1.0
  C  C120  1  0.55636694  0.20038136  0.56263203  1.0
  C  C121  1  0.21955378  0.22754922  0.56232221  1.0
  C  C122  1  0.03947657  0.36888175  0.77243235  1.0
  C  C123  1  0.38187137  0.61936987  0.77476285  1.0
  C  C124  1  0.66256468  0.97194678  0.76575948  1.0
  C  C125  1  0.28568319  0.06690802  0.20831467  1.0
  C  C126  1  0.05095937  0.38546148  0.72435147  1.0
  C  C127  1  0.39682530  0.59050445  0.72662738  1.0
  C  C128  1  0.63355973  0.98162437  0.71776490  1.0
  C  C129  1  0.07769163  0.23301453  0.84163219  1.0
  C  C130  1  0.25031117  0.69344543  0.84683293  1.0
  C  C131  1  0.73078443  0.04065292  0.83754168  1.0
  C  C132  1  0.13062420  0.11803930  0.86015925  1.0
  C  C133  1  0.13864000  0.73269858  0.86807838  1.0
  C  C134  1  0.76641852  0.11823699  0.85860958  1.0
  C  C135  1  0.24565909  0.08995698  0.63085065  1.0
  C  C136  1  0.05570548  0.69377699  0.21672983  1.0
  C  C137  1  0.10580315  0.61709384  0.64182195  1.0
  C  C138  1  0.64836713  0.24967159  0.63258411  1.0
  C  C139  1  0.22974461  0.07030722  0.67957922  1.0
  C  C140  1  0.08729741  0.65142461  0.69077572  1.0
  C  C141  1  0.68508040  0.23667397  0.68106799  1.0
  C  C142  1  0.16482949  0.16990766  0.71093497  1.0
  C  C143  1  0.18557658  0.64096569  0.71926811  1.0
  C  C144  1  0.67919002  0.14706452  0.70960372  1.0
  C  C145  1  0.27773667  0.95366843  0.69946110  1.0
  C  C146  1  0.97361983  0.69417022  0.71369011  1.0
  C  C147  1  0.66531134  0.28641096  0.21607638  1.0
  C  C148  1  0.72595533  0.31207462  0.70337876  1.0
  C  C149  1  0.26521487  0.93706861  0.74745974  1.0
  C  C150  1  0.95911785  0.72168068  0.76194301  1.0
  C  C151  1  0.75625680  0.30144395  0.75127391  1.0
  C  C152  1  0.20423399  0.03538718  0.77996628  1.0
  C  C153  1  0.05648685  0.71035400  0.79143392  1.0
  C  C154  1  0.74766081  0.21487565  0.78113628  1.0
  C  C155  1  0.13495623  0.30554888  0.25900283  1.0
  C  C156  1  0.29638738  0.58077808  0.26872649  1.0
  C  C157  1  0.58297196  0.11683089  0.25655332  1.0
  C  C158  1  0.29889116  0.09451536  0.26170978  1.0
  C  C159  1  0.15254891  0.15261123  0.76098762  1.0
  C  C160  1  0.17033012  0.67024170  0.76940653  1.0
  C  C161  1  0.70980911  0.13663160  0.75953114  1.0
  C  C162  1  0.19382762  0.02017401  0.82966781  1.0
  C  C163  1  0.04298685  0.73989248  0.84080874  1.0
  C  C164  1  0.77477712  0.20449534  0.83074312  1.0
  C  C165  1  0.19475804  0.20507917  0.61259556  1.0
  C  C166  1  0.21819962  0.57508510  0.62093568  1.0
  C  C167  1  0.60794581  0.17517160  0.61216172  1.0
  C  C168  1  0.08797567  0.13617276  0.27149132  1.0
  C  C169  1  0.07664826  0.64696467  0.26890174  1.0
  C  C170  1  0.14695230  0.79571843  0.28598446  1.0
  C  C171  1  0.79307086  0.07969436  0.27413145  1.0
  C  C172  1  0.06598486  0.14399947  0.21621672  1.0
  C  C173  1  0.15831710  0.81548203  0.23153395  1.0
  C  C174  1  0.81044562  0.06922769  0.21857262  1.0
  C  C175  1  0.14130252  0.13825085  0.09451161  1.0
  C  C176  1  0.14281763  0.76113615  0.10691272  1.0
  C  C177  1  0.74135700  0.15705164  0.09827781  1.0
  C  C178  1  0.17666894  0.18268764  0.28374850  1.0
  C  C179  1  0.17536392  0.66582661  0.29383184  1.0
  C  C180  1  0.62500871  0.28746479  0.26860195  1.0
  C  C181  1  0.66027620  0.16007626  0.28571947  1.0
  C  C182  1  0.14719202  0.28523968  0.20314763  1.0
  C  C183  1  0.27836736  0.59795904  0.21301566  1.0
  C  C184  1  0.59503169  0.13612604  0.20176124  1.0
  C  C185  1  0.16336353  0.16132546  0.18957875  1.0
  C  C186  1  0.16201331  0.71164398  0.20111253  1.0
  C  C187  1  0.69786465  0.16502866  0.19287406  1.0
  C  C188  1  0.00915423  0.40142937  0.27244599  1.0
  C  C189  1  0.98940776  0.44719733  0.32476613  1.0
  C  C190  1  0.86971819  0.55780238  0.33115962  1.0
  O  O191  1  0.51606136  0.32359331  0.43960086  1.0
  O  O192  1  0.54372287  0.29268479  0.54175762  1.0
  O  O193  1  0.31427010  0.15075499  0.54151342  1.0
  O  O194  1  0.15911038  0.51799934  0.54761057  1.0
  O  O195  1  0.34423992  0.49821400  0.55360678  1.0
  O  O196  1  0.52221295  0.12760094  0.54493761  1.0
  O  O197  1  0.14660941  0.32742465  0.54365054  1.0
  O  O198  1  0.34320788  0.33167161  0.49630404  1.0
  O  O199  1  0.01716887  0.80242117  0.93761232  1.0
  O  O200  1  0.82257353  0.18378339  0.92997263  1.0
  O  O201  1  0.18429301  0.99678276  0.92978027  1.0
  O  O202  1  0.33388577  0.14102817  0.44557008  1.0
  O  O203  1  0.81784797  0.00956829  0.93122501  1.0
  O  O204  1  0.02247905  0.17767133  0.93395727  1.0
  O  O205  1  0.19636446  0.79728716  0.93929489  1.0
  O  O206  1  0.99872636  0.99590180  0.98361415  1.0
  O  O207  1  0.80717874  0.02609659  0.03450218  1.0
  O  O208  1  0.01249235  0.18683406  0.02949831  1.0
  O  O209  1  0.19445709  0.81949040  0.03532701  1.0
  O  O210  1  0.13534915  0.52384801  0.45156073  1.0
  O  O211  1  0.01483845  0.82409745  0.04171056  1.0
  O  O212  1  0.80908466  0.20138250  0.02695504  1.0
  O  O213  1  0.18925578  0.01788356  0.02591539  1.0
  O  O214  1  0.31034423  0.53001832  0.45100562  1.0
  O  O215  1  0.53288319  0.14035373  0.44929391  1.0
  O  O216  1  0.16143026  0.31491958  0.44727035  1.0
  O  O217  1  0.51486712  0.49294324  0.49894250  1.0
  O  O218  1  0.82545210  0.83648563  0.99050560  1.0
