# generated using pymatgen
data_Zn4H11C26S4ClO13
_symmetry_space_group_name_H-M   'P 1'
_cell_length_a   19.66473670
_cell_length_b   19.67831564
_cell_length_c   33.40075319
_cell_angle_alpha   79.10690127
_cell_angle_beta   79.14508031
_cell_angle_gamma   63.89585345
_symmetry_Int_Tables_number   1
_chemical_formula_structural   Zn4H11C26S4ClO13
_chemical_formula_sum   'Zn16 H44 C104 S16 Cl4 O52'
_cell_volume   11316.15375055
_cell_formula_units_Z   4
loop_
 _symmetry_equiv_pos_site_id
 _symmetry_equiv_pos_as_xyz
  1  'x, y, z'
loop_
 _atom_site_type_symbol
 _atom_site_label
 _atom_site_symmetry_multiplicity
 _atom_site_fract_x
 _atom_site_fract_y
 _atom_site_fract_z
 _atom_site_occupancy
  Zn  Zn0  1  0.60094117  0.94405620  0.52233165  1.0
  Zn  Zn1  1  0.51635560  0.01521905  0.43987208  1.0
  Zn  Zn2  1  0.43996831  0.94117221  0.51796259  1.0
  Zn  Zn3  1  0.44468942  0.09854196  0.52036321  1.0
  Zn  Zn4  1  0.65012959  0.30629864  0.72830151  1.0
  Zn  Zn5  1  0.81083451  0.31109111  0.73355352  1.0
  Zn  Zn6  1  0.73320625  0.23141373  0.80914420  1.0
  Zn  Zn7  1  0.80519833  0.15221330  0.72769651  1.0
  Zn  Zn8  1  0.23326354  0.73287473  0.31055679  1.0
  Zn  Zn9  1  0.30381648  0.65107102  0.22815901  1.0
  Zn  Zn10  1  0.15154487  0.80721283  0.22893761  1.0
  Zn  Zn11  1  0.31145573  0.80910233  0.23327250  1.0
  Zn  Zn12  1  0.93963898  0.43983475  0.01682648  1.0
  Zn  Zn13  1  0.94465796  0.59886059  0.02161790  1.0
  Zn  Zn14  1  0.09901444  0.44460383  0.02168733  1.0
  Zn  Zn15  1  0.01672716  0.51687127  0.93963048  1.0
  H  H16  1  0.75167416  0.04512067  0.64834938  1.0
  H  H17  1  0.54648306  0.25269062  0.64989847  1.0
  H  H18  1  0.70031164  0.00055195  0.60030690  1.0
  H  H19  1  0.40341065  0.90320467  0.30007197  1.0
  H  H20  1  0.29881406  0.79873359  0.40185126  1.0
  H  H21  1  0.44971205  0.94963887  0.34971905  1.0
  H  H22  1  0.76086116  0.53628259  0.65921672  1.0
  H  H23  1  0.29728922  0.52105870  0.39862607  1.0
  H  H24  1  0.02141412  0.79693676  0.39874638  1.0
  H  H25  1  0.02932240  0.05077547  0.65208196  1.0
  H  H26  1  0.94994873  0.44992462  0.84670685  1.0
  H  H27  1  0.84799460  0.34825507  0.95124011  1.0
  H  H28  1  0.90031971  0.40021502  0.80040344  1.0
  H  H29  1  0.22835078  0.45299786  0.85150985  1.0
  H  H30  1  0.85856317  0.83716718  0.95988661  1.0
  H  H31  1  0.20510164  0.49829905  0.10169635  1.0
  H  H32  1  0.99725462  0.70320578  0.10027960  1.0
  H  H33  1  0.24969339  0.54956887  0.14972448  1.0
  H  H34  1  0.72072902  0.69933411  0.09777160  1.0
  H  H35  1  0.98925517  0.21369371  0.09079359  1.0
  H  H36  1  0.42443987  0.76862633  0.60088022  1.0
  H  H37  1  0.44898460  0.66930882  0.60303018  1.0
  H  H38  1  0.46417321  0.72400189  0.55594584  1.0
  H  H39  1  0.52312028  0.17879937  0.34644697  1.0
  H  H40  1  0.46333852  0.24277062  0.30897498  1.0
  H  H41  1  0.43585231  0.17608373  0.34403686  1.0
  H  H42  1  0.67633346  0.93565353  0.34392780  1.0
  H  H43  1  0.74293317  0.96344851  0.30901649  1.0
  H  H44  1  0.67876632  0.02290654  0.34650996  1.0
  H  H45  1  0.27813998  0.20182172  0.61015396  1.0
  H  H46  1  0.18014954  0.26803845  0.61374792  1.0
  H  H47  1  0.23326576  0.24152250  0.56525666  1.0
  H  H48  1  0.57124462  0.22706753  0.90338238  1.0
  H  H49  1  0.50727698  0.28678097  0.94080091  1.0
  H  H50  1  0.57404983  0.31418544  0.90581865  1.0
  H  H51  1  0.85183470  0.92771257  0.76013186  1.0
  H  H52  1  0.93048801  0.84206408  0.77594009  1.0
  H  H53  1  0.93903566  0.93048421  0.76263207  1.0
  H  H54  1  0.51695571  0.50847165  0.18478680  1.0
  H  H55  1  0.56983745  0.48208822  0.13622993  1.0
  H  H56  1  0.47188016  0.54840654  0.13995386  1.0
  H  H57  1  0.28585363  0.02643333  0.19399952  1.0
  H  H58  1  0.30157745  0.08063775  0.14680995  1.0
  H  H59  1  0.32573448  0.98132661  0.14922331  1.0
  C  C60  1  0.68439612  0.93851116  0.43845032  1.0
  C  C61  1  0.43104770  0.93148878  0.43044100  1.0
  C  C62  1  0.56166033  0.81577894  0.56168356  1.0
  C  C63  1  0.31558213  0.06160267  0.56144638  1.0
  C  C64  1  0.56991999  0.06849608  0.56922946  1.0
  C  C65  1  0.43812687  0.18407442  0.43827087  1.0
  C  C66  1  0.68889979  0.43454989  0.68858807  1.0
  C  C67  1  0.81961814  0.31937247  0.81876608  1.0
  C  C68  1  0.56539863  0.31120489  0.81128891  1.0
  C  C69  1  0.81119173  0.06540287  0.81116915  1.0
  C  C70  1  0.68093114  0.18015604  0.68071305  1.0
  C  C71  1  0.93447562  0.18794505  0.68853095  1.0
  C  C72  1  0.31117486  0.56586289  0.31181717  1.0
  C  C73  1  0.18162811  0.67996623  0.18089650  1.0
  C  C74  1  0.06614776  0.81130433  0.31200651  1.0
  C  C75  1  0.18878630  0.93466527  0.18875380  1.0
  C  C76  1  0.31958210  0.81949168  0.31930951  1.0
  C  C77  1  0.43433709  0.68855408  0.18858016  1.0
  C  C78  1  0.81566722  0.56203216  0.06140753  1.0
  C  C79  1  0.06977251  0.56896070  0.06935133  1.0
  C  C80  1  0.06086601  0.31581791  0.06143277  1.0
  C  C81  1  0.18403916  0.43876077  0.93831131  1.0
  C  C82  1  0.93065247  0.43090946  0.93043867  1.0
  C  C83  1  0.93816532  0.68462859  0.93877510  1.0
  C  C84  1  0.59514309  0.10048639  0.59801526  1.0
  C  C85  1  0.65193532  0.15171740  0.65206926  1.0
  C  C86  1  0.55161142  0.17243379  0.61237187  1.0
  C  C87  1  0.69579885  0.08028264  0.63816074  1.0
  C  C88  1  0.58030277  0.19720561  0.63909883  1.0
  C  C89  1  0.66725153  0.05575766  0.61158563  1.0
  C  C90  1  0.40086033  0.90085943  0.40344993  1.0
  C  C91  1  0.34813152  0.84817678  0.34806805  1.0
  C  C92  1  0.35779138  0.85759026  0.41803777  1.0
  C  C93  1  0.39085560  0.89083116  0.33308417  1.0
  C  C94  1  0.33195604  0.83189343  0.39034347  1.0
  C  C95  1  0.41642368  0.91640385  0.36062754  1.0
  C  C96  1  0.54469960  0.69634619  0.59867486  1.0
  C  C97  1  0.70401597  0.55377220  0.65110806  1.0
  C  C98  1  0.58562433  0.74097511  0.58627299  1.0
  C  C99  1  0.66372158  0.50924590  0.66356214  1.0
  C  C100  1  0.66131923  0.62201655  0.62745246  1.0
  C  C101  1  0.58905696  0.62834228  0.62225831  1.0
  C  C102  1  0.42468442  0.27282292  0.37027480  1.0
  C  C103  1  0.32637014  0.47597264  0.37887656  1.0
  C  C104  1  0.41410478  0.25822004  0.41298205  1.0
  C  C105  1  0.33651515  0.49080874  0.33649769  1.0
  C  C106  1  0.35822398  0.39681070  0.39155375  1.0
  C  C107  1  0.39224970  0.35257459  0.35853932  1.0
  C  C108  1  0.77300220  0.92452861  0.37035517  1.0
  C  C109  1  0.97626841  0.82597247  0.37899152  1.0
  C  C110  1  0.75851231  0.91407662  0.41309373  1.0
  C  C111  1  0.99107197  0.83620516  0.33661582  1.0
  C  C112  1  0.89709707  0.85787453  0.39163930  1.0
  C  C113  1  0.85279757  0.89193310  0.35860430  1.0
  C  C114  1  0.20016742  0.15664166  0.60255702  1.0
  C  C115  1  0.05022180  0.09479740  0.64746565  1.0
  C  C116  1  0.24120614  0.08728415  0.58645518  1.0
  C  C117  1  0.00924134  0.16349636  0.66354773  1.0
  C  C118  1  0.11988706  0.09154523  0.62524237  1.0
  C  C119  1  0.13078167  0.15802033  0.62472011  1.0
  C  C120  1  0.84643554  0.34658265  0.84918002  1.0
  C  C121  1  0.90188249  0.40202351  0.90187260  1.0
  C  C122  1  0.83176304  0.33212136  0.89233801  1.0
  C  C123  1  0.91688660  0.41694434  0.85919244  1.0
  C  C124  1  0.85951818  0.35977170  0.91810182  1.0
  C  C125  1  0.88932673  0.38936903  0.83363971  1.0
  C  C126  1  0.47710832  0.32552910  0.87949231  1.0
  C  C127  1  0.27364784  0.42394673  0.87117741  1.0
  C  C128  1  0.49138306  0.33601710  0.83673455  1.0
  C  C129  1  0.25904032  0.41366554  0.91357574  1.0
  C  C130  1  0.35279933  0.39215987  0.85840310  1.0
  C  C131  1  0.39732388  0.35809552  0.89134396  1.0
  C  C132  1  0.87589838  0.91903583  0.82158270  1.0
  C  C133  1  0.87484631  0.83020765  0.92744537  1.0
  C  C134  1  0.83668241  0.99041273  0.83563317  1.0
  C  C135  1  0.91352902  0.75923953  0.91363077  1.0
  C  C136  1  0.86080019  0.88886350  0.89422543  1.0
  C  C137  1  0.88917340  0.86152385  0.85558139  1.0
  C  C138  1  0.14959536  0.65464036  0.15215244  1.0
  C  C139  1  0.09827089  0.59781918  0.09807350  1.0
  C  C140  1  0.07752553  0.69806495  0.13782776  1.0
  C  C141  1  0.16983133  0.55404406  0.11195683  1.0
  C  C142  1  0.05276182  0.66934634  0.11109990  1.0
  C  C143  1  0.19436213  0.58262084  0.13852747  1.0
  C  C144  1  0.54993935  0.59343139  0.14748072  1.0
  C  C145  1  0.69987165  0.65527870  0.10244746  1.0
  C  C146  1  0.50887512  0.66274776  0.16362274  1.0
  C  C147  1  0.74084537  0.58657866  0.08635874  1.0
  C  C148  1  0.63026333  0.65846766  0.12474598  1.0
  C  C149  1  0.61935451  0.59199753  0.12530098  1.0
  C  C150  1  0.20564101  0.05390004  0.15122139  1.0
  C  C151  1  0.04612457  0.19629437  0.09885397  1.0
  C  C152  1  0.16488112  0.00915655  0.16376753  1.0
  C  C153  1  0.08625540  0.24099203  0.08637236  1.0
  C  C154  1  0.08897391  0.12803323  0.12248466  1.0
  C  C155  1  0.16122086  0.12184165  0.12761649  1.0
  C  C156  1  0.46643905  0.71528475  0.58922045  1.0
  C  C157  1  0.46376112  0.21478065  0.34069504  1.0
  C  C158  1  0.71492470  0.96365579  0.34072004  1.0
  C  C159  1  0.22389614  0.22059310  0.59778039  1.0
  C  C160  1  0.53525515  0.28638661  0.90908356  1.0
  C  C161  1  0.90080053  0.90363321  0.77778462  1.0
  C  C162  1  0.52619511  0.52948849  0.15226410  1.0
  C  C163  1  0.28387558  0.03487826  0.16071101  1.0
  S  S164  1  0.67557193  0.70071401  0.60296377  1.0
  S  S165  1  0.57411356  0.54976948  0.64669102  1.0
  S  S166  1  0.36598809  0.33979648  0.43793346  1.0
  S  S167  1  0.38464968  0.40910003  0.31186830  1.0
  S  S168  1  0.84017775  0.86578895  0.43802552  1.0
  S  S169  1  0.90930796  0.88440624  0.31193796  1.0
  S  S170  1  0.19608889  0.02577948  0.59817311  1.0
  S  S171  1  0.05478028  0.22435465  0.65178936  1.0
  S  S172  1  0.40950710  0.38440134  0.81193635  1.0
  S  S173  1  0.34102889  0.36552173  0.93808409  1.0
  S  S174  1  0.81687616  0.98695980  0.88892459  1.0
  S  S175  1  0.93312054  0.76326213  0.86045100  1.0
  S  S176  1  0.55411718  0.72416557  0.15190221  1.0
  S  S177  1  0.69532099  0.52568065  0.09818632  1.0
  S  S178  1  0.07491885  0.04923803  0.14704518  1.0
  S  S179  1  0.17594138  0.20054959  0.10315226  1.0
  Cl  Cl180  1  0.46211713  0.23530303  0.59914746  1.0
  Cl  Cl181  1  0.33326381  0.83262472  0.46935820  1.0
  Cl  Cl182  1  0.78024807  0.28092675  0.91711734  1.0
  Cl  Cl183  1  0.01475609  0.78739569  0.15104138  1.0
  O  O184  1  0.50225882  0.99898428  0.49997692  1.0
  O  O185  1  0.68542550  0.92210457  0.47740123  1.0
  O  O186  1  0.46898803  0.96971264  0.41230145  1.0
  O  O187  1  0.49509642  0.84444535  0.55015817  1.0
  O  O188  1  0.62521986  0.97403973  0.41948927  1.0
  O  O189  1  0.60932902  0.84609983  0.55390971  1.0
  O  O190  1  0.41689257  0.91753061  0.46899391  1.0
  O  O191  1  0.34272014  0.99444107  0.55067737  1.0
  O  O192  1  0.50487642  0.10916839  0.55710283  1.0
  O  O193  1  0.34719315  0.10796929  0.55236561  1.0
  O  O194  1  0.61613349  0.00253476  0.55912634  1.0
  O  O195  1  0.47405871  0.12471281  0.41960433  1.0
  O  O196  1  0.42076492  0.18525216  0.47720404  1.0
  O  O197  1  0.75005892  0.25099677  0.74906431  1.0
  O  O198  1  0.64170388  0.40374084  0.69649334  1.0
  O  O199  1  0.83791573  0.33725039  0.78071910  1.0
  O  O200  1  0.62471834  0.27493722  0.83004499  1.0
  O  O201  1  0.75522065  0.40726073  0.70014817  1.0
  O  O202  1  0.56435159  0.32786954  0.77230378  1.0
  O  O203  1  0.78102170  0.28080300  0.83289046  1.0
  O  O204  1  0.77496508  0.12335534  0.83112683  1.0
  O  O205  1  0.74669890  0.13600616  0.69163170  1.0
  O  O206  1  0.82698186  0.06701377  0.77215303  1.0
  O  O207  1  0.63761638  0.24587215  0.69172148  1.0
  O  O208  1  0.90697001  0.25426646  0.70017476  1.0
  O  O209  1  0.90383107  0.14075410  0.69640667  1.0
  O  O210  1  0.25066046  0.74947779  0.25039541  1.0
  O  O211  1  0.27570793  0.62397915  0.33143032  1.0
  O  O212  1  0.24789600  0.63383655  0.19085338  1.0
  O  O213  1  0.06623363  0.82785526  0.27303659  1.0
  O  O214  1  0.32697840  0.56599901  0.27281621  1.0
  O  O215  1  0.12442080  0.77556588  0.33157398  1.0
  O  O216  1  0.14113504  0.74476451  0.19321866  1.0
  O  O217  1  0.14080979  0.90465967  0.19668065  1.0
  O  O218  1  0.33589906  0.83612240  0.28099532  1.0
  O  O219  1  0.25512308  0.90584301  0.20056777  1.0
  O  O220  1  0.28145498  0.78087510  0.33560335  1.0
  O  O221  1  0.40205321  0.64275205  0.19701805  1.0
  O  O222  1  0.40789032  0.75526965  0.19985249  1.0
  O  O223  1  0.00003326  0.50005822  0.99993213  1.0
  O  O224  1  0.84305289  0.49559386  0.04985679  1.0
  O  O225  1  0.00405426  0.61256857  0.05824522  1.0
  O  O226  1  0.10786578  0.34685433  0.05347765  1.0
  O  O227  1  0.84658386  0.60893685  0.05349478  1.0
  O  O228  1  0.99445697  0.34315157  0.04996981  1.0
  O  O229  1  0.11363395  0.50324479  0.05843118  1.0
  O  O230  1  0.18409275  0.42284439  0.97731747  1.0
  O  O231  1  0.96894948  0.46927915  0.91394366  1.0
  O  O232  1  0.12566814  0.47409164  0.91880387  1.0
  O  O233  1  0.91440466  0.41474310  0.96882452  1.0
  O  O234  1  0.92218747  0.68475767  0.97767092  1.0
  O  O235  1  0.97348304  0.62612842  0.91928603  1.0
