# generated using pymatgen
data_CoH16(C12N5)2
_symmetry_space_group_name_H-M   'P 1'
_cell_length_a   9.35097082
_cell_length_b   16.48776585
_cell_length_c   16.48806468
_cell_angle_alpha   116.48670527
_cell_angle_beta   100.89361788
_cell_angle_gamma   100.90868830
_symmetry_Int_Tables_number   1
_chemical_formula_structural   CoH16(C12N5)2
_chemical_formula_sum   'Co3 H48 C72 N30'
_cell_volume   2123.29748364
_cell_formula_units_Z   3
loop_
 _symmetry_equiv_pos_site_id
 _symmetry_equiv_pos_as_xyz
  1  'x, y, z'
loop_
 _atom_site_type_symbol
 _atom_site_label
 _atom_site_symmetry_multiplicity
 _atom_site_fract_x
 _atom_site_fract_y
 _atom_site_fract_z
 _atom_site_occupancy
  Co  Co0  1  0.99999994  0.49999903  0.50000017  1.0
  Co  Co1  1  0.50000297  0.50000133  0.00000032  1.0
  Co  Co2  1  0.50000332  0.00000099  0.50000239  1.0
  H  H3  1  0.92056237  0.28075936  0.42224399  1.0
  H  H4  1  0.49851049  0.57771140  0.85857043  1.0
  H  H5  1  0.63948083  0.14141301  0.71911534  1.0
  H  H6  1  0.07943810  0.71923701  0.57775361  1.0
  H  H7  1  0.50148884  0.42228925  0.14142836  1.0
  H  H8  1  0.36052322  0.85858834  0.28088670  1.0
  H  H9  1  0.67639410  0.14361106  0.33270973  1.0
  H  H10  1  0.34391197  0.66715330  0.81076833  1.0
  H  H11  1  0.53223471  0.18908538  0.85616367  1.0
  H  H12  1  0.32360346  0.85638602  0.66728788  1.0
  H  H13  1  0.65609244  0.33284877  0.18923042  1.0
  H  H14  1  0.46776789  0.81091527  0.14383911  1.0
  H  H15  1  0.42924248  0.17497545  0.28494670  1.0
  H  H16  1  0.14437078  0.71486965  0.88971364  1.0
  H  H17  1  0.25375540  0.11003129  0.82478685  1.0
  H  H18  1  0.57075688  0.82502306  0.71505599  1.0
  H  H19  1  0.85563219  0.28513171  0.11028404  1.0
  H  H20  1  0.74624609  0.88997150  0.17521555  1.0
  H  H21  1  0.43919453  0.34489537  0.33119154  1.0
  H  H22  1  0.10797711  0.66879673  0.01354417  1.0
  H  H23  1  0.09374287  0.98638825  0.65482327  1.0
  H  H24  1  0.56080194  0.65510170  0.66881324  1.0
  H  H25  1  0.89202548  0.33120605  0.98645350  1.0
  H  H26  1  0.90625645  0.01361454  0.34517889  1.0
  H  H27  1  0.41951764  0.63445228  0.38435005  1.0
  H  H28  1  0.03580055  0.61580516  0.25033928  1.0
  H  H29  1  0.78519100  0.74988716  0.36542677  1.0
  H  H30  1  0.58048496  0.36554836  0.61565272  1.0
  H  H31  1  0.96419191  0.38419263  0.74965810  1.0
  H  H32  1  0.21480689  0.25011277  0.63457094  1.0
  H  H33  1  0.34514057  0.77833827  0.40399585  1.0
  H  H34  1  0.94196435  0.59619102  0.37467830  1.0
  H  H35  1  0.56705882  0.62543171  0.22160446  1.0
  H  H36  1  0.65486459  0.22166095  0.59600414  1.0
  H  H37  1  0.05803101  0.40380820  0.62532003  1.0
  H  H38  1  0.43294123  0.37457036  0.77839322  1.0
  H  H39  1  0.76034500  0.96063825  0.61099314  1.0
  H  H40  1  0.14889203  0.38850119  0.34939849  1.0
  H  H41  1  0.79932000  0.65057347  0.03914792  1.0
  H  H42  1  0.23966054  0.03935954  0.38900625  1.0
  H  H43  1  0.85110659  0.61149803  0.65059958  1.0
  H  H44  1  0.20067861  0.34942789  0.96085171  1.0
  H  H45  1  0.85540371  0.82418400  0.59513829  1.0
  H  H46  1  0.25937062  0.40418221  0.22849498  1.0
  H  H47  1  0.03068269  0.77149940  0.17555388  1.0
  H  H48  1  0.14460107  0.17581664  0.40486290  1.0
  H  H49  1  0.74062508  0.59581986  0.77150406  1.0
  H  H50  1  0.96931811  0.22849982  0.82444625  1.0
  C  C51  1  0.81079527  0.29080044  0.39985438  1.0
  C  C52  1  0.41114621  0.60012695  0.89096830  1.0
  C  C53  1  0.51965727  0.10901650  0.70904293  1.0
  C  C54  1  0.18919975  0.70919592  0.60014446  1.0
  C  C55  1  0.58885675  0.39987441  0.10902937  1.0
  C  C56  1  0.48034280  0.89098343  0.29095925  1.0
  C  C57  1  0.67435740  0.21515988  0.34959172  1.0
  C  C58  1  0.32498224  0.65035671  0.86550180  1.0
  C  C59  1  0.45871856  0.13438763  0.78462848  1.0
  C  C60  1  0.32564413  0.78483863  0.65040938  1.0
  C  C61  1  0.67502108  0.34964536  0.13449562  1.0
  C  C62  1  0.54128296  0.86561301  0.21537297  1.0
  C  C63  1  0.53759805  0.23268332  0.32301449  1.0
  C  C64  1  0.21470203  0.67689709  0.90949661  1.0
  C  C65  1  0.30440257  0.09032644  0.76708574  1.0
  C  C66  1  0.46239950  0.76731376  0.67698676  1.0
  C  C67  1  0.78529873  0.32310641  0.09050117  1.0
  C  C68  1  0.69560003  0.90967420  0.23291340  1.0
  C  C69  1  0.54173741  0.32577381  0.34787564  1.0
  C  C70  1  0.19391609  0.65211646  0.97779890  1.0
  C  C71  1  0.21547179  0.02214380  0.67399107  1.0
  C  C72  1  0.45826012  0.67422541  0.65212717  1.0
  C  C73  1  0.80608469  0.34788489  0.02219976  1.0
  C  C74  1  0.78453477  0.97786041  0.32601251  1.0
  C  C75  1  0.68209228  0.39818905  0.39845415  1.0
  C  C76  1  0.28368795  0.60158062  0.99974689  1.0
  C  C77  1  0.28352611  0.00031143  0.60162621  1.0
  C  C78  1  0.31790525  0.60181016  0.60154866  1.0
  C  C79  1  0.71631357  0.39842003  0.00025031  1.0
  C  C80  1  0.71647721  0.99969063  0.39837728  1.0
  C  C81  1  0.70256014  0.49773894  0.43215784  1.0
  C  C82  1  0.27036552  0.56783278  0.06557110  1.0
  C  C83  1  0.20454847  0.93453610  0.50209354  1.0
  C  C84  1  0.29743668  0.50225885  0.56784487  1.0
  C  C85  1  0.72963018  0.43216929  0.93442794  1.0
  C  C86  1  0.79545089  0.06546241  0.49790490  1.0
  C  C87  1  0.69518244  0.63648843  0.47555248  1.0
  C  C88  1  0.21937670  0.52422849  0.16079144  1.0
  C  C89  1  0.05844914  0.83932068  0.36331632  1.0
  C  C90  1  0.30481839  0.36350864  0.52444973  1.0
  C  C91  1  0.78062082  0.47577287  0.83920626  1.0
  C  C92  1  0.94155311  0.16067925  0.63668429  1.0
  C  C93  1  0.64418592  0.71788792  0.48822233  1.0
  C  C94  1  0.15575176  0.51149542  0.22951965  1.0
  C  C95  1  0.92608303  0.77058810  0.28191622  1.0
  C  C96  1  0.35581594  0.28211557  0.51178225  1.0
  C  C97  1  0.84424140  0.48850594  0.77048001  1.0
  C  C98  1  0.07391957  0.22941254  0.71808473  1.0
  C  C99  1  0.49795893  0.70583306  0.43489774  1.0
  C  C100  1  0.06334465  0.56506742  0.27102523  1.0
  C  C101  1  0.79210305  0.72912240  0.29401712  1.0
  C  C102  1  0.50204551  0.29416473  0.56510578  1.0
  C  C103  1  0.93665324  0.43493251  0.72897248  1.0
  C  C104  1  0.20789773  0.27087896  0.70598275  1.0
  C  C105  1  0.45648939  0.78587567  0.44654570  1.0
  C  C106  1  0.01040265  0.55347184  0.33950747  1.0
  C  C107  1  0.67065257  0.66059576  0.21401661  1.0
  C  C108  1  0.54351179  0.21412212  0.55345383  1.0
  C  C109  1  0.98959380  0.44652737  0.66049158  1.0
  C  C110  1  0.32934241  0.33940488  0.78598110  1.0
  C  C111  1  0.68821698  0.88721099  0.56117242  1.0
  C  C112  1  0.12682110  0.43845782  0.32587655  1.0
  C  C113  1  0.80075712  0.67414005  0.11259010  1.0
  C  C114  1  0.31178673  0.11278752  0.43882770  1.0
  C  C115  1  0.87317497  0.56154282  0.67412371  1.0
  C  C116  1  0.19924040  0.32586130  0.88740821  1.0
  C  C117  1  0.74043460  0.81151386  0.55299360  1.0
  C  C118  1  0.18695560  0.44653789  0.25821391  1.0
  C  C119  1  0.92856285  0.74181975  0.18826354  1.0
  C  C120  1  0.25956442  0.18848180  0.44700535  1.0
  C  C121  1  0.81304085  0.55346132  0.74178393  1.0
  C  C122  1  0.07144120  0.25818161  0.81173668  1.0
  N  N123  1  0.81636597  0.38122408  0.42419465  1.0
  N  N124  1  0.39225705  0.57583059  0.95708694  1.0
  N  N125  1  0.43484034  0.04294776  0.61862742  1.0
  N  N126  1  0.18363594  0.61877300  0.57580646  1.0
  N  N127  1  0.60774229  0.42417005  0.04291185  1.0
  N  N128  1  0.56516262  0.95705360  0.38137511  1.0
  N  N129  1  0.84724382  0.55762799  0.48636160  1.0
  N  N130  1  0.36076633  0.51356356  0.07121865  1.0
  N  N131  1  0.28946200  0.92879788  0.44224459  1.0
  N  N132  1  0.15275809  0.44236908  0.51364072  1.0
  N  N133  1  0.63923446  0.48643780  0.92878001  1.0
  N  N134  1  0.71053916  0.07120205  0.55775832  1.0
  N  N135  1  0.84363752  0.64704559  0.51530308  1.0
  N  N136  1  0.32807062  0.48450216  0.13160568  1.0
  N  N137  1  0.19646841  0.86842764  0.35282589  1.0
  N  N138  1  0.15636401  0.35295291  0.48469863  1.0
  N  N139  1  0.67192763  0.51549849  0.86839299  1.0
  N  N140  1  0.80353493  0.13157228  0.64717604  1.0
  N  N141  1  0.60332721  0.54433395  0.42292648  1.0
  N  N142  1  0.18027115  0.57697491  0.12134631  1.0
  N  N143  1  0.05864206  0.87881297  0.45544586  1.0
  N  N144  1  0.39667359  0.45566526  0.57707850  1.0
  N  N145  1  0.81972819  0.42302573  0.87865127  1.0
  N  N146  1  0.94135981  0.12118838  0.54455594  1.0
  N  N147  1  0.54917405  0.87574120  0.50836002  1.0
  N  N148  1  0.04105186  0.49150965  0.36742146  1.0
  N  N149  1  0.67342126  0.63261290  0.12414782  1.0
  N  N150  1  0.45083109  0.12426015  0.49164153  1.0
  N  N151  1  0.95894532  0.50848885  0.63257735  1.0
  N  N152  1  0.32657697  0.36738988  0.87585120  1.0
