# generated using pymatgen
data_ZnH9C11NO5
_symmetry_space_group_name_H-M   'P 1'
_cell_length_a   8.94668729
_cell_length_b   8.96406052
_cell_length_c   53.48987237
_cell_angle_alpha   90.00003529
_cell_angle_beta   90.00005633
_cell_angle_gamma   89.53760640
_symmetry_Int_Tables_number   1
_chemical_formula_structural   ZnH9C11NO5
_chemical_formula_sum   'Zn8 H72 C88 N8 O40'
_cell_volume   4289.67565975
_cell_formula_units_Z   8
loop_
 _symmetry_equiv_pos_site_id
 _symmetry_equiv_pos_as_xyz
  1  'x, y, z'
loop_
 _atom_site_type_symbol
 _atom_site_label
 _atom_site_symmetry_multiplicity
 _atom_site_fract_x
 _atom_site_fract_y
 _atom_site_fract_z
 _atom_site_occupancy
  Zn  Zn0  1  0.17407495  0.26835261  0.25239707  1.0
  Zn  Zn1  1  0.82592326  0.73164513  0.75239722  1.0
  Zn  Zn2  1  0.20886458  0.23263559  0.19907464  1.0
  Zn  Zn3  1  0.79113556  0.76736195  0.69907479  1.0
  Zn  Zn4  1  0.33865665  0.57252068  0.45275353  1.0
  Zn  Zn5  1  0.66134269  0.42748224  0.95275325  1.0
  Zn  Zn6  1  0.63247806  0.39553168  0.00485250  1.0
  Zn  Zn7  1  0.36752092  0.60447297  0.50485274  1.0
  H  H8  1  0.93839309  0.11957736  0.29240863  1.0
  H  H9  1  0.06160762  0.88041382  0.79240754  1.0
  H  H10  1  0.89219718  0.28342341  0.27651721  1.0
  H  H11  1  0.10780345  0.71656772  0.77651724  1.0
  H  H12  1  0.72645886  0.36955606  0.31021891  1.0
  H  H13  1  0.27354304  0.63044299  0.81021896  1.0
  H  H14  1  0.68451552  0.17873066  0.30532171  1.0
  H  H15  1  0.31548300  0.82126615  0.80532141  1.0
  H  H16  1  0.86147571  0.11163461  0.34045510  1.0
  H  H17  1  0.13852301  0.88836456  0.84045459  1.0
  H  H18  1  0.96338552  0.30673656  0.36698930  1.0
  H  H19  1  0.03661447  0.69326270  0.86698894  1.0
  H  H20  1  0.42162318  0.46804900  0.32945580  1.0
  H  H21  1  0.57837435  0.53195014  0.82945608  1.0
  H  H22  1  0.38496934  0.38906428  0.28494438  1.0
  H  H23  1  0.61502908  0.61093022  0.78494410  1.0
  H  H24  1  0.47764915  0.39062484  0.41317857  1.0
  H  H25  1  0.52234887  0.60937571  0.91317847  1.0
  H  H26  1  0.42464416  0.31649945  0.36862938  1.0
  H  H27  1  0.57535359  0.68350317  0.86862911  1.0
  H  H28  1  0.03171295  0.59959711  0.37169031  1.0
  H  H29  1  0.96828816  0.40040551  0.87169008  1.0
  H  H30  1  0.10258578  0.66152025  0.41608041  1.0
  H  H31  1  0.89741337  0.33848030  0.91608034  1.0
  H  H32  1  0.69545006  0.18060829  0.36931214  1.0
  H  H33  1  0.30454771  0.81938987  0.86931202  1.0
  H  H34  1  0.75147976  0.46137990  0.35711265  1.0
  H  H35  1  0.24852017  0.53861932  0.85711269  1.0
  H  H36  1  0.08487156  0.99010558  0.15514729  1.0
  H  H37  1  0.91512944  0.00989514  0.65514813  1.0
  H  H38  1  0.23607736  0.95232881  0.17485365  1.0
  H  H39  1  0.76392039  0.04767200  0.67485334  1.0
  H  H40  1  0.35738489  0.79030652  0.14392723  1.0
  H  H41  1  0.64261826  0.20969527  0.64392674  1.0
  H  H42  1  0.16593007  0.74010028  0.14408444  1.0
  H  H43  1  0.83407533  0.25989927  0.64408379  1.0
  H  H44  1  0.12300339  0.91087519  0.10724009  1.0
  H  H45  1  0.87699844  0.08912537  0.60723962  1.0
  H  H46  1  0.33370027  0.02184147  0.08567729  1.0
  H  H47  1  0.66630032  0.97815900  0.58567706  1.0
  H  H48  1  0.42844144  0.49066175  0.12475257  1.0
  H  H49  1  0.57156274  0.50933662  0.62475246  1.0
  H  H50  1  0.32068896  0.45106956  0.16753467  1.0
  H  H51  1  0.67931323  0.54893121  0.66753459  1.0
  H  H52  1  0.40404343  0.51447917  0.03825862  1.0
  H  H53  1  0.59595019  0.48551892  0.53825852  1.0
  H  H54  1  0.29862010  0.46266314  0.08110504  1.0
  H  H55  1  0.70137936  0.53733287  0.58110459  1.0
  H  H56  1  0.63619434  0.11934974  0.08943915  1.0
  H  H57  1  0.36381075  0.88065074  0.58943924  1.0
  H  H58  1  0.72970394  0.18895559  0.04658806  1.0
  H  H59  1  0.27029976  0.81104808  0.54658812  1.0
  H  H60  1  0.23373002  0.75049620  0.08058102  1.0
  H  H61  1  0.76626943  0.24950315  0.58058055  1.0
  H  H62  1  0.49081424  0.82027186  0.10002847  1.0
  H  H63  1  0.50918645  0.17972644  0.60002851  1.0
  H  H64  1  0.21290963  0.74728034  0.19944801  1.0
  H  H65  1  0.78708717  0.25271721  0.69944792  1.0
  H  H66  1  0.17141675  0.75873061  0.25663322  1.0
  H  H67  1  0.82859043  0.24126712  0.75663314  1.0
  H  H68  1  0.69780200  0.23999982  0.19499914  1.0
  H  H69  1  0.30219700  0.75999882  0.69499884  1.0
  H  H70  1  0.68952272  0.26147787  0.25251844  1.0
  H  H71  1  0.31047549  0.73852098  0.75251851  1.0
  H  H72  1  0.34573895  0.08390961  0.45067910  1.0
  H  H73  1  0.65424918  0.91609892  0.95067924  1.0
  H  H74  1  0.36346209  0.09213417  0.50821934  1.0
  H  H75  1  0.63654140  0.90786825  0.00821933  1.0
  H  H76  1  0.85306693  0.62280482  0.50572099  1.0
  H  H77  1  0.14693428  0.37720206  0.00571972  1.0
  H  H78  1  0.85223464  0.55044407  0.44937032  1.0
  H  H79  1  0.14776362  0.44954992  0.94936845  1.0
  C  C80  1  0.04875895  0.31025599  0.30605974  1.0
  C  C81  1  0.95124071  0.68973970  0.80605954  1.0
  C  C82  1  0.91137386  0.23868353  0.29539536  1.0
  C  C83  1  0.08862575  0.76130990  0.79539502  1.0
  C  C84  1  0.77180995  0.25538824  0.31164366  1.0
  C  C85  1  0.22818860  0.74461083  0.81164353  1.0
  C  C86  1  0.81176174  0.22430976  0.33871215  1.0
  C  C87  1  0.18823809  0.77568829  0.83871201  1.0
  C  C88  1  0.92387778  0.34065620  0.34818368  1.0
  C  C89  1  0.07612322  0.65934188  0.84818351  1.0
  C  C90  1  0.05788506  0.35624577  0.33118450  1.0
  C  C91  1  0.94211472  0.64375336  0.83118410  1.0
  C  C92  1  0.19506287  0.41174651  0.34012116  1.0
  C  C93  1  0.80493696  0.58825377  0.84012073  1.0
  C  C94  1  0.31454088  0.42405928  0.32333762  1.0
  C  C95  1  0.68545774  0.57593983  0.82333773  1.0
  C  C96  1  0.29547913  0.38075835  0.29870492  1.0
  C  C97  1  0.70452160  0.61923732  0.79870466  1.0
  C  C98  1  0.38076863  0.43377976  0.40301813  1.0
  C  C99  1  0.61922821  0.56622076  0.90301786  1.0
  C  C100  1  0.35044976  0.39367707  0.37846806  1.0
  C  C101  1  0.64955028  0.60632558  0.87846798  1.0
  C  C102  1  0.22300620  0.45258717  0.36655645  1.0
  C  C103  1  0.77699376  0.54741655  0.86655639  1.0
  C  C104  1  0.13171297  0.55133445  0.38013640  1.0
  C  C105  1  0.86828597  0.44866598  0.88013634  1.0
  C  C106  1  0.17039579  0.58632337  0.40463563  1.0
  C  C107  1  0.82960552  0.41367937  0.90463556  1.0
  C  C108  1  0.27956089  0.10963612  0.14594159  1.0
  C  C109  1  0.72044340  0.89036457  0.64594118  1.0
  C  C110  1  0.20670136  0.96919033  0.15508691  1.0
  C  C111  1  0.79329851  0.03081263  0.65508680  1.0
  C  C112  1  0.24370580  0.83036359  0.13960155  1.0
  C  C113  1  0.75629734  0.16963707  0.63960069  1.0
  C  C114  1  0.23538074  0.86739170  0.11195557  1.0
  C  C115  1  0.76462113  0.13260776  0.61195508  1.0
  C  C116  1  0.35273876  0.98510873  0.10521262  1.0
  C  C117  1  0.64726307  0.01489070  0.60521248  1.0
  C  C118  1  0.34505355  0.12011056  0.12207914  1.0
  C  C119  1  0.65495061  0.87988780  0.62207890  1.0
  C  C120  1  0.39873293  0.25946063  0.11403351  1.0
  C  C121  1  0.60127231  0.74053770  0.61403307  1.0
  C  C122  1  0.38871407  0.38110961  0.13036820  1.0
  C  C123  1  0.61128902  0.61888990  0.63036793  1.0
  C  C124  1  0.32841775  0.36060359  0.15395023  1.0
  C  C125  1  0.67158436  0.63939602  0.65395015  1.0
  C  C126  1  0.45239225  0.42976019  0.05054039  1.0
  C  C127  1  0.54760704  0.57023682  0.55054028  1.0
  C  C128  1  0.39449202  0.39973428  0.07407493  1.0
  C  C129  1  0.60550852  0.60026281  0.57407465  1.0
  C  C130  1  0.45968704  0.28654322  0.08867769  1.0
  C  C131  1  0.54031469  0.71345727  0.58867742  1.0
  C  C132  1  0.58273043  0.20859245  0.07881695  1.0
  C  C133  1  0.41727123  0.79140912  0.57881667  1.0
  C  C134  1  0.63469067  0.24649022  0.05513472  1.0
  C  C135  1  0.36530975  0.75351014  0.55513423  1.0
  C  C136  1  0.19757943  0.54067731  0.22156377  1.0
  C  C137  1  0.80242420  0.45931919  0.72156352  1.0
  C  C138  1  0.20108048  0.70562068  0.21849124  1.0
  C  C139  1  0.79892091  0.29437470  0.71849190  1.0
  C  C140  1  0.18669670  0.80076681  0.23768179  1.0
  C  C141  1  0.81330813  0.19923085  0.73768113  1.0
  C  C142  1  0.18673317  0.96562932  0.23448531  1.0
  C  C143  1  0.81326383  0.03436725  0.73448557  1.0
  C  C144  1  0.90662429  0.25073838  0.21686181  1.0
  C  C145  1  0.09337258  0.74926258  0.71686221  1.0
  C  C146  1  0.74124950  0.24961255  0.21397807  1.0
  C  C147  1  0.25874512  0.75038840  0.71397682  1.0
  C  C148  1  0.64705872  0.25545541  0.23344548  1.0
  C  C149  1  0.35294052  0.74454002  0.73344668  1.0
  C  C150  1  0.48168084  0.25182289  0.23052492  1.0
  C  C151  1  0.51831615  0.74817143  0.73052483  1.0
  C  C152  1  0.35866742  0.87691569  0.47301290  1.0
  C  C153  1  0.64132868  0.12308843  0.97301370  1.0
  C  C154  1  0.35249297  0.04164753  0.46976588  1.0
  C  C155  1  0.64749975  0.95835770  0.96976565  1.0
  C  C156  1  0.35489867  0.13569139  0.48923406  1.0
  C  C157  1  0.64509977  0.86431278  0.98923438  1.0
  C  C158  1  0.35006275  0.30058889  0.48644270  1.0
  C  C159  1  0.64993680  0.69941303  0.98644319  1.0
  C  C160  1  0.06394470  0.60354262  0.48451429  1.0
  C  C161  1  0.93605485  0.39645818  0.98451255  1.0
  C  C162  1  0.89862416  0.60218328  0.48711336  1.0
  C  C163  1  0.10137540  0.39781753  0.98711242  1.0
  C  C164  1  0.80708450  0.57280356  0.46794729  1.0
  C  C165  1  0.19291718  0.42719829  0.96794506  1.0
  C  C166  1  0.64183448  0.57064879  0.47068349  1.0
  C  C167  1  0.35816500  0.42934973  0.97068129  1.0
  N  N168  1  0.16653655  0.32308045  0.29036875  1.0
  N  N169  1  0.83346301  0.67691519  0.79036852  1.0
  N  N170  1  0.29239029  0.52876753  0.41582392  1.0
  N  N171  1  0.70760773  0.47123415  0.91582383  1.0
  N  N172  1  0.27358325  0.22871136  0.16146304  1.0
  N  N173  1  0.72641889  0.77128939  0.66146299  1.0
  N  N174  1  0.57093075  0.35479066  0.04130275  1.0
  N  N175  1  0.42906734  0.64521079  0.54130208  1.0
  O  O176  1  0.67759116  0.23449970  0.35377499  1.0
  O  O177  1  0.32240764  0.76549952  0.85377488  1.0
  O  O178  1  0.84960697  0.48346694  0.34991579  1.0
  O  O179  1  0.15039293  0.51653003  0.84991561  1.0
  O  O180  1  0.26608866  0.73330871  0.09774241  1.0
  O  O181  1  0.73391313  0.26668846  0.59774193  1.0
  O  O182  1  0.49992088  0.92030593  0.10723788  1.0
  O  O183  1  0.50008208  0.07969239  0.60723790  1.0
  O  O184  1  0.21155588  0.48801489  0.24353578  1.0
  O  O185  1  0.78845012  0.51198168  0.74353609  1.0
  O  O186  1  0.18077909  0.46500203  0.20153250  1.0
  O  O187  1  0.81922107  0.53499664  0.70153263  1.0
  O  O188  1  0.14576468  0.04207363  0.25347988  1.0
  O  O189  1  0.85423130  0.95792523  0.75348043  1.0
  O  O190  1  0.22762745  0.01825409  0.21344651  1.0
  O  O191  1  0.77237054  0.98174351  0.71344668  1.0
  O  O192  1  0.96030832  0.29173451  0.23781699  1.0
  O  O193  1  0.03968977  0.70826987  0.73781757  1.0
  O  O194  1  0.98220833  0.21028807  0.19772211  1.0
  O  O195  1  0.01779068  0.78970947  0.69772213  1.0
  O  O196  1  0.40593798  0.23565689  0.25058665  1.0
  O  O197  1  0.59406136  0.76433749  0.75058677  1.0
  O  O198  1  0.42871988  0.26592303  0.20857104  1.0
  O  O199  1  0.57127809  0.73407343  0.70857152  1.0
  O  O200  1  0.36678907  0.79994256  0.45295957  1.0
  O  O201  1  0.63319684  0.20006598  0.95296075  1.0
  O  O202  1  0.35443613  0.82577377  0.49522065  1.0
  O  O203  1  0.64556458  0.17422930  0.99522146  1.0
  O  O204  1  0.32182343  0.35447414  0.46491937  1.0
  O  O205  1  0.67818158  0.64552769  0.96492005  1.0
  O  O206  1  0.37530942  0.37523095  0.50634610  1.0
  O  O207  1  0.62468287  0.62477262  0.00634606  1.0
  O  O208  1  0.11829449  0.60780282  0.46252079  1.0
  O  O209  1  0.88170383  0.39219233  0.96251923  1.0
  O  O210  1  0.13795545  0.59936358  0.50492040  1.0
  O  O211  1  0.86204576  0.40064441  0.00491870  1.0
  O  O212  1  0.56749200  0.54244691  0.45085338  1.0
  O  O213  1  0.43250617  0.45756605  0.95085156  1.0
  O  O214  1  0.58716046  0.59851159  0.49216475  1.0
  O  O215  1  0.41284248  0.40148922  0.99216218  1.0
