# generated using pymatgen
data_AlH15C24(NO2)3
_symmetry_space_group_name_H-M   'P 1'
_cell_length_a   4.01574172
_cell_length_b   28.97275139
_cell_length_c   28.97173493
_cell_angle_alpha   59.99938145
_cell_angle_beta   89.99880088
_cell_angle_gamma   90.00042231
_symmetry_Int_Tables_number   1
_chemical_formula_structural   AlH15C24(NO2)3
_chemical_formula_sum   'Al2 H30 C48 N6 O12'
_cell_volume   2919.16027247
_cell_formula_units_Z   2
loop_
 _symmetry_equiv_pos_site_id
 _symmetry_equiv_pos_as_xyz
  1  'x, y, z'
loop_
 _atom_site_type_symbol
 _atom_site_label
 _atom_site_symmetry_multiplicity
 _atom_site_fract_x
 _atom_site_fract_y
 _atom_site_fract_z
 _atom_site_occupancy
  Al  Al0  1  0.00138555  0.50000050  0.99999688  1.0
  Al  Al1  1  0.00240315  0.16666026  0.66667731  1.0
  H  H2  1  0.85020501  0.29733832  0.52468693  1.0
  H  H3  1  0.90879778  0.34913616  0.42569000  1.0
  H  H4  1  0.30751705  0.23158755  0.41481119  1.0
  H  H5  1  0.30774274  0.43510803  0.25185755  1.0
  H  H6  1  0.84912102  0.36927708  0.14195288  1.0
  H  H7  1  0.90822008  0.31750404  0.24094038  1.0
  H  H8  1  0.85012039  0.17797746  0.79735312  1.0
  H  H9  1  0.90865683  0.22517180  0.84915243  1.0
  H  H10  1  0.30756889  0.35361476  0.73157921  1.0
  H  H11  1  0.30770774  0.31303468  0.93511120  1.0
  H  H12  1  0.84913592  0.48876589  0.86927515  1.0
  H  H13  1  0.90821601  0.44155712  0.81749842  1.0
  H  H14  1  0.85013526  0.02466162  0.67798217  1.0
  H  H15  1  0.90873217  0.92567160  0.72518552  1.0
  H  H16  1  0.30750376  0.91479648  0.85362396  1.0
  H  H17  1  0.30766715  0.75185474  0.81302966  1.0
  H  H18  1  0.84906127  0.64195474  0.98876686  1.0
  H  H19  1  0.90807728  0.74094042  0.94156166  1.0
  H  H20  1  0.11887758  0.15789466  0.55513748  1.0
  H  H21  1  0.03518165  0.16678627  0.49289947  1.0
  H  H22  1  0.11836238  0.50876473  0.11155489  1.0
  H  H23  1  0.03520744  0.49991316  0.17379410  1.0
  H  H24  1  0.11896045  0.28697529  0.65789412  1.0
  H  H25  1  0.03527234  0.34032782  0.66677398  1.0
  H  H26  1  0.11833430  0.37967523  0.00877114  1.0
  H  H27  1  0.03516348  0.32629111  0.99992092  1.0
  H  H28  1  0.11892577  0.05511917  0.78699232  1.0
  H  H29  1  0.03525300  0.99288526  0.84034646  1.0
  H  H30  1  0.11841380  0.61155217  0.87966098  1.0
  H  H31  1  0.03526386  0.67378735  0.82627619  1.0
  C  C32  1  0.50974473  0.58235096  0.96064503  1.0
  C  C33  1  0.50974797  0.45700281  0.08234526  1.0
  C  C34  1  0.50973463  0.46065155  0.95699790  1.0
  C  C35  1  0.51072463  0.20962412  0.58432250  1.0
  C  C36  1  0.51074047  0.20605774  0.70963560  1.0
  C  C37  1  0.51069052  0.08429782  0.70606738  1.0
  C  C38  1  0.53704590  0.23690707  0.52583522  1.0
  C  C39  1  0.72812691  0.28394351  0.49986495  1.0
  C  C40  1  0.76131841  0.31276835  0.44505960  1.0
  C  C41  1  0.61029203  0.29323474  0.41403917  1.0
  C  C42  1  0.42715731  0.24583010  0.43917125  1.0
  C  C43  1  0.37872075  0.21748708  0.49476978  1.0
  C  C44  1  0.63393123  0.32148367  0.35763958  1.0
  C  C45  1  0.63394275  0.34519201  0.30900964  1.0
  C  C46  1  0.61015609  0.37343579  0.25260858  1.0
  C  C47  1  0.42709943  0.42084934  0.22748655  1.0
  C  C48  1  0.37837087  0.44917318  0.17189384  1.0
  C  C49  1  0.53635092  0.42973124  0.14082364  1.0
  C  C50  1  0.72736870  0.38269031  0.16677985  1.0
  C  C51  1  0.76083736  0.35388060  0.22157986  1.0
  C  C52  1  0.53707562  0.23726454  0.73691067  1.0
  C  C53  1  0.72809689  0.21619502  0.78395402  1.0
  C  C54  1  0.76126989  0.24217375  0.81277549  1.0
  C  C55  1  0.61031407  0.29273260  0.79323410  1.0
  C  C56  1  0.42719865  0.31500833  0.74582420  1.0
  C  C57  1  0.37878308  0.28774977  0.71748663  1.0
  C  C58  1  0.63394970  0.32088553  0.82147968  1.0
  C  C59  1  0.63394361  0.34580268  0.84519122  1.0
  C  C60  1  0.61013595  0.37395716  0.87343571  1.0
  C  C61  1  0.42706248  0.35166414  0.92085287  1.0
  C  C62  1  0.37834282  0.37893064  0.94917514  1.0
  C  C63  1  0.53632868  0.42944214  0.92973226  1.0
  C  C64  1  0.72736078  0.45052680  0.88268853  1.0
  C  C65  1  0.76082055  0.42454098  0.85387925  1.0
  C  C66  1  0.53696349  0.02581659  0.73726265  1.0
  C  C67  1  0.72803072  0.99984951  0.71619554  1.0
  C  C68  1  0.76123437  0.94504539  0.74217718  1.0
  C  C69  1  0.61020437  0.91403101  0.79273610  1.0
  C  C70  1  0.42708402  0.93916025  0.81501126  1.0
  C  C71  1  0.37867034  0.99475738  0.78775145  1.0
  C  C72  1  0.63383550  0.85762947  0.82088955  1.0
  C  C73  1  0.63381762  0.80900004  0.84580754  1.0
  C  C74  1  0.61003285  0.75259940  0.87396190  1.0
  C  C75  1  0.42701411  0.72747905  0.85166370  1.0
  C  C76  1  0.37834486  0.67188814  0.87892892  1.0
  C  C77  1  0.53632875  0.64082272  0.92944046  1.0
  C  C78  1  0.72729631  0.66677881  0.95052899  1.0
  C  C79  1  0.76073041  0.72157304  0.92454719  1.0
  N  N80  1  0.19810632  0.17106681  0.51721035  1.0
  N  N81  1  0.19784653  0.49560256  0.14946570  1.0
  N  N82  1  0.19818331  0.31173315  0.67106025  1.0
  N  N83  1  0.19779943  0.35492882  0.99560782  1.0
  N  N84  1  0.19810896  0.01719162  0.81173761  1.0
  N  N85  1  0.19788623  0.64946246  0.85491931  1.0
  O  O86  1  0.26534384  0.45083277  0.98947786  1.0
  O  O87  1  0.26538904  0.55968638  0.95082685  1.0
  O  O88  1  0.26536712  0.48948172  0.05968603  1.0
  O  O89  1  0.73205873  0.49615008  0.94735866  1.0
  O  O90  1  0.73207714  0.44736595  0.05648420  1.0
  O  O91  1  0.73205916  0.55648906  0.99614171  1.0
  O  O92  1  0.26645403  0.10698692  0.71588154  1.0
  O  O93  1  0.26643610  0.17712691  0.60700603  1.0
  O  O94  1  0.26646188  0.21586837  0.67713687  1.0
  O  O95  1  0.73314822  0.11014174  0.67058715  1.0
  O  O96  1  0.73316609  0.17057486  0.71928132  1.0
  O  O97  1  0.73318503  0.21926706  0.61016017  1.0
