# generated using pymatgen
data_AlH3C8(SO3)2
_symmetry_space_group_name_H-M   'P 1'
_cell_length_a   6.64641773
_cell_length_b   14.33298956
_cell_length_c   19.92824555
_cell_angle_alpha   90.29021914
_cell_angle_beta   92.40297618
_cell_angle_gamma   92.08408712
_symmetry_Int_Tables_number   1
_chemical_formula_structural   AlH3C8(SO3)2
_chemical_formula_sum   'Al4 H12 C32 S8 O24'
_cell_volume   1895.45986942
_cell_formula_units_Z   4
loop_
 _symmetry_equiv_pos_site_id
 _symmetry_equiv_pos_as_xyz
  1  'x, y, z'
loop_
 _atom_site_type_symbol
 _atom_site_label
 _atom_site_symmetry_multiplicity
 _atom_site_fract_x
 _atom_site_fract_y
 _atom_site_fract_z
 _atom_site_occupancy
  Al  Al0  1  0.97135536  0.00342614  0.50007622  1.0
  Al  Al1  1  0.47049213  0.99681564  0.50130721  1.0
  Al  Al2  1  0.02863345  0.50024985  0.00247765  1.0
  Al  Al3  1  0.52857075  0.50136376  0.00213800  1.0
  H  H4  1  0.19738624  0.88410725  0.47355999  1.0
  H  H5  1  0.71178117  0.11235551  0.46710499  1.0
  H  H6  1  0.28123544  0.61513636  0.97338947  1.0
  H  H7  1  0.76492171  0.38403301  0.97722515  1.0
  H  H8  1  0.46129256  0.70558963  0.84042778  1.0
  H  H9  1  0.96445104  0.29827926  0.15414056  1.0
  H  H10  1  0.55658435  0.28560609  0.84685895  1.0
  H  H11  1  0.47428409  0.69428835  0.15107106  1.0
  H  H12  1  0.19423318  0.76848383  0.67700706  1.0
  H  H13  1  0.69492385  0.22973966  0.32885998  1.0
  H  H14  1  0.80186809  0.23775258  0.67335304  1.0
  H  H15  1  0.18230837  0.77206177  0.33674209  1.0
  C  C16  1  0.70184308  0.88588614  0.41121297  1.0
  C  C17  1  0.73732143  0.89986618  0.59570713  1.0
  C  C18  1  0.24807426  0.10958642  0.59059172  1.0
  C  C19  1  0.21466510  0.10469777  0.40594474  1.0
  C  C20  1  0.80153497  0.60741375  0.09502089  1.0
  C  C21  1  0.77111423  0.60666055  0.90735855  1.0
  C  C22  1  0.25412030  0.38982491  0.90982085  1.0
  C  C23  1  0.28947265  0.39760313  0.09622877  1.0
  C  C24  1  0.90863744  0.79351610  0.68210373  1.0
  C  C25  1  0.60846512  0.70900205  0.81851193  1.0
  C  C26  1  0.74346412  0.84034549  0.65559667  1.0
  C  C27  1  0.77151709  0.66349643  0.84628111  1.0
  C  C28  1  0.66040765  0.75794560  0.76024605  1.0
  C  C29  1  0.86131343  0.74708656  0.74289705  1.0
  C  C30  1  0.40421436  0.20860007  0.32292106  1.0
  C  C31  1  0.11123859  0.29450432  0.18004163  1.0
  C  C32  1  0.23184649  0.16280475  0.34616838  1.0
  C  C33  1  0.28121543  0.34018515  0.15683740  1.0
  C  C34  1  0.15668845  0.24585313  0.23970748  1.0
  C  C35  1  0.36028842  0.25611420  0.26168388  1.0
  C  C36  1  0.08844186  0.21464748  0.67738277  1.0
  C  C37  1  0.40769609  0.28626969  0.82208499  1.0
  C  C38  1  0.24775703  0.16693221  0.65152459  1.0
  C  C39  1  0.25077655  0.33391899  0.84796302  1.0
  C  C40  1  0.34758636  0.24143127  0.76096997  1.0
  C  C41  1  0.14641760  0.25694367  0.74048362  1.0
  C  C42  1  0.89459954  0.78911000  0.32850792  1.0
  C  C43  1  0.61759590  0.70113264  0.17936183  1.0
  C  C44  1  0.72052305  0.82930914  0.35066743  1.0
  C  C45  1  0.79036340  0.66184496  0.15724623  1.0
  C  C46  1  0.65549855  0.74786595  0.24119994  1.0
  C  C47  1  0.85633157  0.74269113  0.26567672  1.0
  S  S48  1  0.53191045  0.82686595  0.70371508  1.0
  S  S49  1  0.98839792  0.67879575  0.80062671  1.0
  S  S50  1  0.01968884  0.17636510  0.29294444  1.0
  S  S51  1  0.49681749  0.32515068  0.20784527  1.0
  S  S52  1  0.46486312  0.17292060  0.70407565  1.0
  S  S53  1  0.02993846  0.32549157  0.79752821  1.0
  S  S54  1  0.51424786  0.81196947  0.29421585  1.0
  S  S55  1  0.99924587  0.68059186  0.21190922  1.0
  O  O56  1  0.86427047  0.90090924  0.44632409  1.0
  O  O57  1  0.56610019  0.90780981  0.56502268  1.0
  O  O58  1  0.41386763  0.07207172  0.57813671  1.0
  O  O59  1  0.03821153  0.07277798  0.41911218  1.0
  O  O60  1  0.08478718  0.10145962  0.55498115  1.0
  O  O61  1  0.37740989  0.09128407  0.43989339  1.0
  O  O62  1  0.52822868  0.91546881  0.42430733  1.0
  O  O63  1  0.90308874  0.93852237  0.57982180  1.0
  O  O64  1  0.21444780  0.94166695  0.49946156  1.0
  O  O65  1  0.72163879  0.05792020  0.49574386  1.0
  O  O66  1  0.97085449  0.57654467  0.07908117  1.0
  O  O67  1  0.59850838  0.57796017  0.92618130  1.0
  O  O68  1  0.42434990  0.40366755  0.94125680  1.0
  O  O69  1  0.12254306  0.40896892  0.06401069  1.0
  O  O70  1  0.08529396  0.42018859  0.92711002  1.0
  O  O71  1  0.46131592  0.43076895  0.08017487  1.0
  O  O72  1  0.63575650  0.59596371  0.06109930  1.0
  O  O73  1  0.94155312  0.59123117  0.93667866  1.0
  O  O74  1  0.28188650  0.55857540  0.99987757  1.0
  O  O75  1  0.77357563  0.44299190  0.00141462  1.0
  O  O76  1  0.08176537  0.79165903  0.64942403  1.0
  O  O77  1  0.58477095  0.20751721  0.35656730  1.0
  O  O78  1  0.90869890  0.21969286  0.64403769  1.0
  O  O79  1  0.07288358  0.79391737  0.36365643  1.0
