# generated using pymatgen
data_AlH7C12O5
_symmetry_space_group_name_H-M   'P 1'
_cell_length_a   6.64190805
_cell_length_b   11.10732330
_cell_length_c   11.10702119
_cell_angle_alpha   87.95009871
_cell_angle_beta   73.54883651
_cell_angle_gamma   73.56684265
_symmetry_Int_Tables_number   1
_chemical_formula_structural   AlH7C12O5
_chemical_formula_sum   'Al2 H14 C24 O10'
_cell_volume   752.88352907
_cell_formula_units_Z   2
loop_
 _symmetry_equiv_pos_site_id
 _symmetry_equiv_pos_as_xyz
  1  'x, y, z'
loop_
 _atom_site_type_symbol
 _atom_site_label
 _atom_site_symmetry_multiplicity
 _atom_site_fract_x
 _atom_site_fract_y
 _atom_site_fract_z
 _atom_site_occupancy
  Al  Al0  1  0.00029782  0.50058621  0.49897891  1.0
  Al  Al1  1  0.49988796  0.50476661  0.49559957  1.0
  H  H2  1  0.35351682  0.43699026  0.34700223  1.0
  H  H3  1  0.64778009  0.65271540  0.56338883  1.0
  H  H4  1  0.53216333  0.36395801  0.76820078  1.0
  H  H5  1  0.77831452  0.23962234  0.88430487  1.0
  H  H6  1  0.25267638  0.32172176  0.22785045  1.0
  H  H7  1  0.63523266  0.21371264  0.11510991  1.0
  H  H8  1  0.63079006  0.57772014  0.11022994  1.0
  H  H9  1  0.75591631  0.57033919  0.87533966  1.0
  H  H10  1  0.46671954  0.23110120  0.63630582  1.0
  H  H11  1  0.22176857  0.11473953  0.76152093  1.0
  H  H12  1  0.74866767  0.77192879  0.67920416  1.0
  H  H13  1  0.36614696  0.88413044  0.78772139  1.0
  H  H14  1  0.36891710  0.89025794  0.42192452  1.0
  H  H15  1  0.24260035  0.12503181  0.42857159  1.0
  C  C16  1  0.84843885  0.27599983  0.51097526  1.0
  C  C17  1  0.86447760  0.49357056  0.26775185  1.0
  C  C18  1  0.13654925  0.73223754  0.50693706  1.0
  C  C19  1  0.15027661  0.48834065  0.72394074  1.0
  C  C20  1  0.09041074  0.47683728  0.86329373  1.0
  C  C21  1  0.24551605  0.41531477  0.92953293  1.0
  C  C22  1  0.87168498  0.52865046  0.92826159  1.0
  C  C23  1  0.46982610  0.35470454  0.86843255  1.0
  C  C24  1  0.60759080  0.28552591  0.93407110  1.0
  C  C25  1  0.94551417  0.47562194  0.12791725  1.0
  C  C26  1  0.80052978  0.53079486  0.05989464  1.0
  C  C27  1  0.16810858  0.40929248  0.06414824  1.0
  C  C28  1  0.31367701  0.33341154  0.12767701  1.0
  C  C29  1  0.52777684  0.27214715  0.06423150  1.0
  C  C30  1  0.90854087  0.13666594  0.52268902  1.0
  C  C31  1  0.75395805  0.07022214  0.58478245  1.0
  C  C32  1  0.12732220  0.07191053  0.47067950  1.0
  C  C33  1  0.52959331  0.13098157  0.64567320  1.0
  C  C34  1  0.39249392  0.06517453  0.71533600  1.0
  C  C35  1  0.05473493  0.87209879  0.52462671  1.0
  C  C36  1  0.19910570  0.94036704  0.46893951  1.0
  C  C37  1  0.83204503  0.93566111  0.59109672  1.0
  C  C38  1  0.68715128  0.87198581  0.66745152  1.0
  C  C39  1  0.47301820  0.93514601  0.72890303  1.0
  O  O40  1  0.99784556  0.32890522  0.50497375  1.0
  O  O41  1  0.66277674  0.50226348  0.31994773  1.0
  O  O42  1  0.33912507  0.68053777  0.49624357  1.0
  O  O43  1  0.00254045  0.49091604  0.67076497  1.0
  O  O44  1  0.99880390  0.67456056  0.50056737  1.0
  O  O45  1  0.34002138  0.49824022  0.66766946  1.0
  O  O46  1  0.65674496  0.33267682  0.50448071  1.0
  O  O47  1  0.00182380  0.50204349  0.32484879  1.0
  O  O48  1  0.30377022  0.44965019  0.43795684  1.0
  O  O49  1  0.69676672  0.56179335  0.55051044  1.0
