# generated using pymatgen
data_Zn3H17C34I9O16
_symmetry_space_group_name_H-M   'P 1'
_cell_length_a   18.40228684
_cell_length_b   18.58023178
_cell_length_c   18.78449555
_cell_angle_alpha   109.07973710
_cell_angle_beta   108.97031703
_cell_angle_gamma   109.07112867
_symmetry_Int_Tables_number   1
_chemical_formula_structural   Zn3H17C34I9O16
_chemical_formula_sum   'Zn6 H34 C68 I18 O32'
_cell_volume   5021.56425762
_cell_formula_units_Z   2
loop_
 _symmetry_equiv_pos_site_id
 _symmetry_equiv_pos_as_xyz
  1  'x, y, z'
loop_
 _atom_site_type_symbol
 _atom_site_label
 _atom_site_symmetry_multiplicity
 _atom_site_fract_x
 _atom_site_fract_y
 _atom_site_fract_z
 _atom_site_occupancy
  Zn  Zn0  1  0.94685603  0.43035256  0.99746554  1.0
  Zn  Zn1  1  0.08126120  0.56327159  0.00928177  1.0
  Zn  Zn2  1  0.50078012  0.42806062  0.43853390  1.0
  Zn  Zn3  1  0.50094300  0.55810833  0.56476062  1.0
  Zn  Zn4  1  0.02988757  0.98528129  0.53314709  1.0
  Zn  Zn5  1  0.91196413  0.99989356  0.41342205  1.0
  H  H6  1  0.37974375  0.56440654  0.26915645  1.0
  H  H7  1  0.95921329  0.69880043  0.39184759  1.0
  H  H8  1  0.90904145  0.58079144  0.24823272  1.0
  H  H9  1  0.65313282  0.32257308  0.80045312  1.0
  H  H10  1  0.86072988  0.23589855  0.77976394  1.0
  H  H11  1  0.87103153  0.72090029  0.45119956  1.0
  H  H12  1  0.17887292  0.07656025  0.33359219  1.0
  H  H13  1  0.37248861  0.21318199  0.46462969  1.0
  H  H14  1  0.22278907  0.31031506  0.17336469  1.0
  H  H15  1  0.03376227  0.77955196  0.13017251  1.0
  H  H16  1  0.88039537  0.67562153  0.74959578  1.0
  H  H17  1  0.76680710  0.64884422  0.69725598  1.0
  H  H18  1  0.83133038  0.66539606  0.64422932  1.0
  H  H19  1  0.51319450  0.39273648  0.82963132  1.0
  H  H20  1  0.43249589  0.31278509  0.71915847  1.0
  H  H21  1  0.44007721  0.41855097  0.76551189  1.0
  H  H22  1  0.71646949  0.37716424  0.95309306  1.0
  H  H23  1  0.60186649  0.34692533  0.91041665  1.0
  H  H24  1  0.68312777  0.45162399  0.00191779  1.0
  H  H25  1  0.87767724  0.17071313  0.58337718  1.0
  H  H26  1  0.83437029  0.22297498  0.64456005  1.0
  H  H27  1  0.76127458  0.12567339  0.54292395  1.0
  H  H28  1  0.62005484  0.81147252  0.63497324  1.0
  H  H29  1  0.54397267  0.84550711  0.58975718  1.0
  H  H30  1  0.65605461  0.90127459  0.61368768  1.0
  H  H31  1  0.89232103  0.61021781  0.47189355  1.0
  H  H32  1  0.79903599  0.50511065  0.42513739  1.0
  H  H33  1  0.87022274  0.56639245  0.53979079  1.0
  H  H34  1  0.98416402  0.23722385  0.42421960  1.0
  H  H35  1  0.05733896  0.35201062  0.47073568  1.0
  H  H36  1  0.99271808  0.31548009  0.51813144  1.0
  H  H37  1  0.06556652  0.78315676  0.53596940  1.0
  H  H38  1  0.14201954  0.85738855  0.52062384  1.0
  H  H39  1  0.17242486  0.79229625  0.56412551  1.0
  C  C40  1  0.02339359  0.62733681  0.11678368  1.0
  C  C41  1  0.22928206  0.37511009  0.20103298  1.0
  C  C42  1  0.24289922  0.43842261  0.16273619  1.0
  C  C43  1  0.16976323  0.45827284  0.17718068  1.0
  C  C44  1  0.00939645  0.68431530  0.25173067  1.0
  C  C45  1  0.01910193  0.69327911  0.18405812  1.0
  C  C46  1  0.02463634  0.76952762  0.18129805  1.0
  C  C47  1  0.01410375  0.82976392  0.23941196  1.0
  C  C48  1  0.01038874  0.82357897  0.31135241  1.0
  C  C49  1  0.01481667  0.75210285  0.31782877  1.0
  C  C50  1  0.00864907  0.70357535  0.36999581  1.0
  C  C51  1  0.10329902  0.46638192  0.11444771  1.0
  C  C52  1  0.98066795  0.62205961  0.28475842  1.0
  C  C53  1  0.72517255  0.42988850  0.78006494  1.0
  C  C54  1  0.81396069  0.46753690  0.80269809  1.0
  C  C55  1  0.83559690  0.50457096  0.75247102  1.0
  C  C56  1  0.77140170  0.50692041  0.68766729  1.0
  C  C57  1  0.68214189  0.46635357  0.66529015  1.0
  C  C58  1  0.66160714  0.42813859  0.71346063  1.0
  C  C59  1  0.58837558  0.38145332  0.72712983  1.0
  C  C60  1  0.66213339  0.38649729  0.80768553  1.0
  C  C61  1  0.99570390  0.26562677  0.79904500  1.0
  C  C62  1  0.06131980  0.42150225  0.89780633  1.0
  C  C63  1  0.06562000  0.34964457  0.83653532  1.0
  C  C64  1  0.13045189  0.35506836  0.81002220  1.0
  C  C65  1  0.12279882  0.27924667  0.74872326  1.0
  C  C66  1  0.04616645  0.19778448  0.70495061  1.0
  C  C67  1  0.98461109  0.19424230  0.73291381  1.0
  C  C68  1  0.89437155  0.13430309  0.71558456  1.0
  C  C69  1  0.91058172  0.21545061  0.79596975  1.0
  C  C70  1  0.60125804  0.63161049  0.50869027  1.0
  C  C71  1  0.37817943  0.45873871  0.35905167  1.0
  C  C72  1  0.37696527  0.41423335  0.52971612  1.0
  C  C73  1  0.87844104  0.47108801  0.87839782  1.0
  C  C74  1  0.61616804  0.47110411  0.59727902  1.0
  C  C75  1  0.06535253  0.11931730  0.45889663  1.0
  C  C76  1  0.99756485  0.88296599  0.37565031  1.0
  C  C77  1  0.82299934  0.88560604  0.44784061  1.0
  C  C78  1  0.02489475  0.11737260  0.62984530  1.0
  C  C79  1  0.70440443  0.68080232  0.45332112  1.0
  C  C80  1  0.64854274  0.69421527  0.48538967  1.0
  C  C81  1  0.63709554  0.76683715  0.48854935  1.0
  C  C82  1  0.68542342  0.82532794  0.46657991  1.0
  C  C83  1  0.75208170  0.81799441  0.44869060  1.0
  C  C84  1  0.24522123  0.53679169  0.26917321  1.0
  C  C85  1  0.75588970  0.74178802  0.43897458  1.0
  C  C86  1  0.80001677  0.69208069  0.41097487  1.0
  C  C87  1  0.74188475  0.62112623  0.42874361  1.0
  C  C88  1  0.27419282  0.25830203  0.46514521  1.0
  C  C89  1  0.29462937  0.34454726  0.51322123  1.0
  C  C90  1  0.23283566  0.35423198  0.53946496  1.0
  C  C91  1  0.15474297  0.28089705  0.51535678  1.0
  C  C92  1  0.13938404  0.19528115  0.47126202  1.0
  C  C93  1  0.20153456  0.18658602  0.44782854  1.0
  C  C94  1  0.22491913  0.12221319  0.40194604  1.0
  C  C95  1  0.31568204  0.51609059  0.25338895  1.0
  C  C96  1  0.30803923  0.20280336  0.42345598  1.0
  C  C97  1  0.30205471  0.45255003  0.29241777  1.0
  C  C98  1  0.23077602  0.47369277  0.30851810  1.0
  C  C99  1  0.15796919  0.39540219  0.21631411  1.0
  C  C100  1  0.82001474  0.64085753  0.68735738  1.0
  C  C101  1  0.47705506  0.38281501  0.76481035  1.0
  C  C102  1  0.66890718  0.40130570  0.94085264  1.0
  C  C103  1  0.82516608  0.16025897  0.60104012  1.0
  C  C104  1  0.60118974  0.83810276  0.59207956  1.0
  C  C105  1  0.84078244  0.57068148  0.48149558  1.0
  C  C106  1  0.02840181  0.29948477  0.48425968  1.0
  C  C107  1  0.11850964  0.79370831  0.51832827  1.0
  I  I108  1  0.02701853  0.53179855  0.29626520  1.0
  I  I109  1  0.96131259  0.55274643  0.76232875  1.0
  I  I110  1  0.50432593  0.23770775  0.61893507  1.0
  I  I111  1  0.24075974  0.47591073  0.86149604  1.0
  I  I112  1  0.26646519  0.66554046  0.32299761  1.0
  I  I113  1  0.22546944  0.28296799  0.72078839  1.0
  I  I114  1  0.88379496  0.01751715  0.72512647  1.0
  I  I115  1  0.91925775  0.20723202  0.91055066  1.0
  I  I116  1  0.64724488  0.91737207  0.45524616  1.0
  I  I117  1  0.78048145  0.66309562  0.28251837  1.0
  I  I118  1  0.63956445  0.49218533  0.31129302  1.0
  I  I119  1  0.21957337  0.49710825  0.42069834  1.0
  I  I120  1  0.25094018  0.47521279  0.62077604  1.0
  I  I121  1  0.25129642  0.03921547  0.45360198  1.0
  I  I122  1  0.31231936  0.19936840  0.30812448  1.0
  I  I123  1  0.03812460  0.29762496  0.18953378  1.0
  I  I124  1  0.25416849  0.41199285  0.04968785  1.0
  I  I125  1  0.00571444  0.92934932  0.21241911  1.0
  O  O126  1  0.97207739  0.54789651  0.08905178  1.0
  O  O127  1  0.57922732  0.65912217  0.56633726  1.0
  O  O128  1  0.40788563  0.40668151  0.33481774  1.0
  O  O129  1  0.40947260  0.51696325  0.43535963  1.0
  O  O130  1  0.41409037  0.38821875  0.48854878  1.0
  O  O131  1  0.40617167  0.49464543  0.58167789  1.0
  O  O132  1  0.58759769  0.41661692  0.51893781  1.0
  O  O133  1  0.59457084  0.52835553  0.62409694  1.0
  O  O134  1  0.08688708  0.07933388  0.49746184  1.0
  O  O135  1  0.98581705  0.09887143  0.41017483  1.0
  O  O136  1  0.04088245  0.89937720  0.45362392  1.0
  O  O137  1  0.07935323  0.65709151  0.09297855  1.0
  O  O138  1  0.94510475  0.91071440  0.35097380  1.0
  O  O139  1  0.89982657  0.90032082  0.49323005  1.0
  O  O140  1  0.80455763  0.92312571  0.40337779  1.0
  O  O141  1  0.06695621  0.07592279  0.64472634  1.0
  O  O142  1  0.96470334  0.09467934  0.55758623  1.0
  O  O143  1  0.02198823  0.41343386  0.08322442  1.0
  O  O144  1  0.13463281  0.52577009  0.09682587  1.0
  O  O145  1  0.00041781  0.39523637  0.91608991  1.0
  O  O146  1  0.11346532  0.50228630  0.92747504  1.0
  O  O147  1  0.84823195  0.41328955  0.90023046  1.0
  O  O148  1  0.95718483  0.53073987  0.91748896  1.0
  O  O149  1  0.58720674  0.55445733  0.46993169  1.0
  O  O150  1  0.79456491  0.54919994  0.64426666  1.0
  O  O151  1  0.53654366  0.41761449  0.73578800  1.0
  O  O152  1  0.67715609  0.44198565  0.88889267  1.0
  O  O153  1  0.82085159  0.10332005  0.63825729  1.0
  O  O154  1  0.57302954  0.77643373  0.50490978  1.0
  O  O155  1  0.78790491  0.61057167  0.49478826  1.0
  O  O156  1  0.09629352  0.29187734  0.54210070  1.0
  O  O157  1  0.08895155  0.72487128  0.43587066  1.0
