# generated using pymatgen
data_Zn4H21C30N3O13
_symmetry_space_group_name_H-M   'P 1'
_cell_length_a   18.36631514
_cell_length_b   18.39409102
_cell_length_c   18.41395364
_cell_angle_alpha   60.26357944
_cell_angle_beta   89.50302907
_cell_angle_gamma   119.54415613
_symmetry_Int_Tables_number   1
_chemical_formula_structural   Zn4H21C30N3O13
_chemical_formula_sum   'Zn8 H42 C60 N6 O26'
_cell_volume   4427.34028533
_cell_formula_units_Z   2
loop_
 _symmetry_equiv_pos_site_id
 _symmetry_equiv_pos_as_xyz
  1  'x, y, z'
loop_
 _atom_site_type_symbol
 _atom_site_label
 _atom_site_symmetry_multiplicity
 _atom_site_fract_x
 _atom_site_fract_y
 _atom_site_fract_z
 _atom_site_occupancy
  Zn  Zn0  1  0.13081861  0.08550053  0.45628978  1.0
  Zn  Zn1  1  0.95835836  0.08666190  0.45825446  1.0
  Zn  Zn2  1  0.95666796  0.91169140  0.63116169  1.0
  Zn  Zn3  1  0.95436023  0.90943578  0.46059516  1.0
  Zn  Zn4  1  0.36587522  0.91194270  0.04863476  1.0
  Zn  Zn5  1  0.54117118  0.08839715  0.87445572  1.0
  Zn  Zn6  1  0.54142599  0.91316448  0.04735397  1.0
  Zn  Zn7  1  0.54018601  0.08414992  0.04885486  1.0
  H  H8  1  0.21721971  0.82740729  0.32492840  1.0
  H  H9  1  0.69943176  0.11269673  0.20893107  1.0
  H  H10  1  0.66626694  0.79297981  0.23632530  1.0
  H  H11  1  0.76474830  0.89462740  0.14189820  1.0
  H  H12  1  0.75708800  0.79065966  0.33619965  1.0
  H  H13  1  0.77554702  0.86496253  0.82066612  1.0
  H  H14  1  0.68116737  0.86956865  0.91377757  1.0
  H  H15  1  0.68348450  0.16201527  0.62096964  1.0
  H  H16  1  0.78180567  0.23791459  0.63553499  1.0
  H  H17  1  0.22262796  0.04980991  0.10912540  1.0
  H  H18  1  0.12409122  0.59401487  0.25314994  1.0
  H  H19  1  0.46496326  0.11087878  0.63169104  1.0
  H  H20  1  0.12648938  0.59421226  0.15634049  1.0
  H  H21  1  0.02844026  0.40187108  0.34902472  1.0
  H  H22  1  0.03157526  0.40148163  0.25257922  1.0
  H  H23  1  0.27669103  0.16796424  0.18088500  1.0
  H  H24  1  0.26879642  0.94527018  0.39624449  1.0
  H  H25  1  0.17872053  0.88799223  0.91469365  1.0
  H  H26  1  0.37505005  0.05225086  0.54583301  1.0
  H  H27  1  0.33822933  0.11631124  0.48098837  1.0
  H  H28  1  0.78825445  0.44675032  0.94803920  1.0
  H  H29  1  0.71204969  0.32662048  0.96999980  1.0
  H  H30  1  0.37760949  0.21788750  0.53628648  1.0
  H  H31  1  0.05734317  0.82521022  0.25228957  1.0
  H  H32  1  0.02818143  0.82439612  0.33910208  1.0
  H  H33  1  0.91118757  0.95361944  0.17163522  1.0
  H  H34  1  0.91399064  0.88946125  0.27138922  1.0
  H  H35  1  0.77058077  0.14806865  0.52993254  1.0
  H  H36  1  0.92361748  0.27431761  0.56276869  1.0
  H  H37  1  0.92746056  0.23974949  0.49712960  1.0
  H  H38  1  0.31982449  0.40569398  0.30193355  1.0
  H  H39  1  0.41346270  0.59571310  0.20692469  1.0
  H  H40  1  0.40155524  0.11963005  0.22840141  1.0
  H  H41  1  0.84490889  0.60023627  0.80857236  1.0
  H  H42  1  0.08576842  0.88887701  0.81705716  1.0
  H  H43  1  0.52085957  0.22881043  0.67086253  1.0
  H  H44  1  0.46052245  0.27009301  0.62843419  1.0
  H  H45  1  0.67826110  0.39470892  0.63223893  1.0
  H  H46  1  0.59081065  0.39684954  0.67148916  1.0
  H  H47  1  0.77353635  0.58676974  0.53074426  1.0
  H  H48  1  0.68527250  0.58820682  0.56941950  1.0
  H  H49  1  0.79907267  0.11657337  0.29970987  1.0
  C  C50  1  0.86821937  0.00521213  0.35820965  1.0
  C  C51  1  0.21005713  0.93748458  0.84275676  1.0
  C  C52  1  0.30372917  0.00033032  0.80712733  1.0
  C  C53  1  0.13973069  0.00093785  0.63748785  1.0
  C  C54  1  0.34110891  0.06213595  0.71473108  1.0
  C  C55  1  0.42901288  0.14258831  0.63634627  1.0
  C  C56  1  0.36989246  0.14427492  0.57405817  1.0
  C  C57  1  0.75350913  0.55034014  0.66703283  1.0
  C  C58  1  0.80596535  0.60884147  0.69684330  1.0
  C  C59  1  0.80418427  0.55583767  0.78431057  1.0
  C  C60  1  0.75218000  0.44781437  0.84228724  1.0
  C  C61  1  0.23285083  0.02712136  0.17330719  1.0
  C  C62  1  0.69749731  0.38847346  0.81135209  1.0
  C  C63  1  0.70156160  0.44433794  0.72314879  1.0
  C  C64  1  0.66280763  0.43276624  0.65410597  1.0
  C  C65  1  0.13933634  0.27609820  0.36566969  1.0
  C  C66  1  0.72228282  0.55341336  0.59021887  1.0
  C  C67  1  0.78648054  0.94447509  0.26953681  1.0
  C  C68  1  0.81212858  0.00591166  0.30059988  1.0
  C  C69  1  0.77993632  0.06747317  0.27666749  1.0
  C  C70  1  0.72410943  0.06521973  0.22590523  1.0
  C  C71  1  0.69746875  0.00185365  0.19560200  1.0
  C  C72  1  0.26391492  0.09255815  0.21186936  1.0
  C  C73  1  0.73110100  0.94294268  0.21802966  1.0
  C  C74  1  0.73119476  0.86523564  0.20939710  1.0
  C  C75  1  0.79188771  0.86328902  0.26982652  1.0
  C  C76  1  0.78378009  0.07079016  0.66104231  1.0
  C  C77  1  0.86158462  0.72234139  0.63990572  1.0
  C  C78  1  0.80142558  0.99674434  0.69716079  1.0
  C  C79  1  0.76297095  0.92385972  0.79003966  1.0
  C  C80  1  0.71016564  0.92652676  0.84215269  1.0
  C  C81  1  0.69291934  0.00219519  0.80495879  1.0
  C  C82  1  0.73165109  0.07429903  0.71314645  1.0
  C  C83  1  0.33231408  0.06571507  0.23947216  1.0
  C  C84  1  0.74408665  0.16987472  0.63479583  1.0
  C  C85  1  0.80212447  0.16588003  0.57467416  1.0
  C  C86  1  0.15812869  0.44541629  0.28071371  1.0
  C  C87  1  0.19504798  0.38962698  0.30921091  1.0
  C  C88  1  0.28880097  0.44690946  0.28104631  1.0
  C  C89  1  0.85848314  0.99519283  0.64109414  1.0
  C  C90  1  0.34127226  0.55335210  0.22780046  1.0
  C  C91  1  0.30337090  0.60932986  0.19924088  1.0
  C  C92  1  0.21084191  0.55221260  0.22717203  1.0
  C  C93  1  0.13151106  0.55838856  0.22292253  1.0
  C  C94  1  0.25990197  0.96842019  0.33150783  1.0
  C  C95  1  0.07187735  0.43765558  0.28335113  1.0
  C  C96  1  0.63885912  0.27625295  0.86722239  1.0
  C  C97  1  0.36009531  0.72298070  0.14257660  1.0
  C  C98  1  0.35920632  0.99926319  0.86558374  1.0
  C  C99  1  0.63712256  0.99946689  0.14221593  1.0
  C  C100  1  0.63717041  0.00363771  0.86265764  1.0
  C  C101  1  0.13467049  0.99378082  0.36385337  1.0
  C  C102  1  0.35942395  0.00166269  0.14280856  1.0
  C  C103  1  0.15943688  0.92990626  0.26542287  1.0
  C  C104  1  0.22919629  0.90258262  0.29356525  1.0
  C  C105  1  0.19045525  0.99523549  0.30408296  1.0
  C  C106  1  0.30216947  0.00060319  0.20100001  1.0
  C  C107  1  0.28908758  0.06280648  0.66004030  1.0
  C  C108  1  0.19644668  0.00073119  0.69465634  1.0
  C  C109  1  0.15798891  0.93772921  0.78809360  1.0
  N  N110  1  0.38451720  0.12187351  0.51220639  1.0
  N  N111  1  0.75730613  0.40305390  0.92566967  1.0
  N  N112  1  0.06900925  0.86893326  0.27521576  1.0
  N  N113  1  0.87533375  0.88476276  0.23215325  1.0
  N  N114  1  0.89275366  0.25645243  0.52241572  1.0
  N  N115  1  0.49245048  0.23993115  0.62232865  1.0
  O  O116  1  0.00070737  0.99896151  0.50113439  1.0
  O  O117  1  0.61928273  0.94217938  0.11553717  1.0
  O  O118  1  0.62212524  0.07232573  0.82352720  1.0
  O  O119  1  0.89589752  0.94884178  0.37440899  1.0
  O  O120  1  0.44319607  0.06830518  0.11481636  1.0
  O  O121  1  0.60914987  0.93643404  0.94611231  1.0
  O  O122  1  0.31931537  0.93557042  0.12525671  1.0
  O  O123  1  0.31911711  0.94085315  0.94929906  1.0
  O  O124  1  0.60806834  0.05417914  0.12743877  1.0
  O  O125  1  0.60070142  0.23246614  0.82918510  1.0
  O  O126  1  0.44406948  0.76747673  0.12292604  1.0
  O  O127  1  0.17892923  0.23151298  0.38961753  1.0
  O  O128  1  0.17969396  0.05426392  0.55391478  1.0
  O  O129  1  0.05525821  0.23236323  0.38564352  1.0
  O  O130  1  0.89888493  0.76793081  0.67664157  1.0
  O  O131  1  0.88940315  0.06504362  0.55770721  1.0
  O  O132  1  0.05249511  0.91887667  0.40301170  1.0
  O  O133  1  0.87253582  0.92576395  0.67975020  1.0
  O  O134  1  0.17437215  0.06702659  0.37304956  1.0
  O  O135  1  0.86770705  0.76558182  0.55803503  1.0
  O  O136  1  0.88364227  0.05986592  0.38723735  1.0
  O  O137  1  0.05628048  0.94844623  0.67611991  1.0
  O  O138  1  0.49627546  0.99860374  0.00453358  1.0
  O  O139  1  0.62851955  0.22832841  0.95078891  1.0
  O  O140  1  0.31945682  0.76644489  0.11847848  1.0
  O  O141  1  0.44327400  0.05777268  0.82610919  1.0
