# generated using pymatgen
data_ZnH17C27NO10
_symmetry_space_group_name_H-M   'P 1'
_cell_length_a   14.71013604
_cell_length_b   15.52101591
_cell_length_c   16.12004227
_cell_angle_alpha   88.64295493
_cell_angle_beta   87.53569301
_cell_angle_gamma   64.69186638
_symmetry_Int_Tables_number   1
_chemical_formula_structural   ZnH17C27NO10
_chemical_formula_sum   'Zn2 H34 C54 N2 O20'
_cell_volume   3324.08900495
_cell_formula_units_Z   2
loop_
 _symmetry_equiv_pos_site_id
 _symmetry_equiv_pos_as_xyz
  1  'x, y, z'
loop_
 _atom_site_type_symbol
 _atom_site_label
 _atom_site_symmetry_multiplicity
 _atom_site_fract_x
 _atom_site_fract_y
 _atom_site_fract_z
 _atom_site_occupancy
  Zn  Zn0  1  0.40834357  0.50399493  0.50656902  1.0
  Zn  Zn1  1  0.60545630  0.48679839  0.49325006  1.0
  H  H2  1  0.23113743  0.12504046  0.46480112  1.0
  H  H3  1  0.62704137  0.96640063  0.74615024  1.0
  H  H4  1  0.34195011  0.19627652  0.50785939  1.0
  H  H5  1  0.53376364  0.88373327  0.70078315  1.0
  H  H6  1  0.38373572  0.46303035  0.92177898  1.0
  H  H7  1  0.60653625  0.56284132  0.07668120  1.0
  H  H8  1  0.90943785  0.53775471  0.36786259  1.0
  H  H9  1  0.09329065  0.47610302  0.63020298  1.0
  H  H10  1  0.62704309  0.05021744  0.38946316  1.0
  H  H11  1  0.51168025  0.04127786  0.40900001  1.0
  H  H12  1  0.52833711  0.10086820  0.31845293  1.0
  H  H13  1  0.42298214  0.22233440  0.42393469  1.0
  H  H14  1  0.53580167  0.22897551  0.39842282  1.0
  H  H15  1  0.64152956  0.69236366  0.54645353  1.0
  H  H16  1  0.64298283  0.79180107  0.59844715  1.0
  H  H17  1  0.67080742  0.68295754  0.65326946  1.0
  H  H18  1  0.49342300  0.79288159  0.69133415  1.0
  H  H19  1  0.50031531  0.69621511  0.63531952  1.0
  H  H20  1  0.76530560  0.29956690  0.69782726  1.0
  H  H21  1  0.32970544  0.67314201  0.34352089  1.0
  H  H22  1  0.14610363  0.99200011  0.29979482  1.0
  H  H23  1  0.73564685  0.04416889  0.84599271  1.0
  H  H24  1  0.27756381  0.58871629  0.16580522  1.0
  H  H25  1  0.21688628  0.59782056  0.07107546  1.0
  H  H26  1  0.19982697  0.52716152  0.15296462  1.0
  H  H27  1  0.32253221  0.42123891  0.04714533  1.0
  H  H28  1  0.38297897  0.41393042  0.14136706  1.0
  H  H29  1  0.52974680  0.67708726  0.82847778  1.0
  H  H30  1  0.55099973  0.72443942  0.92134242  1.0
  H  H31  1  0.64297773  0.69058196  0.83843992  1.0
  H  H32  1  0.69699213  0.56594335  0.95073318  1.0
  H  H33  1  0.67497120  0.51975501  0.85801111  1.0
  H  H34  1  0.18666550  0.57524050  0.29296598  1.0
  H  H35  1  0.79878441  0.47504685  0.71011779  1.0
  C  C36  1  0.49171762  0.50616923  0.33887273  1.0
  C  C37  1  0.51883904  0.49013431  0.66041675  1.0
  C  C38  1  0.43653631  0.67814342  0.51079978  1.0
  C  C39  1  0.57532706  0.31460515  0.50849143  1.0
  C  C40  1  0.39639347  0.78509655  0.51486553  1.0
  C  C41  1  0.59505904  0.21814213  0.54463177  1.0
  C  C42  1  0.28109302  0.93706346  0.45979601  1.0
  C  C43  1  0.65644890  0.10992041  0.66240924  1.0
  C  C44  1  0.31738688  0.83856981  0.46193179  1.0
  C  C45  1  0.65977607  0.18317897  0.61207227  1.0
  C  C46  1  0.43821938  0.82734770  0.56795208  1.0
  C  C47  1  0.53665529  0.17194605  0.52008294  1.0
  C  C48  1  0.40980148  0.92784262  0.56005400  1.0
  C  C49  1  0.52494394  0.10416274  0.57538386  1.0
  C  C50  1  0.32902871  0.98219116  0.50597832  1.0
  C  C51  1  0.58797571  0.07006903  0.64520686  1.0
  C  C52  1  0.46428106  0.97712416  0.59592131  1.0
  C  C53  1  0.45209034  0.06632848  0.56165740  1.0
  C  C54  1  0.36257282  0.12100114  0.51910343  1.0
  C  C55  1  0.52971899  0.94469184  0.66436163  1.0
  C  C56  1  0.30085271  0.08176129  0.49515035  1.0
  C  C57  1  0.58386251  0.99154830  0.69051574  1.0
  C  C58  1  0.43144422  0.48575971  0.95681870  1.0
  C  C59  1  0.55737784  0.54197799  0.04164056  1.0
  C  C60  1  0.50130924  0.51089803  0.91239378  1.0
  C  C61  1  0.48847831  0.51548247  0.08610497  1.0
  C  C62  1  0.56494727  0.54084929  0.95534105  1.0
  C  C63  1  0.42309646  0.48778930  0.04305906  1.0
  C  C64  1  0.50856811  0.50377775  0.82491278  1.0
  C  C65  1  0.48750520  0.51409839  0.17390978  1.0
  C  C66  1  0.48897409  0.51080556  0.24949176  1.0
  C  C67  1  0.51501921  0.49604696  0.74961137  1.0
  C  C68  1  0.04151913  0.52981773  0.42443861  1.0
  C  C69  1  0.95953882  0.48731008  0.57421893  1.0
  C  C70  1  0.09420481  0.51095799  0.49900082  1.0
  C  C71  1  0.90841687  0.50297952  0.49903084  1.0
  C  C72  1  0.05288326  0.49016707  0.57266906  1.0
  C  C73  1  0.94932424  0.52457169  0.42559756  1.0
  C  C74  1  0.19042770  0.51084906  0.50468156  1.0
  C  C75  1  0.81631667  0.49499598  0.49224582  1.0
  C  C76  1  0.50455705  0.18407657  0.43031535  1.0
  C  C77  1  0.54503266  0.08823635  0.38460593  1.0
  C  C78  1  0.51231731  0.76120858  0.62914904  1.0
  C  C79  1  0.62378751  0.73098408  0.60536659  1.0
  C  C80  1  0.73700697  0.22086357  0.62659475  1.0
  C  C81  1  0.27469903  0.78449627  0.41207795  1.0
  C  C82  1  0.19661194  0.99449176  0.40498036  1.0
  C  C83  1  0.72644040  0.07705048  0.73271391  1.0
  C  C84  1  0.34705177  0.46149652  0.08901115  1.0
  C  C85  1  0.25485793  0.54891925  0.12190479  1.0
  C  C86  1  0.63800283  0.57062492  0.90878674  1.0
  C  C87  1  0.58733374  0.67169995  0.87207468  1.0
  C  C88  1  0.07714606  0.55501383  0.34252615  1.0
  C  C89  1  0.92017466  0.46906527  0.65710362  1.0
  N  N90  1  0.74303882  0.48723021  0.48031395  1.0
  N  N91  1  0.26913083  0.50749103  0.51608658  1.0
  O  O92  1  0.40665048  0.53083370  0.37826296  1.0
  O  O93  1  0.58937645  0.50374298  0.62185314  1.0
  O  O94  1  0.57730420  0.47867597  0.37017340  1.0
  O  O95  1  0.45075551  0.47297280  0.62831051  1.0
  O  O96  1  0.37497413  0.64247624  0.53027524  1.0
  O  O97  1  0.64184234  0.34586958  0.51329484  1.0
  O  O98  1  0.52754569  0.63276676  0.48593072  1.0
  O  O99  1  0.48674296  0.36280334  0.48237594  1.0
  O  O100  1  0.81532957  0.19804250  0.58628282  1.0
  O  O101  1  0.70974266  0.28129058  0.69258890  1.0
  O  O102  1  0.19024711  0.78873505  0.42149111  1.0
  O  O103  1  0.34623085  0.72603949  0.35794254  1.0
  O  O104  1  0.12540820  0.06983667  0.42304482  1.0
  O  O105  1  0.20769969  0.95338902  0.32900049  1.0
  O  O106  1  0.81364809  0.06657556  0.72926657  1.0
  O  O107  1  0.68272120  0.06272406  0.80532336  1.0
  O  O108  1  0.02926622  0.56996948  0.27968738  1.0
  O  O109  1  0.16657606  0.55850477  0.34765532  1.0
  O  O110  1  0.97052948  0.44484917  0.71869572  1.0
  O  O111  1  0.82254510  0.48529129  0.65465813  1.0
