# generated using pymatgen
data_AlH8C13NO7
_symmetry_space_group_name_H-M   'P 1'
_cell_length_a   6.80918168
_cell_length_b   11.06093105
_cell_length_c   17.52715223
_cell_angle_alpha   80.07324430
_cell_angle_beta   81.59270104
_cell_angle_gamma   73.31737850
_symmetry_Int_Tables_number   1
_chemical_formula_structural   AlH8C13NO7
_chemical_formula_sum   'Al2 H16 C26 N2 O14'
_cell_volume   1239.01837595
_cell_formula_units_Z   2
loop_
 _symmetry_equiv_pos_site_id
 _symmetry_equiv_pos_as_xyz
  1  'x, y, z'
loop_
 _atom_site_type_symbol
 _atom_site_label
 _atom_site_symmetry_multiplicity
 _atom_site_fract_x
 _atom_site_fract_y
 _atom_site_fract_z
 _atom_site_occupancy
  Al  Al0  1  0.50386492  0.49913213  0.49947208  1.0
  Al  Al1  1  0.00338360  0.49931650  0.50014745  1.0
  H  H2  1  0.29792258  0.35555620  0.56728804  1.0
  H  H3  1  0.70958085  0.64368462  0.43292014  1.0
  H  H4  1  0.36280165  0.88512076  0.52850933  1.0
  H  H5  1  0.64568713  0.11316745  0.47218099  1.0
  H  H6  1  0.40366492  0.41743191  0.72825681  1.0
  H  H7  1  0.32015027  0.41763935  0.87205106  1.0
  H  H8  1  0.90254726  0.58084382  0.73251015  1.0
  H  H9  1  0.09514556  0.41974961  0.26931392  1.0
  H  H10  1  0.59707504  0.58289187  0.26851661  1.0
  H  H11  1  0.66994794  0.58457295  0.12424575  1.0
  H  H12  1  0.97047870  0.63784156  0.84965597  1.0
  H  H13  1  0.74565428  0.68648316  0.91536846  1.0
  H  H14  1  0.91780625  0.53490081  0.93548342  1.0
  H  H15  1  0.06384918  0.46833172  0.06749598  1.0
  H  H16  1  0.23783776  0.31677746  0.08522917  1.0
  H  H17  1  0.01819127  0.36389236  0.15347462  1.0
  C  C18  1  0.71060479  0.49312605  0.63734721  1.0
  C  C19  1  0.85205120  0.27525181  0.49529479  1.0
  C  C20  1  0.29460293  0.50547963  0.36226339  1.0
  C  C21  1  0.15603042  0.72316936  0.50469693  1.0
  C  C22  1  0.93251100  0.13391197  0.49502994  1.0
  C  C23  1  0.07595675  0.86439018  0.50553370  1.0
  C  C24  1  0.13431298  0.06731736  0.50981089  1.0
  C  C25  1  0.87404477  0.93100893  0.49096839  1.0
  C  C26  1  0.20619188  0.93576156  0.51595697  1.0
  C  C27  1  0.80223476  0.06251387  0.48476336  1.0
  C  C28  1  0.65954926  0.49776339  0.72245519  1.0
  C  C29  1  0.49321413  0.45318819  0.76137569  1.0
  C  C30  1  0.44659428  0.45413986  0.84093762  1.0
  C  C31  1  0.56229072  0.50226793  0.88304632  1.0
  C  C32  1  0.72801613  0.55066473  0.84376935  1.0
  C  C33  1  0.77485468  0.54579699  0.76397615  1.0
  C  C34  1  0.51292629  0.50173008  0.96419978  1.0
  C  C35  1  0.47163360  0.50072623  0.03452411  1.0
  C  C36  1  0.42614827  0.49982266  0.11584734  1.0
  C  C37  1  0.26224526  0.45114331  0.15663273  1.0
  C  C38  1  0.22136770  0.45493022  0.23663591  1.0
  C  C39  1  0.34059936  0.50214095  0.27691242  1.0
  C  C40  1  0.50462440  0.54747735  0.23646997  1.0
  C  C41  1  0.54530764  0.54763201  0.15664200  1.0
  C  C42  1  0.84762291  0.60543716  0.88788167  1.0
  C  C43  1  0.13831877  0.39711289  0.11397734  1.0
  N  N44  1  0.28666157  0.13735236  0.51185068  1.0
  N  N45  1  0.72137848  0.86115916  0.48899570  1.0
  O  O46  1  0.57871244  0.46650631  0.60259742  1.0
  O  O47  1  0.97929696  0.32928635  0.51152038  1.0
  O  O48  1  0.12456767  0.48537202  0.39492297  1.0
  O  O49  1  0.34227182  0.67116174  0.51664095  1.0
  O  O50  1  0.42892551  0.53105124  0.39629365  1.0
  O  O51  1  0.02783830  0.66938397  0.48895770  1.0
  O  O52  1  0.88133058  0.51328551  0.60549371  1.0
  O  O53  1  0.66644935  0.32718115  0.48238054  1.0
  O  O54  1  0.26914728  0.43829861  0.53521190  1.0
  O  O55  1  0.73825068  0.56040490  0.46440534  1.0
  O  O56  1  0.35839021  0.18019772  0.44728577  1.0
  O  O57  1  0.34047916  0.14216676  0.57549839  1.0
  O  O58  1  0.66697815  0.85666105  0.42539737  1.0
  O  O59  1  0.64972454  0.81827397  0.55356508  1.0
