# generated using pymatgen
data_CrH5C8O5
_symmetry_space_group_name_H-M   'P 1'
_cell_length_a   6.89634836
_cell_length_b   11.23727786
_cell_length_c   11.23731521
_cell_angle_alpha   70.24671241
_cell_angle_beta   72.14072081
_cell_angle_gamma   72.14111411
_symmetry_Int_Tables_number   1
_chemical_formula_structural   CrH5C8O5
_chemical_formula_sum   'Cr2 H10 C16 O10'
_cell_volume   759.81120387
_cell_formula_units_Z   2
loop_
 _symmetry_equiv_pos_site_id
 _symmetry_equiv_pos_as_xyz
  1  'x, y, z'
loop_
 _atom_site_type_symbol
 _atom_site_label
 _atom_site_symmetry_multiplicity
 _atom_site_fract_x
 _atom_site_fract_y
 _atom_site_fract_z
 _atom_site_occupancy
  Cr  Cr0  1  0.49999346  0.50001203  0.00001889  1.0
  Cr  Cr1  1  0.00003036  0.49992710  0.00001353  1.0
  H  H2  1  0.62802243  0.11625698  0.00510054  1.0
  H  H3  1  0.87196331  0.49490160  0.38373875  1.0
  H  H4  1  0.75040741  0.50524089  0.61637779  1.0
  H  H5  1  0.74958535  0.88361834  0.99476049  1.0
  H  H6  1  0.37197756  0.88375381  0.99486478  1.0
  H  H7  1  0.12800624  0.50514177  0.61625012  1.0
  H  H8  1  0.24959609  0.49480536  0.38361355  1.0
  H  H9  1  0.25039090  0.11638667  0.00520316  1.0
  H  H10  1  0.24999668  0.35524795  0.14482834  1.0
  H  H11  1  0.74997544  0.64482477  0.85528217  1.0
  C  C12  1  0.70964715  0.49700358  0.43590735  1.0
  C  C13  1  0.79034065  0.06408935  0.00299716  1.0
  C  C14  1  0.85756847  0.93586912  0.99686587  1.0
  C  C15  1  0.64242636  0.50313513  0.56412975  1.0
  C  C16  1  0.29033125  0.50304471  0.56407558  1.0
  C  C17  1  0.20966039  0.93591866  0.99695907  1.0
  C  C18  1  0.14242161  0.06414380  0.00308458  1.0
  C  C19  1  0.35757083  0.49691996  0.43585099  1.0
  C  C20  1  0.56766167  0.49370526  0.37108649  1.0
  C  C21  1  0.63936320  0.48831017  0.23307030  1.0
  C  C22  1  0.93233888  0.12890360  0.00629731  1.0
  C  C23  1  0.86060977  0.26691890  0.01169047  1.0
  C  C24  1  0.06764743  0.87109073  0.99366883  1.0
  C  C25  1  0.13938293  0.73301724  0.98828724  1.0
  C  C26  1  0.43233297  0.50633618  0.62890185  1.0
  C  C27  1  0.36062661  0.51171124  0.76696999  1.0
  O  O28  1  0.50157911  0.48600073  0.18023763  1.0
  O  O29  1  0.99844394  0.31971289  0.01401942  1.0
  O  O30  1  0.33228740  0.68019216  0.98597635  1.0
  O  O31  1  0.16771695  0.51399233  0.81981695  1.0
  O  O32  1  0.49835734  0.51402879  0.81984740  1.0
  O  O33  1  0.00164710  0.68011841  0.98598565  1.0
  O  O34  1  0.66772058  0.31979701  0.01401499  1.0
  O  O35  1  0.83228631  0.48596424  0.18022508  1.0
  O  O36  1  0.75004224  0.56976061  0.93019933  1.0
  O  O37  1  0.25004279  0.43020159  0.06978280  1.0
