# generated using pymatgen
data_ZnH8C22Br5NO10
_symmetry_space_group_name_H-M   'P 1'
_cell_length_a   14.76428510
_cell_length_b   15.06053184
_cell_length_c   15.52674115
_cell_angle_alpha   83.88830350
_cell_angle_beta   62.41293912
_cell_angle_gamma   86.73986989
_symmetry_Int_Tables_number   1
_chemical_formula_structural   ZnH8C22Br5NO10
_chemical_formula_sum   'Zn2 H16 C44 Br10 N2 O20'
_cell_volume   3042.47018233
_cell_formula_units_Z   2
loop_
 _symmetry_equiv_pos_site_id
 _symmetry_equiv_pos_as_xyz
  1  'x, y, z'
loop_
 _atom_site_type_symbol
 _atom_site_label
 _atom_site_symmetry_multiplicity
 _atom_site_fract_x
 _atom_site_fract_y
 _atom_site_fract_z
 _atom_site_occupancy
  Zn  Zn0  1  0.59789191  0.48628565  0.49667290  1.0
  Zn  Zn1  1  0.37640404  0.49755366  0.51995378  1.0
  H  H2  1  0.56066055  0.45934216  0.77399737  1.0
  H  H3  1  0.50631133  0.54684172  0.21577715  1.0
  H  H4  1  0.40796231  0.77302668  0.41318562  1.0
  H  H5  1  0.31920726  0.22330624  0.60276327  1.0
  H  H6  1  0.74987642  0.30111480  0.87275259  1.0
  H  H7  1  0.34898703  0.72360722  0.10528751  1.0
  H  H8  1  0.05072953  0.62391877  0.38305648  1.0
  H  H9  1  0.99140872  0.34724851  0.54108383  1.0
  H  H10  1  0.89950154  0.44031621  0.68571979  1.0
  H  H11  1  0.89010227  0.70579459  0.46801330  1.0
  H  H12  1  0.27613273  0.52914997  0.75876006  1.0
  H  H13  1  0.77379303  0.46531029  0.25996685  1.0
  H  H14  1  0.51363880  0.99953754  0.61900803  1.0
  H  H15  1  0.62042485  0.98005381  0.38097713  1.0
  H  H16  1  0.41733590  0.01062440  0.38525759  1.0
  H  H17  1  0.30695585  0.98587919  0.62946547  1.0
  C  C18  1  0.45516680  0.65784228  0.52576733  1.0
  C  C19  1  0.47128711  0.32967172  0.48759731  1.0
  C  C20  1  0.62223949  0.41694462  0.91843899  1.0
  C  C21  1  0.47185409  0.60380848  0.06082781  1.0
  C  C22  1  0.69764326  0.40029089  0.94824124  1.0
  C  C23  1  0.39338779  0.62038142  0.03582309  1.0
  C  C24  1  0.48866361  0.89362078  0.57671017  1.0
  C  C25  1  0.55440658  0.08986764  0.42650582  1.0
  C  C26  1  0.48427621  0.79997626  0.58586433  1.0
  C  C27  1  0.55704797  0.18352923  0.41838229  1.0
  C  C28  1  0.45668383  0.75764213  0.52526144  1.0
  C  C29  1  0.47206603  0.23037914  0.48365946  1.0
  C  C30  1  0.43176746  0.80726425  0.45760150  1.0
  C  C31  1  0.38476745  0.18529330  0.55430395  1.0
  C  C32  1  0.43626497  0.90012453  0.44836481  1.0
  C  C33  1  0.38245182  0.09235716  0.56284127  1.0
  C  C34  1  0.46524053  0.94441812  0.50739918  1.0
  C  C35  1  0.46757954  0.04348335  0.49950081  1.0
  C  C36  1  0.11684261  0.54874563  0.44455953  1.0
  C  C37  1  0.88579095  0.41972240  0.52872085  1.0
  C  C38  1  0.20973777  0.54582547  0.44945329  1.0
  C  C39  1  0.79398006  0.42019421  0.52126789  1.0
  C  C40  1  0.60494529  0.50840153  0.31768172  1.0
  C  C41  1  0.44293051  0.48096148  0.69189732  1.0
  C  C42  1  0.14049977  0.46226235  0.59852040  1.0
  C  C43  1  0.79838522  0.57250728  0.48674202  1.0
  C  C44  1  0.04299712  0.46406702  0.60286265  1.0
  C  C45  1  0.88677772  0.57950930  0.49730025  1.0
  C  C46  1  0.03115080  0.50544436  0.52251660  1.0
  C  C47  1  0.93300652  0.50189988  0.51870602  1.0
  C  C48  1  0.64396700  0.49627233  0.21283684  1.0
  C  C49  1  0.41644919  0.50416009  0.79122534  1.0
  C  C50  1  0.76634105  0.43266311  0.06433062  1.0
  C  C51  1  0.30812208  0.57645989  0.93777126  1.0
  C  C52  1  0.74234450  0.45854267  0.15668584  1.0
  C  C53  1  0.32096468  0.54385940  0.85135413  1.0
  C  C54  1  0.58078281  0.51899209  0.17024948  1.0
  C  C55  1  0.48920005  0.48866871  0.82388076  1.0
  C  C56  1  0.60706398  0.50152530  0.07460255  1.0
  C  C57  1  0.47474515  0.51235719  0.91414503  1.0
  C  C58  1  0.69574486  0.44685383  0.02541430  1.0
  C  C59  1  0.38684116  0.56749807  0.96669381  1.0
  C  C60  1  0.54205132  0.53042905  0.03030011  1.0
  C  C61  1  0.54676806  0.48658688  0.95183737  1.0
  Br  Br62  1  0.32048450  0.60735396  0.34566173  1.0
  Br  Br63  1  0.73151734  0.31059517  0.53597395  1.0
  Br  Br64  1  0.15636203  0.40280831  0.70375948  1.0
  Br  Br65  1  0.74983547  0.68030991  0.44669834  1.0
  Br  Br66  1  0.89899432  0.38247990  0.99628694  1.0
  Br  Br67  1  0.17765963  0.62761703  0.01328907  1.0
  Br  Br68  1  0.62010189  0.32709889  0.83904653  1.0
  Br  Br69  1  0.49482222  0.69959822  0.12177303  1.0
  Br  Br70  1  0.50670797  0.73611747  0.68652544  1.0
  Br  Br71  1  0.67364621  0.24098653  0.31544610  1.0
  N  N72  1  0.22132429  0.50234935  0.52350879  1.0
  N  N73  1  0.75217014  0.49508683  0.50033871  1.0
  O  O74  1  0.53267691  0.61413684  0.52066142  1.0
  O  O75  1  0.38760208  0.37047972  0.50151121  1.0
  O  O76  1  0.37538425  0.62678695  0.52772944  1.0
  O  O77  1  0.55004138  0.36347245  0.48181330  1.0
  O  O78  1  0.67213325  0.50452775  0.35088248  1.0
  O  O79  1  0.37285902  0.48645644  0.66430838  1.0
  O  O80  1  0.51087269  0.52000597  0.37025975  1.0
  O  O81  1  0.53561036  0.45828640  0.63924002  1.0
  O  O82  1  0.76726860  0.33355286  0.91500565  1.0
  O  O83  1  0.32935364  0.69134853  0.06460685  1.0
  O  O84  1  0.11532260  0.59028177  0.36383617  1.0
  O  O85  1  0.92524945  0.33959902  0.54273685  1.0
  O  O86  1  0.96528273  0.42483661  0.68444654  1.0
  O  O87  1  0.93249340  0.65967336  0.48314067  1.0
  O  O88  1  0.24630179  0.55329192  0.82456819  1.0
  O  O89  1  0.80943484  0.44391084  0.19281453  1.0
  O  O90  1  0.51497630  0.93489640  0.63546267  1.0
  O  O91  1  0.63618903  0.04386919  0.36369025  1.0
  O  O92  1  0.41167074  0.94672477  0.38176095  1.0
  O  O93  1  0.29675298  0.05046592  0.63331748  1.0
