# generated using pymatgen
data_CoH7C13NO4
_symmetry_space_group_name_H-M   'P 1'
_cell_length_a   11.83069184
_cell_length_b   13.89780295
_cell_length_c   13.95222512
_cell_angle_alpha   89.99935458
_cell_angle_beta   65.17474732
_cell_angle_gamma   89.99963537
_symmetry_Int_Tables_number   1
_chemical_formula_structural   CoH7C13NO4
_chemical_formula_sum   'Co4 H28 C52 N4 O16'
_cell_volume   2082.04770003
_cell_formula_units_Z   4
loop_
 _symmetry_equiv_pos_site_id
 _symmetry_equiv_pos_as_xyz
  1  'x, y, z'
loop_
 _atom_site_type_symbol
 _atom_site_label
 _atom_site_symmetry_multiplicity
 _atom_site_fract_x
 _atom_site_fract_y
 _atom_site_fract_z
 _atom_site_occupancy
  Co  Co0  1  0.94854204  0.54642054  0.96238182  1.0
  Co  Co1  1  0.55146010  0.04643062  0.53764275  1.0
  Co  Co2  1  0.05146967  0.45355688  0.03765544  1.0
  Co  Co3  1  0.44852711  0.95357054  0.46237414  1.0
  H  H4  1  0.75952178  0.46453940  0.89961615  1.0
  H  H5  1  0.74048208  0.96455976  0.60037331  1.0
  H  H6  1  0.24047909  0.53545456  0.10038610  1.0
  H  H7  1  0.25951452  0.03547378  0.39959762  1.0
  H  H8  1  0.58927585  0.51083957  0.84766156  1.0
  H  H9  1  0.91073372  0.01086221  0.65231292  1.0
  H  H10  1  0.41074254  0.48915656  0.15231374  1.0
  H  H11  1  0.08925644  0.98917421  0.34765886  1.0
  H  H12  1  0.69555977  0.80742928  0.85427393  1.0
  H  H13  1  0.80442005  0.30744899  0.64571354  1.0
  H  H14  1  0.30443656  0.19256684  0.14571132  1.0
  H  H15  1  0.19554963  0.69258383  0.35427130  1.0
  H  H16  1  0.86184138  0.74770615  0.90578390  1.0
  H  H17  1  0.63815103  0.24771439  0.59420668  1.0
  H  H18  1  0.13815372  0.25230149  0.09421290  1.0
  H  H19  1  0.36183560  0.75230979  0.40577426  1.0
  H  H20  1  0.25304087  0.74780821  0.73679609  1.0
  H  H21  1  0.24693862  0.24780084  0.76323181  1.0
  H  H22  1  0.74694180  0.25217136  0.26322161  1.0
  H  H23  1  0.75304007  0.75216506  0.23679925  1.0
  H  H24  1  0.61622572  0.81392049  0.72049436  1.0
  H  H25  1  0.88376456  0.31392673  0.77952562  1.0
  H  H26  1  0.38376457  0.18607203  0.27949977  1.0
  H  H27  1  0.11622279  0.68607515  0.22051361  1.0
  H  H28  1  0.40234109  0.57839642  0.91355385  1.0
  H  H29  1  0.09767972  0.07843894  0.58640850  1.0
  H  H30  1  0.59768572  0.42158531  0.08643173  1.0
  H  H31  1  0.90233688  0.92161834  0.41353019  1.0
  C  C32  1  0.74168343  0.53965930  0.88859230  1.0
  C  C33  1  0.75832496  0.03968036  0.61139798  1.0
  C  C34  1  0.25832470  0.46033826  0.11140734  1.0
  C  C35  1  0.24168026  0.96035317  0.38857554  1.0
  C  C36  1  0.64681969  0.56616175  0.86043994  1.0
  C  C37  1  0.85318775  0.06618198  0.63954066  1.0
  C  C38  1  0.35319156  0.43383365  0.13954252  1.0
  C  C39  1  0.14680825  0.93385300  0.36042994  1.0
  C  C40  1  0.62662487  0.66389891  0.84711421  1.0
  C  C41  1  0.87337688  0.16392823  0.65286899  1.0
  C  C42  1  0.37338639  0.33609289  0.15286824  1.0
  C  C43  1  0.12661882  0.83611034  0.34711034  1.0
  C  C44  1  0.70699200  0.73038969  0.86226323  1.0
  C  C45  1  0.79300794  0.23040739  0.63772282  1.0
  C  C46  1  0.29301464  0.26960571  0.13772667  1.0
  C  C47  1  0.20698012  0.76962255  0.36225669  1.0
  C  C48  1  0.79962773  0.69766899  0.89127831  1.0
  C  C49  1  0.70037123  0.19768753  0.60871194  1.0
  C  C50  1  0.20037658  0.30233073  0.10872142  1.0
  C  C51  1  0.29962196  0.80234385  0.39126710  1.0
  C  C52  1  0.32761805  0.73279888  0.76096587  1.0
  C  C53  1  0.17237058  0.23280040  0.73904836  1.0
  C  C54  1  0.67236887  0.26718429  0.23904195  1.0
  C  C55  1  0.82761482  0.76718637  0.26096753  1.0
  C  C56  1  0.43631563  0.78847811  0.72175605  1.0
  C  C57  1  0.06368014  0.28847978  0.77825499  1.0
  C  C58  1  0.56367803  0.21150290  0.27824219  1.0
  C  C59  1  0.93631305  0.71151059  0.22176526  1.0
  C  C60  1  0.53251976  0.76958763  0.75263217  1.0
  C  C61  1  0.96747281  0.26959953  0.74737390  1.0
  C  C62  1  0.46747410  0.23039841  0.24735838  1.0
  C  C63  1  0.03251714  0.73040594  0.25264118  1.0
  C  C64  1  0.52371857  0.69188435  0.81941939  1.0
  C  C65  1  0.97628340  0.19190200  0.68057260  1.0
  C  C66  1  0.47628165  0.30810458  0.18057695  1.0
  C  C67  1  0.02371545  0.80811931  0.31941294  1.0
  C  C68  1  0.41390651  0.63754634  0.85906195  1.0
  C  C69  1  0.08609889  0.13757463  0.64092354  1.0
  C  C70  1  0.58610316  0.36243899  0.14093521  1.0
  C  C71  1  0.91389903  0.86245675  0.35904701  1.0
  C  C72  1  0.31525897  0.65838459  0.83211214  1.0
  C  C73  1  0.18473730  0.15839261  0.66789255  1.0
  C  C74  1  0.68474435  0.34160434  0.16790263  1.0
  C  C75  1  0.81524943  0.84161503  0.33210515  1.0
  C  C76  1  0.45351692  0.86642824  0.64331332  1.0
  C  C77  1  0.04649806  0.36643127  0.85669994  1.0
  C  C78  1  0.54648853  0.13354486  0.35667590  1.0
  C  C79  1  0.95352793  0.63355262  0.14332861  1.0
  C  C80  1  0.19882832  0.60003438  0.88316422  1.0
  C  C81  1  0.30117403  0.10004235  0.61685665  1.0
  C  C82  1  0.80118155  0.39994879  0.11686646  1.0
  C  C83  1  0.69881854  0.89995521  0.38315767  1.0
  N  N84  1  0.81691661  0.60391376  0.90471390  1.0
  N  N85  1  0.68309346  0.10392967  0.59528231  1.0
  N  N86  1  0.18308691  0.39608092  0.09529318  1.0
  N  N87  1  0.31691408  0.89610099  0.40469919  1.0
  O  O88  1  0.10158774  0.62320400  0.87046645  1.0
  O  O89  1  0.39840770  0.12321027  0.62956481  1.0
  O  O90  1  0.89842048  0.37677054  0.12956775  1.0
  O  O91  1  0.60157366  0.87678945  0.37047107  1.0
  O  O92  1  0.20363661  0.52994311  0.94031898  1.0
  O  O93  1  0.29636779  0.02995175  0.55969698  1.0
  O  O94  1  0.79637675  0.47003862  0.05971476  1.0
  O  O95  1  0.70363562  0.97004221  0.44031115  1.0
  O  O96  1  0.40766387  0.85372185  0.57629670  1.0
  O  O97  1  0.09234637  0.35370846  0.92371960  1.0
  O  O98  1  0.59233966  0.14626204  0.42369257  1.0
  O  O99  1  0.90768071  0.64626248  0.07631067  1.0
  O  O100  1  0.51580212  0.94047285  0.64625400  1.0
  O  O101  1  0.98421940  0.44047913  0.85376113  1.0
  O  O102  1  0.48420538  0.05949593  0.35373972  1.0
  O  O103  1  0.01580450  0.55950404  0.14627514  1.0
