# generated using pymatgen
data_Zr3H25C25O16
_symmetry_space_group_name_H-M   'P 1'
_cell_length_a   15.43952442
_cell_length_b   17.41117649
_cell_length_c   25.57108313
_cell_angle_alpha   88.71446905
_cell_angle_beta   89.82846748
_cell_angle_gamma   64.74401315
_symmetry_Int_Tables_number   1
_chemical_formula_structural   Zr3H25C25O16
_chemical_formula_sum   'Zr12 H100 C100 O64'
_cell_volume   6215.21235934
_cell_formula_units_Z   4
loop_
 _symmetry_equiv_pos_site_id
 _symmetry_equiv_pos_as_xyz
  1  'x, y, z'
loop_
 _atom_site_type_symbol
 _atom_site_label
 _atom_site_symmetry_multiplicity
 _atom_site_fract_x
 _atom_site_fract_y
 _atom_site_fract_z
 _atom_site_occupancy
  Zr  Zr0  1  0.95262632  0.10189931  0.96633509  1.0
  Zr  Zr1  1  0.08869250  0.81590947  0.04603974  1.0
  Zr  Zr2  1  0.85635780  0.95518767  0.99987808  1.0
  Zr  Zr3  1  0.18631154  0.96144827  0.01282536  1.0
  Zr  Zr4  1  0.98041713  0.02421936  0.09677870  1.0
  Zr  Zr5  1  0.06351449  0.89366404  0.91766006  1.0
  Zr  Zr6  1  0.09964187  0.80057877  0.46525264  1.0
  Zr  Zr7  1  0.96282943  0.07876878  0.54675118  1.0
  Zr  Zr8  1  0.19888940  0.93810169  0.50866253  1.0
  Zr  Zr9  1  0.86307988  0.94233357  0.50197433  1.0
  Zr  Zr10  1  0.05724534  0.86732512  0.59631470  1.0
  Zr  Zr11  1  0.00109380  0.01343343  0.41764769  1.0
  H  H12  1  0.06072974  0.12570667  0.04837740  1.0
  H  H13  1  0.92251922  0.89047005  0.11098052  1.0
  H  H14  1  0.23685079  0.79547752  0.97351432  1.0
  H  H15  1  0.87527383  0.01536517  0.89768859  1.0
  H  H16  1  0.79050560  0.12011355  0.12479410  1.0
  H  H17  1  0.75230501  0.94560448  0.91749104  1.0
  H  H18  1  0.98341161  0.79502960  0.87419960  1.0
  H  H19  1  0.10147316  0.02863609  0.16947235  1.0
  H  H20  1  0.24904973  0.06006060  0.06451232  1.0
  H  H21  1  0.30910410  0.95723678  0.93966631  1.0
  H  H22  1  0.24775402  0.88738411  0.90862310  1.0
  H  H23  1  0.94636122  0.98100584  0.19267884  1.0
  H  H24  1  0.17778664  0.71947539  0.13137409  1.0
  H  H25  1  0.89472976  0.14875736  0.86018788  1.0
  H  H26  1  0.00272292  0.95120538  0.81900774  1.0
  H  H27  1  0.15875953  0.03694688  0.11601861  1.0
  H  H28  1  0.07782169  0.71367051  0.12508992  1.0
  H  H29  1  0.73338409  0.95443942  0.07289834  1.0
  H  H30  1  0.78579136  0.03784409  0.09831397  1.0
  H  H31  1  0.18771003  0.90559196  0.85221717  1.0
  H  H32  1  0.89060247  0.87564475  0.89786840  1.0
  H  H33  1  0.99107009  0.05953771  0.85886262  1.0
  H  H34  1  0.97934002  0.77387650  0.54062028  1.0
  H  H35  1  0.12158979  0.99432721  0.61766031  1.0
  H  H36  1  0.82406551  0.10955762  0.46703659  1.0
  H  H37  1  0.18825884  0.88987260  0.40356563  1.0
  H  H38  1  0.23969102  0.76566479  0.63543806  1.0
  H  H39  1  0.31593117  0.95400563  0.43283614  1.0
  H  H40  1  0.08969183  0.11300366  0.38380551  1.0
  H  H41  1  0.92703234  0.86082885  0.66209523  1.0
  H  H42  1  0.78269783  0.85146355  0.55034057  1.0
  H  H43  1  0.70533033  0.03844394  0.44627692  1.0
  H  H44  1  0.88214926  0.01121862  0.34532770  1.0
  H  H45  1  0.08094413  0.90354526  0.69386756  1.0
  H  H46  1  0.86735904  0.17140867  0.62963351  1.0
  H  H47  1  0.16798149  0.76150229  0.36064791  1.0
  H  H48  1  0.06919282  0.96422375  0.31940312  1.0
  H  H49  1  0.87475252  0.86090505  0.60546155  1.0
  H  H50  1  0.96839668  0.17683576  0.62665602  1.0
  H  H51  1  0.35687901  0.83798957  0.55802996  1.0
  H  H52  1  0.25315806  0.84598169  0.60860251  1.0
  H  H53  1  0.81499755  0.02532245  0.39833464  1.0
  H  H54  1  0.17863038  0.02731830  0.40764601  1.0
  H  H55  1  0.07469912  0.85295874  0.35745998  1.0
  H  H56  1  0.58815254  0.72592640  0.34988712  1.0
  H  H57  1  0.60077723  0.50094328  0.42956026  1.0
  H  H58  1  0.43385108  0.58131141  0.45930928  1.0
  H  H59  1  0.42671296  0.80853715  0.38553996  1.0
  H  H60  1  0.74709935  0.50623552  0.47266192  1.0
  H  H61  1  0.80288198  0.41663863  0.31504109  1.0
  H  H62  1  0.88547710  0.26864638  0.34938997  1.0
  H  H63  1  0.82867132  0.35712486  0.50661260  1.0
  H  H64  1  0.90398119  0.52950528  0.35957125  1.0
  H  H65  1  0.65582933  0.69787539  0.44366749  1.0
  H  H66  1  0.74417473  0.77851631  0.47189307  1.0
  H  H67  1  0.99385453  0.60965978  0.39032197  1.0
  H  H68  1  0.61544245  0.51308288  0.20995100  1.0
  H  H69  1  0.78784191  0.65258134  0.20785348  1.0
  H  H70  1  0.79179535  0.64881104  0.30321812  1.0
  H  H71  1  0.61993061  0.50878729  0.30598034  1.0
  H  H72  1  0.98297589  0.61652591  0.11419838  1.0
  H  H73  1  0.73123631  0.78419870  0.02926285  1.0
  H  H74  1  0.64214771  0.70689672  0.06545995  1.0
  H  H75  1  0.89400946  0.53863280  0.15110310  1.0
  H  H76  1  0.57918820  0.51767487  0.09122586  1.0
  H  H77  1  0.58626960  0.73632973  0.16288576  1.0
  H  H78  1  0.42011796  0.82473494  0.13152958  1.0
  H  H79  1  0.40879044  0.60369971  0.06651062  1.0
  H  H80  1  0.86611173  0.27547889  0.16466869  1.0
  H  H81  1  0.79475064  0.37430967  0.00763072  1.0
  H  H82  1  0.72276016  0.52158970  0.04085279  1.0
  H  H83  1  0.79556182  0.42171808  0.19825762  1.0
  H  H84  1  0.38611187  0.38564948  0.55012611  1.0
  H  H85  1  0.20412885  0.45386108  0.68543702  1.0
  H  H86  1  0.12946994  0.60387457  0.65345969  1.0
  H  H87  1  0.30352360  0.53386943  0.51587684  1.0
  H  H88  1  0.40568407  0.14494176  0.64150336  1.0
  H  H89  1  0.16109573  0.37817604  0.60117730  1.0
  H  H90  1  0.07475957  0.29531912  0.57084001  1.0
  H  H91  1  0.32192600  0.06273904  0.60655861  1.0
  H  H92  1  0.40369606  0.24451635  0.54695713  1.0
  H  H93  1  0.52527910  0.27654747  0.69165672  1.0
  H  H94  1  0.68684715  0.20119204  0.65570182  1.0
  H  H95  1  0.56631589  0.16178901  0.51320048  1.0
  H  H96  1  0.26850132  0.24849249  0.80978738  1.0
  H  H97  1  0.41036968  0.41412839  0.80045619  1.0
  H  H98  1  0.41158223  0.40658447  0.70485220  1.0
  H  H99  1  0.27741639  0.23498522  0.71508164  1.0
  H  H100  1  0.24352002  0.49485459  0.81407371  1.0
  H  H101  1  0.31236860  0.39653538  0.97202244  1.0
  H  H102  1  0.23432987  0.54384567  0.00488026  1.0
  H  H103  1  0.16838075  0.64101500  0.84719826  1.0
  H  H104  1  0.39649293  0.21056403  0.94814980  1.0
  H  H105  1  0.14677454  0.37676733  0.86007503  1.0
  H  H106  1  0.05845208  0.29571601  0.89439772  1.0
  H  H107  1  0.30898793  0.13010872  0.98095732  1.0
  H  H108  1  0.45686231  0.18198789  0.85094972  1.0
  H  H109  1  0.45770915  0.40157274  0.92463683  1.0
  H  H110  1  0.62766359  0.31724632  0.95061561  1.0
  H  H111  1  0.62171253  0.09581599  0.88276681  1.0
  C  C112  1  0.33592591  0.34216537  0.87260757  1.0
  C  C113  1  0.34764921  0.31586698  0.64205891  1.0
  C  C114  1  0.70359928  0.57515206  0.14099840  1.0
  C  C115  1  0.71438587  0.56564106  0.37246461  1.0
  C  C116  1  0.87466941  0.22691208  0.06495414  1.0
  C  C117  1  0.13412099  0.14879479  0.95578986  1.0
  C  C118  1  0.73124034  0.14424836  0.94221800  1.0
  C  C119  1  0.90745547  0.76404856  0.05282060  1.0
  C  C120  1  0.15309005  0.69029483  0.94746311  1.0
  C  C121  1  0.30906695  0.77577480  0.07382265  1.0
  C  C122  1  0.16692456  0.66822022  0.56418096  1.0
  C  C123  1  0.91895874  0.75750390  0.44747568  1.0
  C  C124  1  0.32552203  0.75408333  0.44999601  1.0
  C  C125  1  0.14766740  0.12181103  0.56394709  1.0
  C  C126  1  0.90869554  0.21388691  0.44970494  1.0
  C  C127  1  0.73454306  0.12336793  0.56096464  1.0
  C  C128  1  0.55548055  0.69434176  0.37504623  1.0
  C  C129  1  0.60863052  0.60835873  0.38956489  1.0
  C  C130  1  0.56279927  0.56812967  0.41901214  1.0
  C  C131  1  0.46865630  0.61343603  0.43622445  1.0
  C  C132  1  0.42045808  0.70073031  0.42614495  1.0
  C  C133  1  0.46432080  0.74061765  0.39448657  1.0
  C  C134  1  0.77595540  0.45406609  0.44541311  1.0
  C  C135  1  0.76586507  0.47222978  0.39125773  1.0
  C  C136  1  0.80736878  0.40454803  0.35709566  1.0
  C  C137  1  0.85448405  0.32120808  0.37615458  1.0
  C  C138  1  0.86162995  0.30354915  0.42998123  1.0
  C  C139  1  0.82227042  0.37104271  0.46466098  1.0
  C  C140  1  0.86850416  0.58445304  0.38420280  1.0
  C  C141  1  0.77122731  0.61080502  0.39664157  1.0
  C  C142  1  0.72925889  0.67817048  0.43086513  1.0
  C  C143  1  0.77917884  0.72329774  0.44756047  1.0
  C  C144  1  0.87359965  0.70086811  0.43191207  1.0
  C  C145  1  0.91936637  0.62887726  0.40141312  1.0
  C  C146  1  0.65655423  0.54112849  0.23029932  1.0
  C  C147  1  0.70671704  0.57838432  0.20107660  1.0
  C  C148  1  0.75250965  0.61878301  0.22864623  1.0
  C  C149  1  0.75478944  0.61660842  0.28344177  1.0
  C  C150  1  0.71147493  0.57385929  0.31231765  1.0
  C  C151  1  0.65900087  0.53876446  0.28452933  1.0
  C  C152  1  0.90765106  0.63698263  0.10416047  1.0
  C  C153  1  0.86136336  0.70825038  0.07103444  1.0
  C  C154  1  0.76616227  0.73073859  0.05650443  1.0
  C  C155  1  0.71635394  0.68693218  0.07728176  1.0
  C  C156  1  0.75937678  0.62025886  0.11392203  1.0
  C  C157  1  0.85735109  0.59344904  0.12497783  1.0
  C  C158  1  0.54445253  0.58442724  0.10131560  1.0
  C  C159  1  0.59619163  0.62161090  0.12695094  1.0
  C  C160  1  0.54807632  0.70740113  0.14076480  1.0
  C  C161  1  0.45484631  0.75677297  0.12427834  1.0
  C  C162  1  0.40472301  0.71968833  0.09658706  1.0
  C  C163  1  0.44852820  0.63272943  0.08716548  1.0
  C  C164  1  0.83318105  0.32989770  0.13784272  1.0
  C  C165  1  0.83230955  0.31561326  0.08429576  1.0
  C  C166  1  0.79295707  0.38560778  0.04945751  1.0
  C  C167  1  0.75268932  0.46771714  0.06833536  1.0
  C  C168  1  0.75000022  0.48268352  0.12230557  1.0
  C  C169  1  0.79320636  0.41241183  0.15645230  1.0
  C  C170  1  0.32867773  0.43239951  0.57271776  1.0
  C  C171  1  0.30163256  0.40846832  0.62049713  1.0
  C  C172  1  0.22766738  0.47108347  0.64863032  1.0
  C  C173  1  0.18507797  0.55512366  0.63083747  1.0
  C  C174  1  0.21271729  0.57807914  0.58297666  1.0
  C  C175  1  0.28348267  0.51584052  0.55354353  1.0
  C  C176  1  0.33325496  0.17838449  0.62573708  1.0
  C  C177  1  0.29000850  0.26773327  0.62319972  1.0
  C  C178  1  0.19634686  0.30904996  0.60370421  1.0
  C  C179  1  0.14751018  0.26268288  0.58635190  1.0
  C  C180  1  0.19327143  0.17400365  0.58646695  1.0
  C  C181  1  0.28666585  0.13196446  0.60665380  1.0
  C  C182  1  0.46538751  0.23631228  0.57095099  1.0
  C  C183  1  0.45122371  0.26881828  0.62174666  1.0
  C  C184  1  0.53263098  0.25509408  0.65158454  1.0
  C  C185  1  0.62462348  0.21168700  0.63145703  1.0
  C  C186  1  0.63758739  0.17750776  0.58164971  1.0
  C  C187  1  0.55667375  0.18998777  0.55162537  1.0
  C  C188  1  0.30086509  0.28327671  0.78743502  1.0
  C  C189  1  0.33561685  0.33464517  0.81276694  1.0
  C  C190  1  0.37908460  0.37599309  0.78184043  1.0
  C  C191  1  0.38212281  0.36984355  0.72778295  1.0
  C  C192  1  0.34598903  0.31880489  0.70214114  1.0
  C  C193  1  0.30640529  0.27518332  0.73308209  1.0
  C  C194  1  0.24361304  0.50450489  0.85596017  1.0
  C  C195  1  0.28727492  0.43478202  0.89041166  1.0
  C  C196  1  0.28199789  0.45016700  0.94439716  1.0
  C  C197  1  0.23805296  0.53222692  0.96305824  1.0
  C  C198  1  0.19756277  0.60181633  0.92802183  1.0
  C  C199  1  0.20016503  0.58702772  0.87440640  1.0
  C  C200  1  0.32282207  0.22984594  0.93550953  1.0
  C  C201  1  0.27997355  0.29680147  0.89917921  1.0
  C  C202  1  0.18274547  0.32233483  0.88659561  1.0
  C  C203  1  0.13276746  0.27740784  0.90578307  1.0
  C  C204  1  0.17923735  0.20581567  0.93859401  1.0
  C  C205  1  0.27354612  0.18445538  0.95445152  1.0
  C  C206  1  0.49319490  0.21163837  0.87389858  1.0
  C  C207  1  0.44321087  0.29718585  0.88780841  1.0
  C  C208  1  0.49345185  0.33488234  0.91445181  1.0
  C  C209  1  0.58931049  0.28746539  0.92941974  1.0
  C  C210  1  0.63495359  0.20061557  0.91979138  1.0
  C  C211  1  0.58624199  0.16339604  0.89099781  1.0
  O  O212  1  0.95859146  0.11941962  0.87528044  1.0
  O  O213  1  0.88565872  0.21703058  0.01573091  1.0
  O  O214  1  0.79799185  0.16961509  0.94024377  1.0
  O  O215  1  0.19238893  0.07751114  0.97583304  1.0
  O  O216  1  0.73854714  0.07369848  0.96115098  1.0
  O  O217  1  0.04428422  0.17291672  0.94972963  1.0
  O  O218  1  0.89783839  0.16673801  0.09939739  1.0
  O  O219  1  0.90559616  0.04392177  0.02318349  1.0
  O  O220  1  0.04946030  0.07807660  0.03677593  1.0
  O  O221  1  0.91749719  0.00035149  0.92789553  1.0
  O  O222  1  0.07634183  0.99390335  0.95367489  1.0
  O  O223  1  0.28906233  0.91423877  0.95220961  1.0
  O  O224  1  0.82218513  0.05831949  0.12493874  1.0
  O  O225  1  0.10222680  0.92401670  0.06505907  1.0
  O  O226  1  0.95199503  0.90891586  0.08283985  1.0
  O  O227  1  0.99850040  0.86842265  0.98484636  1.0
  O  O228  1  0.17563913  0.84133782  0.98217752  1.0
  O  O229  1  0.74975660  0.99789797  0.05737701  1.0
  O  O230  1  0.85235951  0.83389244  0.03080236  1.0
  O  O231  1  0.99695782  0.74058446  0.06204060  1.0
  O  O232  1  0.04104296  0.96440040  0.84429114  1.0
  O  O233  1  0.14892354  0.69980708  0.99685581  1.0
  O  O234  1  0.81218037  0.90700616  0.93391391  1.0
  O  O235  1  0.95430335  0.85685683  0.87480212  1.0
  O  O236  1  0.20897269  0.86669474  0.88258566  1.0
  O  O237  1  0.12318185  0.75091489  0.91310552  1.0
  O  O238  1  0.10789731  0.75223670  0.13122892  1.0
  O  O239  1  0.23777607  0.01075229  0.07391835  1.0
  O  O240  1  0.24385368  0.74789413  0.07369788  1.0
  O  O241  1  0.30037606  0.84639622  0.05527531  1.0
  O  O242  1  0.09467631  0.05883757  0.13597960  1.0
  O  O243  1  0.99728839  0.98779839  0.17378845  1.0
  O  O244  1  0.10324670  0.79175290  0.37377600  1.0
  O  O245  1  0.16248552  0.68223264  0.51492935  1.0
  O  O246  1  0.25696390  0.73231927  0.44385846  1.0
  O  O247  1  0.86063848  0.82863665  0.46517297  1.0
  O  O248  1  0.32104197  0.81905275  0.47389780  1.0
  O  O249  1  0.00931142  0.73269209  0.44281454  1.0
  O  O250  1  0.13527137  0.72469824  0.59929708  1.0
  O  O251  1  0.14060864  0.85199233  0.52612925  1.0
  O  O252  1  0.99481222  0.82080148  0.53118601  1.0
  O  O253  1  0.14420375  0.90260474  0.43261249  1.0
  O  O254  1  0.97929931  0.91171866  0.44850266  1.0
  O  O255  1  0.76741990  0.99419543  0.43717109  1.0
  O  O256  1  0.21080761  0.82744867  0.63330062  1.0
  O  O257  1  0.94131151  0.97190612  0.56113646  1.0
  O  O258  1  0.09426760  0.97964685  0.58747162  1.0
  O  O259  1  0.05945924  0.02932084  0.48916434  1.0
  O  O260  1  0.88385930  0.06254847  0.47745200  1.0
  O  O261  1  0.29812900  0.88342032  0.57042003  1.0
  O  O262  1  0.20412992  0.05248450  0.54419428  1.0
  O  O263  1  0.05627057  0.14917621  0.56687269  1.0
  O  O264  1  0.02990087  0.94967291  0.34382675  1.0
  O  O265  1  0.90766723  0.20030196  0.49891601  1.0
  O  O266  1  0.25296741  0.98886630  0.44656221  1.0
  O  O267  1  0.11695863  0.05125912  0.38247091  1.0
  O  O268  1  0.85847738  0.04718527  0.37579542  1.0
  O  O269  1  0.94550321  0.15622481  0.41550394  1.0
  O  O270  1  0.93715542  0.13846944  0.63111876  1.0
  O  O271  1  0.80076630  0.89593411  0.56079787  1.0
  O  O272  1  0.80433530  0.14205665  0.57216537  1.0
  O  O273  1  0.74021252  0.06234428  0.53300284  1.0
  O  O274  1  0.93631544  0.83364399  0.62819440  1.0
  O  O275  1  0.03067940  0.89960682  0.67300846  1.0
