# generated using pymatgen
data_TbH3(C3O2)3
_symmetry_space_group_name_H-M   'P 1'
_cell_length_a   10.37580922
_cell_length_b   10.37581140
_cell_length_c   14.13106880
_cell_angle_alpha   90.00001302
_cell_angle_beta   89.99998399
_cell_angle_gamma   89.99878764
_symmetry_Int_Tables_number   1
_chemical_formula_structural   TbH3(C3O2)3
_chemical_formula_sum   'Tb4 H12 C36 O24'
_cell_volume   1521.31468532
_cell_formula_units_Z   4
loop_
 _symmetry_equiv_pos_site_id
 _symmetry_equiv_pos_as_xyz
  1  'x, y, z'
loop_
 _atom_site_type_symbol
 _atom_site_label
 _atom_site_symmetry_multiplicity
 _atom_site_fract_x
 _atom_site_fract_y
 _atom_site_fract_z
 _atom_site_occupancy
  Tb  Tb0  1  0.12823812  0.87176074  0.62499809  1.0
  Tb  Tb1  1  0.87176591  0.12823792  0.12500039  1.0
  Tb  Tb2  1  0.87177439  0.87176825  0.37500135  1.0
  Tb  Tb3  1  0.12822955  0.12822954  0.87500106  1.0
  H  H4  1  0.07770176  0.46662284  0.64151982  1.0
  H  H5  1  0.92229262  0.53337005  0.14151792  1.0
  H  H6  1  0.46663918  0.92229678  0.39151466  1.0
  H  H7  1  0.53335993  0.07770294  0.89151852  1.0
  H  H8  1  0.92229714  0.46663313  0.35848381  1.0
  H  H9  1  0.07769909  0.53336079  0.85848359  1.0
  H  H10  1  0.53336743  0.92229997  0.60848196  1.0
  H  H11  1  0.46663371  0.07771026  0.10848434  1.0
  H  H12  1  0.99999317  0.10748934  0.49999890  1.0
  H  H13  1  0.99999923  0.89250466  0.99999724  1.0
  H  H14  1  0.10749529  0.00000064  0.25000021  1.0
  H  H15  1  0.89250291  0.99999710  0.75000484  1.0
  C  C16  1  0.04370884  0.41367119  0.57976370  1.0
  C  C17  1  0.04219617  0.27879982  0.58013238  1.0
  C  C18  1  0.08113463  0.20406696  0.66551798  1.0
  C  C19  1  0.95628460  0.58632168  0.07976038  1.0
  C  C20  1  0.95778957  0.72119304  0.08012979  1.0
  C  C21  1  0.91885589  0.79592979  0.16551329  1.0
  C  C22  1  0.41368586  0.95628696  0.32975854  1.0
  C  C23  1  0.27881636  0.95779381  0.33013433  1.0
  C  C24  1  0.20408042  0.91885598  0.41551782  1.0
  C  C25  1  0.58631521  0.04371274  0.82976098  1.0
  C  C26  1  0.72118470  0.04220588  0.83013673  1.0
  C  C27  1  0.79592158  0.08114953  0.91551880  1.0
  C  C28  1  0.95628637  0.41367693  0.42024063  1.0
  C  C29  1  0.95779226  0.27880649  0.41986556  1.0
  C  C30  1  0.91885441  0.20407828  0.33447782  1.0
  C  C31  1  0.04370888  0.58631702  0.92023902  1.0
  C  C32  1  0.04220107  0.72118649  0.91986397  1.0
  C  C33  1  0.08114665  0.79592239  0.83448048  1.0
  C  C34  1  0.58631908  0.95629001  0.67023879  1.0
  C  C35  1  0.72119047  0.95779401  0.66987079  1.0
  C  C36  1  0.79592820  0.91885746  0.58448587  1.0
  C  C37  1  0.41368301  0.04371734  0.17023905  1.0
  C  C38  1  0.27881258  0.04220949  0.16986683  1.0
  C  C39  1  0.20407392  0.08114698  0.08448265  1.0
  C  C40  1  0.99999790  0.48069389  0.50000105  1.0
  C  C41  1  0.99999206  0.21223585  0.49999891  1.0
  C  C42  1  0.00000497  0.62507486  0.50000046  1.0
  C  C43  1  0.00000040  0.51929799  0.00000006  1.0
  C  C44  1  0.99999552  0.78775719  0.99999723  1.0
  C  C45  1  0.00000385  0.37492277  0.00000005  1.0
  C  C46  1  0.48070380  0.99999945  0.25000024  1.0
  C  C47  1  0.21224664  0.00000146  0.25000020  1.0
  C  C48  1  0.62508191  0.00000287  0.25000086  1.0
  C  C49  1  0.51929730  0.00000119  0.74999985  1.0
  C  C50  1  0.78775542  0.99999821  0.75000414  1.0
  C  C51  1  0.37491916  0.00000175  0.74999916  1.0
  O  O52  1  0.08293669  0.68113611  0.55211754  1.0
  O  O53  1  0.09770234  0.08243196  0.65719234  1.0
  O  O54  1  0.26174157  0.90694402  0.49455713  1.0
  O  O55  1  0.91707604  0.31885770  0.05211702  1.0
  O  O56  1  0.90229012  0.91756575  0.15718768  1.0
  O  O57  1  0.73826136  0.09307693  0.99455883  1.0
  O  O58  1  0.68114975  0.91707081  0.30211517  1.0
  O  O59  1  0.08244478  0.90229278  0.40719575  1.0
  O  O60  1  0.90694802  0.73827372  0.24455544  1.0
  O  O61  1  0.31885132  0.08293370  0.80211342  1.0
  O  O62  1  0.91755818  0.09770406  0.90719529  1.0
  O  O63  1  0.09304440  0.26172691  0.74455801  1.0
  O  O64  1  0.91707792  0.68114077  0.44788046  1.0
  O  O65  1  0.90230374  0.08244074  0.34279637  1.0
  O  O66  1  0.73827211  0.90694766  0.50544444  1.0
  O  O67  1  0.08293467  0.31885608  0.94788375  1.0
  O  O68  1  0.09770985  0.91755704  0.84280682  1.0
  O  O69  1  0.26173293  0.09306639  0.00544333  1.0
  O  O70  1  0.31885697  0.91706796  0.69788428  1.0
  O  O71  1  0.91756515  0.90229265  0.59281290  1.0
  O  O72  1  0.09306731  0.73826314  0.75544045  1.0
  O  O73  1  0.68114510  0.08293747  0.19788803  1.0
  O  O74  1  0.08243697  0.09770215  0.09280687  1.0
  O  O75  1  0.90693186  0.26174135  0.25543993  1.0
