# generated using pymatgen
data_ZnH28C30NO6
_symmetry_space_group_name_H-M   'P 1'
_cell_length_a   14.45474230
_cell_length_b   18.25297896
_cell_length_c   19.57546856
_cell_angle_alpha   90.00195750
_cell_angle_beta   89.92678107
_cell_angle_gamma   89.99833056
_symmetry_Int_Tables_number   1
_chemical_formula_structural   ZnH28C30NO6
_chemical_formula_sum   'Zn2 H56 C60 N2 O12'
_cell_volume   5164.82864939
_cell_formula_units_Z   2
loop_
 _symmetry_equiv_pos_site_id
 _symmetry_equiv_pos_as_xyz
  1  'x, y, z'
loop_
 _atom_site_type_symbol
 _atom_site_label
 _atom_site_symmetry_multiplicity
 _atom_site_fract_x
 _atom_site_fract_y
 _atom_site_fract_z
 _atom_site_occupancy
  Zn  Zn0  1  0.50000758  0.42273473  0.50000102  1.0
  Zn  Zn1  1  0.50000837  0.57689532  0.49999416  1.0
  H  H2  1  0.61720971  0.57498651  0.84181554  1.0
  H  H3  1  0.40943123  0.82892982  0.41203512  1.0
  H  H4  1  0.40631584  0.17028778  0.41388472  1.0
  H  H5  1  0.59056627  0.82893032  0.58796592  1.0
  H  H6  1  0.48984618  0.06710026  0.39011087  1.0
  H  H7  1  0.50999131  0.93230243  0.60987912  1.0
  H  H8  1  0.51016163  0.06711161  0.60989217  1.0
  H  H9  1  0.49001201  0.93229437  0.39012658  1.0
  H  H10  1  0.72390557  0.58352569  0.63518152  1.0
  H  H11  1  0.69684688  0.49760622  0.67273416  1.0
  H  H12  1  0.79476612  0.62457860  0.74589193  1.0
  H  H13  1  0.61566524  0.42652959  0.15745224  1.0
  H  H14  1  0.77280429  0.53746806  0.78201502  1.0
  H  H15  1  0.87693019  0.47818718  0.69398817  1.0
  H  H16  1  0.93766537  0.54712414  0.73940381  1.0
  H  H17  1  0.89680040  0.56463368  0.65555968  1.0
  H  H18  1  0.72119372  0.41497592  0.36419673  1.0
  H  H19  1  0.69365207  0.50183724  0.32860805  1.0
  H  H20  1  0.79385983  0.37743957  0.25315691  1.0
  H  H21  1  0.76989515  0.46478192  0.21825698  1.0
  H  H22  1  0.87298976  0.52417877  0.30659229  1.0
  H  H23  1  0.93497095  0.45679155  0.25999673  1.0
  H  H24  1  0.38273652  0.57498996  0.15820385  1.0
  H  H25  1  0.89514414  0.43748348  0.34382851  1.0
  H  H26  1  0.27607055  0.58360250  0.36482078  1.0
  H  H27  1  0.30315315  0.49764866  0.32732991  1.0
  H  H28  1  0.20522241  0.62454059  0.25407431  1.0
  H  H29  1  0.22721863  0.53741053  0.21800428  1.0
  H  H30  1  0.12309957  0.47818693  0.30607686  1.0
  H  H31  1  0.06234586  0.54706856  0.26059025  1.0
  H  H32  1  0.10317362  0.56467658  0.34443081  1.0
  H  H33  1  0.27877502  0.41498539  0.63578002  1.0
  H  H34  1  0.30630498  0.50185406  0.67137082  1.0
  H  H35  1  0.38426463  0.42655014  0.84252434  1.0
  H  H36  1  0.20611780  0.37744359  0.74681667  1.0
  H  H37  1  0.23007144  0.46478286  0.78172384  1.0
  H  H38  1  0.12696707  0.52418360  0.69339952  1.0
  H  H39  1  0.06500172  0.45679172  0.73999151  1.0
  H  H40  1  0.10481882  0.43749021  0.65616068  1.0
  H  H41  1  0.56208767  0.32554127  0.95638908  1.0
  H  H42  1  0.44920260  0.33116391  0.92263701  1.0
  H  H43  1  0.54287584  0.36861709  0.87620534  1.0
  H  H44  1  0.56124625  0.67615519  0.04413831  1.0
  H  H45  1  0.44785574  0.67036345  0.07721041  1.0
  H  H46  1  0.58705697  0.30723677  0.58375062  1.0
  H  H47  1  0.54106330  0.63285807  0.12409385  1.0
  H  H48  1  0.43785973  0.32553362  0.04358394  1.0
  H  H49  1  0.55074720  0.33115901  0.07732597  1.0
  H  H50  1  0.45706919  0.36860100  0.12377511  1.0
  H  H51  1  0.43866448  0.67615702  0.95587442  1.0
  H  H52  1  0.55206575  0.67036983  0.92280981  1.0
  H  H53  1  0.45885947  0.63286773  0.87592524  1.0
  H  H54  1  0.41601341  0.69213466  0.41434818  1.0
  H  H55  1  0.41295946  0.30723807  0.41624946  1.0
  H  H56  1  0.58399861  0.69213453  0.58565179  1.0
  H  H57  1  0.59369643  0.17028327  0.58611990  1.0
  C  C58  1  0.49898621  0.49918274  0.36898596  1.0
  C  C59  1  0.45271876  0.72516996  0.45207518  1.0
  C  C60  1  0.45094156  0.27410936  0.45313929  1.0
  C  C61  1  0.54729230  0.72516789  0.54792681  1.0
  C  C62  1  0.55109986  0.19809174  0.54825418  1.0
  C  C63  1  0.45069113  0.80120081  0.45073647  1.0
  C  C64  1  0.44891252  0.19809325  0.45174720  1.0
  C  C65  1  0.54931318  0.80119879  0.54926322  1.0
  C  C66  1  0.50000796  0.15801137  0.49999753  1.0
  C  C67  1  0.49999970  0.84129600  0.50000020  1.0
  C  C68  1  0.49284641  0.03775858  0.43858175  1.0
  C  C69  1  0.50101111  0.49918615  0.63100971  1.0
  C  C70  1  0.50706717  0.96163370  0.56141031  1.0
  C  C71  1  0.50716209  0.03775875  0.56142193  1.0
  C  C72  1  0.49293961  0.96162915  0.43859270  1.0
  C  C73  1  0.50000583  0.92209432  0.50000091  1.0
  C  C74  1  0.50000182  0.07725414  0.49999886  1.0
  C  C75  1  0.31992519  0.50081254  0.49930837  1.0
  C  C76  1  0.68009347  0.50081116  0.50068633  1.0
  C  C77  1  0.22012162  0.50049925  0.49916715  1.0
  C  C78  1  0.77990330  0.50049605  0.50081938  1.0
  C  C79  1  0.13523536  0.50037607  0.49940523  1.0
  C  C80  1  0.50308335  0.43379339  0.96407919  1.0
  C  C81  1  0.86477849  0.50036504  0.50058843  1.0
  C  C82  1  0.04267931  0.50021618  0.49977157  1.0
  C  C83  1  0.95733599  0.50023182  0.50020115  1.0
  C  C84  1  0.56454146  0.54315206  0.74399054  1.0
  C  C85  1  0.56278813  0.45698190  0.25558799  1.0
  C  C86  1  0.43542160  0.54314604  0.25601461  1.0
  C  C87  1  0.43717554  0.45699309  0.74439821  1.0
  C  C88  1  0.56553576  0.54223249  0.81527523  1.0
  C  C89  1  0.56383942  0.45888323  0.18432878  1.0
  C  C90  1  0.43441281  0.54222920  0.18473959  1.0
  C  C91  1  0.50246632  0.56786865  0.03593237  1.0
  C  C92  1  0.43609437  0.45890375  0.81565440  1.0
  C  C93  1  0.50079076  0.50070908  0.85210359  1.0
  C  C94  1  0.49914764  0.50069165  0.14789771  1.0
  C  C95  1  0.50107299  0.49973549  0.70758327  1.0
  C  C96  1  0.49891392  0.49972857  0.29241394  1.0
  C  C97  1  0.70908037  0.55601059  0.68394813  1.0
  C  C98  1  0.78887129  0.56582961  0.73377722  1.0
  C  C99  1  0.87994104  0.53740729  0.70414502  1.0
  C  C100  1  0.70663227  0.44381961  0.31611793  1.0
  C  C101  1  0.78673266  0.43589494  0.26607222  1.0
  C  C102  1  0.49684114  0.43379301  0.03590731  1.0
  C  C103  1  0.87730089  0.46516846  0.29570168  1.0
  C  C104  1  0.29091354  0.55603892  0.31608042  1.0
  C  C105  1  0.21113098  0.56580191  0.26622813  1.0
  C  C106  1  0.12005976  0.53739844  0.29586815  1.0
  C  C107  1  0.29333511  0.44383420  0.68386225  1.0
  C  C108  1  0.21324221  0.43590064  0.73390619  1.0
  C  C109  1  0.12266498  0.46517263  0.70428068  1.0
  C  C110  1  0.51487540  0.36135026  0.92776763  1.0
  C  C111  1  0.51367459  0.64026027  0.07241346  1.0
  C  C112  1  0.48505838  0.36134034  0.07221158  1.0
  C  C113  1  0.49745831  0.56787233  0.96407862  1.0
  C  C114  1  0.48624973  0.64026968  0.92760636  1.0
  C  C115  1  0.49934147  0.50082167  0.07195159  1.0
  C  C116  1  0.50058309  0.50082614  0.92804562  1.0
  C  C117  1  0.54907236  0.27410780  0.54686183  1.0
  N  N118  1  0.50000391  0.31143673  0.50000087  1.0
  N  N119  1  0.50000789  0.68791720  0.49999941  1.0
  O  O120  1  0.47545401  0.43980891  0.39827416  1.0
  O  O121  1  0.62270592  0.41095440  0.28957597  1.0
  O  O122  1  0.37552370  0.58898038  0.29074542  1.0
  O  O123  1  0.37727141  0.41097589  0.71039709  1.0
  O  O124  1  0.47719105  0.55817433  0.60131236  1.0
  O  O125  1  0.52456135  0.43981279  0.60171972  1.0
  O  O126  1  0.52281939  0.55816983  0.39868305  1.0
  O  O127  1  0.35878396  0.44079358  0.51559278  1.0
  O  O128  1  0.64158968  0.56103071  0.51681414  1.0
  O  O129  1  0.64122994  0.44078944  0.48440419  1.0
  O  O130  1  0.35842124  0.56103360  0.48318544  1.0
  O  O131  1  0.62446237  0.58896468  0.70927287  1.0
