# generated using pymatgen
data_Zn2H17C26(N4O)2
_symmetry_space_group_name_H-M   'P 1'
_cell_length_a   14.85820293
_cell_length_b   15.01251195
_cell_length_c   23.49598412
_cell_angle_alpha   92.30882773
_cell_angle_beta   90.03575935
_cell_angle_gamma   102.21805839
_symmetry_Int_Tables_number   1
_chemical_formula_structural   Zn2H17C26(N4O)2
_chemical_formula_sum   'Zn8 H68 C104 N32 O8'
_cell_volume   5117.89420647
_cell_formula_units_Z   4
loop_
 _symmetry_equiv_pos_site_id
 _symmetry_equiv_pos_as_xyz
  1  'x, y, z'
loop_
 _atom_site_type_symbol
 _atom_site_label
 _atom_site_symmetry_multiplicity
 _atom_site_fract_x
 _atom_site_fract_y
 _atom_site_fract_z
 _atom_site_occupancy
  Zn  Zn0  1  0.58202499  0.41091215  0.43720821  1.0
  Zn  Zn1  1  0.46318544  0.56943741  0.44257511  1.0
  Zn  Zn2  1  0.06862507  0.92469838  0.92157462  1.0
  Zn  Zn3  1  0.91452557  0.05379692  0.92720841  1.0
  Zn  Zn4  1  0.47017376  0.58460115  0.58342829  1.0
  Zn  Zn5  1  0.57937698  0.40605876  0.57903733  1.0
  Zn  Zn6  1  0.91488228  0.07340033  0.06639703  1.0
  Zn  Zn7  1  0.07302079  0.93864551  0.06106928  1.0
  H  H8  1  0.68254694  0.45439438  0.30814292  1.0
  H  H9  1  0.26467301  0.44783937  0.41969131  1.0
  H  H10  1  0.15606849  0.98104279  0.79581781  1.0
  H  H11  1  0.72895252  0.89608413  0.93174586  1.0
  H  H12  1  0.08867316  0.45270258  0.59448206  1.0
  H  H13  1  0.93339215  0.53693034  0.64445231  1.0
  H  H14  1  0.56302089  0.04849524  0.10103113  1.0
  H  H15  1  0.40863387  0.14711485  0.13364174  1.0
  H  H16  1  0.10357496  0.55281778  0.63969703  1.0
  H  H17  1  0.91763234  0.43555775  0.59975386  1.0
  H  H18  1  0.57959143  0.16191100  0.13297032  1.0
  H  H19  1  0.39452564  0.03437873  0.10283225  1.0
  H  H20  1  0.74005061  0.50073416  0.81725017  1.0
  H  H21  1  0.20840441  0.37938699  0.72664570  1.0
  H  H22  1  0.17892085  0.04594330  0.30020341  1.0
  H  H23  1  0.76804297  0.85575646  0.22363083  1.0
  H  H24  1  0.26506650  0.12966079  0.38226421  1.0
  H  H25  1  0.68665658  0.76043837  0.29811866  1.0
  H  H26  1  0.82025587  0.60189997  0.89485153  1.0
  H  H27  1  0.10899113  0.27241393  0.78777252  1.0
  H  H28  1  0.21016581  0.38112404  0.32314227  1.0
  H  H29  1  0.68069735  0.51977652  0.19084736  1.0
  H  H30  1  0.63007067  0.77992690  0.87728406  1.0
  H  H31  1  0.15812795  0.04615363  0.68293678  1.0
  H  H32  1  0.54940353  0.67771071  0.80114484  1.0
  H  H33  1  0.25915869  0.15273905  0.62196520  1.0
  H  H34  1  0.12242552  0.29704557  0.24182258  1.0
  H  H35  1  0.76242476  0.61570025  0.11573318  1.0
  H  H36  1  0.73552446  0.09409930  0.58790289  1.0
  H  H37  1  0.72673330  0.92858011  0.59060811  1.0
  H  H38  1  0.11937465  0.58177180  0.08312654  1.0
  H  H39  1  0.09892842  0.41633080  0.08426573  1.0
  H  H40  1  0.58203679  0.67564460  0.70657765  1.0
  H  H41  1  0.39189825  0.24036355  0.59378405  1.0
  H  H42  1  0.98184055  0.18989128  0.19835735  1.0
  H  H43  1  0.94295493  0.74769989  0.09407786  1.0
  H  H44  1  0.62260366  0.74092193  0.41798003  1.0
  H  H45  1  0.66749194  0.22409861  0.41093882  1.0
  H  H46  1  0.05456883  0.24601757  0.90112948  1.0
  H  H47  1  0.13199820  0.72160360  0.89747729  1.0
  H  H48  1  0.61922576  0.77949700  0.60162896  1.0
  H  H49  1  0.64001237  0.21248745  0.59395584  1.0
  H  H50  1  0.06680872  0.25838875  0.08562921  1.0
  H  H51  1  0.11929879  0.73595823  0.08153796  1.0
  H  H52  1  0.76639817  0.55632630  0.41937150  1.0
  H  H53  1  0.25992931  0.62960169  0.41126502  1.0
  H  H54  1  0.25426304  0.08021698  0.89728709  1.0
  H  H55  1  0.71509636  0.11971976  0.89874549  1.0
  H  H56  1  0.93071244  0.66347688  0.43232500  1.0
  H  H57  1  0.09769129  0.68277231  0.42791369  1.0
  H  H58  1  0.41315266  0.19575129  0.90588527  1.0
  H  H59  1  0.57994341  0.21284387  0.90568326  1.0
  H  H60  1  0.64329666  0.89791688  0.41391014  1.0
  H  H61  1  0.65186811  0.06217466  0.41141032  1.0
  H  H62  1  0.13065302  0.40390067  0.90198072  1.0
  H  H63  1  0.15025154  0.56956490  0.90075709  1.0
  H  H64  1  0.77192776  0.54351770  0.60324059  1.0
  H  H65  1  0.24993261  0.60732119  0.59369175  1.0
  H  H66  1  0.24982596  0.10096760  0.08160690  1.0
  H  H67  1  0.73228219  0.16509459  0.08156523  1.0
  H  H68  1  0.61290127  0.25531333  0.70412972  1.0
  H  H69  1  0.34834660  0.63855108  0.67889199  1.0
  H  H70  1  0.23329196  0.90119189  0.13547784  1.0
  H  H71  1  0.70150216  0.04961386  0.14281253  1.0
  H  H72  1  0.52814174  0.66779026  0.32498917  1.0
  H  H73  1  0.42252646  0.23597448  0.40930390  1.0
  H  H74  1  0.95626361  0.15237501  0.80833000  1.0
  H  H75  1  0.93583226  0.73121594  0.92206235  1.0
  C  C76  1  0.63658089  0.49940787  0.31987927  1.0
  C  C77  1  0.31534316  0.40544302  0.42177478  1.0
  C  C78  1  0.09923048  0.01383644  0.80603753  1.0
  C  C79  1  0.79037681  0.86769244  0.93195740  1.0
  C  C80  1  0.61460452  0.54945875  0.74221189  1.0
  C  C81  1  0.31371766  0.33640727  0.63759520  1.0
  C  C82  1  0.09804970  0.11857026  0.21321384  1.0
  C  C83  1  0.82099092  0.80488192  0.12212861  1.0
  C  C84  1  0.64458687  0.80129685  0.50794122  1.0
  C  C85  1  0.66902613  0.18108804  0.50188637  1.0
  C  C86  1  0.07929999  0.29579620  0.99317294  1.0
  C  C87  1  0.13050178  0.68647312  0.99018658  1.0
  C  C88  1  0.81266711  0.56700961  0.51147150  1.0
  C  C89  1  0.21261489  0.61871661  0.50261443  1.0
  C  C90  1  0.29348129  0.11410036  0.98986056  1.0
  C  C91  1  0.68561735  0.15553308  0.99008923  1.0
  C  C92  1  0.96572517  0.56239439  0.55301848  1.0
  C  C93  1  0.06092265  0.57244808  0.55021475  1.0
  C  C94  1  0.44362342  0.14220505  0.04111920  1.0
  C  C95  1  0.53887233  0.15137391  0.04081495  1.0
  C  C96  1  0.91312293  0.59186754  0.51117520  1.0
  C  C97  1  0.11364665  0.61414620  0.50539042  1.0
  C  C98  1  0.39248716  0.15115459  0.99246784  1.0
  C  C99  1  0.59215009  0.17095874  0.99214821  1.0
  C  C100  1  0.96587553  0.63661917  0.46642459  1.0
  C  C101  1  0.06169198  0.64734632  0.46372556  1.0
  C  C102  1  0.44708521  0.18216107  0.94485217  1.0
  C  C103  1  0.54277063  0.19164723  0.94462104  1.0
  C  C104  1  0.06541807  0.51689378  0.60252846  1.0
  C  C105  1  0.95751545  0.50595956  0.60572773  1.0
  C  C106  1  0.54167648  0.11439191  0.09995329  1.0
  C  C107  1  0.43389142  0.10496143  0.10053433  1.0
  C  C108  1  0.71637340  0.56238285  0.83007308  1.0
  C  C109  1  0.19846740  0.30660875  0.71680204  1.0
  C  C110  1  0.18488508  0.11936009  0.30533007  1.0
  C  C111  1  0.74743451  0.78216261  0.21573793  1.0
  C  C112  1  0.23384727  0.16692178  0.35155886  1.0
  C  C113  1  0.70163767  0.72847362  0.25769439  1.0
  C  C114  1  0.76124344  0.61985015  0.87406368  1.0
  C  C115  1  0.14126368  0.24588971  0.75092787  1.0
  C  C116  1  0.24549714  0.26220011  0.35871298  1.0
  C  C117  1  0.67670645  0.63296844  0.24983199  1.0
  C  C118  1  0.73671502  0.70338433  0.88907887  1.0
  C  C119  1  0.12777734  0.15105744  0.74092094  1.0
  C  C120  1  0.58746809  0.60478275  0.70141222  1.0
  C  C121  1  0.38025276  0.30851495  0.60255174  1.0
  C  C122  1  0.02191902  0.13984410  0.18570558  1.0
  C  C123  1  0.90426968  0.80152040  0.09512609  1.0
  C  C124  1  0.20105359  0.30708030  0.31936212  1.0
  C  C125  1  0.70076019  0.59357164  0.19835682  1.0
  C  C126  1  0.65510124  0.71885824  0.86466563  1.0
  C  C127  1  0.17060168  0.11931446  0.69320931  1.0
  C  C128  1  0.60998986  0.66151234  0.82108311  1.0
  C  C129  1  0.22775014  0.17998760  0.65884257  1.0
  C  C130  1  0.15181018  0.25958748  0.27331743  1.0
  C  C131  1  0.74679388  0.64780753  0.15595753  1.0
  C  C132  1  0.64418117  0.58620156  0.79946098  1.0
  C  C133  1  0.24524953  0.27505211  0.67068868  1.0
  C  C134  1  0.14467196  0.16502825  0.26444792  1.0
  C  C135  1  0.77031154  0.74320208  0.16371871  1.0
  C  C136  1  0.71471691  0.05094986  0.54962430  1.0
  C  C137  1  0.71004876  0.95748617  0.55106342  1.0
  C  C138  1  0.12206140  0.54348797  0.04292001  1.0
  C  C139  1  0.11066106  0.44922694  0.04359007  1.0
  C  C140  1  0.67896738  0.89939366  0.50333850  1.0
  C  C141  1  0.68879383  0.08995567  0.50039681  1.0
  C  C142  1  0.10912042  0.39528907  0.99297977  1.0
  C  C143  1  0.13266556  0.58956477  0.99155117  1.0
  C  C144  1  0.66558118  0.94055709  0.45211605  1.0
  C  C145  1  0.67022872  0.03366990  0.45068630  1.0
  C  C146  1  0.12744093  0.44217640  0.94213012  1.0
  C  C147  1  0.13867936  0.53657365  0.94143854  1.0
  C  C148  1  0.61264140  0.73639713  0.46361715  1.0
  C  C149  1  0.65598021  0.23460974  0.45610741  1.0
  C  C150  1  0.05087632  0.23437896  0.94645931  1.0
  C  C151  1  0.12791663  0.73971052  0.94247970  1.0
  C  C152  1  0.75512815  0.53987871  0.55810778  1.0
  C  C153  1  0.26954317  0.61201611  0.54939529  1.0
  C  C154  1  0.23640199  0.08619437  0.03646234  1.0
  C  C155  1  0.74156550  0.14780138  0.03706659  1.0
  C  C156  1  0.61180250  0.75552388  0.55731569  1.0
  C  C157  1  0.64276062  0.22902884  0.54938585  1.0
  C  C158  1  0.05654671  0.24084257  0.04047010  1.0
  C  C159  1  0.12108036  0.74705417  0.03609909  1.0
  C  C160  1  0.75228686  0.54761699  0.46439348  1.0
  C  C161  1  0.27327934  0.62464817  0.45637893  1.0
  C  C162  1  0.23843889  0.07666346  0.94235665  1.0
  C  C163  1  0.73347259  0.12657145  0.94369158  1.0
  C  C164  1  0.61303711  0.46645400  0.71044207  1.0
  C  C165  1  0.33687872  0.43352412  0.63460004  1.0
  C  C166  1  0.11786513  0.04621215  0.17782007  1.0
  C  C167  1  0.80708484  0.89247962  0.10992797  1.0
  C  C168  1  0.55905349  0.60895671  0.32936075  1.0
  C  C169  1  0.39523290  0.29688605  0.41750782  1.0
  C  C170  1  0.99843825  0.10211259  0.81305451  1.0
  C  C171  1  0.89583706  0.78364625  0.92738769  1.0
  C  C172  1  0.62659214  0.58079331  0.29556053  1.0
  C  C173  1  0.31090477  0.31584195  0.40011329  1.0
  C  C174  1  0.07580659  0.09005542  0.78190608  1.0
  C  C175  1  0.80078720  0.77777042  0.91943154  1.0
  C  C176  1  0.62526134  0.37832022  0.72902225  1.0
  C  C177  1  0.30870701  0.50883618  0.66569162  1.0
  C  C178  1  0.19136307  0.99576961  0.17904879  1.0
  C  C179  1  0.73000794  0.93437299  0.12669336  1.0
  N  N180  1  0.58009323  0.48152842  0.36493108  1.0
  N  N181  1  0.39692724  0.43746490  0.44859681  1.0
  N  N182  1  0.04145299  0.98406342  0.84876005  1.0
  N  N183  1  0.87314379  0.92208139  0.94458035  1.0
  N  N184  1  0.57097644  0.56025302  0.65049665  1.0
  N  N185  1  0.43675137  0.38129015  0.58011589  1.0
  N  N186  1  0.99906039  0.08541228  0.13828087  1.0
  N  N187  1  0.93751864  0.88121933  0.06986560  1.0
  N  N188  1  0.56286509  0.65981983  0.48506472  1.0
  N  N189  1  0.62458226  0.30803766  0.47497973  1.0
  N  N190  1  0.01291232  0.15108171  0.96503386  1.0
  N  N191  1  0.11769045  0.82405174  0.95892530  1.0
  N  N192  1  0.66819404  0.50560082  0.53960810  1.0
  N  N193  1  0.35651694  0.61376385  0.53293763  1.0
  N  N194  1  0.15562115  0.03455029  0.01789521  1.0
  N  N195  1  0.81545882  0.11541112  0.02033447  1.0
  N  N196  1  0.56247537  0.67168465  0.54269603  1.0
  N  N197  1  0.61590822  0.30434009  0.53301818  1.0
  N  N198  1  0.01635530  0.15497877  0.02290433  1.0
  N  N199  1  0.11317174  0.82865643  0.01723390  1.0
  N  N200  1  0.66673990  0.50989462  0.48188795  1.0
  N  N201  1  0.35870808  0.62144878  0.47487653  1.0
  N  N202  1  0.15678991  0.02867334  0.95997965  1.0
  N  N203  1  0.81056246  0.10271784  0.96214590  1.0
  N  N204  1  0.58691231  0.47580675  0.65549306  1.0
  N  N205  1  0.40913354  0.45631465  0.59861176  1.0
  N  N206  1  0.05747876  0.02851860  0.13318160  1.0
  N  N207  1  0.87829656  0.93711281  0.07876728  1.0
  N  N208  1  0.53156289  0.54966740  0.37044123  1.0
  N  N209  1  0.44628071  0.37051150  0.44563857  1.0
  N  N210  1  0.97807071  0.03878613  0.85269951  1.0
  N  N211  1  0.93794781  0.87020945  0.94159191  1.0
  O  O212  1  0.64755598  0.36050391  0.77673550  1.0
  O  O213  1  0.60594209  0.31105674  0.68594522  1.0
  O  O214  1  0.24194569  0.50986358  0.69572647  1.0
  O  O215  1  0.37350981  0.59077185  0.65911627  1.0
  O  O216  1  0.25874613  0.00783949  0.21030483  1.0
  O  O217  1  0.17783381  0.92664935  0.13608182  1.0
  O  O218  1  0.65011538  0.89526126  0.13305287  1.0
  O  O219  1  0.75827008  0.02744090  0.13603870  1.0
