# generated using pymatgen
data_Zn4H32C36O17
_symmetry_space_group_name_H-M   'P 1'
_cell_length_a   17.80446353
_cell_length_b   18.64629479
_cell_length_c   23.36505181
_cell_angle_alpha   66.59720418
_cell_angle_beta   69.70220667
_cell_angle_gamma   89.94596390
_symmetry_Int_Tables_number   1
_chemical_formula_structural   Zn4H32C36O17
_chemical_formula_sum   'Zn8 H64 C72 O34'
_cell_volume   6591.80285528
_cell_formula_units_Z   2
loop_
 _symmetry_equiv_pos_site_id
 _symmetry_equiv_pos_as_xyz
  1  'x, y, z'
loop_
 _atom_site_type_symbol
 _atom_site_label
 _atom_site_symmetry_multiplicity
 _atom_site_fract_x
 _atom_site_fract_y
 _atom_site_fract_z
 _atom_site_occupancy
  Zn  Zn0  1  0.11844117  0.53101382  0.94152480  1.0
  Zn  Zn1  1  0.97223310  0.55959853  0.05132167  1.0
  Zn  Zn2  1  0.97603110  0.38924173  0.05096006  1.0
  Zn  Zn3  1  0.93872048  0.53051797  0.93479693  1.0
  Zn  Zn4  1  0.38515453  0.97690134  0.05012054  1.0
  Zn  Zn5  1  0.52918417  0.11600955  0.93694302  1.0
  Zn  Zn6  1  0.52365880  0.94602682  0.93723273  1.0
  Zn  Zn7  1  0.56740919  0.97272916  0.05111855  1.0
  H  H8  1  0.49767522  0.86740718  0.26382624  1.0
  H  H9  1  0.26013021  0.87429621  0.25317872  1.0
  H  H10  1  0.25155268  0.63160089  0.73680383  1.0
  H  H11  1  0.01501951  0.63773263  0.72421797  1.0
  H  H12  1  0.62990042  0.01869730  0.72970607  1.0
  H  H13  1  0.62726116  0.24992471  0.73050792  1.0
  H  H14  1  0.86999770  0.25509901  0.25819399  1.0
  H  H15  1  0.86800100  0.48651267  0.25876485  1.0
  H  H16  1  0.19772849  0.30137177  0.91100333  1.0
  H  H17  1  0.12578687  0.22965414  0.98738045  1.0
  H  H18  1  0.21487533  0.13777733  0.98492861  1.0
  H  H19  1  0.28648582  0.21015748  0.90876048  1.0
  H  H20  1  0.21461505  0.12363510  0.09606677  1.0
  H  H21  1  0.28642210  0.18450206  0.10029350  1.0
  H  H22  1  0.12633801  0.21653534  0.09881244  1.0
  H  H23  1  0.19941809  0.27755139  0.10156222  1.0
  H  H24  1  0.30201246  0.39088837  0.91434439  1.0
  H  H25  1  0.30263867  0.38188975  0.99196345  1.0
  H  H26  1  0.39117223  0.28945893  0.99064729  1.0
  H  H27  1  0.39096201  0.29911259  0.91283311  1.0
  H  H28  1  0.89067040  0.80045470  0.90484622  1.0
  H  H29  1  0.88788626  0.78782977  0.98478582  1.0
  H  H30  1  0.79894567  0.88014859  0.98601789  1.0
  H  H31  1  0.80193158  0.89173379  0.90622964  1.0
  H  H32  1  0.69594980  0.77693851  0.09170517  1.0
  H  H33  1  0.62366089  0.71537596  0.08855867  1.0
  H  H34  1  0.78331381  0.68312987  0.09076839  1.0
  H  H35  1  0.71133264  0.62322156  0.08573225  1.0
  H  H36  1  0.78919444  0.71280310  0.89716375  1.0
  H  H37  1  0.71633997  0.63989228  0.97076424  1.0
  H  H38  1  0.62687335  0.73133187  0.97323335  1.0
  H  H39  1  0.69946298  0.80391484  0.89937030  1.0
  H  H40  1  0.16211807  0.79324215  0.93705532  1.0
  H  H41  1  0.24638992  0.75723954  0.89603757  1.0
  H  H42  1  0.33353306  0.85282742  0.89379855  1.0
  H  H43  1  0.24876883  0.88761492  0.93566682  1.0
  H  H44  1  0.39390437  0.74398468  0.96067378  1.0
  H  H45  1  0.35293413  0.70261825  0.04955288  1.0
  H  H46  1  0.30566248  0.64820148  0.96370867  1.0
  H  H47  1  0.26463909  0.60815542  0.05259681  1.0
  H  H48  1  0.10188903  0.73506189  0.06508032  1.0
  H  H49  1  0.14323735  0.65919665  0.11231941  1.0
  H  H50  1  0.23183269  0.75344437  0.11014740  1.0
  H  H51  1  0.18987436  0.82927294  0.06350004  1.0
  H  H52  1  0.89925675  0.26715977  0.92951109  1.0
  H  H53  1  0.85502022  0.34325065  0.88426187  1.0
  H  H54  1  0.76875119  0.24768268  0.88563244  1.0
  H  H55  1  0.81215148  0.17204541  0.93223322  1.0
  H  H56  1  0.64947623  0.29811693  0.94545191  1.0
  H  H57  1  0.60650410  0.25716616  0.03425814  1.0
  H  H58  1  0.73636798  0.39241689  0.94542391  1.0
  H  H59  1  0.69375540  0.34993891  0.03426989  1.0
  H  H60  1  0.83943019  0.20525129  0.05749672  1.0
  H  H61  1  0.75648370  0.23931415  0.10083151  1.0
  H  H62  1  0.66718800  0.14668424  0.10199558  1.0
  H  H63  1  0.75024123  0.11121349  0.06025743  1.0
  H  H64  1  0.16405488  0.78434015  0.43095245  1.0
  H  H65  1  0.41210814  0.77841589  0.44219984  1.0
  H  H66  1  0.10195474  0.72688185  0.54599697  1.0
  H  H67  1  0.34915955  0.72075236  0.55905928  1.0
  H  H68  1  0.72997547  0.34392262  0.55316749  1.0
  H  H69  1  0.73179859  0.10286356  0.55221935  1.0
  H  H70  1  0.77957273  0.40216162  0.43715804  1.0
  H  H71  1  0.78053463  0.16103263  0.43652196  1.0
  C  C72  1  0.14177208  0.63502711  0.00324668  1.0
  C  C73  1  0.90893318  0.41190877  0.17627983  1.0
  C  C74  1  0.14435201  0.36388977  0.00105852  1.0
  C  C75  1  0.86092984  0.36578784  0.99046753  1.0
  C  C76  1  0.09092998  0.59329935  0.81310747  1.0
  C  C77  1  0.86112871  0.64341432  0.98911947  1.0
  C  C78  1  0.36013977  0.14172357  0.99691559  1.0
  C  C79  1  0.58333095  0.09322764  0.81194462  1.0
  C  C80  1  0.35579689  0.86314042  0.99819144  1.0
  C  C81  1  0.64417565  0.86528258  0.99234585  1.0
  C  C82  1  0.41970770  0.91263648  0.17583015  1.0
  C  C83  1  0.64685805  0.13984725  0.99233936  1.0
  C  C84  1  0.38248031  0.87443770  0.25134102  1.0
  C  C85  1  0.43192978  0.85509575  0.28889450  1.0
  C  C86  1  0.39623248  0.82009034  0.35888515  1.0
  C  C87  1  0.31043923  0.80340114  0.39259942  1.0
  C  C88  1  0.26210937  0.82363025  0.35284911  1.0
  C  C89  1  0.29780476  0.85889144  0.28299984  1.0
  C  C90  1  0.27364424  0.76788520  0.46361258  1.0
  C  C91  1  0.24020548  0.73700250  0.52550021  1.0
  C  C92  1  0.20292984  0.70158783  0.59646409  1.0
  C  C93  1  0.25064544  0.68154009  0.63674086  1.0
  C  C94  1  0.21433091  0.64660637  0.70659984  1.0
  C  C95  1  0.12961552  0.63102544  0.73766422  1.0
  C  C96  1  0.08078395  0.65005872  0.69956233  1.0
  C  C97  1  0.11707890  0.68500208  0.62964463  1.0
  C  C98  1  0.62406174  0.13090654  0.73684959  1.0
  C  C99  1  0.64419275  0.08277979  0.70232158  1.0
  C  C100  1  0.68305223  0.11772493  0.63267490  1.0
  C  C101  1  0.70201694  0.20141977  0.59642257  1.0
  C  C102  1  0.68182009  0.24847743  0.63316453  1.0
  C  C103  1  0.64272257  0.21347531  0.70279858  1.0
  C  C104  1  0.73911856  0.23699110  0.52556137  1.0
  C  C105  1  0.76971832  0.26817461  0.46357190  1.0
  C  C106  1  0.80417837  0.30372124  0.39259009  1.0
  C  C107  1  0.82215482  0.25662083  0.35583398  1.0
  C  C108  1  0.85631925  0.29162415  0.28591234  1.0
  C  C109  1  0.87250794  0.37424779  0.25162172  1.0
  C  C110  1  0.85521944  0.42239352  0.28624395  1.0
  C  C111  1  0.82130081  0.38742927  0.35617643  1.0
  C  C112  1  0.18920270  0.25920173  0.96248150  1.0
  C  C113  1  0.24830866  0.19823891  0.96098952  1.0
  C  C114  1  0.30329946  0.20253925  0.99872328  1.0
  C  C115  1  0.24828797  0.18392149  0.07211801  1.0
  C  C116  1  0.18988210  0.24544662  0.07341655  1.0
  C  C117  1  0.20410059  0.30544634  0.00094511  1.0
  C  C118  1  0.29234530  0.34770899  0.96562740  1.0
  C  C119  1  0.35105540  0.28672324  0.96462454  1.0
  C  C120  1  0.84974727  0.78665699  0.95683899  1.0
  C  C121  1  0.79058757  0.84775793  0.95777077  1.0
  C  C122  1  0.70186882  0.80494168  0.99089843  1.0
  C  C123  1  0.68719107  0.74479907  0.06346099  1.0
  C  C124  1  0.74556065  0.68335540  0.06225299  1.0
  C  C125  1  0.80153486  0.70216735  0.98892208  1.0
  C  C126  1  0.74945488  0.70011761  0.94911042  1.0
  C  C127  1  0.69019997  0.76069186  0.95056804  1.0
  C  C128  1  0.21883930  0.77132483  0.93949175  1.0
  C  C129  1  0.27676444  0.83436592  0.93821145  1.0
  C  C130  1  0.29687358  0.80042315  0.00240997  1.0
  C  C131  1  0.33694020  0.72631044  0.00475160  1.0
  C  C132  1  0.27842744  0.66325922  0.00660858  1.0
  C  C133  1  0.19858137  0.69447645  0.00492861  1.0
  C  C134  1  0.15926139  0.71390903  0.06579586  1.0
  C  C135  1  0.21771005  0.77645416  0.06448224  1.0
  C  C136  1  0.84126887  0.28780642  0.92984276  1.0
  C  C137  1  0.78336644  0.22459627  0.93103133  1.0
  C  C138  1  0.70364674  0.19961280  0.99381751  1.0
  C  C139  1  0.66425374  0.27428927  0.99070817  1.0
  C  C140  1  0.72218110  0.33644487  0.99049933  1.0
  C  C141  1  0.80171625  0.30489694  0.99254714  1.0
  C  C142  1  0.78253646  0.22709478  0.05618197  1.0
  C  C143  1  0.72375990  0.16514707  0.05733544  1.0
  O  O144  1  0.00100987  0.50320386  0.99351738  1.0
  O  O145  1  0.17179410  0.60708494  0.95974771  1.0
  O  O146  1  0.91964908  0.48734434  0.14734862  1.0
  O  O147  1  0.07049519  0.33489590  0.03998599  1.0
  O  O148  1  0.06825498  0.61895445  0.04416334  1.0
  O  O149  1  0.17174553  0.43667302  0.96156478  1.0
  O  O150  1  0.92624984  0.36541303  0.14727221  1.0
  O  O151  1  0.89932318  0.33948767  0.02964064  1.0
  O  O152  1  0.01354248  0.57997888  0.83934024  1.0
  O  O153  1  0.86885126  0.43791552  0.94924581  1.0
  O  O154  1  0.13903918  0.57772568  0.84464968  1.0
  O  O155  1  0.90062501  0.63564483  0.02706106  1.0
  O  O156  1  0.86763078  0.60702493  0.95195079  1.0
  O  O157  1  0.50165675  0.00221002  0.99512280  1.0
  O  O158  1  0.32850386  0.06882562  0.03192133  1.0
  O  O159  1  0.56465283  0.13970640  0.84088373  1.0
  O  O160  1  0.42712185  0.87939386  0.95314006  1.0
  O  O161  1  0.43491108  0.16801108  0.96016378  1.0
  O  O162  1  0.32985813  0.89533063  0.03884156  1.0
  O  O163  1  0.57096948  0.01774586  0.84084799  1.0
  O  O164  1  0.60346642  0.87699369  0.95500602  1.0
  O  O165  1  0.49689466  0.92232908  0.14808676  1.0
  O  O166  1  0.64098145  0.89951708  0.03074945  1.0
  O  O167  1  0.37029819  0.93232745  0.14573601  1.0
  O  O168  1  0.61775482  0.16643146  0.94635901  1.0
  O  O169  1  0.63287482  0.06840867  0.03618597  1.0
  O  O170  1  0.17948069  0.80905588  0.38215512  1.0
  O  O171  1  0.44588663  0.80227113  0.39423410  1.0
  O  O172  1  0.06788671  0.70291077  0.59389268  1.0
  O  O173  1  0.33328811  0.69605557  0.60789762  1.0
  O  O174  1  0.70008366  0.32902302  0.60106343  1.0
  O  O175  1  0.70229191  0.06966208  0.60008536  1.0
  O  O176  1  0.80483693  0.43548141  0.38886794  1.0
  O  O177  1  0.80629490  0.17601862  0.38821191  1.0
