# generated using pymatgen
data_Zn3H20C36(NO4)4
_symmetry_space_group_name_H-M   'P 1'
_cell_length_a   21.80109277
_cell_length_b   21.80108848
_cell_length_c   23.65555026
_cell_angle_alpha   62.57565068
_cell_angle_beta   62.55935587
_cell_angle_gamma   90.01160985
_symmetry_Int_Tables_number   1
_chemical_formula_structural   Zn3H20C36(NO4)4
_chemical_formula_sum   'Zn6 H40 C72 N8 O32'
_cell_volume   8528.67510859
_cell_formula_units_Z   2
loop_
 _symmetry_equiv_pos_site_id
 _symmetry_equiv_pos_as_xyz
  1  'x, y, z'
loop_
 _atom_site_type_symbol
 _atom_site_label
 _atom_site_symmetry_multiplicity
 _atom_site_fract_x
 _atom_site_fract_y
 _atom_site_fract_z
 _atom_site_occupancy
  Zn  Zn0  1  0.55898022  0.00002365  0.99999608  1.0
  Zn  Zn1  1  0.53534633  0.53531965  0.92933776  1.0
  Zn  Zn2  1  0.46466214  0.46468603  0.07066087  1.0
  Zn  Zn3  1  0.00002264  0.55897570  0.00000564  1.0
  Zn  Zn4  1  0.44099027  0.00000607  0.00000116  1.0
  Zn  Zn5  1  0.00000773  0.44099033  0.00000160  1.0
  H  H6  1  0.48540869  0.25283553  0.10945602  1.0
  H  H7  1  0.63775132  0.48539055  0.10945252  1.0
  H  H8  1  0.40517606  0.63774423  0.10935334  1.0
  H  H9  1  0.25292016  0.40518675  0.10932215  1.0
  H  H10  1  0.59484493  0.74720313  0.89054778  1.0
  H  H11  1  0.74709706  0.51453087  0.89064428  1.0
  H  H12  1  0.51450851  0.36224104  0.89067808  1.0
  H  H13  1  0.36228960  0.59486515  0.89054513  1.0
  H  H14  1  0.86481844  0.47785918  0.23850009  1.0
  H  H15  1  0.28367152  0.86488604  0.23847740  1.0
  H  H16  1  0.89670400  0.28369281  0.23842551  1.0
  H  H17  1  0.47791481  0.89668753  0.23843611  1.0
  H  H18  1  0.10335720  0.52214783  0.76152422  1.0
  H  H19  1  0.52211579  0.13512812  0.76157471  1.0
  H  H20  1  0.13512801  0.71634912  0.76156262  1.0
  H  H21  1  0.71635699  0.10332151  0.76149850  1.0
  H  H22  1  0.80139837  0.48194772  0.34345472  1.0
  H  H23  1  0.17464097  0.80143021  0.34339824  1.0
  H  H24  1  0.85518369  0.17465431  0.34337041  1.0
  H  H25  1  0.48200803  0.85515532  0.34341711  1.0
  H  H26  1  0.14482318  0.51803498  0.65660202  1.0
  H  H27  1  0.51801956  0.19855396  0.65663117  1.0
  H  H28  1  0.19858151  0.82541951  0.65658419  1.0
  H  H29  1  0.82539852  0.14485836  0.65654458  1.0
  H  H30  1  0.46687386  0.12340723  0.17055934  1.0
  H  H31  1  0.47993277  0.07715319  0.12619245  1.0
  H  H32  1  0.70603129  0.46685370  0.17056933  1.0
  H  H33  1  0.79665139  0.47990481  0.12623145  1.0
  H  H34  1  0.36256327  0.70600338  0.17055658  1.0
  H  H35  1  0.39384831  0.79661191  0.12623180  1.0
  H  H36  1  0.12345078  0.36256207  0.17053063  1.0
  H  H37  1  0.07716759  0.39384010  0.12621178  1.0
  H  H38  1  0.63742475  0.87659774  0.82943217  1.0
  H  H39  1  0.60613948  0.92287900  0.87377203  1.0
  H  H40  1  0.87655978  0.53312222  0.82944097  1.0
  H  H41  1  0.92284307  0.52008179  0.87376678  1.0
  H  H42  1  0.53309352  0.29398073  0.82946831  1.0
  H  H43  1  0.52005345  0.20337933  0.87378702  1.0
  H  H44  1  0.29396597  0.63743334  0.82944128  1.0
  H  H45  1  0.20334527  0.60612485  0.87380758  1.0
  C  C46  1  0.49991176  0.11743451  0.00002605  1.0
  C  C47  1  0.26711739  0.76707610  0.46582634  1.0
  C  C48  1  0.41988562  0.87439027  0.26905496  1.0
  C  C49  1  0.12566055  0.58015932  0.73092026  1.0
  C  C50  1  0.58013747  0.14344097  0.73095267  1.0
  C  C51  1  0.14344840  0.68893766  0.73094511  1.0
  C  C52  1  0.68894311  0.12561855  0.73090161  1.0
  C  C53  1  0.85651628  0.41984790  0.26909770  1.0
  C  C54  1  0.31107888  0.85658284  0.26908132  1.0
  C  C55  1  0.87439206  0.31109167  0.26904724  1.0
  C  C56  1  0.23290884  0.73293562  0.53417318  1.0
  C  C57  1  0.88539046  0.38541692  0.22919100  1.0
  C  C58  1  0.38542510  0.88543755  0.22918522  1.0
  C  C59  1  0.11462217  0.61461002  0.77081473  1.0
  C  C60  1  0.61460381  0.11458199  0.77080906  1.0
  C  C61  1  0.73289538  0.23294857  0.53417336  1.0
  C  C62  1  0.80600213  0.30600188  0.38800952  1.0
  C  C63  1  0.30601710  0.80600584  0.38800515  1.0
  C  C64  1  0.19401635  0.69401809  0.61199305  1.0
  C  C65  1  0.69400624  0.19401849  0.61199255  1.0
  C  C66  1  0.79127391  0.42381966  0.38348053  1.0
  C  C67  1  0.76711177  0.26707588  0.46582833  1.0
  C  C68  1  0.19273331  0.79130184  0.38344086  1.0
  C  C69  1  0.82528417  0.19276593  0.38340225  1.0
  C  C70  1  0.42386268  0.82525152  0.38342951  1.0
  C  C71  1  0.17474237  0.57617125  0.61655669  1.0
  C  C72  1  0.57616366  0.20868799  0.61659771  1.0
  C  C73  1  0.20869138  0.80728795  0.61657000  1.0
  C  C74  1  0.80729321  0.17476050  0.61652221  1.0
  C  C75  1  0.49164194  0.25058370  0.06209594  1.0
  C  C76  1  0.68736276  0.49163733  0.06208291  1.0
  C  C77  1  0.44626497  0.68737556  0.06199466  1.0
  C  C78  1  0.88257688  0.49995246  0.00001841  1.0
  C  C79  1  0.25064662  0.44626805  0.06197067  1.0
  C  C80  1  0.55372062  0.74944556  0.93791806  1.0
  C  C81  1  0.74936899  0.50826131  0.93800533  1.0
  C  C82  1  0.50823833  0.31261505  0.93803019  1.0
  C  C83  1  0.31267754  0.55373737  0.93790577  1.0
  C  C84  1  0.49997469  0.88259530  0.99998298  1.0
  C  C85  1  0.61853982  0.49997220  0.00007619  1.0
  C  C86  1  0.50004625  0.61861352  0.99992776  1.0
  C  C87  1  0.38146910  0.50002229  0.99992306  1.0
  C  C88  1  0.49994583  0.38139057  0.00008188  1.0
  C  C89  1  0.11746067  0.49993717  0.99997365  1.0
  C  C90  1  0.49304170  0.18628563  0.06209075  1.0
  C  C91  1  0.75165929  0.49302803  0.06208452  1.0
  C  C92  1  0.44482010  0.75164379  0.06204389  1.0
  C  C93  1  0.18632759  0.44483142  0.06202860  1.0
  C  C94  1  0.55511530  0.81374136  0.93791651  1.0
  C  C95  1  0.81368697  0.50686312  0.93795500  1.0
  C  C96  1  0.50686036  0.24835582  0.93797156  1.0
  C  C97  1  0.24837721  0.55513382  0.93790839  1.0
  C  C98  1  0.57308007  0.07307846  0.85385602  1.0
  C  C99  1  0.07308212  0.57309927  0.85385707  1.0
  C  C100  1  0.42695612  0.92694000  0.14614171  1.0
  C  C101  1  0.92693870  0.42693765  0.14614369  1.0
  C  C102  1  0.49991202  0.31288960  0.00008869  1.0
  C  C103  1  0.68704600  0.49995461  0.00005940  1.0
  C  C104  1  0.50001649  0.68710698  0.99993677  1.0
  C  C105  1  0.31297802  0.50000072  0.99991131  1.0
  C  C106  1  0.49993414  0.18561024  0.00003010  1.0
  C  C107  1  0.81439330  0.49993214  0.00001792  1.0
  C  C108  1  0.49995233  0.81441050  0.99998428  1.0
  C  C109  1  0.18564090  0.49996416  0.99996944  1.0
  C  C110  1  0.81801705  0.38199481  0.34687540  1.0
  C  C111  1  0.27115810  0.81807355  0.34684664  1.0
  C  C112  1  0.83512411  0.27117581  0.34681473  1.0
  C  C113  1  0.38204055  0.83513112  0.34682329  1.0
  C  C114  1  0.16491918  0.61800035  0.65315481  1.0
  C  C115  1  0.61798648  0.18194233  0.65318672  1.0
  C  C116  1  0.18195982  0.72885890  0.65317700  1.0
  C  C117  1  0.72886513  0.16489937  0.65312551  1.0
  N  N118  1  0.48939794  0.12530055  0.12141221  1.0
  N  N119  1  0.75329151  0.48936979  0.12143451  1.0
  N  N120  1  0.38914877  0.75325920  0.12142618  1.0
  N  N121  1  0.12532789  0.38915770  0.12139987  1.0
  N  N122  1  0.61080579  0.87472396  0.87856802  1.0
  N  N123  1  0.87468510  0.51057474  0.87857259  1.0
  N  N124  1  0.51055930  0.24672709  0.87859884  1.0
  N  N125  1  0.24671104  0.61081051  0.87858897  1.0
  O  O126  1  0.55691191  0.09604706  0.98876628  1.0
  O  O127  1  0.91524728  0.55696347  0.98873915  1.0
  O  O128  1  0.45426574  0.91527931  0.98868091  1.0
  O  O129  1  0.09604749  0.45419539  0.98872021  1.0
  O  O130  1  0.54570418  0.90398712  0.01126144  1.0
  O  O131  1  0.90395665  0.44294216  0.01132189  1.0
  O  O132  1  0.44291715  0.08476719  0.01127960  1.0
  O  O133  1  0.08481031  0.54567778  0.01123395  1.0
  O  O134  1  0.60754993  0.04458646  0.88642656  1.0
  O  O135  1  0.06898032  0.60759669  0.88642586  1.0
  O  O136  1  0.50603240  0.06903026  0.88642241  1.0
  O  O137  1  0.04458286  0.50605682  0.88642750  1.0
  O  O138  1  0.49402088  0.95540651  0.11357052  1.0
  O  O139  1  0.95545934  0.39246157  0.11357566  1.0
  O  O140  1  0.39248178  0.93101199  0.11357303  1.0
  O  O141  1  0.93101804  0.49397953  0.11357196  1.0
  O  O142  1  0.56076680  0.48187231  0.06155068  1.0
  O  O143  1  0.45668509  0.56084151  0.06141280  1.0
  O  O144  1  0.37774963  0.45670359  0.06141242  1.0
  O  O145  1  0.48181419  0.37769157  0.06156368  1.0
  O  O146  1  0.62225476  0.51809578  0.93858431  1.0
  O  O147  1  0.51811863  0.43916496  0.93858536  1.0
  O  O148  1  0.43925696  0.54337355  0.93843380  1.0
  O  O149  1  0.54342500  0.62231759  0.93844484  1.0
  O  O150  1  0.76098993  0.40003052  0.45047284  1.0
  O  O151  1  0.14955526  0.76101695  0.45042180  1.0
  O  O152  1  0.78858998  0.14959096  0.45039146  1.0
  O  O153  1  0.40004556  0.78850361  0.45040467  1.0
  O  O154  1  0.21143822  0.59997180  0.54958006  1.0
  O  O155  1  0.59997764  0.23898172  0.54960699  1.0
  O  O156  1  0.23892284  0.85044448  0.54959559  1.0
  O  O157  1  0.85049704  0.21147578  0.54952559  1.0
