# generated using pymatgen
data_ZnH14C20NO5
_symmetry_space_group_name_H-M   'P 1'
_cell_length_a   9.57887784
_cell_length_b   10.99916087
_cell_length_c   16.07354352
_cell_angle_alpha   90.30390810
_cell_angle_beta   90.23965174
_cell_angle_gamma   90.98058033
_symmetry_Int_Tables_number   1
_chemical_formula_structural   ZnH14C20NO5
_chemical_formula_sum   'Zn2 H28 C40 N2 O10'
_cell_volume   1693.21511611
_cell_formula_units_Z   2
loop_
 _symmetry_equiv_pos_site_id
 _symmetry_equiv_pos_as_xyz
  1  'x, y, z'
loop_
 _atom_site_type_symbol
 _atom_site_label
 _atom_site_symmetry_multiplicity
 _atom_site_fract_x
 _atom_site_fract_y
 _atom_site_fract_z
 _atom_site_occupancy
  Zn  Zn0  1  0.64381216  0.49882330  0.49866628  1.0
  Zn  Zn1  1  0.35953551  0.49395513  0.49940749  1.0
  H  H2  1  0.65121072  0.66749782  0.92529933  1.0
  H  H3  1  0.39310171  0.34292738  0.93278884  1.0
  H  H4  1  0.27669276  0.87941234  0.46636137  1.0
  H  H5  1  0.71813825  0.88461084  0.51290070  1.0
  H  H6  1  0.27561557  0.10804873  0.47387889  1.0
  H  H7  1  0.71790374  0.11333280  0.51798405  1.0
  H  H8  1  0.13294821  0.40435083  0.61142802  1.0
  H  H9  1  0.86471466  0.40948976  0.61163573  1.0
  H  H10  1  0.54733950  0.81129730  0.97752105  1.0
  H  H11  1  0.55443425  0.01464159  0.04197233  1.0
  H  H12  1  0.64203949  0.04406621  0.18574302  1.0
  H  H13  1  0.39037029  0.68339560  0.94121918  1.0
  H  H14  1  0.73195571  0.86563181  0.26478234  1.0
  H  H15  1  0.72769717  0.66103048  0.19979340  1.0
  H  H16  1  0.42334904  0.72265928  0.17706844  1.0
  H  H17  1  0.27266436  0.87612851  0.23833725  1.0
  H  H18  1  0.02818547  0.90160173  0.18617308  1.0
  H  H19  1  0.93933834  0.76864925  0.07133050  1.0
  H  H20  1  0.09090797  0.61235092  0.00989619  1.0
  H  H21  1  0.69023280  0.34523850  0.13607013  1.0
  H  H22  1  0.30578827  0.30535469  0.07306070  1.0
  H  H23  1  0.87082197  0.58937470  0.38554725  1.0
  H  H24  1  0.13904414  0.58710110  0.38623023  1.0
  H  H25  1  0.28373956  0.47675672  0.04717066  1.0
  H  H26  1  0.71642594  0.54488534  0.07816160  1.0
  H  H27  1  0.28122224  0.55812749  0.91514007  1.0
  H  H28  1  0.72687015  0.52357090  0.93766001  1.0
  H  H29  1  0.57643551  0.32924485  0.92008133  1.0
  C  C30  1  0.49767108  0.73321085  0.48953102  1.0
  C  C31  1  0.62187695  0.06110670  0.50692831  1.0
  C  C32  1  0.49650184  0.12341746  0.49704850  1.0
  C  C33  1  0.49747801  0.86923290  0.48955539  1.0
  C  C34  1  0.07283141  0.44539866  0.56151506  1.0
  C  C35  1  0.92764482  0.44769637  0.56151969  1.0
  C  C36  1  0.50251072  0.48737700  0.33567939  1.0
  C  C37  1  0.93104509  0.54925918  0.43576783  1.0
  C  C38  1  0.07628008  0.54765399  0.43601625  1.0
  C  C39  1  0.49587665  0.25922897  0.50228854  1.0
  C  C40  1  0.50772743  0.50848374  0.66235917  1.0
  C  C41  1  0.49518010  0.38369634  0.94966181  1.0
  C  C42  1  0.62657752  0.59124866  0.05036077  1.0
  C  C43  1  0.35288011  0.55754324  0.04437027  1.0
  C  C44  1  0.37458854  0.58540707  0.95089113  1.0
  C  C45  1  0.63634779  0.57836191  0.95450477  1.0
  C  C46  1  0.50678230  0.51351786  0.75222928  1.0
  C  C47  1  0.49534184  0.51469040  0.08136217  1.0
  C  C48  1  0.50292030  0.51659636  0.91812089  1.0
  C  C49  1  0.63501644  0.71989534  0.08440003  1.0
  C  C50  1  0.58869944  0.82139918  0.04050647  1.0
  C  C51  1  0.59221091  0.93697815  0.07669682  1.0
  C  C52  1  0.51936007  0.38129827  0.04454860  1.0
  C  C53  1  0.64223847  0.95366924  0.15768387  1.0
  C  C54  1  0.69157442  0.85386024  0.20163649  1.0
  C  C55  1  0.68897128  0.73849571  0.16499751  1.0
  C  C56  1  0.26978893  0.65597396  0.08792881  1.0
  C  C57  1  0.31792316  0.73104435  0.15289372  1.0
  C  C58  1  0.23147218  0.81842847  0.18822403  1.0
  C  C59  1  0.09546724  0.83297932  0.15911854  1.0
  C  C60  1  0.04566654  0.75843110  0.09443845  1.0
  C  C61  1  0.13176639  0.67083877  0.05983953  1.0
  C  C62  1  0.66670469  0.33977846  0.06825959  1.0
  C  C63  1  0.50597341  0.51607320  0.82783212  1.0
  C  C64  1  0.41914830  0.28915547  0.08399667  1.0
  C  C65  1  0.49393648  0.50473081  0.17113577  1.0
  C  C66  1  0.49846255  0.49110546  0.24601409  1.0
  C  C67  1  0.37249704  0.93170029  0.47795684  1.0
  C  C68  1  0.62223300  0.93477268  0.50368758  1.0
  C  C69  1  0.37185510  0.05802676  0.48215831  1.0
  N  N70  1  0.85858224  0.49935563  0.49852744  1.0
  N  N71  1  0.14519214  0.49540460  0.49883631  1.0
  O  O72  1  0.61532682  0.68213684  0.49860065  1.0
  O  O73  1  0.45663867  0.20029978  0.12262386  1.0
  O  O74  1  0.38036723  0.67775027  0.48163157  1.0
  O  O75  1  0.62228673  0.50092501  0.36965162  1.0
  O  O76  1  0.38594762  0.47251969  0.37219325  1.0
  O  O77  1  0.61365332  0.31466481  0.49737069  1.0
  O  O78  1  0.37810877  0.30988927  0.51107677  1.0
  O  O79  1  0.62615815  0.49776933  0.62753529  1.0
  O  O80  1  0.38961171  0.51520550  0.62586388  1.0
  O  O81  1  0.75158538  0.30190056  0.01869905  1.0
