# generated using pymatgen
data_Zn2H21C22N8Cl
_symmetry_space_group_name_H-M   'P 1'
_cell_length_a   13.00382245
_cell_length_b   13.32801433
_cell_length_c   14.45689547
_cell_angle_alpha   98.35135445
_cell_angle_beta   114.48227209
_cell_angle_gamma   108.86700704
_symmetry_Int_Tables_number   1
_chemical_formula_structural   Zn2H21C22N8Cl
_chemical_formula_sum   'Zn4 H42 C44 N16 Cl2'
_cell_volume   2041.20926193
_cell_formula_units_Z   2
loop_
 _symmetry_equiv_pos_site_id
 _symmetry_equiv_pos_as_xyz
  1  'x, y, z'
loop_
 _atom_site_type_symbol
 _atom_site_label
 _atom_site_symmetry_multiplicity
 _atom_site_fract_x
 _atom_site_fract_y
 _atom_site_fract_z
 _atom_site_occupancy
  Zn  Zn104  1  0.61216600  0.62287108  0.01005960  1.0
  Zn  Zn105  1  0.39278356  0.33742884  0.02342153  1.0
  Zn  Zn106  1  0.29540768  0.51814476  0.85183484  1.0
  Zn  Zn107  1  0.68648934  0.46318095  0.15870703  1.0
  H  H46  1  0.64155463  0.82793830  0.17274575  1.0
  H  H47  1  0.68599378  0.64744368  0.66821502  1.0
  H  H48  1  0.07466186  0.95124963  0.67957980  1.0
  H  H49  1  0.14166101  0.87331112  0.49377428  1.0
  H  H50  1  0.52073613  0.44633994  0.45038300  1.0
  H  H51  1  0.25343789  0.03573277  0.64280520  1.0
  H  H52  1  0.47856732  0.46546540  0.59334275  1.0
  H  H53  1  0.88235294  0.51028951  0.59750962  1.0
  H  H54  1  0.96839280  0.02349658  0.33971759  1.0
  H  H55  1  0.32175513  0.59778887  0.34667575  1.0
  H  H56  1  0.83917534  0.96858667  0.36026759  1.0
  H  H57  1  0.44699757  0.72830778  0.38672331  1.0
  H  H58  1  0.93811789  0.11645626  0.51932873  1.0
  H  H59  1  0.46869747  0.77775714  0.55852050  1.0
  H  H60  1  0.06110849  0.17541019  0.49266372  1.0
  H  H61  1  0.32877164  0.65719596  0.51015588  1.0
  H  H62  1  0.14329172  0.95816228  0.41112353  1.0
  H  H63  1  0.36553258  0.42386762  0.36727358  1.0
  H  H64  1  0.30541463  0.46234270  0.18037719  1.0
  H  H65  1  0.82140665  0.85766377  0.18317890  1.0
  H  H66  1  0.24285763  0.12031735  0.55934405  1.0
  H  H67  1  0.33779640  0.47309651  0.51398046  1.0
  H  H68  1  0.89454539  0.40580957  0.90629410  1.0
  H  H69  1  0.83748032  0.84617390  0.47454469  1.0
  H  H70  1  0.62532651  0.99990006  0.15636530  1.0
  H  H71  1  0.07229528  0.44112740  0.88972979  1.0
  H  H72  1  0.23888523  0.67959534  0.97721649  1.0
  H  H73  1  0.93170556  0.65643725  0.37974195  1.0
  H  H74  1  0.70953454  0.61908813  0.36045285  1.0
  H  H75  1  0.67062732  0.75093249  0.49869224  1.0
  H  H76  1  0.61621136  0.50808033  0.80418898  1.0
  H  H77  1  0.34617631  0.09030905  0.02391195  1.0
  H  H78  1  0.22044366  0.10853410  0.83817787  1.0
  H  H79  1  0.68937047  0.72421388  0.83732898  1.0
  H  H80  1  0.28578965  0.56294363  0.64656355  1.0
  H  H81  1  0.17260185  0.32843918  0.64738721  1.0
  H  H82  1  0.74561411  0.23936239  0.23855156  1.0
  H  H83  1  0.78203466  0.34614529  0.02412547  1.0
  H  H84  1  0.95462484  0.79806858  0.52431656  1.0
  H  H85  1  0.69922589  0.63174045  0.51361586  1.0
  H  H86  1  0.95110399  0.99262361  0.63749050  1.0
  H  H87  1  0.67642101  0.77617439  0.66430174  1.0
  C  C0  1  0.54327150  0.77481460  0.11777694  1.0
  C  C1  1  0.54222316  0.11692151  0.13641168  1.0
  C  C2  1  0.72778647  0.41835747  0.88879767  1.0
  C  C3  1  0.16503055  0.17571165  0.69966470  1.0
  C  C4  1  0.49178952  0.64723520  0.69928214  1.0
  C  C5  1  0.93842193  0.87131722  0.50831223  1.0
  C  C6  1  0.63510346  0.66995859  0.51100486  1.0
  C  C7  1  0.94746264  0.49791250  0.66666667  1.0
  C  C8  1  0.01373900  0.97207588  0.61344525  1.0
  C  C9  1  0.63241136  0.68648751  0.61803852  1.0
  C  C10  1  0.11741725  0.94170580  0.47263849  1.0
  C  C11  1  0.45411176  0.48385080  0.43857014  1.0
  C  C12  1  0.94128928  0.99840804  0.39844768  1.0
  C  C13  1  0.41805711  0.65369189  0.41026566  1.0
  C  C14  1  0.97473691  0.90089595  0.42316907  1.0
  C  C15  1  0.50346397  0.59419497  0.41522743  1.0
  C  C16  1  0.09425748  0.07608236  0.59923721  1.0
  C  C17  1  0.49732331  0.63458444  0.59682276  1.0
  C  C18  1  0.18735510  0.04764984  0.57245294  1.0
  C  C19  1  0.43742237  0.50678337  0.53735829  1.0
  C  C20  1  0.40516051  0.49230257  0.21024057  1.0
  C  C21  1  0.83475232  0.79218678  0.21675628  1.0
  C  C22  1  0.00690471  0.09921018  0.50238211  1.0
  C  C23  1  0.64875778  0.22074370  0.18515216  1.0
  C  C24  1  0.42343611  0.68616029  0.52052674  1.0
  C  C25  1  0.81344218  0.41533082  0.84995179  1.0
  C  C26  1  0.53847955  0.00770177  0.13846886  1.0
  C  C27  1  0.81952739  0.43666090  0.76292384  1.0
  C  C28  1  0.43988071  0.91050565  0.11150092  1.0
  C  C29  1  0.73051329  0.38862737  0.97928141  1.0
  C  C30  1  0.04243458  0.46290789  0.81631725  1.0
  C  C31  1  0.33745029  0.69837020  0.02017013  1.0
  C  C32  1  0.89193296  0.69032291  0.31668419  1.0
  C  C33  1  0.61115919  0.57202891  0.30193208  1.0
  C  C34  1  0.43994497  0.80054071  0.09139136  1.0
  C  C35  1  0.92687532  0.46047475  0.74721811  1.0
  C  C36  1  0.50611650  0.56183308  0.31237210  1.0
  C  C37  1  0.90611269  0.80055105  0.32377642  1.0
  C  C38  1  0.64591596  0.47093649  0.86658298  1.0
  C  C39  1  0.44473285  0.14438555  0.07612973  1.0
  C  C40  1  0.21989737  0.17725673  0.80610845  1.0
  C  C41  1  0.58903560  0.68380133  0.80536232  1.0
  C  C42  1  0.38388953  0.60044583  0.70757404  1.0
  C  C43  1  0.19692655  0.28957119  0.70945568  1.0
  N  N88  1  0.50518127  0.66705568  0.06342371  1.0
  N  N89  1  0.37753996  0.61958306  0.00304637  1.0
  N  N90  1  0.12175226  0.49900750  0.77829744  1.0
  N  N91  1  0.81562095  0.62169231  0.21392481  1.0
  N  N92  1  0.57575707  0.51116487  0.20223980  1.0
  N  N93  1  0.60805574  0.47597862  0.94081453  1.0
  N  N94  1  0.49011658  0.25443498  0.08868839  1.0
  N  N95  1  0.06426090  0.52112980  0.68561310  1.0
  N  N96  1  0.27903493  0.28446224  0.87351172  1.0
  N  N97  1  0.54247730  0.65887479  0.87158379  1.0
  N  N98  1  0.41507936  0.60653730  0.81003585  1.0
  N  N99  1  0.26503841  0.35408684  0.81341795  1.0
  N  N100  1  0.61658997  0.30260386  0.15734625  1.0
  N  N101  1  0.65944803  0.42356710  0.00939844  1.0
  N  N102  1  0.44868643  0.46221150  0.14557963  1.0
  N  N103  1  0.77878567  0.68504405  0.15107403  1.0
  Cl  Cl44  1  0.69247134  0.44471239  0.66100712  1.0
  Cl  Cl45  1  0.29430137  0.90772753  0.08268255  1.0
