# generated using pymatgen
data_Al2H10C22Br3O10F
_symmetry_space_group_name_H-M   'P 1'
_cell_length_a   6.67797269
_cell_length_b   16.42047597
_cell_length_c   17.07579572
_cell_angle_alpha   79.09611385
_cell_angle_beta   90.00136307
_cell_angle_gamma   90.00024879
_symmetry_Int_Tables_number   1
_chemical_formula_structural   Al2H10C22Br3O10F
_chemical_formula_sum   'Al4 H20 C44 Br6 O20 F2'
_cell_volume   1838.64923406
_cell_formula_units_Z   2
loop_
 _symmetry_equiv_pos_site_id
 _symmetry_equiv_pos_as_xyz
  1  'x, y, z'
loop_
 _atom_site_type_symbol
 _atom_site_label
 _atom_site_symmetry_multiplicity
 _atom_site_fract_x
 _atom_site_fract_y
 _atom_site_fract_z
 _atom_site_occupancy
  Al  Al0  1  0.08758225  0.49760128  0.50105822  1.0
  Al  Al1  1  0.58757980  0.50239905  0.49893568  1.0
  Al  Al2  1  0.63372372  0.99995675  0.99918999  1.0
  Al  Al3  1  0.13371783  0.00004017  0.00080458  1.0
  H  H4  1  0.57116173  0.74140436  0.34536533  1.0
  H  H5  1  0.07120593  0.25861563  0.65462484  1.0
  H  H6  1  0.59184987  0.85987283  0.23037720  1.0
  H  H7  1  0.09185219  0.14014649  0.76961598  1.0
  H  H8  1  0.35759369  0.78887156  0.19566647  1.0
  H  H9  1  0.85760351  0.21112624  0.80435577  1.0
  H  H10  1  0.33504630  0.65806266  0.30103819  1.0
  H  H11  1  0.83505787  0.34193158  0.69899060  1.0
  H  H12  1  0.21341249  0.60756448  0.23020391  1.0
  H  H13  1  0.71347415  0.39243722  0.76981455  1.0
  H  H14  1  0.55977009  0.57880572  0.70896013  1.0
  H  H15  1  0.05972087  0.42117636  0.29103444  1.0
  H  H16  1  0.21116390  0.82590323  0.69377322  1.0
  H  H17  1  0.71111206  0.17408738  0.30623637  1.0
  H  H18  1  0.17454304  0.91005901  0.79886120  1.0
  H  H19  1  0.67454304  0.08993481  0.20114535  1.0
  H  H20  1  0.33061530  0.59642224  0.52783726  1.0
  H  H21  1  0.83060893  0.40357901  0.47215156  1.0
  H  H22  1  0.38180412  0.88978437  0.01786603  1.0
  H  H23  1  0.88180597  0.11021697  0.98214013  1.0
  C  C24  1  0.33951412  0.41673955  0.39719225  1.0
  C  C25  1  0.83954486  0.58325347  0.60280438  1.0
  C  C26  1  0.34269605  0.38214399  0.60927424  1.0
  C  C27  1  0.84262681  0.61786540  0.39072586  1.0
  C  C28  1  0.02039477  0.70053481  0.27157388  1.0
  C  C29  1  0.52043010  0.29948748  0.72843766  1.0
  C  C30  1  0.85531407  0.68872306  0.32248077  1.0
  C  C31  1  0.35533085  0.31129313  0.67752169  1.0
  C  C32  1  0.70139519  0.74822909  0.30614504  1.0
  C  C33  1  0.20141229  0.25178674  0.69385068  1.0
  C  C34  1  0.71273934  0.81456863  0.24180376  1.0
  C  C35  1  0.21275017  0.18545428  0.75819610  1.0
  C  C36  1  0.87887978  0.82579523  0.19012929  1.0
  C  C37  1  0.37888722  0.17421045  0.80988935  1.0
  C  C38  1  0.03218375  0.76786620  0.20813457  1.0
  C  C39  1  0.53220067  0.23214157  0.79188899  1.0
  C  C40  1  0.24060138  0.74518279  0.18633485  1.0
  C  C41  1  0.74060115  0.25481725  0.81368842  1.0
  C  C42  1  0.22182665  0.66532868  0.25358721  1.0
  C  C43  1  0.72188246  0.33468470  0.74642404  1.0
  C  C44  1  0.83245346  0.63917749  0.66267941  1.0
  C  C45  1  0.33240810  0.36081129  0.33731724  1.0
  C  C46  1  0.89626327  0.85380032  0.84362570  1.0
  C  C47  1  0.39626577  0.14621496  0.15635477  1.0
  C  C48  1  0.08310773  0.81659585  0.73380948  1.0
  C  C49  1  0.58309351  0.18340323  0.26619752  1.0
  C  C50  1  0.06253134  0.86390004  0.79143074  1.0
  C  C51  1  0.56253017  0.13610234  0.20856907  1.0
  C  C52  1  0.75634304  0.79337566  0.83645992  1.0
  C  C53  1  0.25634808  0.20663163  0.16350555  1.0
  C  C54  1  0.77323709  0.73983665  0.78011660  1.0
  C  C55  1  0.27322776  0.26016048  0.21986980  1.0
  C  C56  1  0.94344906  0.75337677  0.72639428  1.0
  C  C57  1  0.44342748  0.24662086  0.27359769  1.0
  C  C58  1  0.96846081  0.70153741  0.66865691  1.0
  C  C59  1  0.46843541  0.29845167  0.33134407  1.0
  C  C60  1  0.66649874  0.62723477  0.71522219  1.0
  C  C61  1  0.16644921  0.37275446  0.28477664  1.0
  C  C62  1  0.63754105  0.67444960  0.77270166  1.0
  C  C63  1  0.13750310  0.32554526  0.22728757  1.0
  C  C64  1  0.38301670  0.10635993  0.88110343  1.0
  C  C65  1  0.88301927  0.89364992  0.11889315  1.0
  C  C66  1  0.38444868  0.09307748  0.09427276  1.0
  C  C67  1  0.88441600  0.90692930  0.90571431  1.0
  Br  Br68  1  0.40884757  0.64465919  0.83873174  1.0
  Br  Br69  1  0.90880288  0.35532212  0.16125731  1.0
  Br  Br70  1  0.29008393  0.72772491  0.07693272  1.0
  Br  Br71  1  0.79009624  0.27227303  0.92309063  1.0
  Br  Br72  1  0.18852576  0.72456092  0.59625291  1.0
  Br  Br73  1  0.68849245  0.27542680  0.40375012  1.0
  O  O74  1  0.50995559  0.41270037  0.58258533  1.0
  O  O75  1  0.00990782  0.58732389  0.41744823  1.0
  O  O76  1  0.16939862  0.43579024  0.42215209  1.0
  O  O77  1  0.66945531  0.56424080  0.57781252  1.0
  O  O78  1  0.16926670  0.40565605  0.58289082  1.0
  O  O79  1  0.66921586  0.59432366  0.41707471  1.0
  O  O80  1  0.00768123  0.55821213  0.58225222  1.0
  O  O81  1  0.50763590  0.44174174  0.41778000  1.0
  O  O82  1  0.33552411  0.54950936  0.50067433  1.0
  O  O83  1  0.83552346  0.45048923  0.49931869  1.0
  O  O84  1  0.21338590  0.07290875  0.07170846  1.0
  O  O85  1  0.71337795  0.92709370  0.92827723  1.0
  O  O86  1  0.55428376  0.08208263  0.90861696  1.0
  O  O87  1  0.05430568  0.91792219  0.09137984  1.0
  O  O88  1  0.55324940  0.07202101  0.07003586  1.0
  O  O89  1  0.05323761  0.92798084  0.92995739  1.0
  O  O90  1  0.71369744  0.92002613  0.09080439  1.0
  O  O91  1  0.21371032  0.07997773  0.90918666  1.0
  O  O92  1  0.38372330  0.95015173  0.00690295  1.0
  O  O93  1  0.88372628  0.04984915  0.99308952  1.0
  F  F94  1  0.59910048  0.78290534  0.88715384  1.0
  F  F95  1  0.09915989  0.21711628  0.11280776  1.0
