# generated using pymatgen
data_Zn4H12C28S2Br2O13
_symmetry_space_group_name_H-M   'P 1'
_cell_length_a   18.51207372
_cell_length_b   19.71482591
_cell_length_c   32.77204138
_cell_angle_alpha   85.92151815
_cell_angle_beta   73.59082770
_cell_angle_gamma   61.98967253
_symmetry_Int_Tables_number   1
_chemical_formula_structural   Zn4H12C28S2Br2O13
_chemical_formula_sum   'Zn16 H48 C112 S8 Br8 O52'
_cell_volume   10102.64964319
_cell_formula_units_Z   4
loop_
 _symmetry_equiv_pos_site_id
 _symmetry_equiv_pos_as_xyz
  1  'x, y, z'
loop_
 _atom_site_type_symbol
 _atom_site_label
 _atom_site_symmetry_multiplicity
 _atom_site_fract_x
 _atom_site_fract_y
 _atom_site_fract_z
 _atom_site_occupancy
  Zn  Zn0  1  0.87530882  0.55566135  0.51862798  1.0
  Zn  Zn1  1  0.03792531  0.48674853  0.43781121  1.0
  Zn  Zn2  1  0.04023651  0.39803577  0.52388852  1.0
  Zn  Zn3  1  0.04783358  0.55888576  0.51911801  1.0
  Zn  Zn4  1  0.62454624  0.19327971  0.73184972  1.0
  Zn  Zn5  1  0.46334182  0.34971669  0.72517547  1.0
  Zn  Zn6  1  0.45979074  0.26510027  0.81292959  1.0
  Zn  Zn7  1  0.45212770  0.19183835  0.73012387  1.0
  Zn  Zn8  1  0.46303995  0.76195935  0.31231816  1.0
  Zn  Zn9  1  0.45111118  0.69352920  0.23103173  1.0
  Zn  Zn10  1  0.62593232  0.69200586  0.22989066  1.0
  Zn  Zn11  1  0.46019532  0.85191222  0.22607163  1.0
  Zn  Zn12  1  0.03619902  0.90032373  0.02484671  1.0
  Zn  Zn13  1  0.05043372  0.05579743  0.01842178  1.0
  Zn  Zn14  1  0.87436639  0.05898956  0.01956782  1.0
  Zn  Zn15  1  0.03785197  0.98490346  0.93704307  1.0
  H  H16  1  0.90803504  0.29175368  0.60453294  1.0
  H  H17  1  0.81306800  0.24419550  0.65200473  1.0
  H  H18  1  0.54060516  0.48466982  0.62150248  1.0
  H  H19  1  0.54584397  0.52474344  0.66700556  1.0
  H  H20  1  0.64222179  0.57306574  0.61880350  1.0
  H  H21  1  0.63687435  0.53295081  0.57334944  1.0
  H  H22  1  0.19593052  0.55289092  0.34365546  1.0
  H  H23  1  0.29093182  0.60038861  0.29617902  1.0
  H  H24  1  0.35338481  0.67471431  0.43171226  1.0
  H  H25  1  0.26252213  0.76302267  0.42899774  1.0
  H  H26  1  0.16600478  0.71486808  0.47722663  1.0
  H  H27  1  0.25691424  0.62659760  0.47990153  1.0
  H  H28  1  0.90765393  0.55285420  0.34365293  1.0
  H  H29  1  0.81275392  0.60036248  0.29612528  1.0
  H  H30  1  0.54548613  0.76312545  0.42894345  1.0
  H  H31  1  0.54017404  0.67485327  0.43162325  1.0
  H  H32  1  0.63656681  0.62657169  0.47978639  1.0
  H  H33  1  0.64199168  0.71477844  0.47718361  1.0
  H  H34  1  0.20911629  0.50585809  0.59793822  1.0
  H  H35  1  0.30412686  0.45832778  0.64542387  1.0
  H  H36  1  0.33393077  0.17705978  0.63116918  1.0
  H  H37  1  0.24303089  0.21714133  0.67662905  1.0
  H  H38  1  0.14663551  0.26535101  0.62849144  1.0
  H  H39  1  0.23749616  0.22525501  0.58301831  1.0
  H  H40  1  0.59203941  0.19724025  0.90656591  1.0
  H  H41  1  0.68718899  0.14974483  0.95397876  1.0
  H  H42  1  0.95936690  0.07545879  0.81838307  1.0
  H  H43  1  0.95414899  0.98717580  0.82105275  1.0
  H  H44  1  0.85771360  0.03530510  0.77287024  1.0
  H  H45  1  0.86298904  0.12358491  0.77023379  1.0
  H  H46  1  0.29077967  0.10021982  0.79607368  1.0
  H  H47  1  0.19576510  0.05274228  0.84354525  1.0
  H  H48  1  0.16591982  0.21467400  0.97713853  1.0
  H  H49  1  0.25686678  0.12642131  0.97979477  1.0
  H  H50  1  0.35324941  0.17455014  0.93160862  1.0
  H  H51  1  0.26240244  0.26282063  0.92893963  1.0
  H  H52  1  0.29077941  0.74443785  0.15203272  1.0
  H  H53  1  0.19584892  0.79183792  0.10452625  1.0
  H  H54  1  0.25694988  0.03307413  0.07326639  1.0
  H  H55  1  0.16591274  0.07319015  0.11869354  1.0
  H  H56  1  0.26226721  0.02498542  0.16693389  1.0
  H  H57  1  0.35321032  0.98486320  0.12149377  1.0
  H  H58  1  0.59193776  0.95834834  0.14545422  1.0
  H  H59  1  0.68694129  0.00581115  0.09793211  1.0
  H  H60  1  0.95414154  0.72522034  0.08298042  1.0
  H  H61  1  0.95939705  0.76537563  0.12844615  1.0
  H  H62  1  0.86316431  0.71717076  0.17663003  1.0
  H  H63  1  0.85784440  0.67693561  0.13122351  1.0
  C  C64  1  0.86270330  0.56843893  0.43029903  1.0
  C  C65  1  0.12283885  0.31611955  0.43862119  1.0
  C  C66  1  0.86330957  0.42943803  0.56896636  1.0
  C  C67  1  0.13851305  0.43221212  0.56893736  1.0
  C  C68  1  0.87694624  0.68364245  0.56100481  1.0
  C  C69  1  0.13800583  0.56901351  0.43029524  1.0
  C  C70  1  0.63986522  0.31780931  0.68093973  1.0
  C  C71  1  0.37755332  0.43397110  0.81101719  1.0
  C  C72  1  0.63658812  0.18158592  0.81993779  1.0
  C  C73  1  0.36140811  0.18047057  0.81840050  1.0
  C  C74  1  0.62290243  0.06624136  0.68873342  1.0
  C  C75  1  0.36236683  0.32020485  0.68054500  1.0
  C  C76  1  0.36193512  0.68013350  0.31863841  1.0
  C  C77  1  0.62244132  0.56614505  0.18859535  1.0
  C  C78  1  0.63949799  0.68008064  0.31840378  1.0
  C  C79  1  0.63666954  0.82039641  0.18073853  1.0
  C  C80  1  0.37742635  0.93308378  0.31152982  1.0
  C  C81  1  0.36124672  0.81826853  0.18097640  1.0
  C  C82  1  0.13814126  0.92969536  0.06906973  1.0
  C  C83  1  0.87868936  0.18361421  0.06119025  1.0
  C  C84  1  0.86013308  0.93231927  0.06924787  1.0
  C  C85  1  0.86040355  0.06975761  0.93149370  1.0
  C  C86  1  0.12193314  0.81605810  0.93904094  1.0
  C  C87  1  0.13827382  0.06824971  0.93018457  1.0
  C  C88  1  0.73750016  0.80293227  0.60092850  1.0
  C  C89  1  0.76244917  0.94676871  0.64903646  1.0
  C  C90  1  0.82556381  0.75836996  0.58609391  1.0
  C  C91  1  0.67435554  0.99133781  0.66383373  1.0
  C  C92  1  0.78555144  0.87812337  0.62608863  1.0
  C  C93  1  0.71441847  0.87158789  0.62385002  1.0
  C  C94  1  0.20206207  0.22690395  0.36884776  1.0
  C  C95  1  0.29819601  0.02245803  0.38125765  1.0
  C  C96  1  0.17249592  0.24211125  0.41290308  1.0
  C  C97  1  0.32778090  0.00717132  0.33722447  1.0
  C  C98  1  0.25237403  0.10248164  0.39283371  1.0
  C  C99  1  0.24789589  0.14687056  0.35727726  1.0
  C  C100  1  0.69624344  0.34653788  0.65244709  1.0
  C  C101  1  0.80609319  0.40152808  0.59749162  1.0
  C  C102  1  0.66419618  0.41908636  0.63647033  1.0
  C  C103  1  0.83908246  0.32791880  0.61352772  1.0
  C  C104  1  0.71753222  0.44582130  0.60978449  1.0
  C  C105  1  0.78588325  0.30128036  0.64013810  1.0
  C  C106  1  0.58347174  0.49213522  0.63593642  1.0
  C  C107  1  0.64384767  0.52240552  0.60573594  1.0
  C  C108  1  0.30498752  0.65209635  0.34719838  1.0
  C  C109  1  0.19503373  0.59733461  0.40209242  1.0
  C  C110  1  0.28042804  0.66442924  0.39144109  1.0
  C  C111  1  0.21967741  0.58448489  0.35725862  1.0
  C  C112  1  0.22700397  0.63781061  0.41811666  1.0
  C  C113  1  0.27292711  0.61105541  0.33066268  1.0
  C  C114  1  0.28859505  0.70011566  0.42824352  1.0
  C  C115  1  0.22812142  0.66993583  0.45845562  1.0
  C  C116  1  0.69586465  0.65212643  0.34705696  1.0
  C  C117  1  0.80560941  0.59718533  0.40206228  1.0
  C  C118  1  0.66376560  0.66448308  0.39132913  1.0
  C  C119  1  0.83869399  0.58446165  0.35723645  1.0
  C  C120  1  0.71709044  0.63779337  0.41802803  1.0
  C  C121  1  0.78551853  0.61110548  0.33060119  1.0
  C  C122  1  0.58306282  0.70021390  0.42815464  1.0
  C  C123  1  0.64348931  0.66994790  0.45836841  1.0
  C  C124  1  0.30505108  0.34847119  0.65238867  1.0
  C  C125  1  0.19507731  0.40351914  0.59747469  1.0
  C  C126  1  0.27295321  0.30427761  0.64017133  1.0
  C  C127  1  0.22713049  0.44877918  0.60980612  1.0
  C  C128  1  0.21955216  0.33099154  0.61347835  1.0
  C  C129  1  0.28036834  0.42215078  0.63640545  1.0
  C  C130  1  0.27182590  0.22769632  0.64424984  1.0
  C  C131  1  0.21138764  0.25792209  0.61406319  1.0
  C  C132  1  0.29814597  0.58323084  0.82081550  1.0
  C  C133  1  0.20185861  0.66681332  0.92925153  1.0
  C  C134  1  0.32765805  0.50953590  0.83520564  1.0
  C  C135  1  0.17220212  0.74049904  0.91485491  1.0
  C  C136  1  0.24776006  0.60945229  0.89502061  1.0
  C  C137  1  0.25225101  0.64059130  0.85504846  1.0
  C  C138  1  0.80390587  0.09797249  0.90294219  1.0
  C  C139  1  0.69384630  0.15290377  0.84810130  1.0
  C  C140  1  0.83584179  0.08566427  0.85868354  1.0
  C  C141  1  0.66098425  0.16562397  0.89292293  1.0
  C  C142  1  0.78239919  0.11235410  0.83201867  1.0
  C  C143  1  0.71427577  0.13904617  0.91949806  1.0
  C  C144  1  0.91649877  0.05007574  0.82186615  1.0
  C  C145  1  0.85607844  0.08023236  0.79166745  1.0
  C  C146  1  0.19488809  0.09707420  0.90197539  1.0
  C  C147  1  0.30476134  0.15206792  0.84703830  1.0
  C  C148  1  0.22687982  0.13759339  0.91799554  1.0
  C  C149  1  0.27271764  0.11096551  0.83055052  1.0
  C  C150  1  0.28023532  0.16431797  0.89131164  1.0
  C  C151  1  0.21949433  0.08435180  0.85714749  1.0
  C  C152  1  0.22803697  0.16973647  0.95833899  1.0
  C  C153  1  0.28848234  0.19991975  0.92812605  1.0
  C  C154  1  0.64206076  0.44678785  0.14894648  1.0
  C  C155  1  0.85899039  0.30294342  0.10090946  1.0
  C  C156  1  0.67086104  0.49127171  0.16375057  1.0
  C  C157  1  0.83028036  0.25842786  0.08609665  1.0
  C  C158  1  0.79048571  0.37156254  0.12383127  1.0
  C  C159  1  0.71056462  0.37811178  0.12604652  1.0
  C  C160  1  0.19501480  0.90165781  0.09743183  1.0
  C  C161  1  0.30474441  0.84686071  0.15243908  1.0
  C  C162  1  0.22696832  0.94595574  0.10968135  1.0
  C  C163  1  0.27276698  0.80149822  0.14013239  1.0
  C  C164  1  0.28023676  0.91933009  0.13642062  1.0
  C  C165  1  0.21959385  0.82806604  0.11350128  1.0
  C  C166  1  0.22805379  0.02255656  0.10563751  1.0
  C  C167  1  0.28842006  0.99235360  0.13587567  1.0
  C  C168  1  0.80372567  0.90346505  0.09753156  1.0
  C  C169  1  0.69389263  0.84849479  0.15241880  1.0
  C  C170  1  0.83580236  0.83090550  0.11346841  1.0
  C  C171  1  0.66088563  0.92212839  0.13642444  1.0
  C  C172  1  0.78245171  0.80417917  0.14014765  1.0
  C  C173  1  0.71409580  0.94874898  0.10981706  1.0
  C  C174  1  0.91652220  0.75788496  0.11403264  1.0
  C  C175  1  0.85615605  0.72764351  0.14424982  1.0
  S  S176  1  0.88029365  0.80061830  0.60025168  1.0
  S  S177  1  0.61966214  0.94910608  0.64964684  1.0
  S  S178  1  0.20080285  0.15830470  0.44022431  1.0
  S  S179  1  0.29950403  0.09097094  0.30989905  1.0
  S  S180  1  0.29930266  0.51044247  0.89077088  1.0
  S  S181  1  0.20061622  0.73959649  0.85929112  1.0
  S  S182  1  0.78196709  0.44900211  0.14964010  1.0
  S  S183  1  0.71915239  0.30064969  0.10021910  1.0
  Br  Br184  1  0.65390540  0.78040474  0.59335550  1.0
  Br  Br185  1  0.84601744  0.96923125  0.65663726  1.0
  Br  Br186  1  0.18698973  0.29882175  0.32712243  1.0
  Br  Br187  1  0.31334502  0.95051753  0.42303720  1.0
  Br  Br188  1  0.31337044  0.60996195  0.76398670  1.0
  Br  Br189  1  0.18668477  0.64012133  0.98606903  1.0
  Br  Br190  1  0.52844881  0.46942149  0.15642921  1.0
  Br  Br191  1  0.97272911  0.28025659  0.09336857  1.0
  O  O192  1  0.00058756  0.49970027  0.50033398  1.0
  O  O193  1  0.82622529  0.58308056  0.47040977  1.0
  O  O194  1  0.10216613  0.37690990  0.41848539  1.0
  O  O195  1  0.94351222  0.38438564  0.55946527  1.0
  O  O196  1  0.94286151  0.53174479  0.41242177  1.0
  O  O197  1  0.82650013  0.49694190  0.55630552  1.0
  O  O198  1  0.10504754  0.31216004  0.47918838  1.0
  O  O199  1  0.11407863  0.38606215  0.55945039  1.0
  O  O200  1  0.95803487  0.65664848  0.55168075  1.0
  O  O201  1  0.11917989  0.49981325  0.55635275  1.0
  O  O202  1  0.83683844  0.65289572  0.55090052  1.0
  O  O203  1  0.11294291  0.53191783  0.41232520  1.0
  O  O204  1  0.11878952  0.58445586  0.47036247  1.0
  O  O205  1  0.49936204  0.24967421  0.75028224  1.0
  O  O206  1  0.67549895  0.25050565  0.69385616  1.0
  O  O207  1  0.39871734  0.43370715  0.77054050  1.0
  O  O208  1  0.55636211  0.21857213  0.83765445  1.0
  O  O209  1  0.55971685  0.36361465  0.69013692  1.0
  O  O210  1  0.67345958  0.16644391  0.77987647  1.0
  O  O211  1  0.39503581  0.37515779  0.83331799  1.0
  O  O212  1  0.38585105  0.21778916  0.83671353  1.0
  O  O213  1  0.54180372  0.09396830  0.69745407  1.0
  O  O214  1  0.38075441  0.16552574  0.77830336  1.0
  O  O215  1  0.66308656  0.09648429  0.69924573  1.0
  O  O216  1  0.38791833  0.36546223  0.68992730  1.0
  O  O217  1  0.38132222  0.25246947  0.69292687  1.0
  O  O218  1  0.50068100  0.75030723  0.24970714  1.0
  O  O219  1  0.38743201  0.71661486  0.33686906  1.0
  O  O220  1  0.54151633  0.59646484  0.19889224  1.0
  O  O221  1  0.67510497  0.66566317  0.27830861  1.0
  O  O222  1  0.38072489  0.66563113  0.27856797  1.0
  O  O223  1  0.55932733  0.71644930  0.33679643  1.0
  O  O224  1  0.66694109  0.59385809  0.19752548  1.0
  O  O225  1  0.67336812  0.75255482  0.19297437  1.0
  O  O226  1  0.39503206  0.93731698  0.27099219  1.0
  O  O227  1  0.55647324  0.86574196  0.19041776  1.0
  O  O228  1  0.39807393  0.87218260  0.33159055  1.0
  O  O229  1  0.38044926  0.75066201  0.19349358  1.0
  O  O230  1  0.38579645  0.86421162  0.19060750  1.0
  O  O231  1  0.99946062  0.00028203  0.99965367  1.0
  O  O232  1  0.11204448  0.88476868  0.05988321  1.0
  O  O233  1  0.95967911  0.15284251  0.05095889  1.0
  O  O234  1  0.82467861  0.00000318  0.05678382  1.0
  O  O235  1  0.12012854  0.99706698  0.05625198  1.0
  O  O236  1  0.94024506  0.88617351  0.05986079  1.0
  O  O237  1  0.83381077  0.15645792  0.05218790  1.0
  O  O238  1  0.82473756  0.08524217  0.97154168  1.0
  O  O239  1  0.10349275  0.87482181  0.91669331  1.0
  O  O240  1  0.94048914  0.03212556  0.91317887  1.0
  O  O241  1  0.10142561  0.81632541  0.97950284  1.0
  O  O242  1  0.12032165  0.08293461  0.97026273  1.0
  O  O243  1  0.11253331  0.03155731  0.91240962  1.0
