# generated using pymatgen
data_ZnH16C26(NO2)4
_symmetry_space_group_name_H-M   'P 1'
_cell_length_a   11.47729056
_cell_length_b   18.72665779
_cell_length_c   26.52400689
_cell_angle_alpha   89.99986305
_cell_angle_beta   89.99972549
_cell_angle_gamma   88.08594448
_symmetry_Int_Tables_number   1
_chemical_formula_structural   ZnH16C26(NO2)4
_chemical_formula_sum   'Zn4 H64 C104 N16 O32'
_cell_volume   5697.65831820
_cell_formula_units_Z   4
loop_
 _symmetry_equiv_pos_site_id
 _symmetry_equiv_pos_as_xyz
  1  'x, y, z'
loop_
 _atom_site_type_symbol
 _atom_site_label
 _atom_site_symmetry_multiplicity
 _atom_site_fract_x
 _atom_site_fract_y
 _atom_site_fract_z
 _atom_site_occupancy
  Zn  Zn0  1  0.52680119  0.14071878  0.97422938  1.0
  Zn  Zn1  1  0.97320243  0.85927983  0.47422995  1.0
  Zn  Zn2  1  0.47319972  0.85928000  0.02577070  1.0
  Zn  Zn3  1  0.02680024  0.14071840  0.52577164  1.0
  H  H4  1  0.40513284  0.03849103  0.03786956  1.0
  H  H5  1  0.09487217  0.96150836  0.53787011  1.0
  H  H6  1  0.59487232  0.96151039  0.96213052  1.0
  H  H7  1  0.90513218  0.03849146  0.46213186  1.0
  H  H8  1  0.20946030  0.98889907  0.04667382  1.0
  H  H9  1  0.29054382  0.01109817  0.54667480  1.0
  H  H10  1  0.79054676  0.01109807  0.95332551  1.0
  H  H11  1  0.70945690  0.98890542  0.45332452  1.0
  H  H12  1  0.09024978  0.13620257  0.93016825  1.0
  H  H13  1  0.40975423  0.86380198  0.43016592  1.0
  H  H14  1  0.90974747  0.86380050  0.06983598  1.0
  H  H15  1  0.59024903  0.13620373  0.56983341  1.0
  H  H16  1  0.29502432  0.17725588  0.92440115  1.0
  H  H17  1  0.20498237  0.82274867  0.42439819  1.0
  H  H18  1  0.70497288  0.82274880  0.07560233  1.0
  H  H19  1  0.79502535  0.17725434  0.57560227  1.0
  H  H20  1  0.94789858  0.06412966  0.96992121  1.0
  H  H21  1  0.55210665  0.93587376  0.46992064  1.0
  H  H22  1  0.05210583  0.93586856  0.03008000  1.0
  H  H23  1  0.44789481  0.06413356  0.53007756  1.0
  H  H24  1  0.62048976  0.23730144  0.05095392  1.0
  H  H25  1  0.87950625  0.76269805  0.55095571  1.0
  H  H26  1  0.37950676  0.76269790  0.94904503  1.0
  H  H27  1  0.12048940  0.23730129  0.44904625  1.0
  H  H28  1  0.62206158  0.36751944  0.06970173  1.0
  H  H29  1  0.87793685  0.63247998  0.56970412  1.0
  H  H30  1  0.37793931  0.63247987  0.93029496  1.0
  H  H31  1  0.12205884  0.36751830  0.43029709  1.0
  H  H32  1  0.43411161  0.40334355  0.92983174  1.0
  H  H33  1  0.06589087  0.59665566  0.42983511  1.0
  H  H34  1  0.56588848  0.59665363  0.07016382  1.0
  H  H35  1  0.93410740  0.40334367  0.57016686  1.0
  H  H36  1  0.44392142  0.27165398  0.91676255  1.0
  H  H37  1  0.05607688  0.72834424  0.41676421  1.0
  H  H38  1  0.55607261  0.72834217  0.08323678  1.0
  H  H39  1  0.94392577  0.27165453  0.58323814  1.0
  H  H40  1  0.57820975  0.48749221  0.04661843  1.0
  H  H41  1  0.92179677  0.51250723  0.54662358  1.0
  H  H42  1  0.42179636  0.51250707  0.95337599  1.0
  H  H43  1  0.07820499  0.48749208  0.45337801  1.0
  H  H44  1  0.58425791  0.02182608  0.11246596  1.0
  H  H45  1  0.91574183  0.97817212  0.61246505  1.0
  H  H46  1  0.41574475  0.97817216  0.88753450  1.0
  H  H47  1  0.08425546  0.02182988  0.38753503  1.0
  H  H48  1  0.66723025  0.96399982  0.18963743  1.0
  H  H49  1  0.83276868  0.03599760  0.68963640  1.0
  H  H50  1  0.33277241  0.03599841  0.81036265  1.0
  H  H51  1  0.16722961  0.96400120  0.31036405  1.0
  H  H52  1  0.91248142  0.11747612  0.08355663  1.0
  H  H53  1  0.58751603  0.88252219  0.58355657  1.0
  H  H54  1  0.08751950  0.88252212  0.91644345  1.0
  H  H55  1  0.41247860  0.11748144  0.41644125  1.0
  H  H56  1  0.79542799  0.98583145  0.35360609  1.0
  H  H57  1  0.70456740  0.01416600  0.85360537  1.0
  H  H58  1  0.20456170  0.01416420  0.64639323  1.0
  H  H59  1  0.29543517  0.98583491  0.14639358  1.0
  H  H60  1  0.74999062  0.03946683  0.27035330  1.0
  H  H61  1  0.75000395  0.96053036  0.77035164  1.0
  H  H62  1  0.25000515  0.96052931  0.72964640  1.0
  H  H63  1  0.24999256  0.03946951  0.22964618  1.0
  H  H64  1  0.04981131  0.84381402  0.28420194  1.0
  H  H65  1  0.45019177  0.15618834  0.78420160  1.0
  H  H66  1  0.95019211  0.15618741  0.71579889  1.0
  H  H67  1  0.54980819  0.84381259  0.21579848  1.0
  C  C68  1  0.33284429  0.05840243  0.01464915  1.0
  C  C69  1  0.16716091  0.94159865  0.51464882  1.0
  C  C70  1  0.66716002  0.94159846  0.98535131  1.0
  C  C71  1  0.83284161  0.05840333  0.48535088  1.0
  C  C72  1  0.22267425  0.03126155  0.01936991  1.0
  C  C73  1  0.27732924  0.96873738  0.51937006  1.0
  C  C74  1  0.77733186  0.96873773  0.98063092  1.0
  C  C75  1  0.72267064  0.03126568  0.48062964  1.0
  C  C76  1  0.13151305  0.05835805  0.98863380  1.0
  C  C77  1  0.36849132  0.94164310  0.48863218  1.0
  C  C78  1  0.86849133  0.94164070  0.01136817  1.0
  C  C79  1  0.63151020  0.05836262  0.51136602  1.0
  C  C80  1  0.15756690  0.11370522  0.95501851  1.0
  C  C81  1  0.34243431  0.88629713  0.45501629  1.0
  C  C82  1  0.84243304  0.88629624  0.04498421  1.0
  C  C83  1  0.65756552  0.11370699  0.54498304  1.0
  C  C84  1  0.27051952  0.13719716  0.95185634  1.0
  C  C85  1  0.22948433  0.86280518  0.45185439  1.0
  C  C86  1  0.72947865  0.86280484  0.04814638  1.0
  C  C87  1  0.77051906  0.13719679  0.54814607  1.0
  C  C88  1  0.01443913  0.03110745  0.98915460  1.0
  C  C89  1  0.48556432  0.96889478  0.48915307  1.0
  C  C90  1  0.98556442  0.96889025  0.01084699  1.0
  C  C91  1  0.51443627  0.03111255  0.51084550  1.0
  C  C92  1  0.57934725  0.27610627  0.02551546  1.0
  C  C93  1  0.92064906  0.72389277  0.52551762  1.0
  C  C94  1  0.42064927  0.72389307  0.97448311  1.0
  C  C95  1  0.07934834  0.27610657  0.47448397  1.0
  C  C96  1  0.58000047  0.34879231  0.03551766  1.0
  C  C97  1  0.91999750  0.65120615  0.53551994  1.0
  C  C98  1  0.41999869  0.65120648  0.96447940  1.0
  C  C99  1  0.07999992  0.34879265  0.46448165  1.0
  C  C100  1  0.52674221  0.39772656  0.00177541  1.0
  C  C101  1  0.97326046  0.60227251  0.50177917  1.0
  C  C102  1  0.47326129  0.60227273  0.99822052  1.0
  C  C103  1  0.02673870  0.39772628  0.49822317  1.0
  C  C104  1  0.47569681  0.36914270  0.95827351  1.0
  C  C105  1  0.02430276  0.63085591  0.45827577  1.0
  C  C106  1  0.52430326  0.63085502  0.04172318  1.0
  C  C107  1  0.97569553  0.36914288  0.54172582  1.0
  C  C108  1  0.47939408  0.29591562  0.95057827  1.0
  C  C109  1  0.02060555  0.70408355  0.45058042  1.0
  C  C110  1  0.52060339  0.70408158  0.04942030  1.0
  C  C111  1  0.97939537  0.29591470  0.54942192  1.0
  C  C112  1  0.52766264  0.47372674  0.01324797  1.0
  C  C113  1  0.97234252  0.52627228  0.51325261  1.0
  C  C114  1  0.47234262  0.52627201  0.98674645  1.0
  C  C115  1  0.02766011  0.47372702  0.48674973  1.0
  C  C116  1  0.69595927  0.10796918  0.04588759  1.0
  C  C117  1  0.80404118  0.89202976  0.54588707  1.0
  C  C118  1  0.30404165  0.89202906  0.95411211  1.0
  C  C119  1  0.19595880  0.10797062  0.45411264  1.0
  C  C120  1  0.74313432  0.07314535  0.09300112  1.0
  C  C121  1  0.75686478  0.92685238  0.59299988  1.0
  C  C122  1  0.25686838  0.92685181  0.90699858  1.0
  C  C123  1  0.24313255  0.07314855  0.40699832  1.0
  C  C124  1  0.67439256  0.03011212  0.12327456  1.0
  C  C125  1  0.82560705  0.96988658  0.62327385  1.0
  C  C126  1  0.32561010  0.96988611  0.87672552  1.0
  C  C127  1  0.17439031  0.03011383  0.37672585  1.0
  C  C128  1  0.72076327  0.99825692  0.16661594  1.0
  C  C129  1  0.77923325  0.00174166  0.66661546  1.0
  C  C130  1  0.27923765  0.00174132  0.83338377  1.0
  C  C131  1  0.22076414  0.99825767  0.33333333  1.0
  C  C132  1  0.83623057  0.00850603  0.18146810  1.0
  C  C133  1  0.66376577  0.99149304  0.68146657  1.0
  C  C134  1  0.16377031  0.99149328  0.81853311  1.0
  C  C135  1  0.33623069  0.00850791  0.31853313  1.0
  C  C136  1  0.90286824  0.05285701  0.15067514  1.0
  C  C137  1  0.59712846  0.94714162  0.65067495  1.0
  C  C138  1  0.09713353  0.94714176  0.84932570  1.0
  C  C139  1  0.40286797  0.05286039  0.34932438  1.0
  C  C140  1  0.85846646  0.08402449  0.10685787  1.0
  C  C141  1  0.64153249  0.91597320  0.60685764  1.0
  C  C142  1  0.14153537  0.91597268  0.89314221  1.0
  C  C143  1  0.35846478  0.08402934  0.39314131  1.0
  C  C144  1  0.95796561  0.87825502  0.37439473  1.0
  C  C145  1  0.54203298  0.12174394  0.87439303  1.0
  C  C146  1  0.04203099  0.12174218  0.62560573  1.0
  C  C147  1  0.45796964  0.87825536  0.12560629  1.0
  C  C148  1  0.92660235  0.91152990  0.32455008  1.0
  C  C149  1  0.57339502  0.08846976  0.82454875  1.0
  C  C150  1  0.07339516  0.08846623  0.67545076  1.0
  C  C151  1  0.42660485  0.91153329  0.17545095  1.0
  C  C152  1  0.84189575  0.96672080  0.32014581  1.0
  C  C153  1  0.65810081  0.03327836  0.82014440  1.0
  C  C154  1  0.15809917  0.03327481  0.67985465  1.0
  C  C155  1  0.34189993  0.96672470  0.17985455  1.0
  C  C156  1  0.81669086  0.99686013  0.27325697  1.0
  C  C157  1  0.68330621  0.00313917  0.77325517  1.0
  C  C158  1  0.18330746  0.00313759  0.72674349  1.0
  C  C159  1  0.31669370  0.99686282  0.22674340  1.0
  C  C160  1  0.87505507  0.97396920  0.22932502  1.0
  C  C161  1  0.62494416  0.02603183  0.72932369  1.0
  C  C162  1  0.12494755  0.02603010  0.77067581  1.0
  C  C163  1  0.37505312  0.97397071  0.27067526  1.0
  C  C164  1  0.95959586  0.91805298  0.23467636  1.0
  C  C165  1  0.54040246  0.08194751  0.73467549  1.0
  C  C166  1  0.04040587  0.08194686  0.76532485  1.0
  C  C167  1  0.45959483  0.91805450  0.26532384  1.0
  C  C168  1  0.98480746  0.88723578  0.28136199  1.0
  C  C169  1  0.51519038  0.11276402  0.78135999  1.0
  C  C170  1  0.01519257  0.11276300  0.71863960  1.0
  C  C171  1  0.48480779  0.88723798  0.21863971  1.0
  N  N172  1  0.35745386  0.11021248  0.98114030  1.0
  N  N173  1  0.14254972  0.88978870  0.48114000  1.0
  N  N174  1  0.64254690  0.88979004  0.01886091  1.0
  N  N175  1  0.85745283  0.11021274  0.51886159  1.0
  N  N176  1  0.52983661  0.24968617  0.98375010  1.0
  N  N177  1  0.97016079  0.75031245  0.48375198  1.0
  N  N178  1  0.47016084  0.75031156  0.01624848  1.0
  N  N179  1  0.02984011  0.24968633  0.51625036  1.0
  N  N180  1  0.02349800  0.06797088  0.16393912  1.0
  N  N181  1  0.47649957  0.93202763  0.66394005  1.0
  N  N182  1  0.97650290  0.93202790  0.83606021  1.0
  N  N183  1  0.52349779  0.06797277  0.33605928  1.0
  N  N184  1  0.02529438  0.88882826  0.19121409  1.0
  N  N185  1  0.47470371  0.11117175  0.69121340  1.0
  N  N186  1  0.97470999  0.11117103  0.80878750  1.0
  N  N187  1  0.52529014  0.88882921  0.30878668  1.0
  O  O188  1  0.58545671  0.09882018  0.03801410  1.0
  O  O189  1  0.91454292  0.90117987  0.53801332  1.0
  O  O190  1  0.41454333  0.90117861  0.96198598  1.0
  O  O191  1  0.08545703  0.09882106  0.46198676  1.0
  O  O192  1  0.76067670  0.14303198  0.01814169  1.0
  O  O193  1  0.73932574  0.85696865  0.51813947  1.0
  O  O194  1  0.23932498  0.85696947  0.98185990  1.0
  O  O195  1  0.26067689  0.14303065  0.48186023  1.0
  O  O196  1  0.03134035  0.82713439  0.37608289  1.0
  O  O197  1  0.46865927  0.17286342  0.87608135  1.0
  O  O198  1  0.96865900  0.17285906  0.62391681  1.0
  O  O199  1  0.53134411  0.82713908  0.12391836  1.0
  O  O200  1  0.90703586  0.90654974  0.41362036  1.0
  O  O201  1  0.59296745  0.09345121  0.91361898  1.0
  O  O202  1  0.09296951  0.09344581  0.58638086  1.0
  O  O203  1  0.40703165  0.90654919  0.08638035  1.0
  O  O204  1  0.05150816  0.06427454  0.20926332  1.0
  O  O205  1  0.44848965  0.93572756  0.70926355  1.0
  O  O206  1  0.94849347  0.93572797  0.79073676  1.0
  O  O207  1  0.55150854  0.06427391  0.29073616  1.0
  O  O208  1  0.09096832  0.08408199  0.12949515  1.0
  O  O209  1  0.40902980  0.91591182  0.62949700  1.0
  O  O210  1  0.90903364  0.91591197  0.87050380  1.0
  O  O211  1  0.59096670  0.08408806  0.37050384  1.0
  O  O212  1  0.10994880  0.84771162  0.19959626  1.0
  O  O213  1  0.39004923  0.15228730  0.69959454  1.0
  O  O214  1  0.89005299  0.15228662  0.80040609  1.0
  O  O215  1  0.60994636  0.84771365  0.30040517  1.0
  O  O216  1  0.99235161  0.90676263  0.14814756  1.0
  O  O217  1  0.50764943  0.09323705  0.64814673  1.0
  O  O218  1  0.00765274  0.09323719  0.85185366  1.0
  O  O219  1  0.49234444  0.90676338  0.35185297  1.0
