# generated using pymatgen
data_ZnH5C18N2O6F5
_symmetry_space_group_name_H-M   'P 1'
_cell_length_a   9.96355067
_cell_length_b   11.24312329
_cell_length_c   23.80174359
_cell_angle_alpha   88.70342947
_cell_angle_beta   89.68479117
_cell_angle_gamma   89.20796415
_symmetry_Int_Tables_number   1
_chemical_formula_structural   ZnH5C18N2O6F5
_chemical_formula_sum   'Zn2 H10 C36 N4 O12 F10'
_cell_volume   2665.33206335
_cell_formula_units_Z   2
loop_
 _symmetry_equiv_pos_site_id
 _symmetry_equiv_pos_as_xyz
  1  'x, y, z'
loop_
 _atom_site_type_symbol
 _atom_site_label
 _atom_site_symmetry_multiplicity
 _atom_site_fract_x
 _atom_site_fract_y
 _atom_site_fract_z
 _atom_site_occupancy
  Zn  Zn0  1  0.37178208  0.50391290  0.49878816  1.0
  Zn  Zn1  1  0.64296877  0.50530860  0.50091773  1.0
  H  H2  1  0.71023848  0.53708883  0.78374922  1.0
  H  H3  1  0.71887168  0.46346566  0.21466505  1.0
  H  H4  1  0.70670421  0.53700561  0.67853408  1.0
  H  H5  1  0.70144777  0.89220291  0.49105320  1.0
  H  H6  1  0.39203222  0.90398613  0.48513545  1.0
  H  H7  1  0.87589053  0.63828547  0.55311260  1.0
  H  H8  1  0.89706573  0.44111881  0.47442364  1.0
  H  H9  1  0.50448465  0.79654782  0.94493926  1.0
  H  H10  1  0.29422511  0.52021466  0.32194764  1.0
  H  H11  1  0.28535418  0.46736696  0.78557907  1.0
  C  C12  1  0.50809291  0.27426889  0.50201400  1.0
  C  C13  1  0.49179013  0.28166439  0.97222777  1.0
  C  C14  1  0.49031802  0.28115470  0.03173882  1.0
  C  C15  1  0.49285532  0.38592509  0.06157672  1.0
  C  C16  1  0.49671474  0.49608213  0.03071975  1.0
  C  C17  1  0.49975531  0.60576900  0.05954841  1.0
  C  C18  1  0.50219173  0.71123397  0.02735624  1.0
  C  C19  1  0.50246698  0.71241993  0.96859096  1.0
  C  C20  1  0.49179833  0.38280271  0.12394104  1.0
  C  C21  1  0.50172702  0.60744059  0.12175713  1.0
  C  C22  1  0.38655303  0.50963159  0.24022964  1.0
  C  C23  1  0.50481823  0.49639529  0.39061208  1.0
  C  C24  1  0.38717056  0.50886376  0.29830539  1.0
  C  C25  1  0.50820138  0.49358589  0.32764825  1.0
  C  C26  1  0.62611199  0.47749416  0.29609395  1.0
  C  C27  1  0.62544393  0.47715612  0.23770924  1.0
  C  C28  1  0.50472672  0.49401107  0.20940817  1.0
  C  C29  1  0.37841549  0.48440514  0.76280324  1.0
  C  C30  1  0.37892157  0.48681715  0.70435908  1.0
  C  C31  1  0.49621750  0.50612045  0.67274597  1.0
  C  C32  1  0.61504561  0.52320233  0.70279335  1.0
  C  C33  1  0.61731187  0.52255103  0.76117518  1.0
  C  C34  1  0.50306133  0.73600322  0.49308085  1.0
  C  C35  1  0.49826619  0.50283699  0.79077298  1.0
  C  C36  1  0.60295211  0.93619180  0.48944040  1.0
  C  C37  1  0.49308794  0.86732023  0.48891500  1.0
  C  C38  1  0.60701789  0.06420988  0.48874223  1.0
  C  C39  1  0.50487679  0.14264797  0.49890904  1.0
  C  C40  1  0.07076860  0.57211784  0.52594316  1.0
  C  C41  1  0.92288603  0.57118697  0.52633208  1.0
  C  C42  1  0.50045136  0.50881902  0.60966757  1.0
  C  C43  1  0.50069831  0.61113768  0.87811932  1.0
  C  C44  1  0.49656477  0.38751753  0.87860857  1.0
  C  C45  1  0.49511623  0.38743171  0.94105849  1.0
  C  C46  1  0.49735457  0.49600458  0.97068800  1.0
  C  C47  1  0.50036842  0.60605056  0.94051127  1.0
  N  N48  1  0.49842014  0.50083412  0.85150712  1.0
  N  N49  1  0.50160456  0.49450317  0.14911190  1.0
  N  N50  1  0.15823965  0.50639396  0.50075094  1.0
  N  N51  1  0.84836802  0.50189080  0.49898412  1.0
  O  O52  1  0.39527843  0.32482862  0.51113800  1.0
  O  O53  1  0.49618318  0.29704054  0.85090462  1.0
  O  O54  1  0.48422535  0.29158914  0.15284277  1.0
  O  O55  1  0.50471301  0.69785933  0.14940834  1.0
  O  O56  1  0.62093175  0.32422009  0.49534127  1.0
  O  O57  1  0.39113797  0.47871606  0.41394778  1.0
  O  O58  1  0.61389021  0.51766646  0.41562166  1.0
  O  O59  1  0.39289861  0.68162489  0.48549662  1.0
  O  O60  1  0.61645403  0.68690582  0.50424238  1.0
  O  O61  1  0.39048139  0.52603324  0.58376791  1.0
  O  O62  1  0.61565463  0.49451454  0.58691236  1.0
  O  O63  1  0.50247572  0.70506353  0.85087008  1.0
  F  F64  1  0.48954607  0.17497674  0.94849997  1.0
  F  F65  1  0.25979393  0.46712216  0.67906256  1.0
  F  F66  1  0.73207379  0.10741008  0.47910295  1.0
  F  F67  1  0.38171769  0.09571123  0.50845854  1.0
  F  F68  1  0.12303624  0.65608971  0.55725631  1.0
  F  F69  1  0.09796938  0.41987405  0.46839806  1.0
  F  F70  1  0.48696669  0.17396198  0.05704780  1.0
  F  F71  1  0.50475275  0.81760804  0.05185566  1.0
  F  F72  1  0.26892199  0.52540936  0.21213144  1.0
  F  F73  1  0.74645946  0.45907623  0.32144066  1.0
