# generated using pymatgen
data_Mg3H30C32(NO5)4
_symmetry_space_group_name_H-M   'P 1'
_cell_length_a   15.13170758
_cell_length_b   19.55445073
_cell_length_c   19.76064066
_cell_angle_alpha   90.00003233
_cell_angle_beta   89.99990439
_cell_angle_gamma   89.99997653
_symmetry_Int_Tables_number   1
_chemical_formula_structural   Mg3H30C32(NO5)4
_chemical_formula_sum   'Mg12 H120 C128 N16 O80'
_cell_volume   5847.02003770
_cell_formula_units_Z   4
loop_
 _symmetry_equiv_pos_site_id
 _symmetry_equiv_pos_as_xyz
  1  'x, y, z'
loop_
 _atom_site_type_symbol
 _atom_site_label
 _atom_site_symmetry_multiplicity
 _atom_site_fract_x
 _atom_site_fract_y
 _atom_site_fract_z
 _atom_site_occupancy
  Mg  Mg0  1  0.49999879  0.50000134  0.99999843  1.0
  Mg  Mg1  1  0.49999987  0.99999939  0.50000011  1.0
  Mg  Mg2  1  0.99999907  0.99999945  0.99999977  1.0
  Mg  Mg3  1  0.99999909  0.49999907  0.50000066  1.0
  Mg  Mg4  1  0.26896578  0.52968283  0.02690109  1.0
  Mg  Mg5  1  0.73103392  0.97031814  0.52690192  1.0
  Mg  Mg6  1  0.23103525  0.02968185  0.97309955  1.0
  Mg  Mg7  1  0.76896638  0.47031686  0.47309783  1.0
  Mg  Mg8  1  0.73103422  0.47031854  0.97309834  1.0
  Mg  Mg9  1  0.26896477  0.02968119  0.47309954  1.0
  Mg  Mg10  1  0.76896608  0.97031799  0.02690039  1.0
  Mg  Mg11  1  0.23103429  0.52968196  0.52690110  1.0
  H  H12  1  0.20107878  0.58206795  0.39719734  1.0
  H  H13  1  0.79892078  0.91792965  0.89720058  1.0
  H  H14  1  0.29892157  0.08206980  0.60279877  1.0
  H  H15  1  0.70107757  0.41793124  0.10280217  1.0
  H  H16  1  0.79892057  0.41793137  0.60279956  1.0
  H  H17  1  0.20107989  0.08206865  0.10280087  1.0
  H  H18  1  0.70107777  0.91793105  0.39720015  1.0
  H  H19  1  0.29891979  0.58206961  0.89719777  1.0
  H  H20  1  0.64955292  0.79532282  0.96994019  1.0
  H  H21  1  0.35044845  0.70467635  0.46993176  1.0
  H  H22  1  0.85044615  0.29532535  0.03006806  1.0
  H  H23  1  0.14955381  0.20467668  0.53005834  1.0
  H  H24  1  0.35044378  0.20467650  0.03006886  1.0
  H  H25  1  0.64955222  0.29532195  0.53005704  1.0
  H  H26  1  0.14955319  0.70467755  0.96994149  1.0
  H  H27  1  0.85044620  0.79532469  0.46993248  1.0
  H  H28  1  0.61525870  0.87549690  0.95399692  1.0
  H  H29  1  0.38474601  0.62450483  0.45399296  1.0
  H  H30  1  0.88474429  0.37549738  0.04600682  1.0
  H  H31  1  0.11525960  0.12450466  0.54600216  1.0
  H  H32  1  0.38474395  0.12450294  0.04600706  1.0
  H  H33  1  0.61525862  0.37549399  0.54600039  1.0
  H  H34  1  0.11526034  0.62450399  0.95399767  1.0
  H  H35  1  0.88474569  0.87549671  0.45399373  1.0
  H  H36  1  0.67094326  0.50905532  0.29365686  1.0
  H  H37  1  0.32905585  0.99094785  0.79365719  1.0
  H  H38  1  0.82905993  0.00905108  0.70634465  1.0
  H  H39  1  0.17094427  0.49094594  0.20634269  1.0
  H  H40  1  0.32905542  0.49094861  0.70634409  1.0
  H  H41  1  0.67094481  0.00905505  0.20634376  1.0
  H  H42  1  0.17094338  0.99094415  0.29365579  1.0
  H  H43  1  0.82905507  0.50905288  0.79365674  1.0
  H  H44  1  0.64025992  0.53245718  0.37203390  1.0
  H  H45  1  0.35973771  0.96754501  0.87203519  1.0
  H  H46  1  0.85974128  0.03245340  0.62796864  1.0
  H  H47  1  0.14026178  0.46754357  0.12796518  1.0
  H  H48  1  0.35973877  0.46754573  0.62796806  1.0
  H  H49  1  0.64026098  0.03245687  0.12796677  1.0
  H  H50  1  0.14026071  0.96754183  0.37203332  1.0
  H  H51  1  0.85973625  0.53245626  0.87203425  1.0
  H  H52  1  0.55473812  0.70052907  0.97975518  1.0
  H  H53  1  0.44526587  0.79947266  0.47974922  1.0
  H  H54  1  0.94526232  0.20052697  0.02025099  1.0
  H  H55  1  0.05473700  0.29947148  0.52024093  1.0
  H  H56  1  0.44526189  0.29947434  0.02025234  1.0
  H  H57  1  0.55473678  0.20052819  0.52024261  1.0
  H  H58  1  0.05473703  0.79947184  0.97975553  1.0
  H  H59  1  0.94526300  0.70052631  0.47975192  1.0
  H  H60  1  0.27495344  0.73787662  0.97046468  1.0
  H  H61  1  0.72504793  0.76212306  0.47046847  1.0
  H  H62  1  0.22504616  0.23787766  0.02952949  1.0
  H  H63  1  0.77495446  0.26212335  0.52953419  1.0
  H  H64  1  0.72504392  0.26212475  0.02952918  1.0
  H  H65  1  0.27495406  0.23787728  0.52953400  1.0
  H  H66  1  0.77495384  0.76212269  0.97046437  1.0
  H  H67  1  0.22504621  0.73787393  0.47047181  1.0
  H  H68  1  0.45547037  0.90738532  0.97035480  1.0
  H  H69  1  0.54452836  0.59261641  0.47035366  1.0
  H  H70  1  0.04452518  0.40738488  0.02964706  1.0
  H  H71  1  0.95547346  0.09261613  0.52964587  1.0
  H  H72  1  0.54452502  0.09261759  0.02964767  1.0
  H  H73  1  0.45547098  0.40738393  0.52964375  1.0
  H  H74  1  0.95547350  0.59261547  0.97035541  1.0
  H  H75  1  0.04452787  0.90738319  0.47035508  1.0
  H  H76  1  0.47797153  0.51602054  0.40588512  1.0
  H  H77  1  0.52202735  0.98398269  0.90588673  1.0
  H  H78  1  0.02202952  0.01601634  0.59411449  1.0
  H  H79  1  0.97797229  0.48397857  0.09411353  1.0
  H  H80  1  0.52202518  0.48397980  0.59411481  1.0
  H  H81  1  0.47797200  0.01602073  0.09411473  1.0
  H  H82  1  0.97797247  0.98397736  0.40588646  1.0
  H  H83  1  0.02202640  0.51602025  0.90588641  1.0
  H  H84  1  0.29795567  0.54225445  0.23814220  1.0
  H  H85  1  0.70204357  0.95774459  0.73814458  1.0
  H  H86  1  0.20204669  0.04225642  0.76185540  1.0
  H  H87  1  0.79795674  0.45774523  0.26185718  1.0
  H  H88  1  0.70204632  0.45774385  0.76185369  1.0
  H  H89  1  0.29795445  0.04225678  0.26185840  1.0
  H  H90  1  0.79795531  0.95774546  0.23814403  1.0
  H  H91  1  0.20204526  0.54225665  0.73814629  1.0
  H  H92  1  0.57229356  0.50221645  0.20040336  1.0
  H  H93  1  0.42770774  0.99778922  0.70040408  1.0
  H  H94  1  0.92771162  0.00221224  0.79959713  1.0
  H  H95  1  0.07229304  0.49778636  0.29959530  1.0
  H  H96  1  0.42770975  0.49779054  0.79959657  1.0
  H  H97  1  0.57229227  0.00221573  0.29959737  1.0
  H  H98  1  0.07229170  0.99778299  0.20040432  1.0
  H  H99  1  0.92770895  0.50221194  0.70040413  1.0
  H  H100  1  0.37385846  0.46369605  0.92878624  1.0
  H  H101  1  0.62614063  0.03630467  0.42879053  1.0
  H  H102  1  0.12613904  0.96369710  0.07121059  1.0
  H  H103  1  0.87385924  0.53630338  0.57121403  1.0
  H  H104  1  0.62613825  0.53630583  0.07120864  1.0
  H  H105  1  0.37385872  0.96369567  0.57121346  1.0
  H  H106  1  0.87385965  0.03630580  0.92878681  1.0
  H  H107  1  0.12614011  0.46369441  0.42878995  1.0
  H  H108  1  0.34350888  0.41632731  0.99355995  1.0
  H  H109  1  0.65648874  0.08367089  0.49356474  1.0
  H  H110  1  0.15648666  0.91632832  0.00643736  1.0
  H  H111  1  0.84351111  0.58367263  0.50644035  1.0
  H  H112  1  0.65648782  0.58367201  0.00643340  1.0
  H  H113  1  0.34350995  0.91632588  0.50643975  1.0
  H  H114  1  0.84351005  0.08367407  0.99356106  1.0
  H  H115  1  0.15648824  0.41632925  0.49356515  1.0
  H  H116  1  0.15415576  0.57139972  0.11720037  1.0
  H  H117  1  0.84584506  0.92859670  0.61719900  1.0
  H  H118  1  0.34584459  0.07140376  0.88280181  1.0
  H  H119  1  0.65415460  0.42860051  0.38279970  1.0
  H  H120  1  0.84584358  0.42859705  0.88280311  1.0
  H  H121  1  0.15415428  0.07140058  0.38280043  1.0
  H  H122  1  0.65415674  0.92859914  0.11719864  1.0
  H  H123  1  0.34584475  0.57140341  0.61719770  1.0
  H  H124  1  0.14515353  0.62490619  0.05379708  1.0
  H  H125  1  0.85484611  0.87509326  0.55379365  1.0
  H  H126  1  0.35484680  0.12490771  0.94620664  1.0
  H  H127  1  0.64515027  0.37509251  0.44620351  1.0
  H  H128  1  0.85484780  0.37509262  0.94620741  1.0
  H  H129  1  0.14515125  0.12490760  0.44620426  1.0
  H  H130  1  0.64515387  0.87509417  0.05379633  1.0
  H  H131  1  0.35484842  0.62490732  0.55379238  1.0
  C  C132  1  0.43322860  0.51962019  0.21244760  1.0
  C  C133  1  0.56677201  0.98038395  0.71245016  1.0
  C  C134  1  0.06677376  0.01961455  0.78755101  1.0
  C  C135  1  0.93322960  0.48038047  0.28755060  1.0
  C  C136  1  0.56677008  0.48038476  0.78754930  1.0
  C  C137  1  0.43322932  0.01961895  0.28755180  1.0
  C  C138  1  0.93322757  0.98037915  0.21244943  1.0
  C  C139  1  0.06677041  0.51961732  0.71245034  1.0
  C  C140  1  0.41330597  0.71196383  0.97440575  1.0
  C  C141  1  0.58669671  0.78803790  0.47440467  1.0
  C  C142  1  0.08669365  0.21196235  0.02559448  1.0
  C  C143  1  0.91330699  0.28803661  0.52559042  1.0
  C  C144  1  0.58669338  0.28804061  0.02559722  1.0
  C  C145  1  0.41330594  0.21196347  0.52559071  1.0
  C  C146  1  0.91330636  0.78803646  0.97440698  1.0
  C  C147  1  0.08669368  0.71196016  0.47440699  1.0
  C  C148  1  0.51610201  0.80698822  0.97433487  1.0
  C  C149  1  0.48390001  0.69301352  0.47433184  1.0
  C  C150  1  0.98389573  0.30698610  0.02566833  1.0
  C  C151  1  0.01610490  0.19301337  0.52566181  1.0
  C  C152  1  0.48389337  0.19301469  0.02567013  1.0
  C  C153  1  0.51610264  0.30698683  0.52565950  1.0
  C  C154  1  0.01610428  0.69301322  0.97433566  1.0
  C  C155  1  0.98389709  0.80698596  0.47433509  1.0
  C  C156  1  0.49999281  0.73668351  0.97631303  1.0
  C  C157  1  0.50000459  0.76331618  0.47630800  1.0
  C  C158  1  0.00000151  0.23668461  0.02369126  1.0
  C  C159  1  0.99999450  0.26331741  0.52368303  1.0
  C  C160  1  0.49999927  0.26331786  0.02369399  1.0
  C  C161  1  0.49999344  0.23668263  0.52368283  1.0
  C  C162  1  0.99999321  0.76331727  0.97631323  1.0
  C  C163  1  0.00000088  0.73668345  0.47631134  1.0
  C  C164  1  0.38084972  0.52938987  0.32728197  1.0
  C  C165  1  0.61914998  0.97060922  0.82728294  1.0
  C  C166  1  0.11915132  0.02938977  0.67271664  1.0
  C  C167  1  0.88084966  0.47060978  0.17271883  1.0
  C  C168  1  0.61914963  0.47060945  0.67271696  1.0
  C  C169  1  0.38085201  0.02939112  0.17271852  1.0
  C  C170  1  0.88085001  0.97060904  0.32728279  1.0
  C  C171  1  0.11914837  0.52939210  0.82728212  1.0
  C  C172  1  0.31070160  0.54032296  0.37818117  1.0
  C  C173  1  0.68929601  0.95967412  0.87818306  1.0
  C  C174  1  0.18929679  0.04032588  0.62181694  1.0
  C  C175  1  0.81070297  0.45967569  0.12181921  1.0
  C  C176  1  0.68929577  0.45967432  0.62181471  1.0
  C  C177  1  0.31070267  0.04032572  0.12181890  1.0
  C  C178  1  0.81070189  0.95967498  0.37818249  1.0
  C  C179  1  0.18929704  0.54032670  0.87818275  1.0
  C  C180  1  0.35771804  0.82778351  0.96820005  1.0
  C  C181  1  0.64228532  0.67221976  0.46820086  1.0
  C  C182  1  0.14228284  0.32778201  0.03179873  1.0
  C  C183  1  0.85772043  0.17221746  0.53179872  1.0
  C  C184  1  0.64228263  0.17222093  0.03179988  1.0
  C  C185  1  0.35771865  0.32778315  0.53179706  1.0
  C  C186  1  0.85772047  0.67221629  0.96820121  1.0
  C  C187  1  0.14228487  0.82777726  0.46820375  1.0
  C  C188  1  0.53764104  0.51171816  0.30629975  1.0
  C  C189  1  0.46235739  0.98828603  0.80630093  1.0
  C  C190  1  0.96235951  0.01171336  0.69370075  1.0
  C  C191  1  0.03764274  0.48828058  0.19370047  1.0
  C  C192  1  0.46235632  0.48828628  0.69369917  1.0
  C  C193  1  0.53764196  0.01171943  0.19370205  1.0
  C  C194  1  0.03764050  0.98827880  0.30629868  1.0
  C  C195  1  0.96235660  0.51171619  0.80629997  1.0
  C  C196  1  0.40014488  0.63643883  0.97885297  1.0
  C  C197  1  0.59985647  0.86356086  0.47885343  1.0
  C  C198  1  0.09985610  0.13643837  0.02114621  1.0
  C  C199  1  0.90014521  0.36356059  0.52114423  1.0
  C  C200  1  0.59985381  0.36356408  0.02114697  1.0
  C  C201  1  0.40014552  0.13643795  0.52114449  1.0
  C  C202  1  0.90014457  0.86356198  0.97885372  1.0
  C  C203  1  0.09985414  0.63643669  0.47885418  1.0
  C  C204  1  0.34210779  0.75731055  0.97053752  1.0
  C  C205  1  0.65788896  0.74269016  0.47053885  1.0
  C  C206  1  0.15788784  0.25731059  0.02946122  1.0
  C  C207  1  0.84210882  0.24268991  0.52946229  1.0
  C  C208  1  0.65788826  0.24269184  0.02946141  1.0
  C  C209  1  0.34210841  0.25731019  0.52945957  1.0
  C  C210  1  0.84210886  0.74269027  0.97053719  1.0
  C  C211  1  0.15788788  0.75730737  0.47054271  1.0
  C  C212  1  0.44451920  0.85234107  0.97016502  1.0
  C  C213  1  0.55547953  0.64765861  0.47016542  1.0
  C  C214  1  0.05547637  0.35234165  0.02983681  1.0
  C  C215  1  0.94452227  0.14765987  0.52983415  1.0
  C  C216  1  0.55547486  0.14765978  0.02983694  1.0
  C  C217  1  0.44452048  0.35234020  0.52983148  1.0
  C  C218  1  0.94452033  0.64765920  0.97016515  1.0
  C  C219  1  0.05547840  0.85233997  0.47016731  1.0
  C  C220  1  0.46686577  0.51853402  0.35149064  1.0
  C  C221  1  0.53313455  0.98146508  0.85149273  1.0
  C  C222  1  0.03313660  0.01853292  0.64850898  1.0
  C  C223  1  0.96686839  0.48146202  0.14850904  1.0
  C  C224  1  0.53313490  0.48146325  0.64850879  1.0
  C  C225  1  0.46686612  0.01853680  0.14851024  1.0
  C  C226  1  0.96686539  0.98146232  0.35149096  1.0
  C  C227  1  0.03313426  0.51853730  0.85149191  1.0
  C  C228  1  0.36370500  0.53134900  0.25757017  1.0
  C  C229  1  0.63629551  0.96865108  0.75757263  1.0
  C  C230  1  0.13629736  0.03134996  0.74242895  1.0
  C  C231  1  0.86370677  0.46864964  0.24242913  1.0
  C  C232  1  0.63629567  0.46864981  0.74242724  1.0
  C  C233  1  0.36370515  0.03135131  0.24243135  1.0
  C  C234  1  0.86370464  0.96864937  0.25757048  1.0
  C  C235  1  0.13629522  0.53135122  0.75757283  1.0
  C  C236  1  0.51911776  0.51030926  0.23680707  1.0
  C  C237  1  0.48088346  0.98969490  0.73680924  1.0
  C  C238  1  0.98088543  0.01030450  0.76319241  1.0
  C  C239  1  0.01911865  0.48969000  0.26319216  1.0
  C  C240  1  0.48088555  0.48969569  0.76319134  1.0
  C  C241  1  0.51911787  0.01031005  0.26319322  1.0
  C  C242  1  0.01911590  0.98968767  0.23680601  1.0
  C  C243  1  0.98088664  0.51030575  0.73680879  1.0
  C  C244  1  0.41833612  0.51742169  0.13712363  1.0
  C  C245  1  0.58166334  0.98257985  0.63712465  1.0
  C  C246  1  0.08166691  0.01741864  0.86287497  1.0
  C  C247  1  0.91833431  0.48257795  0.36287358  1.0
  C  C248  1  0.58166455  0.48258121  0.86287529  1.0
  C  C249  1  0.41833667  0.01742152  0.36287680  1.0
  C  C250  1  0.91833376  0.98257659  0.13712699  1.0
  C  C251  1  0.08166438  0.51742086  0.63712585  1.0
  C  C252  1  0.28248527  0.87776191  0.96812673  1.0
  C  C253  1  0.71752073  0.62224238  0.46813096  1.0
  C  C254  1  0.21751954  0.37775784  0.03187106  1.0
  C  C255  1  0.78248637  0.12223703  0.53187719  1.0
  C  C256  1  0.71752002  0.12224304  0.03187118  1.0
  C  C257  1  0.28248589  0.37776206  0.53187353  1.0
  C  C258  1  0.78248575  0.62223893  0.96812230  1.0
  C  C259  1  0.21752091  0.87775666  0.46813135  1.0
  N  N260  1  0.60297917  0.83150436  0.98002087  1.0
  N  N261  1  0.39702350  0.66849635  0.48001490  1.0
  N  N262  1  0.89701988  0.33150534  0.01998436  1.0
  N  N263  1  0.10298077  0.16849617  0.51997569  1.0
  N  N264  1  0.39701951  0.16849649  0.01998564  1.0
  N  N265  1  0.60297915  0.33150297  0.51997441  1.0
  N  N266  1  0.10297947  0.66849654  0.98002165  1.0
  N  N267  1  0.89702122  0.83150469  0.48001665  1.0
  N  N268  1  0.62399347  0.50362230  0.33013394  1.0
  N  N269  1  0.37600689  0.99637935  0.83013473  1.0
  N  N270  1  0.87600973  0.00361854  0.66986807  1.0
  N  N271  1  0.12399390  0.49637794  0.16986516  1.0
  N  N272  1  0.37600588  0.49637907  0.66986701  1.0
  N  N273  1  0.62399378  0.00362457  0.16986723  1.0
  N  N274  1  0.12399292  0.99637465  0.33013237  1.0
  N  N275  1  0.87600611  0.50362189  0.83013376  1.0
  O  O276  1  0.46664828  0.59994278  0.99034141  1.0
  O  O277  1  0.53335305  0.90005845  0.49034501  1.0
  O  O278  1  0.03335272  0.09993773  0.00965522  1.0
  O  O279  1  0.96664729  0.40005610  0.50965166  1.0
  O  O280  1  0.53334975  0.40006268  0.00965701  1.0
  O  O281  1  0.46664696  0.09994292  0.50965037  1.0
  O  O282  1  0.96664663  0.90005903  0.99034219  1.0
  O  O283  1  0.03334876  0.59994066  0.49034979  1.0
  O  O284  1  0.18546423  0.59356959  0.07884431  1.0
  O  O285  1  0.81453536  0.90642782  0.57884297  1.0
  O  O286  1  0.31453678  0.09357162  0.92115889  1.0
  O  O287  1  0.68546101  0.40643268  0.42115673  1.0
  O  O288  1  0.81453710  0.40642973  0.92115967  1.0
  O  O289  1  0.18546200  0.09356843  0.42115696  1.0
  O  O290  1  0.68546522  0.90643077  0.07884307  1.0
  O  O291  1  0.31453834  0.59357023  0.57883915  1.0
  O  O292  1  0.32083395  0.61216559  0.97101015  1.0
  O  O293  1  0.67917006  0.88783358  0.47100900  1.0
  O  O294  1  0.17916836  0.11216409  0.02898851  1.0
  O  O295  1  0.82083293  0.38783181  0.52898665  1.0
  O  O296  1  0.67916539  0.38783680  0.02898979  1.0
  O  O297  1  0.32083391  0.11216574  0.52898689  1.0
  O  O298  1  0.82083032  0.88783268  0.97100991  1.0
  O  O299  1  0.17916312  0.61216240  0.47100873  1.0
  O  O300  1  0.48661200  0.50696063  0.10096180  1.0
  O  O301  1  0.51338886  0.99304141  0.60096292  1.0
  O  O302  1  0.01339170  0.00695557  0.89903680  1.0
  O  O303  1  0.98661142  0.49303848  0.39903886  1.0
  O  O304  1  0.51338933  0.49304228  0.89903712  1.0
  O  O305  1  0.48661247  0.00695843  0.39904005  1.0
  O  O306  1  0.98660633  0.99303915  0.10096314  1.0
  O  O307  1  0.01338991  0.50695675  0.60096411  1.0
  O  O308  1  0.34039451  0.52542806  0.11491995  1.0
  O  O309  1  0.65960897  0.97457296  0.61491935  1.0
  O  O310  1  0.15960984  0.02542705  0.88507967  1.0
  O  O311  1  0.84039397  0.47457365  0.38507888  1.0
  O  O312  1  0.65961013  0.47457382  0.88507897  1.0
  O  O313  1  0.34039501  0.02542483  0.38507907  1.0
  O  O314  1  0.84039281  0.97457023  0.11492027  1.0
  O  O315  1  0.15960868  0.52543181  0.61492207  1.0
  O  O316  1  0.29919522  0.93979228  0.95137374  1.0
  O  O317  1  0.70080421  0.56020790  0.45137188  1.0
  O  O318  1  0.20080229  0.43979283  0.04863016  1.0
  O  O319  1  0.79919829  0.06020615  0.54862915  1.0
  O  O320  1  0.70080545  0.06020704  0.04862771  1.0
  O  O321  1  0.29919910  0.43979449  0.54862300  1.0
  O  O322  1  0.79919837  0.56020701  0.95137332  1.0
  O  O323  1  0.20080172  0.93979011  0.45137331  1.0
  O  O324  1  0.20667161  0.85662863  0.98690147  1.0
  O  O325  1  0.79332378  0.64337004  0.48690561  1.0
  O  O326  1  0.29332463  0.35663015  0.01309732  1.0
  O  O327  1  0.70667141  0.14336829  0.51310306  1.0
  O  O328  1  0.79332444  0.14337120  0.01309644  1.0
  O  O329  1  0.20667160  0.35662928  0.51309888  1.0
  O  O330  1  0.70667009  0.64337173  0.98689401  1.0
  O  O331  1  0.29332596  0.85662848  0.48690599  1.0
  O  O332  1  0.23380217  0.56412317  0.35533936  1.0
  O  O333  1  0.76619682  0.93587338  0.85534164  1.0
  O  O334  1  0.26619687  0.06412710  0.64465775  1.0
  O  O335  1  0.73380152  0.43587653  0.14466011  1.0
  O  O336  1  0.76619983  0.43587769  0.64465754  1.0
  O  O337  1  0.23380253  0.06412697  0.14466032  1.0
  O  O338  1  0.73380115  0.93587682  0.35534117  1.0
  O  O339  1  0.26619651  0.56412638  0.85533983  1.0
  O  O340  1  0.32366834  0.53018564  0.43987552  1.0
  O  O341  1  0.67632517  0.96981096  0.93987540  1.0
  O  O342  1  0.17632675  0.03018955  0.56012259  1.0
  O  O343  1  0.82367183  0.46981301  0.06012535  1.0
  O  O344  1  0.67632902  0.46980908  0.56012239  1.0
  O  O345  1  0.32367088  0.03019041  0.06012504  1.0
  O  O346  1  0.82367062  0.96980926  0.43987684  1.0
  O  O347  1  0.17632818  0.53018887  0.93987610  1.0
  O  O348  1  0.36614678  0.46565981  0.97780186  1.0
  O  O349  1  0.63385418  0.03433992  0.47780513  1.0
  O  O350  1  0.13385072  0.96565879  0.02219548  1.0
  O  O351  1  0.86614768  0.53433757  0.52219842  1.0
  O  O352  1  0.63384992  0.53434207  0.02219302  1.0
  O  O353  1  0.36614583  0.96565992  0.52219784  1.0
  O  O354  1  0.86614863  0.03434105  0.97780243  1.0
  O  O355  1  0.13385630  0.46565919  0.47780506  1.0
