# generated using pymatgen
data_ZnH13C26N(O2F)3
_symmetry_space_group_name_H-M   'P 1'
_cell_length_a   13.55429768
_cell_length_b   17.55171664
_cell_length_c   19.63507320
_cell_angle_alpha   88.38119502
_cell_angle_beta   89.95204651
_cell_angle_gamma   70.51949770
_symmetry_Int_Tables_number   1
_chemical_formula_structural   ZnH13C26N(O2F)3
_chemical_formula_sum   'Zn2 H26 C52 N2 O12 F6'
_cell_volume   4401.86400800
_cell_formula_units_Z   2
loop_
 _symmetry_equiv_pos_site_id
 _symmetry_equiv_pos_as_xyz
  1  'x, y, z'
loop_
 _atom_site_type_symbol
 _atom_site_label
 _atom_site_symmetry_multiplicity
 _atom_site_fract_x
 _atom_site_fract_y
 _atom_site_fract_z
 _atom_site_occupancy
  Zn  Zn0  1  0.06034130  0.41757074  0.50185244  1.0
  Zn  Zn1  1  0.93743102  0.58163189  0.49687722  1.0
  H  H2  1  0.17858078  0.67838369  0.57781340  1.0
  H  H3  1  0.16724524  0.41416813  0.71188942  1.0
  H  H4  1  0.00650905  0.39124336  0.94002227  1.0
  H  H5  1  0.00340367  0.39280118  0.06664197  1.0
  H  H6  1  0.93459824  0.63155326  0.15311931  1.0
  H  H7  1  0.91986091  0.62799048  0.27954721  1.0
  H  H8  1  0.10801962  0.37717884  0.28685302  1.0
  H  H9  1  0.53566158  0.65029707  0.61615522  1.0
  H  H10  1  0.12540764  0.37992869  0.16033835  1.0
  H  H11  1  0.25628993  0.34172572  0.57813745  1.0
  H  H12  1  0.40519433  0.21054683  0.58210142  1.0
  H  H13  1  0.25451106  0.13441600  0.41574021  1.0
  H  H14  1  0.11337192  0.26974569  0.41831886  1.0
  H  H15  1  0.43581694  0.07336522  0.39059027  1.0
  H  H16  1  0.57099167  0.93286940  0.61143417  1.0
  H  H17  1  0.90586796  0.73764873  0.56544701  1.0
  H  H18  1  0.72441339  0.65533490  0.43574174  1.0
  H  H19  1  0.57864687  0.78886163  0.43556403  1.0
  H  H20  1  0.82666406  0.31183950  0.46124179  1.0
  H  H21  1  0.49352510  0.36765683  0.47065764  1.0
  H  H22  1  0.66631297  0.27293973  0.44424955  1.0
  H  H23  1  0.70598991  0.56041431  0.57667067  1.0
  H  H24  1  0.87526206  0.59349124  0.90243512  1.0
  H  H25  1  0.25420372  0.37688351  0.81429890  1.0
  H  H26  1  0.08039389  0.61768186  0.88031608  1.0
  H  H27  1  0.63111458  0.88421926  0.38262112  1.0
  C  C28  1  0.00212105  0.50039064  0.36683233  1.0
  C  C29  1  0.54973756  0.46097796  0.50859333  1.0
  C  C30  1  0.64240480  0.47988897  0.52332017  1.0
  C  C31  1  0.44828847  0.51944033  0.52524878  1.0
  C  C32  1  0.44507977  0.58774852  0.56449609  1.0
  C  C33  1  0.54013011  0.59967693  0.58404946  1.0
  C  C34  1  0.63446545  0.54941510  0.56244914  1.0
  C  C35  1  0.35055830  0.51462939  0.50457934  1.0
  C  C36  1  0.25318182  0.63504451  0.56303685  1.0
  C  C37  1  0.74149992  0.42610662  0.50254550  1.0
  C  C38  1  0.93375600  0.55422836  0.74775685  1.0
  C  C39  1  0.83875709  0.44884382  0.50402093  1.0
  C  C40  1  0.94248262  0.55477280  0.81899293  1.0
  C  C41  1  0.03415722  0.50499497  0.85254964  1.0
  C  C42  1  0.11590787  0.45504831  0.81308199  1.0
  C  C43  1  0.10537986  0.45398725  0.74269181  1.0
  C  C44  1  0.01420259  0.50350288  0.70903835  1.0
  C  C45  1  0.02059805  0.44029621  0.96668404  1.0
  C  C46  1  0.01961239  0.44090950  0.03735784  1.0
  C  C47  1  0.03513673  0.50480716  0.07272843  1.0
  C  C48  1  0.05387540  0.56640230  0.03384070  1.0
  C  C49  1  0.05645593  0.56661780  0.96239261  1.0
  C  C50  1  0.00781716  0.49905415  0.63289217  1.0
  C  C51  1  0.03795700  0.50312113  0.92819224  1.0
  C  C52  1  0.97312476  0.57570894  0.18222100  1.0
  C  C53  1  0.96425607  0.57387544  0.25278795  1.0
  C  C54  1  0.01189555  0.50217852  0.29083200  1.0
  C  C55  1  0.06972239  0.43238303  0.25692581  1.0
  C  C56  1  0.07880032  0.43410535  0.18637319  1.0
  C  C57  1  0.02994564  0.50560273  0.14789282  1.0
  C  C58  1  0.25975195  0.29347825  0.54348828  1.0
  C  C59  1  0.34185965  0.22050647  0.54530950  1.0
  C  C60  1  0.34185806  0.16048540  0.49949225  1.0
  C  C61  1  0.15226697  0.55724687  0.50668686  1.0
  C  C62  1  0.25879492  0.17878583  0.45230338  1.0
  C  C63  1  0.17946010  0.25320006  0.45383164  1.0
  C  C64  1  0.46366068  0.04259326  0.43939763  1.0
  C  C65  1  0.54033751  0.96620390  0.43910901  1.0
  C  C66  1  0.58050619  0.92502432  0.50131600  1.0
  C  C67  1  0.54271973  0.96302555  0.56252008  1.0
  C  C68  1  0.46704221  0.03880105  0.56131525  1.0
  C  C69  1  0.42498176  0.08074127  0.50030564  1.0
  C  C70  1  0.75493389  0.82626575  0.53932505  1.0
  C  C71  1  0.83266571  0.75118961  0.53699584  1.0
  C  C72  1  0.34659945  0.64278660  0.58215735  1.0
  C  C73  1  0.73097888  0.70634311  0.46351998  1.0
  C  C74  1  0.65105463  0.78067091  0.46362731  1.0
  C  C75  1  0.66153665  0.84435140  0.50176401  1.0
  C  C76  1  0.25410319  0.56917069  0.52325714  1.0
  C  C77  1  0.74950999  0.35222017  0.47523703  1.0
  C  C78  1  0.65964345  0.33130522  0.46521909  1.0
  C  C79  1  0.56174938  0.38501323  0.48022946  1.0
  N  N80  1  0.17917921  0.30912327  0.49928929  1.0
  N  N81  1  0.82039509  0.69266165  0.49893792  1.0
  O  O82  1  0.03514388  0.43153629  0.39761074  1.0
  O  O83  1  0.96151642  0.56832658  0.39505945  1.0
  O  O84  1  0.92557636  0.39229650  0.51503762  1.0
  O  O85  1  0.82758864  0.52268308  0.49087749  1.0
  O  O86  1  0.06815710  0.43492806  0.60660894  1.0
  O  O87  1  0.94444173  0.55951860  0.60085867  1.0
  O  O88  1  0.15695313  0.48598651  0.49255910  1.0
  O  O89  1  0.06849688  0.61786342  0.51057319  1.0
  O  O90  1  0.85911267  0.60321545  0.85365694  1.0
  O  O91  1  0.20437434  0.40777944  0.84743330  1.0
  O  O92  1  0.07732937  0.62860248  0.92906600  1.0
  O  O93  1  0.57485002  0.93607922  0.37673563  1.0
  F  F94  1  0.07325173  0.62840516  0.06494910  1.0
  F  F95  1  0.43032563  0.07195747  0.62230414  1.0
  F  F96  1  0.77221658  0.88330573  0.57810610  1.0
  F  F97  1  0.34526945  0.70734636  0.62026039  1.0
  F  F98  1  0.35069378  0.45500204  0.46178190  1.0
  F  F99  1  0.84216349  0.60245908  0.71927379  1.0
