# generated using pymatgen
data_Zr3H29C44N5(O8F)2
_symmetry_space_group_name_H-M   'P 1'
_cell_length_a   19.05700313
_cell_length_b   19.06411116
_cell_length_c   19.06382221
_cell_angle_alpha   60.01567008
_cell_angle_beta   60.01270156
_cell_angle_gamma   60.01286379
_symmetry_Int_Tables_number   1
_chemical_formula_structural   Zr3H29C44N5(O8F)2
_chemical_formula_sum   'Zr6 H58 C88 N10 O32 F4'
_cell_volume   4898.93251403
_cell_formula_units_Z   2
loop_
 _symmetry_equiv_pos_site_id
 _symmetry_equiv_pos_as_xyz
  1  'x, y, z'
loop_
 _atom_site_type_symbol
 _atom_site_label
 _atom_site_symmetry_multiplicity
 _atom_site_fract_x
 _atom_site_fract_y
 _atom_site_fract_z
 _atom_site_occupancy
  Zr  Zr0  1  0.59236616  0.09336230  0.90779158  1.0
  Zr  Zr1  1  0.40695076  0.90777663  0.09334798  1.0
  Zr  Zr2  1  0.59250320  0.90733971  0.09326301  1.0
  Zr  Zr3  1  0.40737393  0.09324870  0.90733250  1.0
  Zr  Zr4  1  0.59253785  0.90768717  0.90770698  1.0
  Zr  Zr5  1  0.40700586  0.09320380  0.09322969  1.0
  H  H6  1  0.71884934  0.92726295  0.92760460  1.0
  H  H7  1  0.42671603  0.92758906  0.92729556  1.0
  H  H8  1  0.42681969  0.92728923  0.21930182  1.0
  H  H9  1  0.42700040  0.21928984  0.92728517  1.0
  H  H10  1  0.14773177  0.92954803  0.29024296  1.0
  H  H11  1  0.78768507  0.13416870  0.64395225  1.0
  H  H12  1  0.85737015  0.86084813  0.72001016  1.0
  H  H13  1  0.99328294  0.85824863  0.59393965  1.0
  H  H14  1  0.21724789  0.06337122  0.35920478  1.0
  H  H15  1  0.09185452  0.05323922  0.49559246  1.0
  H  H16  1  0.43440463  0.64411449  0.13400809  1.0
  H  H17  1  0.63266870  0.29050813  0.92945337  1.0
  H  H18  1  0.36034688  0.35941165  0.06311277  1.0
  H  H19  1  0.35937338  0.49586774  0.05296196  1.0
  H  H20  1  0.56209243  0.72018144  0.86071292  1.0
  H  H21  1  0.55463606  0.59428686  0.85799300  1.0
  H  H22  1  0.43596830  0.13425413  0.28690998  1.0
  H  H23  1  0.63401507  0.93625861  0.64401596  1.0
  H  H24  1  0.35998775  0.06007963  0.72020452  1.0
  H  H25  1  0.35888017  0.05030362  0.59469853  1.0
  H  H26  1  0.56110734  0.86054225  0.35938691  1.0
  H  H27  1  0.55153316  0.85893309  0.49591154  1.0
  H  H28  1  0.78592676  0.64389094  0.93644064  1.0
  H  H29  1  0.14323404  0.28660616  0.13442792  1.0
  H  H30  1  0.21925703  0.35924801  0.86068174  1.0
  H  H31  1  0.09376023  0.49566010  0.85919678  1.0
  H  H32  1  0.86012315  0.71990851  0.06027300  1.0
  H  H33  1  0.99637776  0.59426428  0.05062225  1.0
  H  H34  1  0.17608088  0.88970888  0.11550072  1.0
  H  H35  1  0.17559744  0.11578756  0.89112508  1.0
  H  H36  1  0.81913382  0.11554774  0.88975643  1.0
  H  H37  1  0.81796258  0.89112446  0.11577030  1.0
  H  H38  1  0.63399219  0.64380083  0.28640270  1.0
  H  H39  1  0.43627805  0.28638298  0.64377275  1.0
  H  H40  1  0.56010828  0.36031949  0.72002736  1.0
  H  H41  1  0.55075408  0.49648698  0.59428088  1.0
  H  H42  1  0.35998102  0.72010497  0.36024488  1.0
  H  H43  1  0.35888953  0.59434154  0.49640389  1.0
  H  H44  1  0.94706838  0.93146017  0.46846973  1.0
  H  H45  1  0.00904423  0.91188748  0.37356766  1.0
  H  H46  1  0.97769468  0.15004939  0.45412978  1.0
  H  H47  1  0.88536021  0.20308731  0.51872337  1.0
  H  H48  1  0.41814002  0.45443755  0.14977065  1.0
  H  H49  1  0.39282464  0.51903354  0.20282572  1.0
  H  H50  1  0.65308764  0.46894907  0.93103088  1.0
  H  H51  1  0.70558248  0.37405406  0.91146276  1.0
  H  H52  1  0.41882531  0.15076587  0.47742679  1.0
  H  H53  1  0.39350589  0.20392554  0.38504709  1.0
  H  H54  1  0.65136576  0.91963599  0.45340807  1.0
  H  H55  1  0.70416437  0.89385670  0.51843829  1.0
  H  H56  1  0.97565602  0.45314895  0.91991284  1.0
  H  H57  1  0.88364211  0.51827679  0.89410337  1.0
  H  H58  1  0.95313888  0.47694397  0.15105525  1.0
  H  H59  1  0.01775262  0.38465021  0.20418105  1.0
  H  H60  1  0.65124982  0.45350445  0.47638691  1.0
  H  H61  1  0.70426150  0.51802616  0.38368307  1.0
  H  H62  1  0.41921943  0.47636202  0.45349993  1.0
  H  H63  1  0.39444660  0.38363068  0.51806511  1.0
  C  C64  1  0.73435105  0.00095342  0.76411765  1.0
  C  C65  1  0.50104272  0.76412688  0.00089638  1.0
  C  C66  1  0.26336145  0.00184581  0.23540027  1.0
  C  C67  1  0.49971168  0.23549251  0.00181578  1.0
  C  C68  1  0.73301135  0.00369403  0.00291099  1.0
  C  C69  1  0.50202289  0.23484596  0.76353741  1.0
  C  C70  1  0.26085313  0.00291682  0.00367411  1.0
  C  C71  1  0.50004369  0.76359109  0.23483609  1.0
  C  C72  1  0.73457401  0.76377113  0.00212520  1.0
  C  C73  1  0.50209612  0.00065295  0.23462780  1.0
  C  C74  1  0.26307368  0.23451991  0.00069820  1.0
  C  C75  1  0.49994817  0.00204343  0.76384391  1.0
  C  C76  1  0.18827925  0.99816630  0.31632351  1.0
  C  C77  1  0.81487870  0.99825177  0.68853250  1.0
  C  C78  1  0.13363891  0.95809111  0.33516545  1.0
  C  C79  1  0.06050919  0.95579851  0.40928990  1.0
  C  C80  1  0.83316634  0.07401966  0.63177060  1.0
  C  C81  1  0.90707859  0.07424657  0.55827662  1.0
  C  C82  1  0.87187226  0.91978904  0.67478616  1.0
  C  C83  1  0.94691769  0.91907773  0.60406621  1.0
  C  C84  1  0.17317625  0.03383449  0.37358165  1.0
  C  C85  1  0.10262563  0.02885830  0.44869957  1.0
  C  C86  1  0.04427548  0.99232750  0.46744244  1.0
  C  C87  1  0.96589342  0.99474969  0.54445744  1.0
  C  C88  1  0.49862795  0.68867216  0.99810868  1.0
  C  C89  1  0.49742564  0.31653865  0.99800537  1.0
  C  C90  1  0.46121154  0.63197288  0.07384124  1.0
  C  C91  1  0.46044580  0.55857912  0.07400116  1.0
  C  C92  1  0.57325883  0.33545179  0.95792084  1.0
  C  C93  1  0.57448560  0.40966949  0.95551768  1.0
  C  C94  1  0.41955690  0.37382347  0.03359896  1.0
  C  C95  1  0.41990508  0.44898648  0.02859364  1.0
  C  C96  1  0.53378049  0.67499972  0.91961592  1.0
  C  C97  1  0.53004520  0.60438848  0.91882998  1.0
  C  C98  1  0.49492534  0.54481272  0.99448039  1.0
  C  C99  1  0.49600799  0.46780022  0.99204416  1.0
  C  C100  1  0.49934400  0.99815682  0.31530316  1.0
  C  C101  1  0.49774414  0.99894139  0.68843680  1.0
  C  C102  1  0.46217011  0.07428951  0.33296610  1.0
  C  C103  1  0.46097204  0.07502121  0.40688479  1.0
  C  C104  1  0.57409287  0.96213648  0.63171582  1.0
  C  C105  1  0.57512392  0.96100077  0.55805686  1.0
  C  C106  1  0.41943158  0.03249822  0.67489409  1.0
  C  C107  1  0.41964794  0.02797507  0.60416026  1.0
  C  C108  1  0.53331888  0.91980697  0.37319801  1.0
  C  C109  1  0.52880040  0.91974869  0.44836076  1.0
  C  C110  1  0.49455935  0.99581012  0.46634965  1.0
  C  C111  1  0.49595332  0.99422485  0.54419348  1.0
  C  C112  1  0.81517809  0.68823506  0.99913505  1.0
  C  C113  1  0.18754225  0.31509192  0.99829821  1.0
  C  C114  1  0.83228238  0.63152048  0.96235377  1.0
  C  C115  1  0.90598118  0.55778638  0.96128346  1.0
  C  C116  1  0.13088395  0.33265484  0.07448270  1.0
  C  C117  1  0.05734994  0.40649424  0.07527638  1.0
  C  C118  1  0.17396129  0.37299212  0.91997611  1.0
  C  C119  1  0.10328551  0.44809045  0.91998445  1.0
  C  C120  1  0.87349921  0.67460893  0.03271192  1.0
  C  C121  1  0.94847414  0.60379913  0.02825576  1.0
  C  C122  1  0.96582024  0.54384154  0.99452451  1.0
  C  C123  1  0.04346707  0.46598149  0.99609279  1.0
  C  C124  1  0.14629323  0.93876901  0.06690387  1.0
  C  C125  1  0.07309135  0.93789076  0.06717426  1.0
  C  C126  1  0.03346632  0.87417224  0.13057352  1.0
  C  C127  1  0.14625206  0.06669577  0.93947924  1.0
  C  C128  1  0.07329539  0.06695496  0.93814785  1.0
  C  C129  1  0.03395551  0.13044775  0.87422081  1.0
  C  C130  1  0.84848377  0.06692314  0.93878919  1.0
  C  C131  1  0.92231026  0.06717763  0.93789945  1.0
  C  C132  1  0.96221147  0.13061992  0.87420963  1.0
  C  C133  1  0.84804826  0.93948523  0.06667823  1.0
  C  C134  1  0.92208935  0.93814040  0.06692972  1.0
  C  C135  1  0.96185960  0.87420501  0.13042753  1.0
  C  C136  1  0.18212880  0.00298404  0.00355947  1.0
  C  C137  1  0.03506051  0.00238938  0.00249457  1.0
  C  C138  1  0.81178385  0.00356772  0.00298231  1.0
  C  C139  1  0.96055495  0.00249345  0.00238172  1.0
  C  C140  1  0.49775492  0.68813282  0.31542827  1.0
  C  C141  1  0.49911143  0.31545745  0.68809640  1.0
  C  C142  1  0.57409605  0.63139828  0.33263613  1.0
  C  C143  1  0.57509677  0.55777847  0.40636958  1.0
  C  C144  1  0.46228447  0.33266098  0.63137935  1.0
  C  C145  1  0.46115423  0.40640221  0.55775590  1.0
  C  C146  1  0.53274803  0.37367573  0.67456992  1.0
  C  C147  1  0.52834897  0.44864595  0.60376776  1.0
  C  C148  1  0.41942678  0.67460837  0.37361148  1.0
  C  C149  1  0.41965346  0.60381555  0.44857789  1.0
  C  C150  1  0.49593540  0.54388093  0.46609051  1.0
  C  C151  1  0.49450275  0.46614086  0.54383108  1.0
  N  N152  1  0.00690482  0.91650161  0.42533974  1.0
  N  N153  1  0.91866515  0.15153847  0.49870295  1.0
  N  N154  1  0.43108466  0.49901700  0.15127500  1.0
  N  N155  1  0.65131081  0.42579753  0.91612341  1.0
  N  N156  1  0.43172306  0.15235037  0.41836704  1.0
  N  N157  1  0.65260499  0.93220427  0.49842999  1.0
  N  N158  1  0.91684470  0.49818835  0.93249549  1.0
  N  N159  1  0.99777537  0.41791817  0.15262085  1.0
  N  N160  1  0.65254434  0.49822680  0.41746135  1.0
  N  N161  1  0.43216474  0.41744620  0.49822778  1.0
  O  O162  1  0.70123955  0.06297424  0.79233221  1.0
  O  O163  1  0.44399415  0.79229865  0.06295796  1.0
  O  O164  1  0.29128431  0.94552074  0.20143452  1.0
  O  O165  1  0.56215674  0.20146688  0.94556049  1.0
  O  O166  1  0.70230243  0.94451978  0.06296561  1.0
  O  O167  1  0.44564494  0.20095459  0.79137211  1.0
  O  O168  1  0.29067144  0.06297875  0.94451443  1.0
  O  O169  1  0.56250550  0.79138624  0.20094521  1.0
  O  O170  1  0.70072689  0.79183775  0.94569240  1.0
  O  O171  1  0.44558327  0.06306127  0.20098300  1.0
  O  O172  1  0.29083866  0.20090901  0.06309007  1.0
  O  O173  1  0.56221929  0.94567326  0.79184247  1.0
  O  O174  1  0.56033416  0.93938303  0.20559907  1.0
  O  O175  1  0.29518044  0.20553933  0.93938604  1.0
  O  O176  1  0.43858600  0.06045388  0.79561279  1.0
  O  O177  1  0.70580443  0.79558086  0.06049227  1.0
  O  O178  1  0.70412640  0.06223907  0.94193123  1.0
  O  O179  1  0.43865588  0.79562313  0.20599086  1.0
  O  O180  1  0.29218301  0.94192099  0.06220543  1.0
  O  O181  1  0.56024016  0.20600079  0.79555148  1.0
  O  O182  1  0.43855836  0.20649302  0.06036905  1.0
  O  O183  1  0.70488664  0.94010752  0.79584333  1.0
  O  O184  1  0.55965975  0.79580976  0.94005233  1.0
  O  O185  1  0.29498488  0.06036991  0.20644235  1.0
  O  O186  1  0.44767660  0.15702751  0.94815729  1.0
  O  O187  1  0.44758819  0.94816087  0.15703828  1.0
  O  O188  1  0.44694222  0.94843905  0.94849501  1.0
  O  O189  1  0.65657443  0.94849294  0.94846468  1.0
  O  O190  1  0.53814954  0.88510470  0.03889593  1.0
  O  O191  1  0.53831681  0.03887689  0.88512475  1.0
  O  O192  1  0.38432243  0.03900373  0.03874156  1.0
  O  O193  1  0.53836723  0.03874339  0.03902346  1.0
  F  F194  1  0.92670199  0.81226693  0.19214379  1.0
  F  F195  1  0.06845029  0.81233972  0.19267841  1.0
  F  F196  1  0.92689506  0.19278840  0.81243185  1.0
  F  F197  1  0.06930419  0.19219055  0.81233094  1.0
