# generated using pymatgen
data_Zn2H2C12S2N2O11
_symmetry_space_group_name_H-M   'P 1'
_cell_length_a   19.58524868
_cell_length_b   19.61216795
_cell_length_c   33.30462368
_cell_angle_alpha   79.01259150
_cell_angle_beta   79.09655212
_cell_angle_gamma   63.84007601
_symmetry_Int_Tables_number   1
_chemical_formula_structural   Zn2H2C12S2N2O11
_chemical_formula_sum   'Zn16 H16 C96 S16 N16 O88'
_cell_volume   11191.23203193
_cell_formula_units_Z   8
loop_
 _symmetry_equiv_pos_site_id
 _symmetry_equiv_pos_as_xyz
  1  'x, y, z'
loop_
 _atom_site_type_symbol
 _atom_site_label
 _atom_site_symmetry_multiplicity
 _atom_site_fract_x
 _atom_site_fract_y
 _atom_site_fract_z
 _atom_site_occupancy
  Zn  Zn0  1  0.60034854  0.94547411  0.52234144  1.0
  Zn  Zn1  1  0.51809596  0.01121152  0.44028298  1.0
  Zn  Zn2  1  0.43642331  0.94210796  0.51880393  1.0
  Zn  Zn3  1  0.44508069  0.09768570  0.52219769  1.0
  Zn  Zn4  1  0.65134248  0.30547109  0.72816762  1.0
  Zn  Zn5  1  0.81000528  0.30989129  0.73620464  1.0
  Zn  Zn6  1  0.73525405  0.22780500  0.81098140  1.0
  Zn  Zn7  1  0.80308535  0.14957480  0.72902883  1.0
  Zn  Zn8  1  0.23666828  0.73126596  0.31142171  1.0
  Zn  Zn9  1  0.30323395  0.64923459  0.22996485  1.0
  Zn  Zn10  1  0.15244880  0.80624179  0.22865432  1.0
  Zn  Zn11  1  0.31196750  0.80957358  0.23552180  1.0
  Zn  Zn12  1  0.93711009  0.44131549  0.01761320  1.0
  Zn  Zn13  1  0.94630807  0.59686220  0.02378154  1.0
  Zn  Zn14  1  0.10041753  0.44483881  0.02208941  1.0
  Zn  Zn15  1  0.01493752  0.51383307  0.94021905  1.0
  H  H16  1  0.75400523  0.04742781  0.64782461  1.0
  H  H17  1  0.54607700  0.25582009  0.64877386  1.0
  H  H18  1  0.70310227  0.00074169  0.60036577  1.0
  H  H19  1  0.39889052  0.90643874  0.30200092  1.0
  H  H20  1  0.29810388  0.79528753  0.40400962  1.0
  H  H21  1  0.44392767  0.95388243  0.35188660  1.0
  H  H22  1  0.94922119  0.44649514  0.84943062  1.0
  H  H23  1  0.84304447  0.34730381  0.95471836  1.0
  H  H24  1  0.90082379  0.39576370  0.80280409  1.0
  H  H25  1  0.20886513  0.49894638  0.10011013  1.0
  H  H26  1  0.99862134  0.70495113  0.09866813  1.0
  H  H27  1  0.25390182  0.55024940  0.14815643  1.0
  H  H28  1  0.47446531  0.19771442  0.57841623  1.0
  H  H29  1  0.36973254  0.84975559  0.47610889  1.0
  H  H30  1  0.76359047  0.28334785  0.89113855  1.0
  H  H31  1  0.05507008  0.77705677  0.16968163  1.0
  C  C32  1  0.68422635  0.93483190  0.43966350  1.0
  C  C33  1  0.42748307  0.92795575  0.43356217  1.0
  C  C34  1  0.55995515  0.82041518  0.56296447  1.0
  C  C35  1  0.31474378  0.06370006  0.56178878  1.0
  C  C36  1  0.57026899  0.07246187  0.56910026  1.0
  C  C37  1  0.44215625  0.17767778  0.43906096  1.0
  C  C38  1  0.69038349  0.43280507  0.68995130  1.0
  C  C39  1  0.81643767  0.31670782  0.82338534  1.0
  C  C40  1  0.56880350  0.30849385  0.81066887  1.0
  C  C41  1  0.81117586  0.06324120  0.81114584  1.0
  C  C42  1  0.68116870  0.18228703  0.68010507  1.0
  C  C43  1  0.93116647  0.18921623  0.69247946  1.0
  C  C44  1  0.31307827  0.56507168  0.31201226  1.0
  C  C45  1  0.17960793  0.68204672  0.18014099  1.0
  C  C46  1  0.07004036  0.80615199  0.31109171  1.0
  C  C47  1  0.19027193  0.93363634  0.19039317  1.0
  C  C48  1  0.31797698  0.81998030  0.32100085  1.0
  C  C49  1  0.43051679  0.68846798  0.19019883  1.0
  C  C50  1  0.81680232  0.56183858  0.06227023  1.0
  C  C51  1  0.07323036  0.56960725  0.06803119  1.0
  C  C52  1  0.05980921  0.31943777  0.06186154  1.0
  C  C53  1  0.18250904  0.43767745  0.93872077  1.0
  C  C54  1  0.92844295  0.42855651  0.93279042  1.0
  C  C55  1  0.93826798  0.67852663  0.94054272  1.0
  C  C56  1  0.59773293  0.10217661  0.59705793  1.0
  C  C57  1  0.65255014  0.15422936  0.65113473  1.0
  C  C58  1  0.55302465  0.17562824  0.61043339  1.0
  C  C59  1  0.69793650  0.08207675  0.63742007  1.0
  C  C60  1  0.58094577  0.20016645  0.63803210  1.0
  C  C61  1  0.66983113  0.05666125  0.61107996  1.0
  C  C62  1  0.39917385  0.89919590  0.40556778  1.0
  C  C63  1  0.34573504  0.84828212  0.35027645  1.0
  C  C64  1  0.35841426  0.85296420  0.42060135  1.0
  C  C65  1  0.38748295  0.89266990  0.33508456  1.0
  C  C66  1  0.33068538  0.82931363  0.39244017  1.0
  C  C67  1  0.41266146  0.91838292  0.36269629  1.0
  C  C68  1  0.54741554  0.69431982  0.59802120  1.0
  C  C69  1  0.70791736  0.55288714  0.64862230  1.0
  C  C70  1  0.58521963  0.74197028  0.58530650  1.0
  C  C71  1  0.66924331  0.50632193  0.66247658  1.0
  C  C72  1  0.66224477  0.62305170  0.62677111  1.0
  C  C73  1  0.59057162  0.62691027  0.62274354  1.0
  C  C74  1  0.42299043  0.27054127  0.36999612  1.0
  C  C75  1  0.32433269  0.47159371  0.38046859  1.0
  C  C76  1  0.41455019  0.25211173  0.41262711  1.0
  C  C77  1  0.33399500  0.49002634  0.33792456  1.0
  C  C78  1  0.36000095  0.39170191  0.39241100  1.0
  C  C79  1  0.39346654  0.35060086  0.35833308  1.0
  C  C80  1  0.77662675  0.92463100  0.37103412  1.0
  C  C81  1  0.97831563  0.82561784  0.38050610  1.0
  C  C82  1  0.75900007  0.91468961  0.41363645  1.0
  C  C83  1  0.99588031  0.83402225  0.33783237  1.0
  C  C84  1  0.89830711  0.85542850  0.39258813  1.0
  C  C85  1  0.85639386  0.88898651  0.35875100  1.0
  C  C86  1  0.19341926  0.16122005  0.60183428  1.0
  C  C87  1  0.04687243  0.09653315  0.64683481  1.0
  C  C88  1  0.23728910  0.09267248  0.58513537  1.0
  C  C89  1  0.00404949  0.16417976  0.66454552  1.0
  C  C90  1  0.11762972  0.09387352  0.62559535  1.0
  C  C91  1  0.12566174  0.16138255  0.62600740  1.0
  C  C92  1  0.84318141  0.34545717  0.85216802  1.0
  C  C93  1  0.89899595  0.39943879  0.90475516  1.0
  C  C94  1  0.82543226  0.33250631  0.89557999  1.0
  C  C95  1  0.91531199  0.41408982  0.86176912  1.0
  C  C96  1  0.85524830  0.35867989  0.92147581  1.0
  C  C97  1  0.88821338  0.38635221  0.83613969  1.0
  C  C98  1  0.47671642  0.32880747  0.87979252  1.0
  C  C99  1  0.27522387  0.42801646  0.87000279  1.0
  C  C100  1  0.49451607  0.33736102  0.83715535  1.0
  C  C101  1  0.25729135  0.41787088  0.91255345  1.0
  C  C102  1  0.35506747  0.39242713  0.85787528  1.0
  C  C103  1  0.39668130  0.35869416  0.89180098  1.0
  C  C104  1  0.88120288  0.91388616  0.82315384  1.0
  C  C105  1  0.87807546  0.82840355  0.92878338  1.0
  C  C106  1  0.84132310  0.98678511  0.83541820  1.0
  C  C107  1  0.91648073  0.75538284  0.91653489  1.0
  C  C108  1  0.86206223  0.88611406  0.89467226  1.0
  C  C109  1  0.89158460  0.85580149  0.85699622  1.0
  C  C110  1  0.15131310  0.65467021  0.15137098  1.0
  C  C111  1  0.10111146  0.59916088  0.09665743  1.0
  C  C112  1  0.07804169  0.69875705  0.13750987  1.0
  C  C113  1  0.17338004  0.55468463  0.11058805  1.0
  C  C114  1  0.05429528  0.67057483  0.10965415  1.0
  C  C115  1  0.19792472  0.58298229  0.13726138  1.0
  C  C116  1  0.54722175  0.59544879  0.14526667  1.0
  C  C117  1  0.69442531  0.65976171  0.10150332  1.0
  C  C118  1  0.50355196  0.66356435  0.16244501  1.0
  C  C119  1  0.73886167  0.59100649  0.08520179  1.0
  C  C120  1  0.62605501  0.66022053  0.12504589  1.0
  C  C121  1  0.61843662  0.59248359  0.12466932  1.0
  C  C122  1  0.20771124  0.05358873  0.14878479  1.0
  C  C123  1  0.04699881  0.19391371  0.09798490  1.0
  C  C124  1  0.16906065  0.00705073  0.16297225  1.0
  C  C125  1  0.08490267  0.24133352  0.08465368  1.0
  C  C126  1  0.09021977  0.12706951  0.12301320  1.0
  C  C127  1  0.16193608  0.12342599  0.12674477  1.0
  S  S128  1  0.67458971  0.70295031  0.60255191  1.0
  S  S129  1  0.57782716  0.54750138  0.64752559  1.0
  S  S130  1  0.36847515  0.33291520  0.43822175  1.0
  S  S131  1  0.38497497  0.40937761  0.31248598  1.0
  S  S132  1  0.84040673  0.86368219  0.43866467  1.0
  S  S133  1  0.91435669  0.88036752  0.31268563  1.0
  S  S134  1  0.19423903  0.02940888  0.59803012  1.0
  S  S135  1  0.04937153  0.22538588  0.65401499  1.0
  S  S136  1  0.41324247  0.38394280  0.81188445  1.0
  S  S137  1  0.33840848  0.36674158  0.93775104  1.0
  S  S138  1  0.81846007  0.98421024  0.88850839  1.0
  S  S139  1  0.93486104  0.75762111  0.86334850  1.0
  S  S140  1  0.54881266  0.72476419  0.15225872  1.0
  S  S141  1  0.69593850  0.52768118  0.09772347  1.0
  S  S142  1  0.07748721  0.04796415  0.14823314  1.0
  S  S143  1  0.17429209  0.20292311  0.10179982  1.0
  N  N144  1  0.47500243  0.70424193  0.58669163  1.0
  N  N145  1  0.78724905  0.53523334  0.65198412  1.0
  N  N146  1  0.45156961  0.21917931  0.33830280  1.0
  N  N147  1  0.27891249  0.52298881  0.41140147  1.0
  N  N148  1  0.72465110  0.97022830  0.34029136  1.0
  N  N149  1  0.03051978  0.79672046  0.41189377  1.0
  N  N150  1  0.20734377  0.22996107  0.59491470  1.0
  N  N151  1  0.02490172  0.03505871  0.64540586  1.0
  N  N152  1  0.52912586  0.29882387  0.91103000  1.0
  N  N153  1  0.22348823  0.47297670  0.83908550  1.0
  N  N154  1  0.91528707  0.89357467  0.78182157  1.0
  N  N155  1  0.85935623  0.84998791  0.97037956  1.0
  N  N156  1  0.52586011  0.53352484  0.14417011  1.0
  N  N157  1  0.70846480  0.72841877  0.09460623  1.0
  N  N158  1  0.28707989  0.03626773  0.15192250  1.0
  N  N159  1  0.97446771  0.20340888  0.08704330  1.0
  O  O160  1  0.50053254  0.99849558  0.50102923  1.0
  O  O161  1  0.68623402  0.93390255  0.47797155  1.0
  O  O162  1  0.45682478  0.97504609  0.41812888  1.0
  O  O163  1  0.48869066  0.85987986  0.56152170  1.0
  O  O164  1  0.62628815  0.94863811  0.42237510  1.0
  O  O165  1  0.61399571  0.84139237  0.54826334  1.0
  O  O166  1  0.42050858  0.90361216  0.47259739  1.0
  O  O167  1  0.33265142  0.00443475  0.54417487  1.0
  O  O168  1  0.50687085  0.11903378  0.55404847  1.0
  O  O169  1  0.35688048  0.09750766  0.56211894  1.0
  O  O170  1  0.60931686  0.00365323  0.56128762  1.0
  O  O171  1  0.49456611  0.12000942  0.42330227  1.0
  O  O172  1  0.41078996  0.18016108  0.47654233  1.0
  O  O173  1  0.74958479  0.24933417  0.75087729  1.0
  O  O174  1  0.64886431  0.39741608  0.69014703  1.0
  O  O175  1  0.84093822  0.32384232  0.78525481  1.0
  O  O176  1  0.62511001  0.25324446  0.82625185  1.0
  O  O177  1  0.74472424  0.41321059  0.71128581  1.0
  O  O178  1  0.56756177  0.34147028  0.77355678  1.0
  O  O179  1  0.76953673  0.28526449  0.83877145  1.0
  O  O180  1  0.79207244  0.11938802  0.83157667  1.0
  O  O181  1  0.75132849  0.14396927  0.68627423  1.0
  O  O182  1  0.80459504  0.06708045  0.77353532  1.0
  O  O183  1  0.63328652  0.24221864  0.69642035  1.0
  O  O184  1  0.89912058  0.26089466  0.69603639  1.0
  O  O185  1  0.90872383  0.13861972  0.71096763  1.0
  O  O186  1  0.25054019  0.74951096  0.25062760  1.0
  O  O187  1  0.29976265  0.62284935  0.32916348  1.0
  O  O188  1  0.24762135  0.64220696  0.18920291  1.0
  O  O189  1  0.06742972  0.83839392  0.27376416  1.0
  O  O190  1  0.31288812  0.56322730  0.27383382  1.0
  O  O191  1  0.12748130  0.75268545  0.32658740  1.0
  O  O192  1  0.13284525  0.74585762  0.19463173  1.0
  O  O193  1  0.14776022  0.89895634  0.19113310  1.0
  O  O194  1  0.34575250  0.82504037  0.28314566  1.0
  O  O195  1  0.24553989  0.91308370  0.21115322  1.0
  O  O196  1  0.26886431  0.79265737  0.33608922  1.0
  O  O197  1  0.40808730  0.63764561  0.20839825  1.0
  O  O198  1  0.39843537  0.75998388  0.19405181  1.0
  O  O199  1  0.00093934  0.49853766  0.00070378  1.0
  O  O200  1  0.83382330  0.50419202  0.04351873  1.0
  O  O201  1  0.01259299  0.61673158  0.05202879  1.0
  O  O202  1  0.11406926  0.33982546  0.04666014  1.0
  O  O203  1  0.85964381  0.59397976  0.06417731  1.0
  O  O204  1  0.98856175  0.35907646  0.06065831  1.0
  O  O205  1  0.11200726  0.49949220  0.06193126  1.0
  O  O206  1  0.18566218  0.43402891  0.97713272  1.0
  O  O207  1  0.95681114  0.47622205  0.91609429  1.0
  O  O208  1  0.12413119  0.45370672  0.92134556  1.0
  O  O209  1  0.92284985  0.40384546  0.97110012  1.0
  O  O210  1  0.90525215  0.67402173  0.97692048  1.0
  O  O211  1  0.98754600  0.62329788  0.92094529  1.0
  O  O212  1  0.48415067  0.22366801  0.59821308  1.0
  O  O213  1  0.34433642  0.83033607  0.46085292  1.0
  O  O214  1  0.78137412  0.29579940  0.91366601  1.0
  O  O215  1  0.02933832  0.76733166  0.14973887  1.0
  O  O216  1  0.44218461  0.66817183  0.61102308  1.0
  O  O217  1  0.45280987  0.74340644  0.55411234  1.0
  O  O218  1  0.80066882  0.59210629  0.65105099  1.0
  O  O219  1  0.83520212  0.46809502  0.65357277  1.0
  O  O220  1  0.47474440  0.24557861  0.30413786  1.0
  O  O221  1  0.44780644  0.15682089  0.34616562  1.0
  O  O222  1  0.29893087  0.49941461  0.44667950  1.0
  O  O223  1  0.22348226  0.58261468  0.40165196  1.0
  O  O224  1  0.74721185  0.94992596  0.30508982  1.0
  O  O225  1  0.66562925  0.02611909  0.35008177  1.0
  O  O226  1  0.00421251  0.77445072  0.44636056  1.0
  O  O227  1  0.09343182  0.79930250  0.40350003  1.0
  O  O228  1  0.17783411  0.27179913  0.62303463  1.0
  O  O229  1  0.24311026  0.24391518  0.56215822  1.0
  O  O230  1  0.07962982  0.97230641  0.63920071  1.0
  O  O231  1  0.95646667  0.04894899  0.64823401  1.0
  O  O232  1  0.50305735  0.27603644  0.94540335  1.0
  O  O233  1  0.59251735  0.30057380  0.90261915  1.0
  O  O234  1  0.24645902  0.45215354  0.80398303  1.0
  O  O235  1  0.16415700  0.52881271  0.84855694  1.0
  O  O236  1  0.92330571  0.82951146  0.77573447  1.0
  O  O237  1  0.93643114  0.93767620  0.75689550  1.0
  O  O238  1  0.80646501  0.91484415  0.97418896  1.0
  O  O239  1  0.89762176  0.80643959  0.99774002  1.0
  O  O240  1  0.58082594  0.47019773  0.13951676  1.0
  O  O241  1  0.45757894  0.54729952  0.14594678  1.0
  O  O242  1  0.67756210  0.77108600  0.12232821  1.0
  O  O243  1  0.74571700  0.74135717  0.06224538  1.0
  O  O244  1  0.30034828  0.09333843  0.15065395  1.0
  O  O245  1  0.33518769  0.96918623  0.15364692  1.0
  O  O246  1  0.94169529  0.16784712  0.11191035  1.0
  O  O247  1  0.95213926  0.24170652  0.05433890  1.0
