# generated using pymatgen
data_ZnH20(C13N5)2
_symmetry_space_group_name_H-M   'P 1'
_cell_length_a   10.25107322
_cell_length_b   15.99959452
_cell_length_c   16.00346441
_cell_angle_alpha   115.56770973
_cell_angle_beta   102.30880736
_cell_angle_gamma   102.32709454
_symmetry_Int_Tables_number   1
_chemical_formula_structural   ZnH20(C13N5)2
_chemical_formula_sum   'Zn3 H60 C78 N30'
_cell_volume   2169.90077173
_cell_formula_units_Z   3
loop_
 _symmetry_equiv_pos_site_id
 _symmetry_equiv_pos_as_xyz
  1  'x, y, z'
loop_
 _atom_site_type_symbol
 _atom_site_label
 _atom_site_symmetry_multiplicity
 _atom_site_fract_x
 _atom_site_fract_y
 _atom_site_fract_z
 _atom_site_occupancy
  Zn  Zn0  1  0.00000025  0.00000015  0.50000005  1.0
  Zn  Zn1  1  0.00000035  0.50000009  0.00000044  1.0
  Zn  Zn2  1  0.49999961  0.49999906  0.49999961  1.0
  H  H3  1  0.00935541  0.14743918  0.41276448  1.0
  H  H4  1  0.86213923  0.26550150  0.85264933  1.0
  H  H5  1  0.59626784  0.58683824  0.73442884  1.0
  H  H6  1  0.99064342  0.85255913  0.58723454  1.0
  H  H7  1  0.13786172  0.73449793  0.14735081  1.0
  H  H8  1  0.40373076  0.41316120  0.26557057  1.0
  H  H9  1  0.15713123  0.20584066  0.32736833  1.0
  H  H10  1  0.95150860  0.12171177  0.79419947  1.0
  H  H11  1  0.82928707  0.67237564  0.87820210  1.0
  H  H12  1  0.84286823  0.79415828  0.67263132  1.0
  H  H13  1  0.04849235  0.87828803  0.20580030  1.0
  H  H14  1  0.17071190  0.32762518  0.12179869  1.0
  H  H15  1  0.34161637  0.13118648  0.28545540  1.0
  H  H16  1  0.21052965  0.15436462  0.86896289  1.0
  H  H17  1  0.05565948  0.71449004  0.84550243  1.0
  H  H18  1  0.65838371  0.86881345  0.71454450  1.0
  H  H19  1  0.78947106  0.84563557  0.13103801  1.0
  H  H20  1  0.94433877  0.28551454  0.15449916  1.0
  H  H21  1  0.26487066  0.77437332  0.59768180  1.0
  H  H22  1  0.49035247  0.82343978  0.22559969  1.0
  H  H23  1  0.66764072  0.40238469  0.17694720  1.0
  H  H24  1  0.73513326  0.22562709  0.40231932  1.0
  H  H25  1  0.50964526  0.17655980  0.77439986  1.0
  H  H26  1  0.33236108  0.59761496  0.82305242  1.0
  H  H27  1  0.37343654  0.65434264  0.61555779  1.0
  H  H28  1  0.71882492  0.96134250  0.34568335  1.0
  H  H29  1  0.75800582  0.38453122  0.03893139  1.0
  H  H30  1  0.62656526  0.34565701  0.38444183  1.0
  H  H31  1  0.28117319  0.03865883  0.65431721  1.0
  H  H32  1  0.24199661  0.61546870  0.96106924  1.0
  H  H33  1  0.54098863  0.62929218  0.39573757  1.0
  H  H34  1  0.91135891  0.76650355  0.37066867  1.0
  H  H35  1  0.14543223  0.60420451  0.23341653  1.0
  H  H36  1  0.45901082  0.37070786  0.60426097  1.0
  H  H37  1  0.08864132  0.23349964  0.62933228  1.0
  H  H38  1  0.85456996  0.39579617  0.76658486  1.0
  H  H39  1  0.44101191  0.74989298  0.37008939  1.0
  H  H40  1  0.69099144  0.62025340  0.24993920  1.0
  H  H41  1  0.07141226  0.62982345  0.37976650  1.0
  H  H42  1  0.55898755  0.25010670  0.62990952  1.0
  H  H43  1  0.30901075  0.37974838  0.75006107  1.0
  H  H44  1  0.92858758  0.37017687  0.62023453  1.0
  H  H45  1  0.46147684  0.02239733  0.28270867  1.0
  H  H46  1  0.43902662  0.26039020  0.97784830  1.0
  H  H47  1  0.17827423  0.71719650  0.73951386  1.0
  H  H48  1  0.53852238  0.97760274  0.71729137  1.0
  H  H49  1  0.56097408  0.73960998  0.02215259  1.0
  H  H50  1  0.82172412  0.28280407  0.26048594  1.0
  H  H51  1  0.35641058  0.90970196  0.27022772  1.0
  H  H52  1  0.44651314  0.36059936  0.09048731  1.0
  H  H53  1  0.08579618  0.72969419  0.63931380  1.0
  H  H54  1  0.64358950  0.09029797  0.72977218  1.0
  H  H55  1  0.55348731  0.63940121  0.90951471  1.0
  H  H56  1  0.91420390  0.27030611  0.36068574  1.0
  H  H57  1  0.48359254  0.00077694  0.38495084  1.0
  H  H58  1  0.48272723  0.38426568  0.99941360  1.0
  H  H59  1  0.09825761  0.61493027  0.61568644  1.0
  H  H60  1  0.51640754  0.99922299  0.61504906  1.0
  H  H61  1  0.51727285  0.61573351  0.00058703  1.0
  H  H62  1  0.90173989  0.38506970  0.38431424  1.0
  C  C63  1  0.09108870  0.11756833  0.39178772  1.0
  C  C64  1  0.97368608  0.27437442  0.88253429  1.0
  C  C65  1  0.69894333  0.60793947  0.72555724  1.0
  C  C66  1  0.90890989  0.88243111  0.60821169  1.0
  C  C67  1  0.02631462  0.72562650  0.11746586  1.0
  C  C68  1  0.30105526  0.39205997  0.27444218  1.0
  C  C69  1  0.17278593  0.14925689  0.34476951  1.0
  C  C70  1  0.02368992  0.19565467  0.85083423  1.0
  C  C71  1  0.82757731  0.65501786  0.80424417  1.0
  C  C72  1  0.82721353  0.85074242  0.65522977  1.0
  C  C73  1  0.97631078  0.80434625  0.14916592  1.0
  C  C74  1  0.17242104  0.34498271  0.19575563  1.0
  C  C75  1  0.27515666  0.10733099  0.32157382  1.0
  C  C76  1  0.16791518  0.21434880  0.89281768  1.0
  C  C77  1  0.95313161  0.67831614  0.78553841  1.0
  C  C78  1  0.72484280  0.89266832  0.67842546  1.0
  C  C79  1  0.83208514  0.78565000  0.10718183  1.0
  C  C80  1  0.04686799  0.32168605  0.21446227  1.0
  C  C81  1  0.29627459  0.03534050  0.34491520  1.0
  C  C82  1  0.26093650  0.30966915  0.96484830  1.0
  C  C83  1  0.95096468  0.65501416  0.69024863  1.0
  C  C84  1  0.70372549  0.96465943  0.65508470  1.0
  C  C85  1  0.73906421  0.69033067  0.03515297  1.0
  C  C86  1  0.04903430  0.34498741  0.30975143  1.0
  C  C87  1  0.20947557  0.00813341  0.39329106  1.0
  C  C88  1  0.20138176  0.38527425  0.99201593  1.0
  C  C89  1  0.81587826  0.60663511  0.61469100  1.0
  C  C90  1  0.79052351  0.99186414  0.60670720  1.0
  C  C91  1  0.79861871  0.61472670  0.00798573  1.0
  C  C92  1  0.18412009  0.39336472  0.38530954  1.0
  C  C93  1  0.21990811  0.93701884  0.42644696  1.0
  C  C94  1  0.28290919  0.48954160  0.06305258  1.0
  C  C95  1  0.79334702  0.57355776  0.51048748  1.0
  C  C96  1  0.78009048  0.06298060  0.57355245  1.0
  C  C97  1  0.71709152  0.51045822  0.93694869  1.0
  C  C98  1  0.20665368  0.42644316  0.48951267  1.0
  C  C99  1  0.27500114  0.83709023  0.46701847  1.0
  C  C100  1  0.43786623  0.63003353  0.16285690  1.0
  C  C101  1  0.80828272  0.53301209  0.37011605  1.0
  C  C102  1  0.72499894  0.16290933  0.53298179  1.0
  C  C103  1  0.56213620  0.36996639  0.83714373  1.0
  C  C104  1  0.19171673  0.46698684  0.62988359  1.0
  C  C105  1  0.34256919  0.77068494  0.48119317  1.0
  C  C106  1  0.57177234  0.71061176  0.22924151  1.0
  C  C107  1  0.86180763  0.51881004  0.28959322  1.0
  C  C108  1  0.65743238  0.22931511  0.51880759  1.0
  C  C109  1  0.42822860  0.28938877  0.77075751  1.0
  C  C110  1  0.13819246  0.48118989  0.71040668  1.0
  C  C111  1  0.32615273  0.74394145  0.55217256  1.0
  C  C112  1  0.58206895  0.80836039  0.25602140  1.0
  C  C113  1  0.77438934  0.44782481  0.19191667  1.0
  C  C114  1  0.67385033  0.25605983  0.44782795  1.0
  C  C115  1  0.41793113  0.19163954  0.74397850  1.0
  C  C116  1  0.22561098  0.55217399  0.80808284  1.0
  C  C117  1  0.38635679  0.67752606  0.56206108  1.0
  C  C118  1  0.70859205  0.88464868  0.32246462  1.0
  C  C119  1  0.82453984  0.43796004  0.11557250  1.0
  C  C120  1  0.61364611  0.32247270  0.43793766  1.0
  C  C121  1  0.29140779  0.11535275  0.67753531  1.0
  C  C122  1  0.17546172  0.56204001  0.88442826  1.0
  C  C123  1  0.47995296  0.66376257  0.43971928  1.0
  C  C124  1  0.81591292  0.77603667  0.33617167  1.0
  C  C125  1  0.04047464  0.56022549  0.22399596  1.0
  C  C126  1  0.52004799  0.33623797  0.56027975  1.0
  C  C127  1  0.18408778  0.22396499  0.66382775  1.0
  C  C128  1  0.95952607  0.43977433  0.77600531  1.0
  C  C129  1  0.42420398  0.73038888  0.42521909  1.0
  C  C130  1  0.69364728  0.69491020  0.26949508  1.0
  C  C131  1  0.99938162  0.57470967  0.30517981  1.0
  C  C132  1  0.57579783  0.26961152  0.57477981  1.0
  C  C133  1  0.30635429  0.30509096  0.73050457  1.0
  C  C134  1  0.00061995  0.42529038  0.69482095  1.0
  C  C135  1  0.40580231  0.99010312  0.31903122  1.0
  C  C136  1  0.41563555  0.32901011  0.01011637  1.0
  C  C137  1  0.08637130  0.68089589  0.67091668  1.0
  C  C138  1  0.59419777  0.00989681  0.68096868  1.0
  C  C139  1  0.58436538  0.67098968  0.98988339  1.0
  C  C140  1  0.91362917  0.31910617  0.32908388  1.0
  N  N141  1  0.10924785  0.04884993  0.41499384  1.0
  N  N142  1  0.06049530  0.36626954  0.95127061  1.0
  N  N143  1  0.69396571  0.58485617  0.63369103  1.0
  N  N144  1  0.89075162  0.95114901  0.58500581  1.0
  N  N145  1  0.93950627  0.63373051  0.04873015  1.0
  N  N146  1  0.30603350  0.41514389  0.36630900  1.0
  N  N147  1  0.13802946  0.92224474  0.47888137  1.0
  N  N148  1  0.21583923  0.55676518  0.07765861  1.0
  N  N149  1  0.65917068  0.52100799  0.44319780  1.0
  N  N150  1  0.86197109  0.07775366  0.52111700  1.0
  N  N151  1  0.78416148  0.44323464  0.92234266  1.0
  N  N152  1  0.34082941  0.47899158  0.55680248  1.0
  N  N153  1  0.17303962  0.85892029  0.50585297  1.0
  N  N154  1  0.31412764  0.64704790  0.14091265  1.0
  N  N155  1  0.66748038  0.49406977  0.35299542  1.0
  N  N156  1  0.82696046  0.14107927  0.49414730  1.0
  N  N157  1  0.68587393  0.35295215  0.85908811  1.0
  N  N158  1  0.33251846  0.50592854  0.64700360  1.0
  N  N159  1  0.30689977  0.88362965  0.41647109  1.0
  N  N160  1  0.42321138  0.53293904  0.11646266  1.0
  N  N161  1  0.89045510  0.58362572  0.46720671  1.0
  N  N162  1  0.69309758  0.11636854  0.58352707  1.0
  N  N163  1  0.57678933  0.46706115  0.88353824  1.0
  N  N164  1  0.10954412  0.41637435  0.53279333  1.0
  N  N165  1  0.46077621  0.63632186  0.50612851  1.0
  N  N166  1  0.82414997  0.86989376  0.36365910  1.0
  N  N167  1  0.95480941  0.49388321  0.13020217  1.0
  N  N168  1  0.53922560  0.36367780  0.49387112  1.0
  N  N169  1  0.17584815  0.13010794  0.63634109  1.0
  N  N170  1  0.04519216  0.50611684  0.86979859  1.0
