# generated using pymatgen
data_Al2H15C30(NO6)3
_symmetry_space_group_name_H-M   'P 1'
_cell_length_a   4.09066773
_cell_length_b   17.16998571
_cell_length_c   17.16999456
_cell_angle_alpha   60.00034392
_cell_angle_beta   89.99819700
_cell_angle_gamma   89.99697949
_symmetry_Int_Tables_number   1
_chemical_formula_structural   Al2H15C30(NO6)3
_chemical_formula_sum   'Al2 H15 C30 N3 O18'
_cell_volume   1044.39896366
_cell_formula_units_Z   1
loop_
 _symmetry_equiv_pos_site_id
 _symmetry_equiv_pos_as_xyz
  1  'x, y, z'
loop_
 _atom_site_type_symbol
 _atom_site_label
 _atom_site_symmetry_multiplicity
 _atom_site_fract_x
 _atom_site_fract_y
 _atom_site_fract_z
 _atom_site_occupancy
  Al  Al0  1  0.07271012  0.99998967  0.50000822  1.0
  Al  Al1  1  0.99116759  0.66666422  0.16666694  1.0
  H  H2  1  0.78840004  0.42473942  0.17225842  1.0
  H  H3  1  0.94922802  0.39914970  0.42602239  1.0
  H  H4  1  0.33043755  0.40904825  0.47052630  1.0
  H  H5  1  0.39952969  0.24075856  0.55065819  1.0
  H  H6  1  0.01240600  0.22965289  0.51030797  1.0
  H  H7  1  0.78839535  0.67224601  0.40298701  1.0
  H  H8  1  0.94938340  0.92606426  0.17482517  1.0
  H  H9  1  0.33058340  0.97055837  0.12042740  1.0
  H  H10  1  0.39969955  0.05068581  0.20859082  1.0
  H  H11  1  0.01254127  0.01032430  0.26005309  1.0
  H  H12  1  0.78827542  0.90299549  0.92475288  1.0
  H  H13  1  0.94943677  0.67479498  0.89914131  1.0
  H  H14  1  0.33068238  0.62040682  0.90903707  1.0
  H  H15  1  0.39975810  0.70856983  0.74074584  1.0
  H  H16  1  0.01255732  0.76002318  0.72965328  1.0
  C  C17  1  0.57151075  0.94638475  0.63551572  1.0
  C  C18  1  0.57151181  0.13550384  0.41810750  1.0
  C  C19  1  0.57155298  0.91810030  0.44639164  1.0
  C  C20  1  0.49369231  0.52997308  0.22836115  1.0
  C  C21  1  0.49368715  0.72837231  0.24165949  1.0
  C  C22  1  0.49368481  0.74165764  0.02997428  1.0
  C  C23  1  0.50977798  0.43037376  0.27666950  1.0
  C  C24  1  0.55095502  0.23626528  0.36734973  1.0
  C  C25  1  0.37569270  0.37538105  0.36178592  1.0
  C  C26  1  0.68430685  0.29261377  0.28117278  1.0
  C  C27  1  0.40383469  0.28161634  0.40630740  1.0
  C  C28  1  0.67213530  0.38622774  0.23772020  1.0
  C  C29  1  0.20191655  0.37447853  0.44027747  1.0
  C  C30  1  0.23976933  0.26865098  0.49134398  1.0
  C  C31  1  0.50984013  0.77668473  0.29295127  1.0
  C  C32  1  0.55100272  0.86735264  0.39637925  1.0
  C  C33  1  0.37579122  0.86180300  0.26282911  1.0
  C  C34  1  0.68434528  0.78117249  0.42620358  1.0
  C  C35  1  0.40391798  0.90632720  0.31207258  1.0
  C  C36  1  0.67218162  0.73771411  0.37604799  1.0
  C  C37  1  0.20205087  0.94031325  0.18523938  1.0
  C  C38  1  0.23990848  0.99137690  0.24000577  1.0
  C  C39  1  0.50980183  0.79294229  0.93037545  1.0
  C  C40  1  0.55096772  0.89637605  0.73626843  1.0
  C  C41  1  0.37578653  0.76281916  0.87537743  1.0
  C  C42  1  0.68427159  0.92620598  0.79262214  1.0
  C  C43  1  0.40390008  0.81206050  0.78161233  1.0
  C  C44  1  0.67209198  0.87604656  0.88623061  1.0
  C  C45  1  0.20210694  0.68521860  0.87447110  1.0
  C  C46  1  0.23994036  0.73998519  0.76863933  1.0
  N  N47  1  0.84791353  0.25191028  0.23374334  1.0
  N  N48  1  0.84794143  0.73374305  0.51433865  1.0
  N  N49  1  0.84779304  0.01434937  0.75191873  1.0
  O  O50  1  0.81168295  0.97183300  0.42525021  1.0
  O  O51  1  0.81165687  0.92523341  0.60292733  1.0
  O  O52  1  0.81162911  0.10291208  0.47185201  1.0
  O  O53  1  0.33718294  0.90937542  0.49841076  1.0
  O  O54  1  0.33716900  0.09220702  0.40939499  1.0
  O  O55  1  0.33713790  0.99839859  0.59222037  1.0
  O  O56  1  0.72175582  0.75512882  0.07268342  1.0
  O  O57  1  0.72178370  0.57267655  0.17218687  1.0
  O  O58  1  0.72173824  0.67218412  0.25512996  1.0
  O  O59  1  0.25263476  0.68801580  0.06518153  1.0
  O  O60  1  0.25259843  0.74680774  0.18802630  1.0
  O  O61  1  0.25262887  0.56517512  0.24679784  1.0
  O  O62  1  0.81311918  0.16970030  0.26552849  1.0
  O  O63  1  0.01036233  0.30135803  0.16557781  1.0
  O  O64  1  0.81314823  0.76553166  0.56476433  1.0
  O  O65  1  0.01039483  0.66557854  0.53304592  1.0
  O  O66  1  0.81305289  0.06476803  0.66970266  1.0
  O  O67  1  0.01010794  0.03307662  0.80138131  1.0
