# generated using pymatgen
data_Zn4H11C26S4O13F
_symmetry_space_group_name_H-M   'P 1'
_cell_length_a   19.65803675
_cell_length_b   19.67228545
_cell_length_c   33.38040533
_cell_angle_alpha   79.20846964
_cell_angle_beta   79.25106136
_cell_angle_gamma   63.95126747
_symmetry_Int_Tables_number   1
_chemical_formula_structural   Zn4H11C26S4O13F
_chemical_formula_sum   'Zn16 H44 C104 S16 O52 F4'
_cell_volume   11312.63549896
_cell_formula_units_Z   4
loop_
 _symmetry_equiv_pos_site_id
 _symmetry_equiv_pos_as_xyz
  1  'x, y, z'
loop_
 _atom_site_type_symbol
 _atom_site_label
 _atom_site_symmetry_multiplicity
 _atom_site_fract_x
 _atom_site_fract_y
 _atom_site_fract_z
 _atom_site_occupancy
  Zn  Zn0  1  0.60052169  0.94354739  0.52211977  1.0
  Zn  Zn1  1  0.51637176  0.01572965  0.44032165  1.0
  Zn  Zn2  1  0.43930087  0.94097705  0.51792234  1.0
  Zn  Zn3  1  0.44444412  0.09902454  0.52068552  1.0
  Zn  Zn4  1  0.64979963  0.30667231  0.72852739  1.0
  Zn  Zn5  1  0.81052344  0.31061575  0.73324553  1.0
  Zn  Zn6  1  0.73327931  0.23144204  0.80957394  1.0
  Zn  Zn7  1  0.80516534  0.15220152  0.72795197  1.0
  Zn  Zn8  1  0.23279008  0.73292833  0.31048435  1.0
  Zn  Zn9  1  0.30411740  0.65140049  0.22856178  1.0
  Zn  Zn10  1  0.15074786  0.80748061  0.22875473  1.0
  Zn  Zn11  1  0.31123704  0.80917328  0.23310246  1.0
  Zn  Zn12  1  0.93950146  0.43990750  0.01708099  1.0
  Zn  Zn13  1  0.94434618  0.59888427  0.02152967  1.0
  Zn  Zn14  1  0.09915154  0.44425854  0.02160483  1.0
  Zn  Zn15  1  0.01676430  0.51712185  0.93970606  1.0
  H  H16  1  0.75166010  0.04580877  0.64865073  1.0
  H  H17  1  0.54523441  0.25323682  0.64932954  1.0
  H  H18  1  0.70131395  0.99989060  0.60049657  1.0
  H  H19  1  0.40282844  0.90265722  0.29994267  1.0
  H  H20  1  0.29875726  0.79876546  0.40276475  1.0
  H  H21  1  0.44994679  0.94985551  0.34908637  1.0
  H  H22  1  0.76092720  0.53644903  0.65915639  1.0
  H  H23  1  0.29727051  0.52091886  0.39866386  1.0
  H  H24  1  0.02110930  0.79701787  0.39888432  1.0
  H  H25  1  0.02946459  0.05059214  0.65207693  1.0
  H  H26  1  0.95006925  0.45002118  0.84722972  1.0
  H  H27  1  0.84716477  0.34724603  0.95122322  1.0
  H  H28  1  0.90092311  0.40081322  0.80017280  1.0
  H  H29  1  0.22848221  0.45300266  0.85141434  1.0
  H  H30  1  0.85845854  0.83741717  0.95981460  1.0
  H  H31  1  0.20426169  0.49849127  0.10136818  1.0
  H  H32  1  0.99672085  0.70479872  0.10074049  1.0
  H  H33  1  0.25038773  0.54852182  0.14953931  1.0
  H  H34  1  0.72041422  0.69946078  0.09789706  1.0
  H  H35  1  0.98929964  0.21346517  0.09085533  1.0
  H  H36  1  0.42463301  0.76863653  0.60093265  1.0
  H  H37  1  0.44890861  0.66934249  0.60302994  1.0
  H  H38  1  0.46417144  0.72398279  0.55596890  1.0
  H  H39  1  0.52305839  0.17893361  0.34655477  1.0
  H  H40  1  0.46331412  0.24274824  0.30898324  1.0
  H  H41  1  0.43578782  0.17609749  0.34400319  1.0
  H  H42  1  0.67621648  0.93565931  0.34389289  1.0
  H  H43  1  0.74284639  0.96347414  0.30905797  1.0
  H  H44  1  0.67877546  0.02291259  0.34661158  1.0
  H  H45  1  0.27798922  0.20184174  0.61018225  1.0
  H  H46  1  0.18002429  0.26809867  0.61373196  1.0
  H  H47  1  0.23305656  0.24136679  0.56524593  1.0
  H  H48  1  0.57108490  0.22707786  0.90331259  1.0
  H  H49  1  0.50727887  0.28673211  0.94082661  1.0
  H  H50  1  0.57403027  0.31414885  0.90587097  1.0
  H  H51  1  0.85177096  0.92767524  0.76011313  1.0
  H  H52  1  0.93046876  0.84207324  0.77590847  1.0
  H  H53  1  0.93898154  0.93054981  0.76274641  1.0
  H  H54  1  0.51700081  0.50860449  0.18480810  1.0
  H  H55  1  0.56981470  0.48212508  0.13624223  1.0
  H  H56  1  0.47182696  0.54835812  0.13991832  1.0
  H  H57  1  0.28591013  0.02645138  0.19403362  1.0
  H  H58  1  0.30159707  0.08059616  0.14683932  1.0
  H  H59  1  0.32557211  0.98131296  0.14919505  1.0
  C  C60  1  0.68432445  0.93853256  0.43851726  1.0
  C  C61  1  0.43087346  0.93101752  0.43085391  1.0
  C  C62  1  0.56184527  0.81560520  0.56168487  1.0
  C  C63  1  0.31535770  0.06147799  0.56153135  1.0
  C  C64  1  0.56900520  0.06928460  0.56917758  1.0
  C  C65  1  0.43816067  0.18424244  0.43834881  1.0
  C  C66  1  0.68899852  0.43454130  0.68854083  1.0
  C  C67  1  0.81909100  0.31896975  0.81908432  1.0
  C  C68  1  0.56514486  0.31141043  0.81129317  1.0
  C  C69  1  0.81117114  0.06535857  0.81128930  1.0
  C  C70  1  0.68059898  0.18073324  0.68074371  1.0
  C  C71  1  0.93437690  0.18786672  0.68853140  1.0
  C  C72  1  0.31122202  0.56583239  0.31181448  1.0
  C  C73  1  0.18100011  0.68083495  0.18095829  1.0
  C  C74  1  0.06588731  0.81133148  0.31208871  1.0
  C  C75  1  0.18864238  0.93476695  0.18869253  1.0
  C  C76  1  0.31922729  0.81924383  0.31944574  1.0
  C  C77  1  0.43434044  0.68868444  0.18860039  1.0
  C  C78  1  0.81552058  0.56210113  0.06149600  1.0
  C  C79  1  0.06916096  0.56943339  0.06931289  1.0
  C  C80  1  0.06089351  0.31576397  0.06149610  1.0
  C  C81  1  0.18402201  0.43878694  0.93828338  1.0
  C  C82  1  0.93051939  0.43069779  0.93074292  1.0
  C  C83  1  0.93812429  0.68468828  0.93875288  1.0
  C  C84  1  0.59595808  0.09957592  0.59791664  1.0
  C  C85  1  0.65169335  0.15215722  0.65204993  1.0
  C  C86  1  0.55314129  0.17106042  0.61233875  1.0
  C  C87  1  0.69585940  0.08057590  0.63825297  1.0
  C  C88  1  0.58001394  0.19751575  0.63892488  1.0
  C  C89  1  0.66797008  0.05525531  0.61160855  1.0
  C  C90  1  0.40143497  0.90133208  0.40305190  1.0
  C  C91  1  0.34787073  0.84797951  0.34820807  1.0
  C  C92  1  0.35850275  0.85831111  0.41726104  1.0
  C  C93  1  0.39061787  0.89062442  0.33301408  1.0
  C  C94  1  0.33184026  0.83183472  0.39057061  1.0
  C  C95  1  0.41667476  0.91662845  0.36023802  1.0
  C  C96  1  0.54470019  0.69625989  0.59872885  1.0
  C  C97  1  0.70403041  0.55384289  0.65112696  1.0
  C  C98  1  0.58565988  0.74087272  0.58631534  1.0
  C  C99  1  0.66380142  0.50924692  0.66357121  1.0
  C  C100  1  0.66132531  0.62198959  0.62749841  1.0
  C  C101  1  0.58903410  0.62833708  0.62231641  1.0
  C  C102  1  0.42464083  0.27282380  0.37026392  1.0
  C  C103  1  0.32635562  0.47589079  0.37887085  1.0
  C  C104  1  0.41407774  0.25829562  0.41298619  1.0
  C  C105  1  0.33650831  0.49079959  0.33649383  1.0
  C  C106  1  0.35821442  0.39679619  0.39150221  1.0
  C  C107  1  0.39220533  0.35251544  0.35849540  1.0
  C  C108  1  0.77283998  0.92457597  0.37039330  1.0
  C  C109  1  0.97601450  0.82608683  0.37908889  1.0
  C  C110  1  0.75836028  0.91414121  0.41313558  1.0
  C  C111  1  0.99084829  0.83630211  0.33671201  1.0
  C  C112  1  0.89690012  0.85801279  0.39168886  1.0
  C  C113  1  0.85257715  0.89203479  0.35864917  1.0
  C  C114  1  0.19994705  0.15671593  0.60258731  1.0
  C  C115  1  0.05017183  0.09475801  0.64747667  1.0
  C  C116  1  0.24096683  0.08732630  0.58650250  1.0
  C  C117  1  0.00909818  0.16344431  0.66356822  1.0
  C  C118  1  0.11972998  0.09160495  0.62528639  1.0
  C  C119  1  0.13061920  0.15810084  0.62475833  1.0
  C  C120  1  0.84679198  0.34693093  0.84865324  1.0
  C  C121  1  0.90179892  0.40180069  0.90209145  1.0
  C  C122  1  0.83256831  0.33281573  0.89160827  1.0
  C  C123  1  0.91697659  0.41694068  0.85940037  1.0
  C  C124  1  0.85935999  0.35945409  0.91816477  1.0
  C  C125  1  0.88971208  0.38970262  0.83340049  1.0
  C  C126  1  0.47700648  0.32554134  0.87954628  1.0
  C  C127  1  0.27364193  0.42392865  0.87117012  1.0
  C  C128  1  0.49121378  0.33608954  0.83678399  1.0
  C  C129  1  0.25898290  0.41370602  0.91356728  1.0
  C  C130  1  0.35270463  0.39212070  0.85843744  1.0
  C  C131  1  0.39727177  0.35806561  0.89137107  1.0
  C  C132  1  0.87590330  0.91895231  0.82157588  1.0
  C  C133  1  0.87485082  0.83025785  0.92740275  1.0
  C  C134  1  0.83668249  0.99031473  0.83566403  1.0
  C  C135  1  0.91352874  0.75924810  0.91362235  1.0
  C  C136  1  0.86085773  0.88881845  0.89420169  1.0
  C  C137  1  0.88919372  0.86147837  0.85555037  1.0
  C  C138  1  0.15058929  0.65386136  0.15224131  1.0
  C  C139  1  0.09780334  0.59828478  0.09803826  1.0
  C  C140  1  0.07898246  0.69664507  0.13782086  1.0
  C  C141  1  0.16950004  0.55418765  0.11180833  1.0
  C  C142  1  0.05246147  0.66989377  0.11118145  1.0
  C  C143  1  0.19493586  0.58197160  0.13846543  1.0
  C  C144  1  0.54985510  0.59343854  0.14749182  1.0
  C  C145  1  0.69967045  0.65532505  0.10251987  1.0
  C  C146  1  0.50881599  0.66278586  0.16362493  1.0
  C  C147  1  0.74070364  0.58664290  0.08641547  1.0
  C  C148  1  0.63018381  0.65840975  0.12480570  1.0
  C  C149  1  0.61923687  0.59195779  0.12533883  1.0
  C  C150  1  0.20564722  0.05396102  0.15122431  1.0
  C  C151  1  0.04618562  0.19620400  0.09886460  1.0
  C  C152  1  0.16484056  0.00924948  0.16373055  1.0
  C  C153  1  0.08627745  0.24094787  0.08638680  1.0
  C  C154  1  0.08903027  0.12805309  0.12246867  1.0
  C  C155  1  0.16130714  0.12182594  0.12760803  1.0
  C  C156  1  0.46644870  0.71525900  0.58925505  1.0
  C  C157  1  0.46374091  0.21477191  0.34069905  1.0
  C  C158  1  0.71480074  0.96368736  0.34074440  1.0
  C  C159  1  0.22373693  0.22061233  0.59778906  1.0
  C  C160  1  0.53520760  0.28635827  0.90910788  1.0
  C  C161  1  0.90077243  0.90362456  0.77777487  1.0
  C  C162  1  0.52613232  0.52951192  0.15226692  1.0
  C  C163  1  0.28387326  0.03486503  0.16073621  1.0
  S  S164  1  0.67567663  0.70054113  0.60304163  1.0
  S  S165  1  0.57410068  0.54983338  0.64670683  1.0
  S  S166  1  0.36592339  0.34001179  0.43789256  1.0
  S  S167  1  0.38467452  0.40897228  0.31184775  1.0
  S  S168  1  0.84014355  0.86583399  0.43806047  1.0
  S  S169  1  0.90900019  0.88452983  0.31201722  1.0
  S  S170  1  0.19577319  0.02582424  0.59823372  1.0
  S  S171  1  0.05466045  0.22439529  0.65180351  1.0
  S  S172  1  0.40924672  0.38446088  0.81199004  1.0
  S  S173  1  0.34107762  0.36546264  0.93808166  1.0
  S  S174  1  0.81696083  0.98682654  0.88899218  1.0
  S  S175  1  0.93313740  0.76329269  0.86039328  1.0
  S  S176  1  0.55417538  0.72416222  0.15191280  1.0
  S  S177  1  0.69516020  0.52566189  0.09825868  1.0
  S  S178  1  0.07485909  0.04938089  0.14695590  1.0
  S  S179  1  0.17606229  0.20041619  0.10318076  1.0
  O  O180  1  0.50136472  0.99922833  0.50033369  1.0
  O  O181  1  0.68539138  0.92184833  0.47746744  1.0
  O  O182  1  0.46878523  0.96950918  0.41336145  1.0
  O  O183  1  0.49522932  0.84443434  0.55021771  1.0
  O  O184  1  0.62507247  0.97440016  0.41960191  1.0
  O  O185  1  0.60976292  0.84567955  0.55381183  1.0
  O  O186  1  0.41604554  0.91592579  0.46930340  1.0
  O  O187  1  0.34245965  0.99421560  0.55089631  1.0
  O  O188  1  0.50362577  0.11129964  0.55756375  1.0
  O  O189  1  0.34691165  0.10789387  0.55239499  1.0
  O  O190  1  0.61424673  0.00345031  0.55868633  1.0
  O  O191  1  0.47449007  0.12488372  0.41966032  1.0
  O  O192  1  0.42057991  0.18544961  0.47725923  1.0
  O  O193  1  0.74958318  0.25086621  0.74940737  1.0
  O  O194  1  0.64168050  0.40383988  0.69656169  1.0
  O  O195  1  0.83683592  0.33607738  0.78091482  1.0
  O  O196  1  0.62449733  0.27501660  0.83000057  1.0
  O  O197  1  0.75547940  0.40709113  0.69995903  1.0
  O  O198  1  0.56391311  0.32839284  0.77231744  1.0
  O  O199  1  0.78043936  0.28065280  0.83414314  1.0
  O  O200  1  0.77483246  0.12324089  0.83129044  1.0
  O  O201  1  0.74629447  0.13665841  0.69176112  1.0
  O  O202  1  0.82717333  0.06695469  0.77227201  1.0
  O  O203  1  0.63721451  0.24644108  0.69173150  1.0
  O  O204  1  0.90676210  0.25437325  0.70001459  1.0
  O  O205  1  0.90379303  0.14059571  0.69654681  1.0
  O  O206  1  0.24996185  0.75007314  0.25035960  1.0
  O  O207  1  0.27549088  0.62399643  0.33139451  1.0
  O  O208  1  0.24715309  0.63559284  0.19128390  1.0
  O  O209  1  0.06594168  0.82805688  0.27312536  1.0
  O  O210  1  0.32745836  0.56589468  0.27280878  1.0
  O  O211  1  0.12414303  0.77537813  0.33169878  1.0
  O  O212  1  0.13919341  0.74594998  0.19275002  1.0
  O  O213  1  0.14053269  0.90492636  0.19668983  1.0
  O  O214  1  0.33541809  0.83579539  0.28112642  1.0
  O  O215  1  0.25508836  0.90584598  0.20040278  1.0
  O  O216  1  0.28112055  0.78064101  0.33578703  1.0
  O  O217  1  0.40220375  0.64272788  0.19720202  1.0
  O  O218  1  0.40776751  0.75553446  0.19973441  1.0
  O  O219  1  0.99999242  0.49999237  0.99999456  1.0
  O  O220  1  0.84302159  0.49547651  0.05012804  1.0
  O  O221  1  0.00340723  0.61307711  0.05826634  1.0
  O  O222  1  0.10802003  0.34669254  0.05344078  1.0
  O  O223  1  0.84625110  0.60918538  0.05342564  1.0
  O  O224  1  0.99434437  0.34318433  0.05016377  1.0
  O  O225  1  0.11288491  0.50375253  0.05834276  1.0
  O  O226  1  0.18414421  0.42268350  0.97729637  1.0
  O  O227  1  0.96880068  0.46909044  0.91434771  1.0
  O  O228  1  0.12563751  0.47431159  0.91877105  1.0
  O  O229  1  0.91420610  0.41451052  0.96911214  1.0
  O  O230  1  0.92189033  0.68487068  0.97764887  1.0
  O  O231  1  0.97370913  0.62617364  0.91925326  1.0
  F  F232  1  0.48316519  0.21781650  0.60086060  1.0
  F  F233  1  0.34109123  0.84056270  0.45794081  1.0
  F  F234  1  0.79169419  0.29226761  0.90922455  1.0
  F  F235  1  0.03224584  0.76647213  0.14932545  1.0
