# generated using pymatgen
data_Zn4H4C24S4Cl4O13
_symmetry_space_group_name_H-M   'P 1'
_cell_length_a   19.65387332
_cell_length_b   19.72646786
_cell_length_c   33.34238812
_cell_angle_alpha   79.08070867
_cell_angle_beta   79.28435083
_cell_angle_gamma   64.02159279
_symmetry_Int_Tables_number   1
_chemical_formula_structural   Zn4H4C24S4Cl4O13
_chemical_formula_sum   'Zn16 H16 C96 S16 Cl16 O52'
_cell_volume   11332.46600198
_cell_formula_units_Z   4
loop_
 _symmetry_equiv_pos_site_id
 _symmetry_equiv_pos_as_xyz
  1  'x, y, z'
loop_
 _atom_site_type_symbol
 _atom_site_label
 _atom_site_symmetry_multiplicity
 _atom_site_fract_x
 _atom_site_fract_y
 _atom_site_fract_z
 _atom_site_occupancy
  Zn  Zn0  1  0.05617520  0.40049686  0.47817913  1.0
  Zn  Zn1  1  0.98473434  0.48374826  0.55986664  1.0
  Zn  Zn2  1  0.05873041  0.56182214  0.48331904  1.0
  Zn  Zn3  1  0.90045015  0.55364680  0.47878366  1.0
  Zn  Zn4  1  0.69355819  0.34960596  0.27172055  1.0
  Zn  Zn5  1  0.69097219  0.18842880  0.26656180  1.0
  Zn  Zn6  1  0.76790276  0.26511252  0.18961274  1.0
  Zn  Zn7  1  0.84735312  0.19703630  0.27230971  1.0
  Zn  Zn8  1  0.26524027  0.76613190  0.69022608  1.0
  Zn  Zn9  1  0.34941959  0.69644388  0.77128240  1.0
  Zn  Zn10  1  0.19367601  0.84950246  0.77192828  1.0
  Zn  Zn11  1  0.19111177  0.68824235  0.76672645  1.0
  Zn  Zn12  1  0.55884879  0.06166657  0.98346567  1.0
  Zn  Zn13  1  0.40261430  0.05302696  0.97771508  1.0
  Zn  Zn14  1  0.55637764  0.90028766  0.97838568  1.0
  Zn  Zn15  1  0.48225797  0.98471457  0.06041793  1.0
  H  H16  1  0.79638585  0.50199195  0.39905646  1.0
  H  H17  1  0.95336985  0.24873706  0.35080161  1.0
  H  H18  1  0.74765111  0.45433226  0.35070863  1.0
  H  H19  1  0.00210269  0.29641315  0.39911187  1.0
  H  H20  1  0.15248524  0.65261785  0.54926955  1.0
  H  H21  1  0.09759123  0.59735154  0.70072536  1.0
  H  H22  1  0.20083115  0.70050363  0.59771953  1.0
  H  H23  1  0.04924703  0.54945779  0.65227876  1.0
  H  H24  1  0.70089222  0.20038825  0.09756167  1.0
  H  H25  1  0.54917352  0.04957561  0.15244439  1.0
  H  H26  1  0.65220073  0.15258573  0.04926974  1.0
  H  H27  1  0.59784734  0.09739681  0.20073919  1.0
  H  H28  1  0.24803835  0.95382991  0.85072176  1.0
  H  H29  1  0.50244288  0.79593413  0.89913594  1.0
  H  H30  1  0.29675447  0.00150827  0.89906312  1.0
  H  H31  1  0.45377938  0.74826238  0.85077754  1.0
  C  C32  1  0.06162693  0.31636650  0.56155816  1.0
  C  C33  1  0.06955338  0.56994628  0.56945896  1.0
  C  C34  1  0.18360845  0.43977539  0.43881282  1.0
  C  C35  1  0.93727540  0.68387188  0.43882175  1.0
  C  C36  1  0.93058985  0.43015584  0.43061575  1.0
  C  C37  1  0.81657803  0.56083572  0.56179645  1.0
  C  C38  1  0.56620155  0.31030381  0.31125483  1.0
  C  C39  1  0.68116007  0.17970517  0.18046405  1.0
  C  C40  1  0.68936082  0.43306418  0.18827386  1.0
  C  C41  1  0.93436062  0.18831110  0.18922234  1.0
  C  C42  1  0.81878874  0.32044436  0.31955497  1.0
  C  C43  1  0.81208845  0.06626717  0.31140655  1.0
  C  C44  1  0.43329112  0.68929798  0.68827458  1.0
  C  C45  1  0.31939347  0.82009716  0.81930699  1.0
  C  C46  1  0.18866036  0.93340954  0.68846900  1.0
  C  C47  1  0.06615737  0.81031209  0.81123930  1.0
  C  C48  1  0.18056355  0.67992047  0.68055449  1.0
  C  C49  1  0.31265096  0.56617085  0.81114206  1.0
  C  C50  1  0.43773658  0.18381181  0.93859198  1.0
  C  C51  1  0.43119571  0.92975541  0.93038575  1.0
  C  C52  1  0.68354237  0.93981500  0.93875996  1.0
  C  C53  1  0.56098162  0.81669365  0.06178436  1.0
  C  C54  1  0.56895981  0.07016173  0.06955725  1.0
  C  C55  1  0.31580244  0.06157388  0.06086101  1.0
  C  C56  1  0.90192377  0.40183904  0.40177605  1.0
  C  C57  1  0.84777031  0.34893436  0.34812341  1.0
  C  C58  1  0.83015029  0.44669878  0.38825315  1.0
  C  C59  1  0.91959858  0.30404911  0.36159940  1.0
  C  C60  1  0.80320915  0.42038507  0.36155470  1.0
  C  C61  1  0.94654541  0.33039504  0.38829492  1.0
  C  C62  1  0.09826413  0.59843727  0.59813448  1.0
  C  C63  1  0.15187219  0.65145507  0.65186179  1.0
  C  C64  1  0.14091322  0.64096944  0.58247096  1.0
  C  C65  1  0.10919345  0.60896155  0.66752668  1.0
  C  C66  1  0.16762064  0.66737386  0.60922521  1.0
  C  C67  1  0.08248888  0.58254353  0.64077630  1.0
  C  C68  1  0.30497020  0.45442329  0.40070148  1.0
  C  C69  1  0.44476191  0.29569643  0.34927148  1.0
  C  C70  1  0.25843800  0.41583486  0.41390773  1.0
  C  C71  1  0.49132595  0.33426709  0.33610752  1.0
  C  C72  1  0.37679444  0.33955455  0.37281745  1.0
  C  C73  1  0.37291441  0.41058306  0.37710478  1.0
  C  C74  1  0.72556047  0.57599206  0.62981933  1.0
  C  C75  1  0.52422321  0.67408891  0.62026727  1.0
  C  C76  1  0.74231992  0.58539365  0.58718562  1.0
  C  C77  1  0.50754695  0.66469964  0.66289606  1.0
  C  C78  1  0.60380379  0.64171995  0.60821021  1.0
  C  C79  1  0.64600271  0.60838417  0.64185881  1.0
  C  C80  1  0.07629591  0.22517773  0.62966445  1.0
  C  C81  1  0.17387193  0.02452482  0.62036397  1.0
  C  C82  1  0.08574337  0.24215864  0.58702407  1.0
  C  C83  1  0.16449281  0.00761345  0.66300138  1.0
  C  C84  1  0.14163644  0.10393662  0.60821516  1.0
  C  C85  1  0.10847729  0.14578390  0.64180543  1.0
  C  C86  1  0.84300351  0.80141514  0.39706512  1.0
  C  C87  1  0.90663089  0.94854803  0.35283992  1.0
  C  C88  1  0.91155148  0.75846351  0.41373477  1.0
  C  C89  1  0.83799735  0.99146555  0.33624260  1.0
  C  C90  1  0.90847703  0.87915276  0.37500198  1.0
  C  C91  1  0.84129601  0.87069610  0.37482230  1.0
  C  C92  1  0.65213416  0.15141396  0.15180192  1.0
  C  C93  1  0.59800113  0.09846214  0.09820231  1.0
  C  C94  1  0.66768099  0.16728127  0.10914772  1.0
  C  C95  1  0.58243434  0.08262787  0.14086076  1.0
  C  C96  1  0.64072899  0.14092132  0.08247288  1.0
  C  C97  1  0.60935670  0.10900892  0.16753710  1.0
  C  C98  1  0.67392190  0.52457372  0.12022942  1.0
  C  C99  1  0.57621149  0.72512423  0.12982759  1.0
  C  C100  1  0.66477194  0.50738958  0.16285177  1.0
  C  C101  1  0.58541155  0.74237674  0.08720317  1.0
  C  C102  1  0.60853723  0.64568568  0.14185651  1.0
  C  C103  1  0.64159503  0.60402934  0.10819006  1.0
  C  C104  1  0.08191379  0.12374523  0.17779409  1.0
  C  C105  1  0.16829740  0.12598288  0.07233926  1.0
  C  C106  1  0.00961229  0.16282723  0.16483175  1.0
  C  C107  1  0.24059379  0.08690929  0.08529134  1.0
  C  C108  1  0.11043517  0.13937307  0.10609627  1.0
  C  C109  1  0.13978575  0.11029021  0.14402661  1.0
  C  C110  1  0.34823521  0.84847588  0.84803311  1.0
  C  C111  1  0.40234589  0.90133460  0.90172537  1.0
  C  C112  1  0.30361013  0.91987831  0.86153654  1.0
  C  C113  1  0.44691619  0.82989469  0.88827543  1.0
  C  C114  1  0.33052161  0.94621508  0.88825038  1.0
  C  C115  1  0.42001042  0.80358246  0.86155021  1.0
  C  C116  1  0.40694739  0.44863047  0.85287504  1.0
  C  C117  1  0.34328527  0.30151112  0.89709022  1.0
  C  C118  1  0.33839946  0.49154093  0.83619278  1.0
  C  C119  1  0.41190799  0.25854181  0.91369554  1.0
  C  C120  1  0.34152181  0.37085208  0.87489847  1.0
  C  C121  1  0.40870910  0.37929990  0.87508264  1.0
  C  C122  1  0.94473335  0.79569931  0.84927136  1.0
  C  C123  1  0.80493026  0.95444240  0.90068431  1.0
  C  C124  1  0.99129398  0.83427353  0.83609808  1.0
  C  C125  1  0.75839750  0.91585529  0.91388388  1.0
  C  C126  1  0.87288414  0.91059341  0.87709742  1.0
  C  C127  1  0.87676815  0.83956114  0.87281368  1.0
  S  S128  1  0.29786225  0.32611334  0.39745335  1.0
  S  S129  1  0.45185846  0.42402199  0.35251644  1.0
  S  S130  1  0.66082211  0.63373697  0.56197132  1.0
  S  S131  1  0.58902597  0.61636990  0.68810251  1.0
  S  S132  1  0.13377790  0.16108054  0.56192137  1.0
  S  S133  1  0.11639278  0.08866934  0.68810428  1.0
  S  S134  1  0.97368934  0.80288936  0.40216909  1.0
  S  S135  1  0.77598560  0.94695862  0.34771175  1.0
  S  S136  1  0.61666375  0.58831466  0.18808319  1.0
  S  S137  1  0.63349470  0.66143691  0.06196197  1.0
  S  S138  1  0.01257320  0.18299758  0.11146717  1.0
  S  S139  1  0.23764316  0.06669035  0.13864992  1.0
  S  S140  1  0.27631412  0.44708387  0.84770581  1.0
  S  S141  1  0.47397048  0.30301845  0.90221043  1.0
  S  S142  1  0.95182935  0.92402622  0.85250543  1.0
  S  S143  1  0.79783370  0.82612040  0.89744527  1.0
  Cl  Cl144  1  0.28668938  0.54307354  0.41038458  1.0
  Cl  Cl145  1  0.46305929  0.20705079  0.33956959  1.0
  Cl  Cl146  1  0.78928438  0.53181779  0.66504794  1.0
  Cl  Cl147  1  0.46054211  0.71819555  0.58501203  1.0
  Cl  Cl148  1  0.03228864  0.28845623  0.66482086  1.0
  Cl  Cl149  1  0.21779358  0.96125520  0.58520247  1.0
  Cl  Cl150  1  0.76806341  0.77761999  0.40141243  1.0
  Cl  Cl151  1  0.98155225  0.97238020  0.34845670  1.0
  Cl  Cl152  1  0.71765580  0.46146203  0.08498232  1.0
  Cl  Cl153  1  0.53244055  0.78825086  0.16507195  1.0
  Cl  Cl154  1  0.10293908  0.09381592  0.22726163  1.0
  Cl  Cl155  1  0.14732053  0.15598652  0.02285809  1.0
  Cl  Cl156  1  0.48191203  0.47238713  0.84851638  1.0
  Cl  Cl157  1  0.26834221  0.27769965  0.90149631  1.0
  Cl  Cl158  1  0.96304837  0.70704522  0.83957598  1.0
  Cl  Cl159  1  0.78664390  0.04308507  0.91038010  1.0
  O  O160  1  0.00046635  0.49944719  0.49952799  1.0
  O  O161  1  0.07850930  0.31463363  0.52261679  1.0
  O  O162  1  0.03165139  0.53106296  0.58579375  1.0
  O  O163  1  0.15491449  0.50553509  0.45048489  1.0
  O  O164  1  0.02650258  0.37517066  0.58022159  1.0
  O  O165  1  0.15429736  0.39135525  0.44639295  1.0
  O  O166  1  0.08509728  0.58665556  0.53097993  1.0
  O  O167  1  0.00407972  0.65829769  0.44992826  1.0
  O  O168  1  0.88667944  0.49535832  0.44193206  1.0
  O  O169  1  0.89179374  0.65161655  0.44729498  1.0
  O  O170  1  0.99649345  0.38690838  0.44164157  1.0
  O  O171  1  0.87582979  0.52600551  0.58042882  1.0
  O  O172  1  0.81442000  0.57709888  0.52281630  1.0
  O  O173  1  0.74897076  0.25099638  0.25000537  1.0
  O  O174  1  0.59550698  0.35873370  0.30365655  1.0
  O  O175  1  0.66510103  0.16331479  0.21893354  1.0
  O  O176  1  0.72505989  0.37421583  0.16969154  1.0
  O  O177  1  0.59498374  0.24449604  0.29963728  1.0
  O  O178  1  0.67214397  0.43499226  0.22719882  1.0
  O  O179  1  0.71972420  0.21795656  0.16420385  1.0
  O  O180  1  0.87700796  0.22309206  0.16863329  1.0
  O  O181  1  0.86245297  0.25484451  0.30866336  1.0
  O  O182  1  0.93264273  0.17387313  0.22816706  1.0
  O  O183  1  0.75304675  0.36361120  0.30834056  1.0
  O  O184  1  0.74554709  0.09179565  0.29999834  1.0
  O  O185  1  0.85730237  0.09884128  0.30347029  1.0
  O  O186  1  0.24938830  0.75058593  0.75056158  1.0
  O  O187  1  0.37407134  0.72407850  0.66961359  1.0
  O  O188  1  0.36324686  0.75484384  0.80802847  1.0
  O  O189  1  0.17198250  0.93516548  0.72741339  1.0
  O  O190  1  0.43541552  0.67308133  0.72725329  1.0
  O  O191  1  0.22356367  0.87462125  0.66979378  1.0
  O  O192  1  0.25341340  0.86324518  0.80837344  1.0
  O  O193  1  0.09546562  0.85874119  0.80365550  1.0
  O  O194  1  0.16502420  0.66319947  0.71903549  1.0
  O  O195  1  0.09492308  0.74452437  0.79958865  1.0
  O  O196  1  0.21843076  0.71883680  0.66422404  1.0
  O  O197  1  0.35809599  0.59848818  0.80274850  1.0
  O  O198  1  0.24586522  0.59171453  0.80002068  1.0
  O  O199  1  0.50097854  0.99896935  0.00002458  1.0
  O  O200  1  0.50431902  0.15823441  0.94998071  1.0
  O  O201  1  0.38752464  0.99534262  0.94127918  1.0
  O  O202  1  0.65427794  0.89136066  0.94637537  1.0
  O  O203  1  0.39245642  0.15132039  0.94659805  1.0
  O  O204  1  0.65478032  0.00563828  0.95035970  1.0
  O  O205  1  0.49687548  0.88650493  0.94168228  1.0
  O  O206  1  0.57828280  0.81477791  0.02285586  1.0
  O  O207  1  0.53029421  0.03201750  0.08582900  1.0
  O  O208  1  0.52526606  0.87556658  0.08034778  1.0
  O  O209  1  0.58506388  0.08647970  0.03108809  1.0
  O  O210  1  0.31744168  0.07605282  0.02192210  1.0
  O  O211  1  0.37320015  0.02683945  0.08141373  1.0
