# generated using pymatgen
data_CuH8C11N3
_symmetry_space_group_name_H-M   'P 1'
_cell_length_a   9.34451362
_cell_length_b   12.74305255
_cell_length_c   13.03256037
_cell_angle_alpha   74.79644660
_cell_angle_beta   72.96661674
_cell_angle_gamma   70.29766178
_symmetry_Int_Tables_number   1
_chemical_formula_structural   CuH8C11N3
_chemical_formula_sum   'Cu2 H16 C22 N6'
_cell_volume   1373.71001575
_cell_formula_units_Z   2
loop_
 _symmetry_equiv_pos_site_id
 _symmetry_equiv_pos_as_xyz
  1  'x, y, z'
loop_
 _atom_site_type_symbol
 _atom_site_label
 _atom_site_symmetry_multiplicity
 _atom_site_fract_x
 _atom_site_fract_y
 _atom_site_fract_z
 _atom_site_occupancy
  Cu  Cu0  1  0.75259920  0.45973183  0.05321921  1.0
  Cu  Cu1  1  0.24740632  0.54026709  0.94676385  1.0
  H  H2  1  0.11569831  0.59416616  0.73424538  1.0
  H  H3  1  0.22342852  0.57974799  0.54017688  1.0
  H  H4  1  0.68064570  0.43715041  0.61514164  1.0
  H  H5  1  0.55041283  0.46417265  0.80708066  1.0
  H  H6  1  0.83699944  0.94013375  0.92998079  1.0
  H  H7  1  0.95400917  0.74510698  0.89498414  1.0
  H  H8  1  0.35293624  0.70790248  0.99352129  1.0
  H  H9  1  0.25409150  0.90431995  0.03380895  1.0
  H  H10  1  0.88429463  0.40583075  0.26576155  1.0
  H  H11  1  0.77656034  0.42025066  0.45982434  1.0
  H  H12  1  0.31936096  0.56287385  0.38484643  1.0
  H  H13  1  0.44960140  0.53583545  0.19291594  1.0
  H  H14  1  0.16302898  0.05987222  0.06998418  1.0
  H  H15  1  0.04598830  0.25489257  0.10501581  1.0
  H  H16  1  0.64703882  0.29208040  0.00652050  1.0
  H  H17  1  0.74588849  0.09567584  0.96621711  1.0
  C  C18  1  0.24122276  0.56032758  0.70410274  1.0
  C  C19  1  0.30291532  0.55124986  0.59490754  1.0
  C  C20  1  0.46450596  0.50601219  0.55767382  1.0
  C  C21  1  0.55457210  0.47309382  0.63631234  1.0
  C  C22  1  0.48422215  0.48632746  0.74378629  1.0
  C  C23  1  0.96674064  0.05784987  0.01264314  1.0
  C  C24  1  0.04827114  0.10631504  0.05376582  1.0
  C  C25  1  0.98258533  0.21619273  0.07433054  1.0
  C  C26  1  0.23924487  0.76460650  0.98050071  1.0
  C  C27  1  0.18163897  0.87385755  0.00308683  1.0
  C  C28  1  0.56505791  0.49669290  0.00672631  1.0
  C  C29  1  0.75877481  0.43967453  0.29589502  1.0
  C  C30  1  0.69708282  0.44875645  0.40509290  1.0
  C  C31  1  0.53549164  0.49399833  0.44232877  1.0
  C  C32  1  0.44542747  0.52691171  0.36368339  1.0
  C  C33  1  0.51578446  0.51367723  0.25620969  1.0
  C  C34  1  0.03325300  0.94214800  0.98735419  1.0
  C  C35  1  0.95174250  0.89369159  0.94621209  1.0
  C  C36  1  0.01741748  0.78381026  0.92566513  1.0
  C  C37  1  0.76073894  0.23538522  0.01951327  1.0
  C  C38  1  0.81834903  0.12613766  0.99691926  1.0
  C  C39  1  0.43495990  0.50330335  0.99327016  1.0
  N  N40  1  0.32910681  0.52900804  0.77817185  1.0
  N  N41  1  0.84169361  0.28105980  0.05718135  1.0
  N  N42  1  0.06207848  0.50424349  0.98750182  1.0
  N  N43  1  0.67090357  0.47099842  0.22181907  1.0
  N  N44  1  0.15828565  0.71893777  0.94283675  1.0
  N  N45  1  0.93793419  0.49572904  0.01249468  1.0
