# generated using pymatgen
data_Zn4H4C24S4N2O17F2
_symmetry_space_group_name_H-M   'P 1'
_cell_length_a   19.64326697
_cell_length_b   19.64792540
_cell_length_c   33.35409609
_cell_angle_alpha   79.04884682
_cell_angle_beta   79.06299311
_cell_angle_gamma   63.79955565
_symmetry_Int_Tables_number   1
_chemical_formula_structural   Zn4H4C24S4N2O17F2
_chemical_formula_sum   'Zn16 H16 C96 S16 N8 O68 F8'
_cell_volume   11257.85096007
_cell_formula_units_Z   4
loop_
 _symmetry_equiv_pos_site_id
 _symmetry_equiv_pos_as_xyz
  1  'x, y, z'
loop_
 _atom_site_type_symbol
 _atom_site_label
 _atom_site_symmetry_multiplicity
 _atom_site_fract_x
 _atom_site_fract_y
 _atom_site_fract_z
 _atom_site_occupancy
  Zn  Zn0  1  0.05489463  0.40170264  0.47718837  1.0
  Zn  Zn1  1  0.98707132  0.48310139  0.56003984  1.0
  Zn  Zn2  1  0.05725161  0.56362938  0.48184860  1.0
  Zn  Zn3  1  0.89997156  0.55445870  0.47911311  1.0
  Zn  Zn4  1  0.69485473  0.34934798  0.27169475  1.0
  Zn  Zn5  1  0.68850738  0.19106598  0.26574607  1.0
  Zn  Zn6  1  0.77114306  0.26482374  0.18957208  1.0
  Zn  Zn7  1  0.84789302  0.19415207  0.27285939  1.0
  Zn  Zn8  1  0.26762790  0.76579934  0.68861501  1.0
  Zn  Zn9  1  0.35024457  0.69558099  0.77038376  1.0
  Zn  Zn10  1  0.19451801  0.84871724  0.77046046  1.0
  Zn  Zn11  1  0.19212765  0.68710505  0.76595667  1.0
  Zn  Zn12  1  0.56100394  0.06033229  0.98287973  1.0
  Zn  Zn13  1  0.40190954  0.05389854  0.97709827  1.0
  Zn  Zn14  1  0.55781530  0.90002750  0.97804739  1.0
  Zn  Zn15  1  0.48415420  0.98197320  0.05955657  1.0
  H  H16  1  0.74708362  0.45343416  0.35011559  1.0
  H  H17  1  0.00054882  0.29924724  0.39954651  1.0
  H  H18  1  0.20516776  0.69777959  0.59829747  1.0
  H  H19  1  0.04835477  0.55152906  0.64899998  1.0
  H  H20  1  0.46285724  0.24018242  0.34199630  1.0
  H  H21  1  0.48310647  0.70158103  0.59972500  1.0
  H  H22  1  0.20463148  0.97919820  0.59995653  1.0
  H  H23  1  0.95187818  0.96317854  0.34170616  1.0
  H  H24  1  0.64968043  0.15292675  0.04822355  1.0
  H  H25  1  0.59649338  0.10510536  0.19970683  1.0
  H  H26  1  0.54390693  0.76890732  0.14839951  1.0
  H  H27  1  0.16068118  0.14315958  0.04103100  1.0
  H  H28  1  0.29958697  0.99806180  0.90077710  1.0
  H  H29  1  0.45062238  0.74443576  0.85112698  1.0
  H  H30  1  0.29818523  0.28327613  0.90312246  1.0
  H  H31  1  0.78754520  0.01211528  0.90589685  1.0
  C  C32  1  0.06447903  0.31719811  0.55924970  1.0
  C  C33  1  0.07003723  0.57150598  0.56678901  1.0
  C  C34  1  0.18017503  0.44205594  0.43756303  1.0
  C  C35  1  0.93505831  0.68285231  0.43844740  1.0
  C  C36  1  0.92817680  0.43132934  0.43197223  1.0
  C  C37  1  0.82115131  0.56017865  0.56198069  1.0
  C  C38  1  0.56707707  0.31015792  0.31283276  1.0
  C  C39  1  0.67817017  0.18758402  0.17911468  1.0
  C  C40  1  0.69356275  0.43119508  0.18906041  1.0
  C  C41  1  0.93571735  0.18498516  0.19120496  1.0
  C  C42  1  0.81732446  0.31869957  0.32011269  1.0
  C  C43  1  0.81221107  0.06339973  0.30790430  1.0
  C  C44  1  0.43486581  0.69131658  0.68689185  1.0
  C  C45  1  0.31834504  0.81859382  0.81874231  1.0
  C  C46  1  0.18719168  0.93335986  0.68693049  1.0
  C  C47  1  0.06752910  0.81032011  0.80862644  1.0
  C  C48  1  0.18671183  0.67460032  0.68045720  1.0
  C  C49  1  0.31064602  0.56968921  0.81229146  1.0
  C  C50  1  0.43739863  0.18404184  0.93811627  1.0
  C  C51  1  0.43314073  0.92593818  0.93152858  1.0
  C  C52  1  0.68537549  0.94019253  0.93782281  1.0
  C  C53  1  0.56291028  0.81507482  0.06154919  1.0
  C  C54  1  0.56867203  0.06950088  0.06901913  1.0
  C  C55  1  0.31596697  0.06250502  0.06005477  1.0
  C  C56  1  0.89883744  0.40448921  0.40271411  1.0
  C  C57  1  0.84762456  0.34691078  0.34816211  1.0
  C  C58  1  0.82742110  0.44695302  0.38792751  1.0
  C  C59  1  0.91942799  0.30481265  0.36258486  1.0
  C  C60  1  0.80247114  0.41909519  0.36120361  1.0
  C  C61  1  0.94458333  0.33293575  0.38905421  1.0
  C  C62  1  0.10000549  0.59943378  0.59517051  1.0
  C  C63  1  0.15589927  0.64755414  0.65204429  1.0
  C  C64  1  0.14433877  0.64132095  0.58183141  1.0
  C  C65  1  0.11111377  0.60613353  0.66537278  1.0
  C  C66  1  0.17141615  0.66503067  0.60951269  1.0
  C  C67  1  0.08347043  0.58289474  0.63771381  1.0
  C  C68  1  0.30596316  0.45507573  0.40297887  1.0
  C  C69  1  0.44642542  0.29694186  0.34999760  1.0
  C  C70  1  0.25837226  0.41734069  0.41537202  1.0
  C  C71  1  0.49199530  0.33618941  0.33795473  1.0
  C  C72  1  0.37808954  0.34107941  0.37336666  1.0
  C  C73  1  0.37355798  0.41266985  0.37839755  1.0
  C  C74  1  0.72874283  0.58063999  0.63088453  1.0
  C  C75  1  0.52705325  0.67379369  0.62031342  1.0
  C  C76  1  0.74705898  0.58810977  0.58829144  1.0
  C  C77  1  0.51075221  0.66548655  0.66268447  1.0
  C  C78  1  0.60686800  0.64176204  0.60884637  1.0
  C  C79  1  0.64899206  0.60982894  0.64283495  1.0
  C  C80  1  0.07131743  0.22614724  0.62799917  1.0
  C  C81  1  0.17406364  0.02389916  0.61994522  1.0
  C  C82  1  0.08303537  0.24313632  0.58548262  1.0
  C  C83  1  0.16191547  0.00891959  0.66227371  1.0
  C  C84  1  0.14147541  0.10343671  0.60766511  1.0
  C  C85  1  0.10560321  0.14679374  0.64098668  1.0
  C  C86  1  0.83687414  0.80395475  0.39874319  1.0
  C  C87  1  0.90551179  0.94520750  0.34779814  1.0
  C  C88  1  0.90629659  0.75935493  0.41440700  1.0
  C  C89  1  0.83586523  0.98833627  0.33288572  1.0
  C  C90  1  0.90587139  0.87728362  0.37132152  1.0
  C  C91  1  0.83659876  0.87061278  0.37355539  1.0
  C  C92  1  0.65047089  0.15867965  0.15000577  1.0
  C  C93  1  0.59562707  0.09947102  0.09794903  1.0
  C  C94  1  0.66456252  0.17110080  0.10686509  1.0
  C  C95  1  0.58143222  0.08720966  0.14108653  1.0
  C  C96  1  0.63785195  0.14231911  0.08148630  1.0
  C  C97  1  0.60819801  0.11587403  0.16645831  1.0
  C  C98  1  0.67546520  0.52211522  0.11972883  1.0
  C  C99  1  0.57521373  0.72428357  0.12841173  1.0
  C  C100  1  0.66498731  0.50474300  0.16230649  1.0
  C  C101  1  0.58784934  0.73946942  0.08611530  1.0
  C  C102  1  0.60853588  0.64470331  0.14057069  1.0
  C  C103  1  0.64507664  0.60168341  0.10715484  1.0
  C  C104  1  0.08520071  0.11634146  0.17901102  1.0
  C  C105  1  0.16988693  0.12542602  0.07319721  1.0
  C  C106  1  0.01203373  0.15567082  0.16701794  1.0
  C  C107  1  0.24174463  0.08669273  0.08601626  1.0
  C  C108  1  0.11295085  0.13737034  0.10741676  1.0
  C  C109  1  0.14310728  0.10712305  0.14531991  1.0
  C  C110  1  0.34580273  0.84688526  0.84826005  1.0
  C  C111  1  0.40481642  0.89619733  0.90316835  1.0
  C  C112  1  0.30431658  0.91828699  0.86318812  1.0
  C  C113  1  0.44600921  0.82445734  0.88855825  1.0
  C  C114  1  0.33294994  0.94239495  0.88990368  1.0
  C  C115  1  0.41734352  0.80029663  0.86184267  1.0
  C  C116  1  0.40409669  0.45347585  0.85698109  1.0
  C  C117  1  0.34307093  0.30301394  0.89887755  1.0
  C  C118  1  0.33560738  0.49710507  0.84015514  1.0
  C  C119  1  0.41227876  0.26040726  0.91436728  1.0
  C  C120  1  0.34077334  0.37316717  0.87747614  1.0
  C  C121  1  0.40822272  0.38205944  0.87745426  1.0
  C  C122  1  0.94863468  0.79216047  0.85044067  1.0
  C  C123  1  0.80460992  0.95453701  0.89894348  1.0
  C  C124  1  0.99440178  0.83135998  0.83591045  1.0
  C  C125  1  0.76017309  0.91434336  0.91250863  1.0
  C  C126  1  0.87280367  0.91003557  0.87560768  1.0
  C  C127  1  0.87847302  0.83715270  0.87227092  1.0
  S  S128  1  0.29813924  0.32867138  0.39785106  1.0
  S  S129  1  0.45241626  0.42648499  0.35427988  1.0
  S  S130  1  0.66616271  0.63329646  0.56304681  1.0
  S  S131  1  0.59123314  0.61833978  0.68879330  1.0
  S  S132  1  0.13404199  0.16131285  0.56137988  1.0
  S  S133  1  0.11227905  0.09039823  0.68737593  1.0
  S  S134  1  0.97028724  0.80054224  0.39917179  1.0
  S  S135  1  0.77123412  0.94683037  0.34651555  1.0
  S  S136  1  0.61514279  0.58643064  0.18667794  1.0
  S  S137  1  0.64022152  0.65836886  0.06093386  1.0
  S  S138  1  0.01451345  0.17898161  0.11420494  1.0
  S  S139  1  0.24104159  0.06545845  0.13923574  1.0
  S  S140  1  0.27514230  0.45150466  0.85104527  1.0
  S  S141  1  0.47492199  0.30434206  0.90298133  1.0
  S  S142  1  0.95226707  0.92261769  0.85038470  1.0
  S  S143  1  0.79976396  0.82351475  0.89681774  1.0
  N  N144  1  0.29492996  0.52746479  0.41466017  1.0
  N  N145  1  0.78129153  0.55222431  0.66197402  1.0
  N  N146  1  0.02541962  0.27995916  0.65770859  1.0
  N  N147  1  0.76774408  0.79101186  0.40819827  1.0
  N  N148  1  0.70871794  0.46843460  0.08912885  1.0
  N  N149  1  0.10501534  0.08143498  0.22026717  1.0
  N  N150  1  0.46554696  0.47584089  0.85733052  1.0
  N  N151  1  0.96844487  0.71220984  0.84768304  1.0
  O  O152  1  0.00042250  0.49993470  0.49942709  1.0
  O  O153  1  0.06533238  0.31531363  0.52096200  1.0
  O  O154  1  0.02202814  0.54395039  0.58365736  1.0
  O  O155  1  0.14083190  0.51302736  0.43949276  1.0
  O  O156  1  0.05200768  0.37474834  0.57633486  1.0
  O  O157  1  0.15887671  0.38821492  0.45166157  1.0
  O  O158  1  0.09484135  0.57664708  0.52871322  1.0
  O  O159  1  0.99318636  0.66634085  0.45665360  1.0
  O  O160  1  0.88039136  0.48791563  0.45044929  1.0
  O  O161  1  0.90230976  0.64005244  0.43785081  1.0
  O  O162  1  0.99919209  0.39405071  0.43617755  1.0
  O  O163  1  0.87853061  0.50700572  0.57766078  1.0
  O  O164  1  0.81906661  0.59168859  0.52458387  1.0
  O  O165  1  0.74973159  0.25028708  0.24999759  1.0
  O  O166  1  0.60035126  0.35503913  0.30688264  1.0
  O  O167  1  0.66438191  0.16668788  0.21729118  1.0
  O  O168  1  0.74760842  0.37397977  0.17363149  1.0
  O  O169  1  0.59179884  0.24572837  0.29941702  1.0
  O  O170  1  0.66186823  0.43320248  0.22637505  1.0
  O  O171  1  0.71265356  0.22997415  0.16381333  1.0
  O  O172  1  0.87965533  0.20466467  0.17068801  1.0
  O  O173  1  0.85248506  0.24845270  0.31497877  1.0
  O  O174  1  0.93183603  0.19057093  0.22895130  1.0
  O  O175  1  0.75773487  0.36788664  0.30398492  1.0
  O  O176  1  0.74412163  0.09332342  0.29817690  1.0
  O  O177  1  0.86130055  0.09166545  0.29855552  1.0
  O  O178  1  0.25075036  0.74964974  0.74885865  1.0
  O  O179  1  0.37676747  0.72120354  0.66706298  1.0
  O  O180  1  0.35912987  0.74951414  0.81147659  1.0
  O  O181  1  0.16724069  0.93340187  0.72575759  1.0
  O  O182  1  0.43461853  0.68136228  0.72594906  1.0
  O  O183  1  0.22615482  0.87537600  0.66748526  1.0
  O  O184  1  0.25779409  0.86523248  0.80315351  1.0
  O  O185  1  0.10227808  0.85263211  0.80769326  1.0
  O  O186  1  0.18245268  0.64855911  0.71837012  1.0
  O  O187  1  0.08806882  0.75510951  0.78790136  1.0
  O  O188  1  0.21535618  0.72182894  0.66380520  1.0
  O  O189  1  0.36149307  0.59157784  0.79370432  1.0
  O  O190  1  0.23915228  0.60230814  0.80845184  1.0
  O  O191  1  0.50070979  0.99973102  0.99923185  1.0
  O  O192  1  0.50443873  0.15601745  0.94911152  1.0
  O  O193  1  0.38925269  0.99314433  0.94093781  1.0
  O  O194  1  0.65360056  0.89389788  0.94489071  1.0
  O  O195  1  0.39057396  0.15301120  0.94556973  1.0
  O  O196  1  0.65935714  0.00548939  0.95049356  1.0
  O  O197  1  0.49781601  0.88266817  0.94380564  1.0
  O  O198  1  0.58362032  0.81529110  0.02280915  1.0
  O  O199  1  0.53469345  0.02684127  0.08468584  1.0
  O  O200  1  0.52311050  0.87301926  0.08097350  1.0
  O  O201  1  0.58267491  0.08939508  0.03072729  1.0
  O  O202  1  0.31500760  0.07635655  0.02116174  1.0
  O  O203  1  0.37476211  0.02909917  0.07946723  1.0
  O  O204  1  0.32640720  0.56354712  0.38943066  1.0
  O  O205  1  0.25929244  0.54657945  0.44833031  1.0
  O  O206  1  0.75785807  0.52579962  0.69589083  1.0
  O  O207  1  0.84213363  0.55900738  0.65370470  1.0
  O  O208  1  0.04533015  0.26023990  0.69294773  1.0
  O  O209  1  0.96967491  0.33816354  0.64696251  1.0
  O  O210  1  0.72292547  0.82028242  0.38147871  1.0
  O  O211  1  0.75627341  0.75586466  0.44170474  1.0
  O  O212  1  0.73994153  0.49051589  0.05645872  1.0
  O  O213  1  0.70135527  0.40790390  0.09641152  1.0
  O  O214  1  0.16784352  0.07467148  0.22746164  1.0
  O  O215  1  0.06147578  0.05825096  0.24427456  1.0
  O  O216  1  0.53010247  0.42205005  0.85965935  1.0
  O  O217  1  0.45014938  0.54400186  0.85716072  1.0
  O  O218  1  0.91342527  0.69692496  0.84733366  1.0
  O  O219  1  0.03588925  0.66546506  0.84782278  1.0
  F  F220  1  0.78074523  0.51741060  0.39872901  1.0
  F  F221  1  0.96741115  0.23547500  0.35067674  1.0
  F  F222  1  0.16140475  0.66107006  0.54134221  1.0
  F  F223  1  0.09238405  0.58827550  0.70586165  1.0
  F  F224  1  0.70529369  0.21123416  0.08841441  1.0
  F  F225  1  0.54067947  0.04698680  0.15967194  1.0
  F  F226  1  0.23416658  0.96634888  0.85226645  1.0
  F  F227  1  0.51562809  0.77617709  0.89990395  1.0
