# generated using pymatgen
data_Al3H4C42O14F15
_symmetry_space_group_name_H-M   'P 1'
_cell_length_a   13.72586540
_cell_length_b   13.77645723
_cell_length_c   28.23363477
_cell_angle_alpha   90.05739788
_cell_angle_beta   90.09070658
_cell_angle_gamma   60.17128342
_symmetry_Int_Tables_number   1
_chemical_formula_structural   Al3H4C42O14F15
_chemical_formula_sum   'Al6 H8 C84 O28 F30'
_cell_volume   4631.49439976
_cell_formula_units_Z   2
loop_
 _symmetry_equiv_pos_site_id
 _symmetry_equiv_pos_as_xyz
  1  'x, y, z'
loop_
 _atom_site_type_symbol
 _atom_site_label
 _atom_site_symmetry_multiplicity
 _atom_site_fract_x
 _atom_site_fract_y
 _atom_site_fract_z
 _atom_site_occupancy
  Al  Al0  1  0.48820303  0.75108203  0.49978282  1.0
  Al  Al1  1  0.72745679  0.52400777  0.50082686  1.0
  Al  Al2  1  0.72746425  0.74153910  0.50087987  1.0
  Al  Al3  1  0.23875130  0.24964234  0.99985366  1.0
  Al  Al4  1  0.25175928  0.47656634  0.00087328  1.0
  Al  Al5  1  0.46863540  0.25863343  0.00080315  1.0
  H  H6  1  0.02464339  0.32361897  0.71998470  1.0
  H  H7  1  0.65841062  0.02475481  0.72031962  1.0
  H  H8  1  0.32620182  0.64902918  0.72070723  1.0
  H  H9  1  0.34850126  0.67699626  0.21966431  1.0
  H  H10  1  0.68348171  0.97628624  0.22001528  1.0
  H  H11  1  0.97421884  0.35149028  0.22049924  1.0
  H  H12  1  0.30313223  0.86065995  0.52697837  1.0
  H  H13  1  0.15045043  0.15306238  0.02856671  1.0
  C  C14  1  0.56656164  0.87220023  0.56678865  1.0
  C  C15  1  0.48784881  0.49147446  0.20010961  1.0
  C  C16  1  0.49651643  0.02168486  0.20276227  1.0
  C  C17  1  0.02111716  0.49269293  0.20536565  1.0
  C  C18  1  0.93048376  0.47958377  0.77169547  1.0
  C  C19  1  0.60141937  0.92728906  0.77286208  1.0
  C  C20  1  0.47667507  0.59330660  0.77540677  1.0
  C  C21  1  0.40910238  0.52145923  0.27154274  1.0
  C  C22  1  0.52954398  0.07333255  0.27285122  1.0
  C  C23  1  0.06933744  0.40671569  0.27529026  1.0
  C  C24  1  0.89401876  0.58676102  0.74015932  1.0
  C  C25  1  0.56775917  0.55786422  0.56881246  1.0
  C  C26  1  0.52776553  0.89192976  0.74235497  1.0
  C  C27  1  0.58744685  0.51932478  0.74627938  1.0
  C  C28  1  0.48003434  0.41400812  0.24021334  1.0
  C  C29  1  0.42039689  0.10837886  0.24250335  1.0
  C  C30  1  0.10640563  0.48065678  0.24624834  1.0
  C  C31  1  0.05069381  0.48807620  0.84476069  1.0
  C  C32  1  0.47811434  0.04655028  0.84725870  1.0
  C  C33  1  0.47608523  0.47122289  0.84980798  1.0
  C  C34  1  0.53680879  0.51324921  0.34493152  1.0
  C  C35  1  0.52630192  0.95371723  0.34725866  1.0
  C  C36  1  0.86374819  0.56382970  0.56522440  1.0
  C  C37  1  0.94701454  0.52877606  0.34980142  1.0
  C  C38  1  0.94995214  0.52045652  0.65160478  1.0
  C  C39  1  0.53100621  0.95266369  0.65405508  1.0
  C  C40  1  0.52960044  0.51907999  0.65681673  1.0
  C  C41  1  0.47083689  0.47943438  0.15165324  1.0
  C  C42  1  0.48370069  0.04795671  0.15416152  1.0
  C  C43  1  0.04816794  0.48151154  0.15677412  1.0
  C  C44  1  0.56624508  0.86955658  0.43381307  1.0
  C  C45  1  0.56843663  0.55412241  0.43364813  1.0
  C  C46  1  0.86266432  0.56770569  0.43633362  1.0
  C  C47  1  0.43721557  0.12895618  0.06703096  1.0
  C  C48  1  0.43532276  0.13020292  0.93396804  1.0
  C  C49  1  0.12354037  0.44624872  0.93338910  1.0
  C  C50  1  0.42996670  0.43318004  0.93636842  1.0
  C  C51  1  0.07386314  0.52692685  0.72382268  1.0
  C  C52  1  0.40651675  0.07156849  0.72791595  1.0
  C  C53  1  0.52893230  0.39812678  0.73065079  1.0
  C  C54  1  0.60051694  0.47350071  0.22412640  1.0
  C  C55  1  0.47894598  0.92863760  0.22804919  1.0
  C  C56  1  0.92693569  0.60216876  0.23071335  1.0
  C  C57  1  0.98899221  0.60372289  0.76304462  1.0
  C  C58  1  0.12482375  0.44375861  0.06870481  1.0
  C  C59  1  0.41801567  0.98473938  0.76690437  1.0
  C  C60  1  0.60166637  0.41047328  0.77083651  1.0
  C  C61  1  0.59168460  0.39704473  0.26333998  1.0
  C  C62  1  0.40385931  0.01531686  0.26713295  1.0
  C  C63  1  0.01210708  0.58949219  0.27089656  1.0
  C  C64  1  0.07631288  0.47472356  0.88648658  1.0
  C  C65  1  0.46524500  0.07683970  0.88835554  1.0
  C  C66  1  0.45857326  0.45877860  0.89100434  1.0
  C  C67  1  0.54888264  0.52645087  0.38670162  1.0
  C  C68  1  0.54363497  0.92321567  0.38831311  1.0
  C  C69  1  0.42847414  0.43545315  0.06527981  1.0
  C  C70  1  0.91698846  0.54154832  0.39099354  1.0
  C  C71  1  0.91903552  0.53628320  0.61047138  1.0
  C  C72  1  0.54403762  0.92400465  0.61273133  1.0
  C  C73  1  0.54695598  0.52954729  0.61540163  1.0
  C  C74  1  0.45587464  0.46319674  0.11055594  1.0
  C  C75  1  0.46749697  0.07681835  0.11287192  1.0
  C  C76  1  0.07597951  0.47136862  0.11535227  1.0
  C  C77  1  0.10813823  0.42046750  0.75557703  1.0
  C  C78  1  0.48129710  0.10491137  0.75862241  1.0
  C  C79  1  0.41860537  0.47358521  0.75987472  1.0
  C  C80  1  0.97892332  0.50890094  0.70005353  1.0
  C  C81  1  0.52815016  0.58023727  0.25572316  1.0
  C  C82  1  0.58715186  0.89559533  0.25859058  1.0
  C  C83  1  0.89180395  0.52671296  0.25985094  1.0
  C  C84  1  0.02463918  0.49800784  0.79611186  1.0
  C  C85  1  0.49129980  0.01936154  0.79881940  1.0
  C  C86  1  0.49192157  0.48407197  0.80145647  1.0
  C  C87  1  0.52136160  0.50310884  0.29623294  1.0
  C  C88  1  0.51189599  0.98104203  0.29884526  1.0
  C  C89  1  0.97573802  0.51587483  0.30144673  1.0
  C  C90  1  0.01449970  0.40283344  0.73284369  1.0
  C  C91  1  0.51722204  0.97882025  0.70267238  1.0
  C  C92  1  0.59066827  0.01348761  0.73435337  1.0
  C  C93  1  0.40386206  0.58169836  0.73565438  1.0
  C  C94  1  0.41718187  0.59784546  0.23271207  1.0
  C  C95  1  0.60476079  0.98727365  0.23425680  1.0
  C  C96  1  0.98483703  0.41864700  0.23552896  1.0
  C  C97  1  0.51394259  0.50760531  0.70540349  1.0
  O  O98  1  0.49739280  0.65321071  0.55325909  1.0
  O  O99  1  0.34245100  0.15241519  0.05067736  1.0
  O  O100  1  0.14495016  0.51598810  0.04860280  1.0
  O  O101  1  0.49804158  0.34006124  0.04787215  1.0
  O  O102  1  0.49586620  0.64686882  0.45055734  1.0
  O  O103  1  0.83869444  0.49701281  0.45422682  1.0
  O  O104  1  0.65760474  0.85096561  0.45473203  1.0
  O  O105  1  0.14521143  0.35233372  0.94948475  1.0
  O  O106  1  0.33487897  0.50386389  0.95388070  1.0
  O  O107  1  0.50778520  0.15071570  0.95396250  1.0
  O  O108  1  0.49684294  0.84176677  0.44837252  1.0
  O  O109  1  0.83857009  0.49363532  0.54746650  1.0
  O  O110  1  0.66166519  0.48248791  0.45349563  1.0
  O  O111  1  0.83775757  0.66267959  0.45419610  1.0
  O  O112  1  0.33943537  0.15600768  0.94951414  1.0
  O  O113  1  0.14340797  0.51831600  0.95406032  1.0
  O  O114  1  0.49995096  0.33881834  0.95465020  1.0
  O  O115  1  0.64960679  0.67134441  0.50075007  1.0
  O  O116  1  0.32068216  0.32921352  0.00079243  1.0
  O  O117  1  0.66214474  0.84761983  0.54842553  1.0
  O  O118  1  0.14739652  0.34965941  0.05235931  1.0
  O  O119  1  0.33408231  0.50618530  0.04706299  1.0
  O  O120  1  0.50903010  0.15113256  0.04767358  1.0
  O  O121  1  0.49431713  0.85127400  0.54939957  1.0
  O  O122  1  0.65855916  0.48488246  0.54797950  1.0
  O  O123  1  0.83923803  0.65846091  0.54737883  1.0
  O  O124  1  0.34169038  0.82121893  0.49856726  1.0
  O  O125  1  0.16233271  0.17943552  0.99862715  1.0
  F  F126  1  0.97702501  0.70205945  0.77841221  1.0
  F  F127  1  0.69451358  0.44922416  0.19962536  1.0
  F  F128  1  0.45364468  0.85848510  0.20452402  1.0
  F  F129  1  0.85856621  0.69793842  0.20728871  1.0
  F  F130  1  0.78846380  0.66866066  0.73076901  1.0
  F  F131  1  0.55003589  0.78700645  0.73257818  1.0
  F  F132  1  0.67041090  0.54239595  0.73777156  1.0
  F  F133  1  0.45626444  0.33215064  0.23070312  1.0
  F  F134  1  0.33753506  0.21314048  0.23277199  1.0
  F  F135  1  0.21248395  0.45732545  0.23774784  1.0
  F  F136  1  0.86138136  0.45531541  0.79665028  1.0
  F  F137  1  0.33348909  0.97090359  0.78361160  1.0
  F  F138  1  0.69706643  0.85707199  0.79626413  1.0
  F  F139  1  0.45053535  0.68915510  0.79858711  1.0
  F  F140  1  0.31536721  0.54601801  0.29624726  1.0
  F  F141  1  0.55496645  0.14372024  0.29619339  1.0
  F  F142  1  0.13880510  0.31070376  0.29834586  1.0
  F  F143  1  0.21380594  0.33770073  0.76455312  1.0
  F  F144  1  0.45809167  0.21025442  0.76857992  1.0
  F  F145  1  0.33439123  0.45198470  0.76822728  1.0
  F  F146  1  0.55122148  0.66295631  0.26475234  1.0
  F  F147  1  0.66927263  0.79033460  0.26858149  1.0
  F  F148  1  0.69803823  0.32644064  0.78891967  1.0
  F  F149  1  0.78599631  0.54842743  0.26823177  1.0
  F  F150  1  0.67758755  0.29879759  0.27894558  1.0
  F  F151  1  0.30585396  0.02881298  0.28410563  1.0
  F  F152  1  0.02464442  0.67340032  0.28907970  1.0
  F  F153  1  0.14350925  0.55095784  0.69910428  1.0
  F  F154  1  0.31111304  0.14158395  0.70439849  1.0
  F  F155  1  0.55590292  0.30251713  0.70713437  1.0
