# generated using pymatgen
data_AlH18(C4O)6
_symmetry_space_group_name_H-M   'P 1'
_cell_length_a   3.96200660
_cell_length_b   24.55435010
_cell_length_c   24.55518037
_cell_angle_alpha   120.00314440
_cell_angle_beta   90.00225683
_cell_angle_gamma   89.99963814
_symmetry_Int_Tables_number   1
_chemical_formula_structural   AlH18(C4O)6
_chemical_formula_sum   'Al2 H36 C48 O12'
_cell_volume   2068.72916365
_cell_formula_units_Z   2
loop_
 _symmetry_equiv_pos_site_id
 _symmetry_equiv_pos_as_xyz
  1  'x, y, z'
loop_
 _atom_site_type_symbol
 _atom_site_label
 _atom_site_symmetry_multiplicity
 _atom_site_fract_x
 _atom_site_fract_y
 _atom_site_fract_z
 _atom_site_occupancy
  Al  Al0  1  0.99975045  0.99999130  0.49999565  1.0
  Al  Al1  1  0.99992038  0.33334398  0.16666908  1.0
  H  H2  1  0.59190526  0.70822611  0.26949891  1.0
  H  H3  1  0.59176996  0.62509820  0.39716515  1.0
  H  H4  1  0.30214481  0.50484903  0.17097961  1.0
  H  H5  1  0.28532721  0.62165808  0.22723238  1.0
  H  H6  1  0.30199579  0.82848014  0.49566455  1.0
  H  H7  1  0.28521930  0.71167246  0.43942099  1.0
  H  H8  1  0.59190547  0.23049564  0.43872951  1.0
  H  H9  1  0.59181428  0.10284833  0.22793774  1.0
  H  H10  1  0.30220177  0.32902003  0.33386489  1.0
  H  H11  1  0.28536635  0.27276943  0.39442031  1.0
  H  H12  1  0.30199093  0.00433727  0.33281194  1.0
  H  H13  1  0.28522721  0.06057981  0.27225084  1.0
  H  H14  1  0.59195201  0.06126604  0.79177615  1.0
  H  H15  1  0.59178728  0.27204455  0.87489152  1.0
  H  H16  1  0.30220762  0.16613731  0.99516885  1.0
  H  H17  1  0.28542912  0.10556985  0.87835938  1.0
  H  H18  1  0.30205006  0.16716873  0.67150924  1.0
  H  H19  1  0.28524961  0.22773097  0.78831567  1.0
  H  H20  1  0.89929415  0.84515362  0.31838892  1.0
  H  H21  1  0.48746791  0.87565628  0.32950286  1.0
  H  H22  1  0.57819508  0.80041890  0.26321950  1.0
  H  H23  1  0.89925132  0.48817198  0.34827778  1.0
  H  H24  1  0.48744188  0.45765597  0.33713102  1.0
  H  H25  1  0.57805716  0.53289407  0.40342829  1.0
  H  H26  1  0.89929520  0.18160295  0.52676990  1.0
  H  H27  1  0.48746599  0.17048618  0.54615289  1.0
  H  H28  1  0.57820654  0.23676808  0.53719835  1.0
  H  H29  1  0.89923260  0.15173252  0.13989114  1.0
  H  H30  1  0.48740847  0.16287405  0.12052208  1.0
  H  H31  1  0.57805995  0.09658338  0.12946937  1.0
  H  H32  1  0.89935509  0.97323103  0.65483887  1.0
  H  H33  1  0.48752548  0.95384960  0.62434100  1.0
  H  H34  1  0.57829101  0.96279510  0.69957692  1.0
  H  H35  1  0.89917524  0.36010538  0.01183038  1.0
  H  H36  1  0.48735403  0.37946314  0.04232815  1.0
  H  H37  1  0.57801268  0.37051732  0.96708961  1.0
  C  C38  1  0.49309856  0.04951468  0.59676834  1.0
  C  C39  1  0.49303854  0.90322316  0.45275083  1.0
  C  C40  1  0.49305369  0.04723730  0.45046954  1.0
  C  C41  1  0.49323165  0.43010745  0.21389468  1.0
  C  C42  1  0.49324679  0.28611495  0.21620878  1.0
  C  C43  1  0.49322464  0.28380137  0.06990084  1.0
  C  C44  1  0.46904699  0.83362419  0.41514151  1.0
  C  C45  1  0.46912636  0.49970447  0.25150829  1.0
  C  C46  1  0.54543807  0.80009110  0.35031420  1.0
  C  C47  1  0.52937809  0.73452769  0.31947632  1.0
  C  C48  1  0.54543316  0.53323307  0.31633915  1.0
  C  C49  1  0.52932258  0.59879739  0.34718398  1.0
  C  C50  1  0.37052842  0.53207656  0.22054926  1.0
  C  C51  1  0.36300204  0.59728789  0.25203987  1.0
  C  C52  1  0.37043678  0.80125136  0.44609883  1.0
  C  C53  1  0.36293290  0.73604097  0.41461479  1.0
  C  C54  1  0.44579819  0.70133715  0.35042726  1.0
  C  C55  1  0.44580028  0.63198958  0.31623091  1.0
  C  C56  1  0.46905121  0.08485372  0.41848025  1.0
  C  C57  1  0.46914486  0.24849706  0.24819445  1.0
  C  C58  1  0.54544694  0.14967671  0.44977965  1.0
  C  C59  1  0.52938220  0.18052127  0.41505000  1.0
  C  C60  1  0.54545368  0.18367278  0.21688990  1.0
  C  C61  1  0.52935542  0.15282347  0.25161919  1.0
  C  C62  1  0.37056194  0.27945710  0.31151960  1.0
  C  C63  1  0.36303745  0.24795914  0.34524863  1.0
  C  C64  1  0.37044274  0.05389850  0.35515361  1.0
  C  C65  1  0.36294960  0.08538891  0.32142528  1.0
  C  C66  1  0.44581139  0.14957013  0.35090969  1.0
  C  C67  1  0.44582909  0.18377674  0.31575802  1.0
  C  C68  1  0.46910633  0.08151406  0.66637287  1.0
  C  C69  1  0.46913012  0.25179627  0.00029831  1.0
  C  C70  1  0.54552157  0.05021085  0.69990404  1.0
  C  C71  1  0.52941316  0.08494563  0.76547421  1.0
  C  C72  1  0.54543898  0.28310195  0.96676590  1.0
  C  C73  1  0.52933391  0.24836431  0.90119510  1.0
  C  C74  1  0.37058716  0.18847861  0.96793697  1.0
  C  C75  1  0.36305605  0.15474029  0.90271787  1.0
  C  C76  1  0.37049764  0.14482715  0.69873780  1.0
  C  C77  1  0.36295811  0.17856638  0.76395734  1.0
  C  C78  1  0.44584495  0.14907052  0.79865911  1.0
  C  C79  1  0.44585545  0.18423450  0.86801171  1.0
  C  C80  1  0.63130848  0.83204506  0.31334179  1.0
  C  C81  1  0.63126110  0.50127465  0.35330943  1.0
  C  C82  1  0.63131523  0.18664827  0.51870131  1.0
  C  C83  1  0.63125598  0.14670003  0.14796815  1.0
  C  C84  1  0.63138466  0.98129508  0.66795167  1.0
  C  C85  1  0.63120861  0.35202454  0.99871689  1.0
  O  O86  1  0.26927817  0.00490108  0.43762648  1.0
  O  O87  1  0.26929801  0.06235651  0.56726874  1.0
  O  O88  1  0.26927045  0.93272043  0.49508679  1.0
  O  O89  1  0.73872470  0.05880634  0.48830539  1.0
  O  O90  1  0.73870015  0.92949072  0.44118306  1.0
  O  O91  1  0.73874351  0.01168238  0.57050325  1.0
  O  O92  1  0.26945148  0.27096834  0.09940905  1.0
  O  O93  1  0.26947146  0.40060348  0.17155388  1.0
  O  O94  1  0.26949656  0.32845480  0.22904687  1.0
  O  O95  1  0.73889891  0.32163150  0.09615373  1.0
  O  O96  1  0.73893792  0.27454047  0.17837905  1.0
  O  O97  1  0.73893217  0.40385231  0.22546854  1.0
