# generated using pymatgen
data_GdH26C35N7Cl3
_symmetry_space_group_name_H-M   'P 1'
_cell_length_a   11.75732792
_cell_length_b   13.05881327
_cell_length_c   16.87230000
_cell_angle_alpha   82.11707852
_cell_angle_beta   72.26203188
_cell_angle_gamma   63.24561403
_symmetry_Int_Tables_number   1
_chemical_formula_structural   GdH26C35N7Cl3
_chemical_formula_sum   'Gd2 H52 C70 N14 Cl6'
_cell_volume   2203.21939383
_cell_formula_units_Z   2
loop_
 _symmetry_equiv_pos_site_id
 _symmetry_equiv_pos_as_xyz
  1  'x, y, z'
loop_
 _atom_site_type_symbol
 _atom_site_label
 _atom_site_symmetry_multiplicity
 _atom_site_fract_x
 _atom_site_fract_y
 _atom_site_fract_z
 _atom_site_occupancy
  Gd  Gd0  1  0.93588312  0.99999268  0.13855652  1.0
  Gd  Gd1  1  0.06411655  0.00000686  0.86144271  1.0
  H  H2  1  0.40291042  0.91366067  0.21277105  1.0
  H  H3  1  0.68310180  0.91396425  0.78725408  1.0
  H  H4  1  0.59708746  0.08633888  0.78722975  1.0
  H  H5  1  0.31689918  0.08603444  0.21274377  1.0
  H  H6  1  0.82751409  0.82281438  0.08000076  1.0
  H  H7  1  0.34921945  0.82309051  0.92017874  1.0
  H  H8  1  0.17248643  0.17718346  0.91999847  1.0
  H  H9  1  0.65078107  0.17690732  0.07982108  1.0
  H  H10  1  0.38168398  0.60920716  0.15843004  1.0
  H  H11  1  0.00852363  0.60930578  0.84172917  1.0
  H  H12  1  0.61831747  0.39079238  0.84156703  1.0
  H  H13  1  0.99147471  0.39069462  0.15827203  1.0
  H  H14  1  0.66171076  0.81408255  0.02347038  1.0
  H  H15  1  0.52389015  0.81422148  0.97661784  1.0
  H  H16  1  0.33828801  0.18591699  0.97652963  1.0
  H  H17  1  0.47610994  0.18577721  0.02338258  1.0
  H  H18  1  0.07982589  0.81410742  0.44401585  1.0
  H  H19  1  0.10624535  0.81408684  0.55588271  1.0
  H  H20  1  0.92016938  0.18589555  0.55598632  1.0
  H  H21  1  0.89375796  0.18591614  0.44411597  1.0
  H  H22  1  0.04200590  0.82304849  0.30688452  1.0
  H  H23  1  0.13515641  0.82298332  0.69302500  1.0
  H  H24  1  0.95799290  0.17695277  0.69311708  1.0
  H  H25  1  0.86484776  0.17701794  0.30697428  1.0
  H  H26  1  0.51434023  0.51793380  0.21943426  1.0
  H  H27  1  0.96743308  0.51830942  0.78032054  1.0
  H  H28  1  0.48566168  0.48206660  0.78056499  1.0
  H  H29  1  0.03256748  0.48169013  0.21968088  1.0
  H  H30  1  0.73231742  0.39673881  0.24411783  1.0
  H  H31  1  0.87088660  0.39704410  0.75542293  1.0
  H  H32  1  0.26768407  0.60326245  0.75588084  1.0
  H  H33  1  0.12911575  0.60295544  0.24457514  1.0
  H  H34  1  0.80791097  0.67865440  0.24307103  1.0
  H  H35  1  0.51305401  0.67871528  0.75684745  1.0
  H  H36  1  0.19208697  0.32134858  0.75692997  1.0
  H  H37  1  0.48694472  0.32128255  0.24315453  1.0
  H  H38  1  0.59741867  0.81097985  0.21318214  1.0
  H  H39  1  0.59091885  0.81112049  0.78701207  1.0
  H  H40  1  0.40257970  0.18902227  0.78681828  1.0
  H  H41  1  0.40907942  0.18887648  0.21299129  1.0
  H  H42  1  0.17275945  0.73624138  0.12298120  1.0
  H  H43  1  0.09081637  0.73619850  0.87690805  1.0
  H  H44  1  0.82724064  0.26375731  0.87701922  1.0
  H  H45  1  0.90918154  0.26380276  0.12309256  1.0
  H  H46  1  0.62410368  0.99984004  0.25013936  1.0
  H  H47  1  0.37589691  0.00016122  0.74985889  1.0
  H  H48  1  0.67359239  0.00006518  0.38002227  1.0
  H  H49  1  0.32641123  0.99993180  0.61997580  1.0
  H  H50  1  0.29299362  0.99996095  0.51037728  1.0
  H  H51  1  0.70700926  0.00004288  0.48962081  1.0
  H  H52  1  0.26028332  0.99973455  0.37287232  1.0
  H  H53  1  0.73971727  0.00026671  0.62712772  1.0
  C  C54  1  0.35622472  0.87084798  0.19163924  1.0
  C  C55  1  0.77260911  0.87107095  0.80839427  1.0
  C  C56  1  0.64377448  0.12915071  0.80836078  1.0
  C  C57  1  0.22739055  0.12892860  0.19160496  1.0
  C  C58  1  0.99048214  0.00001115  0.45855843  1.0
  C  C59  1  0.00951309  0.99999011  0.54144393  1.0
  C  C60  1  0.74782068  0.90136476  0.06605130  1.0
  C  C61  1  0.35052710  0.90160145  0.93404421  1.0
  C  C62  1  0.25217988  0.09863478  0.93394774  1.0
  C  C63  1  0.64947299  0.09839723  0.06595562  1.0
  C  C64  1  0.34549746  0.70158336  0.16190171  1.0
  C  C65  1  0.95244779  0.70169914  0.83817012  1.0
  C  C66  1  0.65450396  0.29841447  0.83809733  1.0
  C  C67  1  0.04755055  0.29830127  0.16183108  1.0
  C  C68  1  0.65341226  0.89772522  0.03436522  1.0
  C  C69  1  0.44861261  0.89787787  0.96570930  1.0
  C  C70  1  0.34658741  0.10227433  0.96563460  1.0
  C  C71  1  0.55138794  0.10212168  0.03429093  1.0
  C  C72  1  0.23753903  0.93633579  0.17007890  1.0
  C  C73  1  0.82598684  0.93643699  0.82991581  1.0
  C  C74  1  0.76246106  0.06366290  0.82992033  1.0
  C  C75  1  0.17401283  0.06356256  0.17008282  1.0
  C  C76  1  0.53700080  0.67646758  0.21074154  1.0
  C  C77  1  0.78602280  0.67674201  0.78927928  1.0
  C  C78  1  0.46300022  0.32353282  0.78925731  1.0
  C  C79  1  0.21397687  0.32325754  0.21072173  1.0
  C  C80  1  0.03194248  0.89778525  0.41699834  1.0
  C  C81  1  0.07036103  0.89774494  0.58296596  1.0
  C  C82  1  0.96805233  0.10221687  0.58300461  1.0
  C  C83  1  0.92963866  0.10225632  0.41703604  1.0
  C  C84  1  0.55101021  0.99995409  0.01720368  1.0
  C  C85  1  0.44898992  0.00004631  0.98279714  1.0
  C  C86  1  0.01225611  0.90171894  0.33919165  1.0
  C  C87  1  0.08613666  0.90164348  0.66076679  1.0
  C  C88  1  0.98774091  0.09828232  0.66081093  1.0
  C  C89  1  0.91386394  0.09835779  0.33923444  1.0
  C  C90  1  0.57729758  0.55765922  0.22190256  1.0
  C  C91  1  0.86469693  0.55797395  0.77793114  1.0
  C  C92  1  0.42270344  0.44234118  0.77809629  1.0
  C  C93  1  0.13530227  0.44202474  0.22206947  1.0
  C  C94  1  0.69943763  0.48950435  0.23750953  1.0
  C  C95  1  0.81086822  0.48977363  0.76218069  1.0
  C  C96  1  0.30056385  0.51049691  0.76248913  1.0
  C  C97  1  0.18913277  0.51022506  0.23781835  1.0
  C  C98  1  0.74147534  0.64476220  0.23669586  1.0
  C  C99  1  0.61340081  0.64490284  0.76320712  1.0
  C  C100  1  0.25852393  0.35523992  0.76330377  1.0
  C  C101  1  0.38659882  0.35509499  0.23679408  1.0
  C  C102  1  0.62191749  0.71988658  0.21980086  1.0
  C  C103  1  0.65767541  0.72006324  0.78025660  1.0
  C  C104  1  0.37808268  0.28011554  0.78019799  1.0
  C  C105  1  0.34232201  0.27993545  0.21974557  1.0
  C  C106  1  0.22757750  0.77202281  0.14255261  1.0
  C  C107  1  0.00014786  0.77204854  0.85741280  1.0
  C  C108  1  0.77242259  0.22797587  0.85744780  1.0
  C  C109  1  0.99985138  0.22795186  0.14258761  1.0
  C  C110  1  0.41212023  0.75055001  0.18855932  1.0
  C  C111  1  0.83684904  0.75076869  0.81151194  1.0
  C  C112  1  0.58788033  0.24944954  0.81143913  1.0
  C  C113  1  0.16314973  0.24923086  0.18848866  1.0
  C  C114  1  0.48760530  0.99996524  0.45946815  1.0
  C  C115  1  0.51239840  0.00003516  0.54052954  1.0
  C  C116  1  0.55206806  0.99982975  0.30893708  1.0
  C  C117  1  0.44793296  0.00017066  0.69106236  1.0
  C  C118  1  0.57970161  0.99994209  0.38350098  1.0
  C  C119  1  0.42030074  0.00005746  0.61649768  1.0
  C  C120  1  0.37013238  0.99987177  0.45466441  1.0
  C  C121  1  0.62986825  0.00013121  0.54533425  1.0
  C  C122  1  0.35127300  0.99976543  0.37724020  1.0
  C  C123  1  0.64872938  0.00023583  0.62275886  1.0
  N  N124  1  0.17295676  0.88682973  0.14710644  1.0
  N  N125  1  0.94011657  0.88684603  0.85282737  1.0
  N  N126  1  0.82704201  0.11316981  0.85289357  1.0
  N  N127  1  0.05988220  0.11315352  0.14717205  1.0
  N  N128  1  0.74704408  0.99985547  0.08219932  1.0
  N  N129  1  0.25295691  0.00014321  0.91779913  1.0
  N  N130  1  0.78235796  0.53071337  0.24421168  1.0
  N  N131  1  0.68674308  0.53089947  0.75550610  1.0
  N  N132  1  0.21764221  0.46928875  0.75578777  1.0
  N  N133  1  0.31325834  0.46909836  0.24449354  1.0
  N  N134  1  0.95430541  0.00005060  0.29972625  1.0
  N  N135  1  0.04569340  0.99995066  0.70027536  1.0
  N  N136  1  0.43998800  0.99969854  0.30470411  1.0
  N  N137  1  0.56001302  0.00030187  0.69529474  1.0
  Cl  Cl138  1  0.07170895  0.85652734  0.99997625  1.0
  Cl  Cl139  1  0.92828939  0.14347306  0.00002376  1.0
  Cl  Cl140  1  0.72368640  0.17963955  0.21570516  1.0
  Cl  Cl141  1  0.09672362  0.17964469  0.78425155  1.0
  Cl  Cl142  1  0.27631366  0.82035742  0.78429723  1.0
  Cl  Cl143  1  0.90327872  0.82035485  0.21574948  1.0
