# generated using pymatgen
data_Zn4H61C80N33
_symmetry_space_group_name_H-M   'P 1'
_cell_length_a   19.39081846
_cell_length_b   19.59599753
_cell_length_c   20.67296493
_cell_angle_alpha   105.51159770
_cell_angle_beta   107.14752015
_cell_angle_gamma   112.18229646
_symmetry_Int_Tables_number   1
_chemical_formula_structural   Zn4H61C80N33
_chemical_formula_sum   'Zn4 H61 C80 N33'
_cell_volume   6281.67022487
_cell_formula_units_Z   1
loop_
 _symmetry_equiv_pos_site_id
 _symmetry_equiv_pos_as_xyz
  1  'x, y, z'
loop_
 _atom_site_type_symbol
 _atom_site_label
 _atom_site_symmetry_multiplicity
 _atom_site_fract_x
 _atom_site_fract_y
 _atom_site_fract_z
 _atom_site_occupancy
  Zn  Zn0  1  0.88620081  0.89517604  0.49458528  1.0
  Zn  Zn1  1  0.08685049  0.12058785  0.47897629  1.0
  Zn  Zn2  1  0.08250293  0.00671492  0.60028973  1.0
  Zn  Zn3  1  0.88430033  0.00837433  0.38044983  1.0
  H  H4  1  0.83585830  0.82955890  0.62949947  1.0
  H  H5  1  0.32427303  0.89336338  0.33283145  1.0
  H  H6  1  0.85495501  0.63115800  0.55186862  1.0
  H  H7  1  0.77518316  0.49026262  0.53721454  1.0
  H  H8  1  0.84465005  0.27889536  0.51863931  1.0
  H  H9  1  0.27262037  0.10907346  0.72257208  1.0
  H  H10  1  0.11200364  0.40318093  0.62165517  1.0
  H  H11  1  0.73935868  0.61900071  0.01594227  1.0
  H  H12  1  0.93346156  0.86910415  0.99571399  1.0
  H  H13  1  0.11443171  0.91311616  0.24642589  1.0
  H  H14  1  0.13028037  0.84683836  0.13497024  1.0
  H  H15  1  0.24526184  0.30473861  0.68092595  1.0
  H  H16  1  0.79422644  0.95575096  0.57455725  1.0
  H  H17  1  0.83697501  0.73482492  0.36437325  1.0
  H  H18  1  0.34741196  0.17719670  0.52632029  1.0
  H  H19  1  0.30338670  0.22596366  0.56214644  1.0
  H  H20  1  0.12579604  0.86438950  0.63562996  1.0
  H  H21  1  0.87329699  0.92369959  0.21547242  1.0
  H  H22  1  0.14054668  0.05538816  0.34677071  1.0
  H  H23  1  0.82999979  0.65305601  0.46293544  1.0
  H  H24  1  0.80667895  0.72278880  0.49837066  1.0
  H  H25  1  0.76227684  0.83946742  0.21601610  1.0
  H  H26  1  0.15498347  0.92044717  0.51626002  1.0
  H  H27  1  0.25742705  0.94366253  0.40369083  1.0
  H  H28  1  0.34940020  0.12603925  0.64716756  1.0
  H  H29  1  0.45364544  0.16621164  0.69238453  1.0
  H  H30  1  0.54930638  0.14530056  0.70609326  1.0
  H  H31  1  0.08844900  0.25758147  0.60360670  1.0
  H  H32  1  0.74234178  0.16913233  0.71279884  1.0
  H  H33  1  0.69134685  0.19106917  0.76106894  1.0
  H  H34  1  0.74268785  0.09519995  0.62693318  1.0
  H  H35  1  0.54320598  0.87733810  0.34004968  1.0
  H  H36  1  0.64757241  0.91685898  0.38272256  1.0
  H  H37  1  0.44831810  0.89349825  0.32735213  1.0
  H  H38  1  0.12223214  0.74899201  0.64080976  1.0
  H  H39  1  0.77108864  0.35996744  0.52632406  1.0
  H  H40  1  0.25978389  0.61177852  0.74122082  1.0
  H  H41  1  0.20381570  0.51467352  0.72657391  1.0
  H  H42  1  0.19666609  0.68566084  0.69986916  1.0
  H  H43  1  0.40263024  0.20977326  0.82159397  1.0
  H  H44  1  0.54429181  0.31700173  0.92025559  1.0
  H  H45  1  0.62809413  0.45421391  0.16889887  1.0
  H  H46  1  0.61314799  0.41201473  0.07841297  1.0
  H  H47  1  0.71804926  0.60268247  0.24558073  1.0
  H  H48  1  0.39787303  0.37149820  0.71566240  1.0
  H  H49  1  0.51784388  0.51012490  0.78139900  1.0
  H  H50  1  0.60241440  0.53520431  0.85960267  1.0
  H  H51  1  0.77114637  0.07126944  0.42409923  1.0
  H  H52  1  0.83867175  0.76140451  0.09259485  1.0
  H  H53  1  0.86999074  0.80488367  0.18478666  1.0
  H  H54  1  0.88777248  0.94982526  0.05481982  1.0
  H  H55  1  0.92023144  0.99297470  0.14827789  1.0
  H  H56  1  0.80182825  0.66997215  0.75227716  1.0
  H  H57  1  0.86422233  0.68256515  0.83846356  1.0
  H  H58  1  0.86187567  0.76004444  0.69608346  1.0
  H  H59  1  0.13460429  0.89215268  0.98639240  1.0
  H  H60  1  0.18234971  0.96997333  0.96059041  1.0
  H  H61  1  0.10856624  0.96749228  0.84570686  1.0
  H  H62  1  0.87035932  0.19635325  0.41187864  1.0
  H  H63  1  0.14213923  0.01402384  0.79511370  1.0
  H  H64  1  0.14189831  0.07662376  0.75184677  1.0
  C  C65  1  0.89817594  0.87817339  0.64733083  1.0
  C  C66  1  0.97792278  0.25778592  0.52662403  1.0
  C  C67  1  0.29916431  0.22986045  0.71770466  1.0
  C  C68  1  0.75305559  0.01646083  0.50459154  1.0
  C  C69  1  0.82331454  0.77216171  0.33790573  1.0
  C  C70  1  0.23923053  0.10331744  0.52171767  1.0
  C  C71  1  0.06236088  0.83954604  0.59474361  1.0
  C  C72  1  0.93707500  0.96305351  0.25807989  1.0
  C  C73  1  0.07359197  0.02943736  0.32478883  1.0
  C  C74  1  0.92779953  0.76768395  0.51841125  1.0
  C  C75  1  0.78558339  0.82647775  0.26315470  1.0
  C  C76  1  0.03654180  0.23357253  0.54966013  1.0
  C  C77  1  0.17363351  0.98015806  0.51638368  1.0
  C  C78  1  0.79074490  0.75636846  0.26183114  1.0
  C  C79  1  0.24781094  0.03441600  0.51937340  1.0
  C  C80  1  0.99200225  0.76334229  0.56876418  1.0
  C  C81  1  0.01038471  0.97276801  0.25216273  1.0
  C  C82  1  0.31620877  0.97765909  0.45446701  1.0
  C  C83  1  0.32063680  0.02643162  0.52027306  1.0
  C  C84  1  0.39626007  0.07167430  0.58709038  1.0
  C  C85  1  0.46803999  0.06767383  0.58672875  1.0
  C  C86  1  0.46294482  0.01987271  0.51811247  1.0
  C  C87  1  0.25233378  0.14897935  0.70583103  1.0
  C  C88  1  0.38599746  0.97377575  0.45151112  1.0
  C  C89  1  0.54511600  0.11090666  0.65256729  1.0
  C  C90  1  0.61551200  0.10957777  0.65178116  1.0
  C  C91  1  0.61272933  0.06381029  0.58252645  1.0
  C  C92  1  0.53554984  0.01873886  0.51607339  1.0
  C  C93  1  0.53076651  0.97232029  0.44683709  1.0
  C  C94  1  0.45271982  0.92734716  0.38108585  1.0
  C  C95  1  0.38316520  0.92763133  0.38355330  1.0
  C  C96  1  0.68280548  0.06200556  0.57753437  1.0
  C  C97  1  0.67956109  0.01814937  0.51020070  1.0
  C  C98  1  0.78690535  0.04064353  0.45789982  1.0
  C  C99  1  0.60297026  0.97173592  0.44444985  1.0
  C  C100  1  0.06272367  0.69692698  0.62510595  1.0
  C  C101  1  0.98855229  0.69674242  0.58944726  1.0
  C  C102  1  0.91302645  0.63030676  0.57284112  1.0
  C  C103  1  0.90969235  0.56031476  0.58068802  1.0
  C  C104  1  0.98488068  0.55838747  0.60989765  1.0
  C  C105  1  0.06281198  0.63000526  0.63737137  1.0
  C  C106  1  0.83273494  0.48771978  0.55518778  1.0
  C  C107  1  0.83042033  0.41561383  0.54921684  1.0
  C  C108  1  0.90510678  0.41031266  0.56960903  1.0
  C  C109  1  0.23715014  0.24723658  0.68262327  1.0
  C  C110  1  0.98300122  0.48436713  0.60598921  1.0
  C  C111  1  0.05842968  0.48165697  0.63152623  1.0
  C  C112  1  0.13648011  0.55813573  0.67239176  1.0
  C  C113  1  0.13745320  0.62883212  0.67283607  1.0
  C  C114  1  0.90426963  0.33554981  0.54973679  1.0
  C  C115  1  0.97832113  0.33271687  0.56484423  1.0
  C  C116  1  0.05461151  0.40573681  0.60999510  1.0
  C  C117  1  0.76341860  0.68281646  0.19640384  1.0
  C  C118  1  0.77453715  0.68779618  0.13195728  1.0
  C  C119  1  0.73558027  0.61655917  0.06696543  1.0
  C  C120  1  0.79799649  0.98151073  0.53451792  1.0
  C  C121  1  0.68897135  0.53970882  0.06419488  1.0
  C  C122  1  0.68855452  0.53355980  0.13132890  1.0
  C  C123  1  0.72438723  0.60611997  0.19559971  1.0
  C  C124  1  0.51181161  0.32751828  0.87441562  1.0
  C  C125  1  0.43288533  0.26812249  0.81949570  1.0
  C  C126  1  0.55021415  0.40524992  0.87574281  1.0
  C  C127  1  0.38805761  0.28510529  0.76413058  1.0
  C  C128  1  0.42992391  0.35856973  0.75989426  1.0
  C  C129  1  0.51120227  0.41861419  0.81379540  1.0
  C  C130  1  0.98292357  0.86991750  0.76413121  1.0
  C  C131  1  0.92416537  0.19960102  0.45151306  1.0
  C  C132  1  0.05707988  0.90831937  0.83020990  1.0
  C  C133  1  0.06700829  0.87584270  0.88272129  1.0
  C  C134  1  0.99574774  0.80679439  0.87349352  1.0
  C  C135  1  0.92261868  0.76284474  0.80248218  1.0
  C  C136  1  0.91770262  0.79416985  0.74934565  1.0
  C  C137  1  0.97074239  0.87650147  0.05087070  1.0
  C  C138  1  0.96396635  0.91717021  0.11336294  1.0
  C  C139  1  0.03086261  0.85199049  0.05778582  1.0
  C  C140  1  0.01647209  0.93077049  0.18559357  1.0
  C  C141  1  0.07482896  0.90364957  0.19113562  1.0
  C  C142  1  0.03113960  0.97191107  0.70646957  1.0
  C  C143  1  0.08352061  0.86577376  0.12920244  1.0
  C  C144  1  0.97212665  0.90536549  0.71092512  1.0
  N  N145  1  0.91142761  0.92264771  0.60860254  1.0
  N  N146  1  0.16515151  0.08943862  0.52004499  1.0
  N  N147  1  0.04164655  0.88520778  0.56360272  1.0
  N  N148  1  0.95553513  0.00991256  0.32825208  1.0
  N  N149  1  0.03977876  0.05160090  0.36923372  1.0
  N  N150  1  0.95886371  0.84058740  0.51514704  1.0
  N  N151  1  0.81274998  0.87965186  0.33377185  1.0
  N  N152  1  0.12356082  0.01312629  0.51732805  1.0
  N  N153  1  0.63438391  0.46801229  0.99951797  1.0
  N  N154  1  0.61792085  0.47490714  0.93743565  1.0
  N  N155  1  0.98400949  0.79394112  0.93185293  1.0
  N  N156  1  0.01869932  0.16690070  0.49181942  1.0
  N  N157  1  0.04754858  0.82794048  0.99666147  1.0
  N  N158  1  0.17036150  0.12262302  0.66770886  1.0
  N  N159  1  0.84595920  0.01989002  0.45917328  1.0
  N  N160  1  0.16040862  0.18319822  0.65284525  1.0
  N  N161  1  0.85291103  0.98308043  0.50595285  1.0
  N  N162  1  0.94881493  0.14557190  0.43029393  1.0
  N  N163  1  0.99483717  0.98178887  0.64533770  1.0
  N  N164  1  0.83664788  0.84556969  0.38049225  1.0
  N  N165  1  0.29268886  0.17469910  0.52182852  1.0
  N  N166  1  0.84238100  0.71135832  0.47405585  1.0
  N  N167  1  0.39861520  0.11683055  0.65281011  1.0
  N  N168  1  0.68859344  0.14886426  0.71781811  1.0
  N  N169  1  0.59904025  0.92712528  0.37737062  1.0
  N  N170  1  0.20933931  0.55623768  0.70495987  1.0
  N  N171  1  0.65096062  0.45782903  0.13099457  1.0
  N  N172  1  0.55292189  0.49108342  0.81010614  1.0
  N  N173  1  0.82055796  0.76399369  0.13420025  1.0
  N  N174  1  0.90597216  0.94391060  0.10339042  1.0
  N  N175  1  0.85993744  0.69093349  0.79121225  1.0
  N  N176  1  0.14010674  0.91144433  0.94524140  1.0
  N  N177  1  0.11680136  0.01866636  0.74741237  1.0
