# generated using pymatgen
data_CdH11C17N3O4
_symmetry_space_group_name_H-M   'P 1'
_cell_length_a   13.65413325
_cell_length_b   17.68424704
_cell_length_c   17.68482488
_cell_angle_alpha   113.60040122
_cell_angle_beta   104.86844157
_cell_angle_gamma   104.90674588
_symmetry_Int_Tables_number   1
_chemical_formula_structural   CdH11C17N3O4
_chemical_formula_sum   'Cd6 H66 C102 N18 O24'
_cell_volume   3455.56851766
_cell_formula_units_Z   6
loop_
 _symmetry_equiv_pos_site_id
 _symmetry_equiv_pos_as_xyz
  1  'x, y, z'
loop_
 _atom_site_type_symbol
 _atom_site_label
 _atom_site_symmetry_multiplicity
 _atom_site_fract_x
 _atom_site_fract_y
 _atom_site_fract_z
 _atom_site_occupancy
  Cd  Cd0  1  0.07254681  0.63240258  0.22009997  1.0
  Cd  Cd1  1  0.85227380  0.78012780  0.41214374  1.0
  Cd  Cd2  1  0.43982807  0.58785646  0.36772252  1.0
  Cd  Cd3  1  0.92745684  0.36760178  0.77990693  1.0
  Cd  Cd4  1  0.14772507  0.21987970  0.58785955  1.0
  Cd  Cd5  1  0.56017705  0.41214364  0.63227945  1.0
  H  H6  1  0.20818395  0.97294219  0.48061518  1.0
  H  H7  1  0.44144519  0.93955426  0.35684903  1.0
  H  H8  1  0.32039869  0.77450067  0.26627103  1.0
  H  H9  1  0.45917661  0.08384840  0.38215525  1.0
  H  H10  1  0.36010579  0.08631657  0.59832844  1.0
  H  H11  1  0.45530953  0.25270725  0.67886815  1.0
  H  H12  1  0.92681107  0.73733649  0.18187383  1.0
  H  H13  1  0.84493975  0.77829651  0.06727963  1.0
  H  H14  1  0.87677297  0.72323408  0.92422161  1.0
  H  H15  1  0.98963267  0.62887363  0.90309689  1.0
  H  H16  1  0.06473101  0.59547602  0.02374348  1.0
  H  H17  1  0.72695656  0.51941529  0.49227777  1.0
  H  H18  1  0.08364309  0.64221729  0.58172490  1.0
  H  H19  1  0.05334350  0.73285990  0.50714233  1.0
  H  H20  1  0.07595300  0.61741464  0.70113725  1.0
  H  H21  1  0.76120000  0.40127138  0.48773236  1.0
  H  H22  1  0.77589860  0.32067851  0.57365254  1.0
  H  H23  1  0.74480082  0.81805105  0.55513146  1.0
  H  H24  1  0.77677861  0.93245604  0.71046311  1.0
  H  H25  1  0.95126107  0.07564425  0.79857947  1.0
  H  H26  1  0.08561106  0.09704872  0.72569537  1.0
  H  H27  1  0.04085450  0.97654687  0.57184530  1.0
  H  H28  1  0.23501550  0.50750368  0.02702951  1.0
  H  H29  1  0.50185036  0.41745507  0.06014883  1.0
  H  H30  1  0.54578471  0.49176342  0.22524882  1.0
  H  H31  1  0.37494637  0.29817035  0.91606546  1.0
  H  H32  1  0.27348765  0.51184239  0.91344925  1.0
  H  H33  1  0.20217717  0.42590944  0.74704469  1.0
  H  H34  1  0.18970738  0.44437360  0.26304510  1.0
  H  H35  1  0.06747125  0.28866283  0.22209047  1.0
  H  H36  1  0.15488186  0.20087578  0.27709180  1.0
  H  H37  1  0.36192364  0.27453456  0.37151110  1.0
  H  H38  1  0.46981997  0.42868452  0.40488416  1.0
  H  H39  1  0.79181835  0.02706597  0.51939282  1.0
  H  H40  1  0.55854926  0.06044493  0.64315068  1.0
  H  H41  1  0.67959610  0.22550063  0.73373484  1.0
  H  H42  1  0.54083173  0.91615113  0.61784007  1.0
  H  H43  1  0.63990632  0.91369113  0.40167234  1.0
  H  H44  1  0.54469681  0.74730100  0.32112507  1.0
  H  H45  1  0.07320647  0.26267943  0.81813719  1.0
  H  H46  1  0.15506994  0.22171078  0.93272277  1.0
  H  H47  1  0.12322820  0.27676173  0.07577674  1.0
  H  H48  1  0.01036954  0.37112272  0.09690605  1.0
  H  H49  1  0.93527733  0.40453136  0.97626373  1.0
  H  H50  1  0.27303854  0.48058372  0.50772040  1.0
  H  H51  1  0.91634961  0.35776530  0.41826970  1.0
  H  H52  1  0.94666461  0.26713408  0.49286568  1.0
  H  H53  1  0.92403840  0.38256624  0.29884280  1.0
  H  H54  1  0.23877999  0.59871704  0.51226131  1.0
  H  H55  1  0.22408642  0.67931470  0.42634794  1.0
  H  H56  1  0.25520847  0.18194910  0.44487123  1.0
  H  H57  1  0.22321744  0.06755404  0.28953195  1.0
  H  H58  1  0.04872956  0.92437256  0.20141015  1.0
  H  H59  1  0.91438876  0.90295663  0.27429833  1.0
  H  H60  1  0.95915731  0.02344887  0.42815772  1.0
  H  H61  1  0.76498159  0.49250188  0.97297521  1.0
  H  H62  1  0.49814448  0.58254620  0.93985566  1.0
  H  H63  1  0.45421186  0.50824085  0.77475461  1.0
  H  H64  1  0.62505785  0.70182606  0.08393079  1.0
  H  H65  1  0.72648929  0.48814610  0.08654584  1.0
  H  H66  1  0.79781089  0.57408268  0.25295538  1.0
  H  H67  1  0.81029791  0.55563215  0.73696522  1.0
  H  H68  1  0.93252589  0.71133964  0.77791590  1.0
  H  H69  1  0.84512222  0.79912277  0.72290659  1.0
  H  H70  1  0.63807724  0.72545977  0.62847902  1.0
  H  H71  1  0.53018711  0.57130515  0.59510332  1.0
  C  C72  1  0.17269562  0.84029858  0.37854219  1.0
  C  C73  1  0.23764170  0.93235804  0.43467454  1.0
  C  C74  1  0.33569882  0.97106618  0.42741764  1.0
  C  C75  1  0.36586318  0.91361842  0.36515751  1.0
  C  C76  1  0.29856334  0.82152761  0.31413218  1.0
  C  C77  1  0.06034690  0.79889119  0.37786320  1.0
  C  C78  1  0.50417272  0.21160477  0.49678504  1.0
  C  C79  1  0.45597262  0.11731341  0.44777725  1.0
  C  C80  1  0.40009736  0.06966610  0.48178252  1.0
  C  C81  1  0.40129728  0.11874514  0.56738224  1.0
  C  C82  1  0.45408971  0.21222045  0.61295661  1.0
  C  C83  1  0.55748554  0.26651127  0.45828438  1.0
  C  C84  1  0.93851767  0.71563390  0.11897815  1.0
  C  C85  1  0.89364233  0.73809371  0.05510594  1.0
  C  C86  1  0.91128840  0.70717409  0.97579616  1.0
  C  C87  1  0.97305664  0.65498569  0.96339983  1.0
  C  C88  1  0.01532653  0.63550216  0.03065016  1.0
  C  C89  1  0.79360509  0.62133290  0.46144032  1.0
  C  C90  1  0.80230743  0.56519018  0.49745036  1.0
  C  C91  1  0.90746766  0.57217788  0.54318603  1.0
  C  C92  1  0.99985277  0.63415618  0.54767190  1.0
  C  C93  1  0.98367823  0.68520950  0.50655294  1.0
  C  C94  1  0.68208615  0.62217396  0.42076778  1.0
  C  C95  1  0.00652075  0.50277039  0.71436098  1.0
  C  C96  1  0.00726073  0.55179855  0.66905820  1.0
  C  C97  1  0.91750074  0.51782295  0.58749474  1.0
  C  C98  1  0.83324681  0.43221740  0.55106669  1.0
  C  C99  1  0.84050268  0.38661207  0.59900557  1.0
  C  C100  1  0.09826113  0.54128190  0.80765481  1.0
  C  C101  1  0.81922372  0.88097039  0.59637860  1.0
  C  C102  1  0.83782253  0.94474599  0.68259322  1.0
  C  C103  1  0.93455500  0.02413605  0.73105957  1.0
  C  C104  1  0.00891391  0.03666604  0.69145409  1.0
  C  C105  1  0.98435234  0.96949407  0.60481762  1.0
  C  C106  1  0.33235423  0.53826967  0.15965911  1.0
  C  C107  1  0.30512257  0.50225478  0.06757522  1.0
  C  C108  1  0.36445214  0.45633086  0.02879199  1.0
  C  C109  1  0.45217294  0.45163296  0.08618103  1.0
  C  C110  1  0.47695906  0.49266284  0.17829646  1.0
  C  C111  1  0.26155844  0.57911107  0.20112113  1.0
  C  C112  1  0.29211650  0.28499117  0.78832273  1.0
  C  C113  1  0.33827011  0.33030845  0.88258827  1.0
  C  C114  1  0.33010700  0.41196583  0.93016848  1.0
  C  C115  1  0.28216012  0.44843755  0.88104570  1.0
  C  C116  1  0.24141768  0.40049665  0.78758110  1.0
  C  C117  1  0.29057380  0.19164663  0.73355186  1.0
  C  C118  1  0.22332465  0.40327450  0.28472379  1.0
  C  C119  1  0.15635632  0.31686599  0.26227756  1.0
  C  C120  1  0.20518626  0.26857461  0.29317730  1.0
  C  C121  1  0.31901889  0.30856702  0.34536386  1.0
  C  C122  1  0.38042642  0.39539180  0.36484491  1.0
  C  C123  1  0.82730737  0.15970359  0.62146861  1.0
  C  C124  1  0.76236077  0.06764826  0.56532958  1.0
  C  C125  1  0.66430145  0.02893884  0.57258182  1.0
  C  C126  1  0.63413196  0.08638020  0.63483960  1.0
  C  C127  1  0.70143510  0.17847312  0.68587245  1.0
  C  C128  1  0.93965817  0.20111206  0.62215678  1.0
  C  C129  1  0.49582976  0.78839438  0.50320651  1.0
  C  C130  1  0.54402977  0.88268616  0.55221675  1.0
  C  C131  1  0.59990308  0.93033741  0.51821272  1.0
  C  C132  1  0.59870836  0.88126063  0.43261661  1.0
  C  C133  1  0.54591498  0.78778336  0.38703623  1.0
  C  C134  1  0.44251216  0.73348764  0.54170694  1.0
  C  C135  1  0.06149782  0.28437550  0.88102771  1.0
  C  C136  1  0.10636806  0.26191134  0.94489556  1.0
  C  C137  1  0.08871859  0.29282553  0.02420397  1.0
  C  C138  1  0.02695148  0.34501235  0.03660413  1.0
  C  C139  1  0.98468432  0.36450318  0.96935501  1.0
  C  C140  1  0.20639826  0.37866694  0.53856139  1.0
  C  C141  1  0.19768732  0.43480434  0.50254400  1.0
  C  C142  1  0.09252614  0.42781198  0.45680502  1.0
  C  C143  1  0.00014272  0.36583199  0.45232422  1.0
  C  C144  1  0.01632464  0.31478530  0.49344981  1.0
  C  C145  1  0.31792036  0.37783284  0.57924089  1.0
  C  C146  1  0.99346510  0.49722179  0.28563307  1.0
  C  C147  1  0.99272781  0.44818975  0.33092994  1.0
  C  C148  1  0.08248888  0.48216449  0.41249795  1.0
  C  C149  1  0.16673787  0.56777200  0.44892931  1.0
  C  C150  1  0.15948005  0.61338027  0.40099270  1.0
  C  C151  1  0.90173436  0.45871438  0.19233320  1.0
  C  C152  1  0.18078197  0.11903164  0.40362259  1.0
  C  C153  1  0.16217774  0.05526208  0.31740320  1.0
  C  C154  1  0.06544287  0.97587494  0.26893369  1.0
  C  C155  1  0.99108873  0.96334045  0.30854412  1.0
  C  C156  1  0.01565517  0.03050581  0.39518480  1.0
  C  C157  1  0.66764878  0.46173860  0.84034562  1.0
  C  C158  1  0.69487573  0.49775148  0.93242818  1.0
  C  C159  1  0.63554213  0.54367120  0.97121058  1.0
  C  C160  1  0.54782364  0.54837098  0.91382275  1.0
  C  C161  1  0.52303925  0.50734342  0.82170694  1.0
  C  C162  1  0.73844282  0.42089385  0.79888498  1.0
  C  C163  1  0.70787677  0.71500862  0.21167555  1.0
  C  C164  1  0.66172733  0.66969037  0.11741174  1.0
  C  C165  1  0.66988562  0.58803347  0.06983202  1.0
  C  C166  1  0.71782557  0.55155683  0.11895190  1.0
  C  C167  1  0.75857385  0.59949946  0.21241890  1.0
  C  C168  1  0.70941860  0.80834672  0.26644201  1.0
  C  C169  1  0.77668269  0.59672723  0.71528251  1.0
  C  C170  1  0.84364862  0.68313494  0.73772929  1.0
  C  C171  1  0.79482251  0.73142189  0.70682647  1.0
  C  C172  1  0.68098537  0.69142733  0.65463303  1.0
  C  C173  1  0.61957805  0.60459897  0.63514840  1.0
  N  N174  1  0.20315637  0.78560676  0.31959143  1.0
  N  N175  1  0.50151118  0.25722405  0.57737361  1.0
  N  N176  1  0.99833751  0.66544449  0.10708033  1.0
  N  N177  1  0.88295601  0.68004673  0.46541404  1.0
  N  N178  1  0.92341756  0.42216950  0.67950911  1.0
  N  N179  1  0.89112164  0.89299545  0.55824188  1.0
  N  N180  1  0.41749870  0.53403256  0.21430557  1.0
  N  N181  1  0.24382713  0.31992114  0.74266506  1.0
  N  N182  1  0.33325447  0.44176856  0.33489779  1.0
  N  N183  1  0.79684659  0.21439682  0.68041942  1.0
  N  N184  1  0.49849005  0.74277849  0.42261660  1.0
  N  N185  1  0.00167807  0.33456280  0.89292477  1.0
  N  N186  1  0.11704964  0.31995331  0.53459056  1.0
  N  N187  1  0.07656855  0.57782860  0.32049018  1.0
  N  N188  1  0.10888935  0.10700572  0.44176318  1.0
  N  N189  1  0.58250138  0.46597397  0.78569809  1.0
  N  N190  1  0.75616722  0.68007914  0.25733641  1.0
  N  N191  1  0.66675381  0.55822797  0.66510195  1.0
  O  O192  1  0.99470902  0.72027583  0.31377119  1.0
  O  O193  1  0.03901907  0.84794426  0.44164946  1.0
  O  O194  1  0.57162382  0.35009281  0.49471538  1.0
  O  O195  1  0.58178415  0.22589866  0.39480231  1.0
  O  O196  1  0.68054002  0.68624235  0.40609124  1.0
  O  O197  1  0.59702053  0.55846787  0.40618685  1.0
  O  O198  1  0.07602740  0.50502853  0.85499866  1.0
  O  O199  1  0.18595496  0.60464532  0.83030863  1.0
  O  O200  1  0.27459859  0.59388312  0.27986428  1.0
  O  O201  1  0.19116390  0.59374786  0.15200666  1.0
  O  O202  1  0.22111898  0.14443368  0.65003912  1.0
  O  O203  1  0.35552669  0.16886080  0.77418661  1.0
  O  O204  1  0.00529788  0.27972630  0.68624902  1.0
  O  O205  1  0.96099299  0.15206185  0.55837406  1.0
  O  O206  1  0.42837823  0.64990296  0.50527414  1.0
  O  O207  1  0.41821034  0.77409704  0.60517972  1.0
  O  O208  1  0.31946770  0.31377098  0.59393003  1.0
  O  O209  1  0.40298334  0.44153392  0.59381546  1.0
  O  O210  1  0.92396917  0.49497811  0.14500241  1.0
  O  O211  1  0.81403385  0.39532985  0.16966435  1.0
  O  O212  1  0.72538556  0.40610027  0.72013517  1.0
  O  O213  1  0.80885615  0.40627757  0.84801050  1.0
  O  O214  1  0.77887078  0.85557061  0.34995217  1.0
  O  O215  1  0.64445687  0.83113222  0.22580354  1.0
