# generated using pymatgen
data_ZnSiH24C48N8(O4F3)2
_symmetry_space_group_name_H-M   'P 1'
_cell_length_a   7.79624515
_cell_length_b   19.81246178
_cell_length_c   19.81255559
_cell_angle_alpha   90.00132001
_cell_angle_beta   90.00002330
_cell_angle_gamma   89.99981316
_symmetry_Int_Tables_number   1
_chemical_formula_structural   ZnSiH24C48N8(O4F3)2
_chemical_formula_sum   'Zn1 Si1 H24 C48 N8 O8 F6'
_cell_volume   3060.30299030
_cell_formula_units_Z   1
loop_
 _symmetry_equiv_pos_site_id
 _symmetry_equiv_pos_as_xyz
  1  'x, y, z'
loop_
 _atom_site_type_symbol
 _atom_site_label
 _atom_site_symmetry_multiplicity
 _atom_site_fract_x
 _atom_site_fract_y
 _atom_site_fract_z
 _atom_site_occupancy
  Zn  Zn0  1  0.99999908  0.99999926  0.99999999  1.0
  Si  Si1  1  0.49999993  0.99999950  0.99999916  1.0
  H  H2  1  0.00000086  0.43606690  0.16997250  1.0
  H  H3  1  0.00000002  0.56393278  0.83002873  1.0
  H  H4  1  0.00000067  0.83002505  0.43606689  1.0
  H  H5  1  0.00000021  0.16997564  0.56393131  1.0
  H  H6  1  0.99999968  0.56393375  0.16997405  1.0
  H  H7  1  0.99999992  0.43606592  0.83002667  1.0
  H  H8  1  0.99999887  0.16997316  0.43606593  1.0
  H  H9  1  0.00000073  0.83002803  0.56393277  1.0
  H  H10  1  0.73346672  0.11427255  0.00000238  1.0
  H  H11  1  0.72342470  0.24036987  0.99999851  1.0
  H  H12  1  0.73347638  0.88572691  0.00000017  1.0
  H  H13  1  0.72343232  0.75963052  0.00000225  1.0
  H  H14  1  0.73347622  0.00000034  0.11427406  1.0
  H  H15  1  0.72343145  0.99999868  0.24036926  1.0
  H  H16  1  0.73347636  0.99999803  0.88572518  1.0
  H  H17  1  0.72343198  0.00000424  0.75962947  1.0
  H  H18  1  0.26652595  0.88572671  0.00000013  1.0
  H  H19  1  0.27657233  0.75963081  0.00000221  1.0
  H  H20  1  0.26651629  0.11427134  0.00000184  1.0
  H  H21  1  0.27656471  0.24036714  0.99999847  1.0
  H  H22  1  0.26652708  0.00000013  0.11427453  1.0
  H  H23  1  0.27657018  0.99999846  0.24036973  1.0
  H  H24  1  0.26652722  0.99999732  0.88572514  1.0
  H  H25  1  0.27657199  0.00000352  0.75962944  1.0
  C  C26  1  0.99999792  0.35419534  0.06357748  1.0
  C  C27  1  0.00000212  0.42903726  0.06239013  1.0
  C  C28  1  0.00000072  0.46454641  0.12288198  1.0
  C  C29  1  0.00000040  0.64580282  0.93642677  1.0
  C  C30  1  0.00000199  0.57096055  0.93761152  1.0
  C  C31  1  0.00000082  0.53545189  0.87711815  1.0
  C  C32  1  0.00000019  0.93641674  0.35419579  1.0
  C  C33  1  0.00000022  0.93760927  0.42903622  1.0
  C  C34  1  0.00000049  0.87711342  0.46454584  1.0
  C  C35  1  0.00000007  0.06358460  0.64580132  1.0
  C  C36  1  0.00000004  0.06239256  0.57096088  1.0
  C  C37  1  0.99999977  0.12288842  0.53545228  1.0
  C  C38  1  0.00000251  0.64580387  0.06358379  1.0
  C  C39  1  0.00000282  0.57096308  0.06239176  1.0
  C  C40  1  0.00000171  0.53545381  0.12288683  1.0
  C  C41  1  0.00000031  0.35419544  0.93641887  1.0
  C  C42  1  0.00000129  0.42903623  0.93760938  1.0
  C  C43  1  0.00000111  0.46454501  0.87711431  1.0
  C  C44  1  0.99999992  0.06357468  0.35419583  1.0
  C  C45  1  0.99999996  0.06239093  0.42903724  1.0
  C  C46  1  0.99999973  0.12288357  0.46454573  1.0
  C  C47  1  0.99999839  0.93642702  0.64580237  1.0
  C  C48  1  0.99999963  0.93761127  0.57096196  1.0
  C  C49  1  0.00000052  0.87711827  0.53545340  1.0
  C  C50  1  0.99999242  0.24926107  0.99999712  1.0
  C  C51  1  0.00000374  0.46401393  0.99999951  1.0
  C  C52  1  0.00000205  0.75073810  0.00000461  1.0
  C  C53  1  0.00000293  0.53598387  0.00000214  1.0
  C  C54  1  0.00000115  0.99999622  0.24926205  1.0
  C  C55  1  0.00000060  0.99999956  0.46401434  1.0
  C  C56  1  0.00000167  0.00000713  0.75073657  1.0
  C  C57  1  0.00000028  0.00000214  0.53598335  1.0
  C  C58  1  0.85117198  0.14379783  0.00000021  1.0
  C  C59  1  0.84592096  0.21402072  0.99999771  1.0
  C  C60  1  0.85118188  0.85620047  0.00000135  1.0
  C  C61  1  0.84592707  0.78597901  0.00000357  1.0
  C  C62  1  0.85118265  0.99999900  0.14379970  1.0
  C  C63  1  0.84592759  0.99999729  0.21402083  1.0
  C  C64  1  0.85118327  0.00000124  0.85619956  1.0
  C  C65  1  0.84592814  0.00000649  0.78597843  1.0
  C  C66  1  0.14881941  0.85620092  0.00000129  1.0
  C  C67  1  0.15407607  0.78597896  0.00000301  1.0
  C  C68  1  0.14881079  0.14379778  0.00000066  1.0
  C  C69  1  0.15406996  0.21401966  0.99999765  1.0
  C  C70  1  0.14882018  0.99999895  0.14379965  1.0
  C  C71  1  0.15407531  0.99999723  0.21402077  1.0
  C  C72  1  0.14882080  0.00000068  0.85619950  1.0
  C  C73  1  0.15407586  0.00000593  0.78597837  1.0
  N  N74  1  0.99999504  0.10925281  0.00000083  1.0
  N  N75  1  0.99999725  0.32207736  0.99999644  1.0
  N  N76  1  0.00000019  0.89074595  0.00000017  1.0
  N  N77  1  0.00000235  0.67792181  0.00000478  1.0
  N  N78  1  0.00000108  0.99999965  0.10925437  1.0
  N  N79  1  0.00000119  0.99999605  0.32207800  1.0
  N  N80  1  0.00000148  0.99999957  0.89074517  1.0
  N  N81  1  0.00000163  0.00000680  0.67792062  1.0
  O  O82  1  0.99999808  0.32097443  0.11586213  1.0
  O  O83  1  0.99999829  0.67902359  0.88414069  1.0
  O  O84  1  0.99999972  0.88413144  0.32097391  1.0
  O  O85  1  0.00000116  0.11587025  0.67902378  1.0
  O  O86  1  0.00000046  0.67902686  0.11586827  1.0
  O  O87  1  0.99999848  0.32097268  0.88413253  1.0
  O  O88  1  0.99999775  0.11586144  0.32097566  1.0
  O  O89  1  0.99999734  0.88414162  0.67902262  1.0
  F  F90  1  0.27361248  0.00000184  0.00000103  1.0
  F  F91  1  0.72638583  0.99999834  0.99999918  1.0
  F  F92  1  0.49999945  0.06064251  0.06064259  1.0
  F  F93  1  0.50000014  0.93935717  0.93935662  1.0
  F  F94  1  0.49999969  0.93935664  0.06064060  1.0
  F  F95  1  0.49999990  0.06064203  0.93935810  1.0
