# generated using pymatgen
data_Zn4H72C89N20O17F18
_symmetry_space_group_name_H-M   'P 1'
_cell_length_a   19.82974477
_cell_length_b   20.42646146
_cell_length_c   21.06933369
_cell_angle_alpha   108.07480142
_cell_angle_beta   105.88856672
_cell_angle_gamma   111.44011943
_symmetry_Int_Tables_number   1
_chemical_formula_structural   Zn4H72C89N20O17F18
_chemical_formula_sum   'Zn4 H72 C89 N20 O17 F18'
_cell_volume   6790.34897980
_cell_formula_units_Z   1
loop_
 _symmetry_equiv_pos_site_id
 _symmetry_equiv_pos_as_xyz
  1  'x, y, z'
loop_
 _atom_site_type_symbol
 _atom_site_label
 _atom_site_symmetry_multiplicity
 _atom_site_fract_x
 _atom_site_fract_y
 _atom_site_fract_z
 _atom_site_occupancy
  Zn  Zn0  1  0.58404492  0.59577454  0.47591132  1.0
  Zn  Zn1  1  0.39904485  0.36628544  0.49578877  1.0
  Zn  Zn2  1  0.48639566  0.57893148  0.58552970  1.0
  Zn  Zn3  1  0.50231696  0.39246920  0.38783507  1.0
  H  H4  1  0.23348618  0.34614155  0.53232704  1.0
  H  H5  1  0.63155841  0.40327867  0.52879205  1.0
  H  H6  1  0.48109554  0.92814772  0.53229470  1.0
  H  H7  1  0.39771100  0.62635331  0.11651873  1.0
  H  H8  1  0.29719892  0.35950249  0.68753689  1.0
  H  H9  1  0.31642036  0.37795762  0.99103855  1.0
  H  H10  1  0.20134351  0.30397249  0.14866251  1.0
  H  H11  1  0.08576067  0.20318589  0.02447279  1.0
  H  H12  1  0.97604762  0.95319794  0.87463500  1.0
  H  H13  1  0.80497642  0.03616825  0.86471581  1.0
  H  H14  1  0.02234059  0.03709830  0.11271835  1.0
  H  H15  1  0.46919800  0.38604659  0.21382859  1.0
  H  H16  1  0.70015119  0.90934834  0.74986115  1.0
  H  H17  1  0.46650028  0.59515086  0.34410228  1.0
  H  H18  1  0.84326109  0.86020059  0.64080397  1.0
  H  H19  1  0.75015624  0.85311839  0.58787740  1.0
  H  H20  1  0.80471722  0.82162170  0.54176433  1.0
  H  H21  1  0.53647353  0.83434100  0.70748894  1.0
  H  H22  1  0.43601271  0.78939986  0.69983944  1.0
  H  H23  1  0.45582648  0.83080273  0.63892037  1.0
  H  H24  1  0.36336543  0.19921806  0.23338436  1.0
  H  H25  1  0.45139658  0.28457370  0.25206628  1.0
  H  H26  1  0.33041042  0.58822692  0.56532884  1.0
  H  H27  1  0.37765331  0.21719102  0.15825114  1.0
  H  H28  1  0.10982389  0.28252457  0.29002045  1.0
  H  H29  1  0.17589953  0.38344701  0.36119337  1.0
  H  H30  1  0.11244273  0.31154935  0.38070276  1.0
  H  H31  1  0.17341712  0.47667901  0.71831814  1.0
  H  H32  1  0.12014810  0.37317301  0.65602458  1.0
  H  H33  1  0.12420703  0.40661578  0.74728920  1.0
  H  H34  1  0.90744992  0.29323782  0.60834786  1.0
  H  H35  1  0.81389468  0.28535852  0.60718028  1.0
  H  H36  1  0.90079657  0.33020001  0.69389004  1.0
  H  H37  1  0.12641137  0.55952418  0.71886560  1.0
  H  H38  1  0.13641904  0.71709425  0.76093419  1.0
  H  H39  1  0.05284271  0.70434222  0.78367703  1.0
  H  H40  1  0.07299161  0.75502373  0.72928508  1.0
  H  H41  1  0.56338077  0.33386571  0.65205122  1.0
  H  H42  1  0.53361039  0.23003984  0.61587610  1.0
  H  H43  1  0.47896825  0.26693083  0.65764302  1.0
  H  H44  1  0.92159420  0.35316419  0.42584567  1.0
  H  H45  1  0.01427916  0.35067143  0.44391906  1.0
  H  H46  1  0.96733572  0.36048476  0.36415675  1.0
  H  H47  1  0.75173547  0.00123853  0.66705375  1.0
  H  H48  1  0.96391282  0.56628866  0.54055036  1.0
  H  H49  1  0.79365276  0.07791486  0.75984449  1.0
  H  H50  1  0.84674261  0.08844190  0.70383825  1.0
  H  H51  1  0.46450517  0.64906785  0.79943356  1.0
  H  H52  1  0.38098064  0.58004625  0.70899895  1.0
  H  H53  1  0.44721073  0.67841680  0.72732385  1.0
  H  H54  1  0.80838278  0.24252704  0.76627646  1.0
  H  H55  1  0.73526914  0.27212125  0.77639823  1.0
  H  H56  1  0.80928152  0.32502742  0.75164916  1.0
  H  H57  1  0.43593342  0.07639552  0.63981456  1.0
  H  H58  1  0.37690275  0.98693500  0.55412775  1.0
  H  H59  1  0.07711349  0.56375361  0.54739012  1.0
  H  H60  1  0.36742176  0.07227161  0.56045594  1.0
  H  H61  1  0.36473446  0.97961491  0.42644013  1.0
  H  H62  1  0.37703492  0.90313728  0.44422093  1.0
  H  H63  1  0.38327238  0.91317703  0.36438958  1.0
  H  H64  1  0.23132832  0.25115773  0.70902819  1.0
  H  H65  1  0.16997144  0.28570374  0.66564491  1.0
  H  H66  1  0.13879972  0.23434132  0.71637195  1.0
  H  H67  1  0.96776941  0.83038375  0.83151113  1.0
  H  H68  1  0.99727955  0.87961804  0.77839461  1.0
  H  H69  1  0.94918713  0.77345219  0.73818089  1.0
  H  H70  1  0.61947011  0.05788660  0.46313624  1.0
  H  H71  1  0.73589478  0.79155732  0.83739924  1.0
  H  H72  1  0.66111830  0.68921000  0.79997954  1.0
  H  H73  1  0.64777010  0.76665102  0.85398742  1.0
  H  H74  1  0.70789511  0.11210296  0.54908870  1.0
  H  H75  1  0.57589545  0.94268517  0.47991771  1.0
  C  C76  1  0.70567828  0.73300091  0.61705615  1.0
  C  C77  1  0.54806895  0.73134136  0.50051624  1.0
  C  C78  1  0.47566627  0.43699333  0.25670941  1.0
  C  C79  1  0.48473435  0.26983809  0.50596061  1.0
  C  C80  1  0.31742281  0.52848765  0.55507089  1.0
  C  C81  1  0.44929673  0.49090618  0.24885178  1.0
  C  C82  1  0.25421975  0.46952133  0.55705177  1.0
  C  C83  1  0.53666060  0.77767075  0.55762013  1.0
  C  C84  1  0.24815603  0.28376594  0.27146127  1.0
  C  C85  1  0.93207470  0.41572972  0.59357108  1.0
  C  C86  1  0.01856984  0.56694233  0.66956063  1.0
  C  C87  1  0.53593058  0.24507224  0.48232920  1.0
  C  C88  1  0.09574467  0.56199410  0.66856976  1.0
  C  C89  1  0.19253870  0.47542194  0.57451667  1.0
  C  C90  1  0.94071568  0.49665048  0.59842486  1.0
  C  C91  1  0.47951314  0.52995358  0.69131344  1.0
  C  C92  1  0.01553490  0.41705262  0.60578053  1.0
  C  C93  1  0.07198582  0.48816921  0.59747272  1.0
  C  C94  1  0.03191387  0.50320977  0.53094699  1.0
  C  C95  1  0.95537070  0.50751819  0.53211740  1.0
  C  C96  1  0.14108263  0.48271300  0.59193262  1.0
  C  C97  1  0.86893162  0.50187823  0.59499052  1.0
  C  C98  1  0.43832280  0.46947301  0.70773041  1.0
  C  C99  1  0.80691362  0.50475953  0.57520383  1.0
  C  C100  1  0.65357883  0.14798017  0.64573630  1.0
  C  C101  1  0.64284561  0.07082170  0.52154309  1.0
  C  C102  1  0.62757745  0.99545073  0.52910792  1.0
  C  C103  1  0.65582157  0.45499688  0.52014859  1.0
  C  C104  1  0.56969097  0.85977694  0.58759286  1.0
  C  C105  1  0.60187427  0.11058050  0.55996270  1.0
  C  C106  1  0.67279148  0.08451404  0.66396159  1.0
  C  C107  1  0.60976803  0.00017398  0.59761081  1.0
  C  C108  1  0.52340914  0.98995156  0.57423760  1.0
  C  C109  1  0.73694215  0.50839408  0.54363781  1.0
  C  C110  1  0.51464594  0.04478920  0.53877031  1.0
  C  C111  1  0.60335103  0.93094480  0.60738813  1.0
  C  C112  1  0.59354018  0.16747247  0.53573014  1.0
  C  C113  1  0.57012011  0.20338786  0.50741757  1.0
  C  C114  1  0.41034942  0.49345278  0.18102585  1.0
  C  C115  1  0.43338625  0.40430257  0.65401377  1.0
  C  C116  1  0.37008576  0.42733920  0.10994448  1.0
  C  C117  1  0.34259483  0.42997137  0.04387992  1.0
  C  C118  1  0.35448976  0.50299463  0.04585744  1.0
  C  C119  1  0.38758834  0.56941359  0.11432536  1.0
  C  C120  1  0.47352606  0.54380951  0.32252005  1.0
  C  C121  1  0.41354769  0.56285309  0.17889253  1.0
  C  C122  1  0.41766951  0.53410140  0.88607695  1.0
  C  C123  1  0.44875905  0.53212425  0.83433957  1.0
  C  C124  1  0.34436332  0.47000995  0.86992616  1.0
  C  C125  1  0.40622195  0.47012485  0.76204508  1.0
  C  C126  1  0.33115436  0.40742062  0.74389798  1.0
  C  C127  1  0.73116276  0.56117487  0.51499569  1.0
  C  C128  1  0.30106256  0.40641582  0.79612638  1.0
  C  C129  1  0.77890746  0.86042736  0.74581162  1.0
  C  C130  1  0.76113073  0.91980252  0.77661100  1.0
  C  C131  1  0.26922251  0.40517171  0.53968868  1.0
  C  C132  1  0.81907029  0.99048402  0.84014113  1.0
  C  C133  1  0.89513808  0.99999460  0.87618343  1.0
  C  C134  1  0.91603072  0.94318278  0.84512388  1.0
  C  C135  1  0.85884641  0.87480823  0.77926067  1.0
  C  C136  1  0.09610878  0.19036620  0.07163100  1.0
  C  C137  1  0.15990799  0.24627564  0.14088401  1.0
  C  C138  1  0.04656765  0.11448625  0.06122188  1.0
  C  C139  1  0.53536238  0.26756740  0.42568585  1.0
  C  C140  1  0.17451894  0.23005777  0.20210042  1.0
  C  C141  1  0.12101187  0.15467620  0.18986215  1.0
  C  C142  1  0.48589163  0.71810896  0.57031061  1.0
  C  C143  1  0.05951720  0.09635927  0.12097785  1.0
  C  C144  1  0.64826686  0.73263113  0.69287747  1.0
  C  C145  1  0.71520068  0.78190072  0.68640799  1.0
  C  C146  1  0.78853353  0.82552368  0.58797062  1.0
  C  C147  1  0.47200064  0.79949262  0.66909539  1.0
  C  C148  1  0.38630716  0.24464313  0.21562699  1.0
  C  C149  1  0.14835603  0.32104990  0.34983231  1.0
  C  C150  1  0.12077403  0.41962342  0.70020280  1.0
  C  C151  1  0.87975042  0.32195510  0.63671789  1.0
  C  C152  1  0.07448750  0.70695306  0.74131034  1.0
  C  C153  1  0.32597161  0.30673973  0.27561223  1.0
  C  C154  1  0.51255290  0.27321285  0.62450157  1.0
  C  C155  1  0.97899949  0.37621443  0.42230247  1.0
  C  C156  1  0.78720884  0.06533978  0.70330639  1.0
  C  C157  1  0.44327261  0.62918919  0.73955514  1.0
  C  C158  1  0.77117603  0.26679612  0.74565324  1.0
  C  C159  1  0.40957075  0.05181307  0.57909836  1.0
  C  C160  1  0.39715985  0.94596829  0.42262189  1.0
  C  C161  1  0.19090088  0.27571727  0.71407786  1.0
  C  C162  1  0.95169759  0.82631283  0.77552982  1.0
  C  C163  1  0.67121556  0.74956644  0.81397970  1.0
  C  C164  1  0.26270322  0.31161653  0.34658830  1.0
  N  N165  1  0.64011156  0.66128819  0.58628614  1.0
  N  N166  1  0.32433598  0.45691106  0.92449870  1.0
  N  N167  1  0.94880554  0.06700566  0.94615493  1.0
  N  N168  1  0.45909960  0.30454839  0.46756736  1.0
  N  N169  1  0.98712087  0.05049103  0.99180711  1.0
  N  N170  1  0.49860106  0.50312878  0.63607804  1.0
  N  N171  1  0.60737517  0.47418693  0.47982709  1.0
  N  N172  1  0.46912313  0.42215337  0.61174336  1.0
  N  N173  1  0.65544789  0.54143495  0.47696804  1.0
  N  N174  1  0.49075933  0.30205735  0.41581009  1.0
  N  N175  1  0.60447735  0.66038704  0.63383410  1.0
  N  N176  1  0.33628632  0.42520911  0.52976694  1.0
  N  N177  1  0.51077261  0.52259131  0.36931111  1.0
  N  N178  1  0.47169214  0.64608695  0.52640762  1.0
  N  N179  1  0.38184104  0.34601257  0.34640666  1.0
  N  N180  1  0.34277968  0.34958254  0.39125542  1.0
  N  N181  1  0.51154702  0.65503695  0.48176880  1.0
  N  N182  1  0.51279379  0.45645995  0.32861111  1.0
  N  N183  1  0.36643594  0.50126498  0.53946535  1.0
  N  N184  1  0.34819928  0.51784473  0.98419603  1.0
  O  O185  1  0.74494502  0.74513513  0.57488678  1.0
  O  O186  1  0.75171687  0.10724808  0.67594479  1.0
  O  O187  1  0.49599881  0.60644384  0.71466174  1.0
  O  O188  1  0.71971241  0.21819453  0.66697199  1.0
  O  O189  1  0.47072383  0.08174250  0.55563489  1.0
  O  O190  1  0.48223633  0.99747193  0.45999851  1.0
  O  O191  1  0.22995529  0.34685311  0.78224039  1.0
  O  O192  1  0.87288171  0.81619348  0.74401980  1.0
  O  O193  1  0.62651523  0.75218838  0.74872356  1.0
  O  O194  1  0.45240840  0.72196669  0.61834208  1.0
  O  O195  1  0.34207174  0.28691012  0.21606716  1.0
  O  O196  1  0.21009276  0.30192764  0.37685525  1.0
  O  O197  1  0.04659131  0.42170966  0.67551747  1.0
  O  O198  1  0.90227732  0.39978504  0.64134847  1.0
  O  O199  1  0.02049899  0.63599276  0.67200746  1.0
  O  O200  1  0.45567493  0.25866755  0.55449004  1.0
  O  O201  1  0.02496193  0.46110373  0.46062936  1.0
  F  F202  1  0.59236839  0.75844239  0.46675645  1.0
  F  F203  1  0.66539312  0.08665311  0.72899808  1.0
  F  F204  1  0.52419423  0.59141407  0.85684828  1.0
  F  F205  1  0.46488217  0.59485722  0.95520567  1.0
  F  F206  1  0.44904983  0.62956198  0.24466169  1.0
  F  F207  1  0.36051003  0.35639811  0.10657885  1.0
  F  F208  1  0.39444685  0.32890844  0.64242757  1.0
  F  F209  1  0.13323034  0.13612894  0.24743208  1.0
  F  F210  1  0.79239231  0.62380901  0.52174752  1.0
  F  F211  1  0.57438678  0.25867145  0.38344369  1.0
  F  F212  1  0.01334029  0.56052490  0.73291543  1.0
  F  F213  1  0.15031360  0.63051593  0.67005995  1.0
  F  F214  1  0.88775107  0.45381456  0.46440992  1.0
  F  F215  1  0.87695712  0.35657011  0.52014662  1.0
  F  F216  1  0.00200753  0.34587691  0.55267761  1.0
  F  F217  1  0.69430514  0.98347091  0.53528691  1.0
  F  F218  1  0.50568853  0.00059444  0.63546211  1.0
  F  F219  1  0.60744872  0.16317325  0.68292297  1.0
