# generated using pymatgen
data_ZnH12C12(N3O2)2
_symmetry_space_group_name_H-M   'P 1'
_cell_length_a   9.52310367
_cell_length_b   18.57215810
_cell_length_c   18.64327465
_cell_angle_alpha   90.42945452
_cell_angle_beta   90.09195072
_cell_angle_gamma   89.90840595
_symmetry_Int_Tables_number   1
_chemical_formula_structural   ZnH12C12(N3O2)2
_chemical_formula_sum   'Zn4 H48 C48 N24 O16'
_cell_volume   3297.23405100
_cell_formula_units_Z   4
loop_
 _symmetry_equiv_pos_site_id
 _symmetry_equiv_pos_as_xyz
  1  'x, y, z'
loop_
 _atom_site_type_symbol
 _atom_site_label
 _atom_site_symmetry_multiplicity
 _atom_site_fract_x
 _atom_site_fract_y
 _atom_site_fract_z
 _atom_site_occupancy
  Zn  Zn0  1  0.39400723  0.99885300  0.49379409  1.0
  Zn  Zn1  1  0.66512058  0.98926723  0.50249053  1.0
  Zn  Zn2  1  0.60602256  0.49331656  0.99919380  1.0
  Zn  Zn3  1  0.33487357  0.50204559  0.98969518  1.0
  H  H4  1  0.82053894  0.88672506  0.36171626  1.0
  H  H5  1  0.88218504  0.86287430  0.27910626  1.0
  H  H6  1  0.84550063  0.76991421  0.17784358  1.0
  H  H7  1  0.89762838  0.75397837  0.26104616  1.0
  H  H8  1  0.66613689  0.59606741  0.13078183  1.0
  H  H9  1  0.76258934  0.65737358  0.18847943  1.0
  H  H10  1  0.17060816  0.63716428  0.10062143  1.0
  H  H11  1  0.09399836  0.71027356  0.14269450  1.0
  H  H12  1  0.13258572  0.80791121  0.22904153  1.0
  H  H13  1  0.09360400  0.72387058  0.25144339  1.0
  H  H14  1  0.32541945  0.85710446  0.40120290  1.0
  H  H15  1  0.22885584  0.79987566  0.33991451  1.0
  H  H16  1  0.82921681  0.09970839  0.63778062  1.0
  H  H17  1  0.90592871  0.14173486  0.71073818  1.0
  H  H18  1  0.86692725  0.22807097  0.80867712  1.0
  H  H19  1  0.90619617  0.25065921  0.72499573  1.0
  H  H20  1  0.67413513  0.40077206  0.85767486  1.0
  H  H21  1  0.77067976  0.33935902  0.80057450  1.0
  H  H22  1  0.17928031  0.36070015  0.88754175  1.0
  H  H23  1  0.11849076  0.27747987  0.86447487  1.0
  H  H24  1  0.15494021  0.17590879  0.77090568  1.0
  H  H25  1  0.10206019  0.25946232  0.75588414  1.0
  H  H26  1  0.33339169  0.12983956  0.59727317  1.0
  H  H27  1  0.23696660  0.18730462  0.65879259  1.0
  H  H28  1  0.75558895  0.12418934  0.41340086  1.0
  H  H29  1  0.84554178  0.19806506  0.38393412  1.0
  H  H30  1  0.85607053  0.29138817  0.29052701  1.0
  H  H31  1  0.89573251  0.20589904  0.27502669  1.0
  H  H32  1  0.73472342  0.34590974  0.10823916  1.0
  H  H33  1  0.79954607  0.28241452  0.17275442  1.0
  H  H34  1  0.24469486  0.41241784  0.12357944  1.0
  H  H35  1  0.15465268  0.38325347  0.19732039  1.0
  H  H36  1  0.14416406  0.28996965  0.29092081  1.0
  H  H37  1  0.10504807  0.27398505  0.20576632  1.0
  H  H38  1  0.26617682  0.10751329  0.34628179  1.0
  H  H39  1  0.20141926  0.17179786  0.28254105  1.0
  H  H40  1  0.20401555  0.90352521  0.63002964  1.0
  H  H41  1  0.11637871  0.87117463  0.70386716  1.0
  H  H42  1  0.13433986  0.79236852  0.80548363  1.0
  H  H43  1  0.10045508  0.76371533  0.72304986  1.0
  H  H44  1  0.29863475  0.61148186  0.86429120  1.0
  H  H45  1  0.21613496  0.67703400  0.80595292  1.0
  H  H46  1  0.79558600  0.63031491  0.90441272  1.0
  H  H47  1  0.88256489  0.70475776  0.87261193  1.0
  H  H48  1  0.86492076  0.80631578  0.79278271  1.0
  H  H49  1  0.89953673  0.72326274  0.76537901  1.0
  H  H50  1  0.70140977  0.86399385  0.61216995  1.0
  H  H51  1  0.78393477  0.80595337  0.67795641  1.0
  C  C52  1  0.45497914  0.90313591  0.59873529  1.0
  C  C53  1  0.57596374  0.89199547  0.40328130  1.0
  C  C54  1  0.50337122  0.09122960  0.39732946  1.0
  C  C55  1  0.58346185  0.09358930  0.59596209  1.0
  C  C56  1  0.49719407  0.39647183  0.09120162  1.0
  C  C57  1  0.41644606  0.59534154  0.09419204  1.0
  C  C58  1  0.54481340  0.59859301  0.90377858  1.0
  C  C59  1  0.42364215  0.40261768  0.89264139  1.0
  C  C60  1  0.55170160  0.67264265  0.18150582  1.0
  C  C61  1  0.29512834  0.68715161  0.17394691  1.0
  C  C62  1  0.30010576  0.73692811  0.23036517  1.0
  C  C63  1  0.43077679  0.75991084  0.26109793  1.0
  C  C64  1  0.43887775  0.80795149  0.32323962  1.0
  C  C65  1  0.69482474  0.81779009  0.30682496  1.0
  C  C66  1  0.68917442  0.76441851  0.25400801  1.0
  C  C67  1  0.55875908  0.73313283  0.23157240  1.0
  C  C68  1  0.42061922  0.65134602  0.14982550  1.0
  C  C69  1  0.57042075  0.83871864  0.34507681  1.0
  C  C70  1  0.56073709  0.32242740  0.80879137  1.0
  C  C71  1  0.30492001  0.30565081  0.81882749  1.0
  C  C72  1  0.31058088  0.25273031  0.76557875  1.0
  C  C73  1  0.44093636  0.23044049  0.73418615  1.0
  C  C74  1  0.44797139  0.18044402  0.67372335  1.0
  C  C75  1  0.70462075  0.17303422  0.68795075  1.0
  C  C76  1  0.69959553  0.22941156  0.73783139  1.0
  C  C77  1  0.56890112  0.26011776  0.76085117  1.0
  C  C78  1  0.42921898  0.34419957  0.83954649  1.0
  C  C79  1  0.57913647  0.14895511  0.65219448  1.0
  C  C80  1  0.59073832  0.30240599  0.17524271  1.0
  C  C81  1  0.33750691  0.33019186  0.17625899  1.0
  C  C82  1  0.31539381  0.27457712  0.22484643  1.0
  C  C83  1  0.43025339  0.23484696  0.25430227  1.0
  C  C84  1  0.41004330  0.17477028  0.30285724  1.0
  C  C85  1  0.66305101  0.17635403  0.33094375  1.0
  C  C86  1  0.68527755  0.22477678  0.27524977  1.0
  C  C87  1  0.57047570  0.25397854  0.23533912  1.0
  C  C88  1  0.47584010  0.34279671  0.14728487  1.0
  C  C89  1  0.52479450  0.14719026  0.34351410  1.0
  C  C90  1  0.42752354  0.68387171  0.81793741  1.0
  C  C91  1  0.68465047  0.68882704  0.83232606  1.0
  C  C92  1  0.69137900  0.74117211  0.77917560  1.0
  C  C93  1  0.56706642  0.76854677  0.74507640  1.0
  C  C94  1  0.57241912  0.81769401  0.68438802  1.0
  C  C95  1  0.31512849  0.83153704  0.68871741  1.0
  C  C96  1  0.30844301  0.77840900  0.74108270  1.0
  C  C97  1  0.43284056  0.74459427  0.76874132  1.0
  C  C98  1  0.55274929  0.65669263  0.85125856  1.0
  C  C99  1  0.44710101  0.85070782  0.65688133  1.0
  N  N100  1  0.82596196  0.84789810  0.32278704  1.0
  N  N101  1  0.82195677  0.74244952  0.22373151  1.0
  N  N102  1  0.67150813  0.63626684  0.16788714  1.0
  N  N103  1  0.16502288  0.66965569  0.14486005  1.0
  N  N104  1  0.16714408  0.76358625  0.25631136  1.0
  N  N105  1  0.32029252  0.82024983  0.36084894  1.0
  N  N106  1  0.83471917  0.14395448  0.67036339  1.0
  N  N107  1  0.83248533  0.25541233  0.76448555  1.0
  N  N108  1  0.67921621  0.36031603  0.82090914  1.0
  N  N109  1  0.17379844  0.32145311  0.84902373  1.0
  N  N110  1  0.17781744  0.22222886  0.74383293  1.0
  N  N111  1  0.32801041  0.16673962  0.63762927  1.0
  N  N112  1  0.77986118  0.15674054  0.37160456  1.0
  N  N113  1  0.82819436  0.24648897  0.26165680  1.0
  N  N114  1  0.71945716  0.30640025  0.14488360  1.0
  N  N115  1  0.22054764  0.37067796  0.15630201  1.0
  N  N116  1  0.17243921  0.26084259  0.24635692  1.0
  N  N117  1  0.28151135  0.14408119  0.30673618  1.0
  N  N118  1  0.19028802  0.86272797  0.66563723  1.0
  N  N119  1  0.16909781  0.75918069  0.76506959  1.0
  N  N120  1  0.30176256  0.65286041  0.82910501  1.0
  N  N121  1  0.80947208  0.66605549  0.86378071  1.0
  N  N122  1  0.83075684  0.76529947  0.76010842  1.0
  N  N123  1  0.69836592  0.82912308  0.65377244  1.0
  O  O124  1  0.34143531  0.93263558  0.57179485  1.0
  O  O125  1  0.57603190  0.92072547  0.57377755  1.0
  O  O126  1  0.69650165  0.91421993  0.42913091  1.0
  O  O127  1  0.46049595  0.91732799  0.42902923  1.0
  O  O128  1  0.61197888  0.06286169  0.42696524  1.0
  O  O129  1  0.37746706  0.06997121  0.41581085  1.0
  O  O130  1  0.46859571  0.07437433  0.56484990  1.0
  O  O131  1  0.70221737  0.06297837  0.57688169  1.0
  O  O132  1  0.62308765  0.41513187  0.07008991  1.0
  O  O133  1  0.38856438  0.42580845  0.06254500  1.0
  O  O134  1  0.29772031  0.57630408  0.06358431  1.0
  O  O135  1  0.53140855  0.56441827  0.07470734  1.0
  O  O136  1  0.42372704  0.57378824  0.92158563  1.0
  O  O137  1  0.65837717  0.57155869  0.93315723  1.0
  O  O138  1  0.53910307  0.42842553  0.91791669  1.0
  O  O139  1  0.30311383  0.42863239  0.91471502  1.0
