# generated using pymatgen
data_ZnH13C22NO4
_symmetry_space_group_name_H-M   'P 1'
_cell_length_a   11.58305497
_cell_length_b   13.89403311
_cell_length_c   15.78868725
_cell_angle_alpha   96.77775476
_cell_angle_beta   89.99993562
_cell_angle_gamma   89.99992139
_symmetry_Int_Tables_number   1
_chemical_formula_structural   ZnH13C22NO4
_chemical_formula_sum   'Zn4 H52 C88 N4 O16'
_cell_volume   2523.20016867
_cell_formula_units_Z   4
loop_
 _symmetry_equiv_pos_site_id
 _symmetry_equiv_pos_as_xyz
  1  'x, y, z'
loop_
 _atom_site_type_symbol
 _atom_site_label
 _atom_site_symmetry_multiplicity
 _atom_site_fract_x
 _atom_site_fract_y
 _atom_site_fract_z
 _atom_site_occupancy
  Zn  Zn0  1  0.09585991  0.80360925  0.01609740  1.0
  Zn  Zn1  1  0.59586075  0.19639031  0.98390227  1.0
  Zn  Zn2  1  0.09614250  0.60042801  0.99802580  1.0
  Zn  Zn3  1  0.59614278  0.39957154  0.00197387  1.0
  H  H4  1  0.40422176  0.83553880  0.85433817  1.0
  H  H5  1  0.90422048  0.16446109  0.14566191  1.0
  H  H6  1  0.53206119  0.83662480  0.72741877  1.0
  H  H7  1  0.03206101  0.16337483  0.27258097  1.0
  H  H8  1  0.38282712  0.56687815  0.61753812  1.0
  H  H9  1  0.88282762  0.43312104  0.38246381  1.0
  H  H10  1  0.26233722  0.56196186  0.74872970  1.0
  H  H11  1  0.76233533  0.43803893  0.25127186  1.0
  H  H12  1  0.80860681  0.70972826  0.50848171  1.0
  H  H13  1  0.30860695  0.29027102  0.49151586  1.0
  H  H14  1  0.38217527  0.70767221  0.50714803  1.0
  H  H15  1  0.88217670  0.29232915  0.49285286  1.0
  H  H16  1  0.81642620  0.58145246  0.37150214  1.0
  H  H17  1  0.31642678  0.41854754  0.62849549  1.0
  H  H18  1  0.93711294  0.57926141  0.24023905  1.0
  H  H19  1  0.43711332  0.42074133  0.75975878  1.0
  H  H20  1  0.78138614  0.84650593  0.18778580  1.0
  H  H21  1  0.28138947  0.15349556  0.81221519  1.0
  H  H22  1  0.65299678  0.84418123  0.31421180  1.0
  H  H23  1  0.15299943  0.15581970  0.68578924  1.0
  H  H24  1  0.80870501  0.83900624  0.65410434  1.0
  H  H25  1  0.30870473  0.16099304  0.34589576  1.0
  H  H26  1  0.92981718  0.83200884  0.78398089  1.0
  H  H27  1  0.42981881  0.16799174  0.21601924  1.0
  H  H28  1  0.78056833  0.55626527  0.81941131  1.0
  H  H29  1  0.28056696  0.44373405  0.18058755  1.0
  H  H30  1  0.65653206  0.56444135  0.69204047  1.0
  H  H31  1  0.15652965  0.43555813  0.30795915  1.0
  H  H32  1  0.38149580  0.84745720  0.39405321  1.0
  H  H33  1  0.88149729  0.15254199  0.60594618  1.0
  H  H34  1  0.26167259  0.84684778  0.26236981  1.0
  H  H35  1  0.76167215  0.15315229  0.73762914  1.0
  H  H36  1  0.40942321  0.57259260  0.16272298  1.0
  H  H37  1  0.90942303  0.42740728  0.83727647  1.0
  H  H38  1  0.53390495  0.57589730  0.29060034  1.0
  H  H39  1  0.03390453  0.42410233  0.70939939  1.0
  H  H40  1  0.27677115  0.44695624  0.98419719  1.0
  H  H41  1  0.77677202  0.55304309  0.01580230  1.0
  H  H42  1  0.28538301  0.26802556  0.98429395  1.0
  H  H43  1  0.78538359  0.73197447  0.01570815  1.0
  H  H44  1  0.91272085  0.26954269  0.00465409  1.0
  H  H45  1  0.41272209  0.73045718  0.99534852  1.0
  H  H46  1  0.91935281  0.44793986  0.00376977  1.0
  H  H47  1  0.41935347  0.55206073  0.99623165  1.0
  H  H48  1  0.26199620  0.14613185  0.06792157  1.0
  H  H49  1  0.76199518  0.85386677  0.93207787  1.0
  H  H50  1  0.25070575  0.96691326  0.07640506  1.0
  H  H51  1  0.75070436  0.03308537  0.92359312  1.0
  H  H52  1  0.94278850  0.94266992  0.94462227  1.0
  H  H53  1  0.44278797  0.05732919  0.05537581  1.0
  H  H54  1  0.93690128  0.12153458  0.93212071  1.0
  H  H55  1  0.43690110  0.87846527  0.06787807  1.0
  C  C56  1  0.24801522  0.69830892  0.88490357  1.0
  C  C57  1  0.74801290  0.30169116  0.11509666  1.0
  C  C58  1  0.32557858  0.69859351  0.80917948  1.0
  C  C59  1  0.82557442  0.30140720  0.19082329  1.0
  C  C60  1  0.40178639  0.77589094  0.80290423  1.0
  C  C61  1  0.90178235  0.22410677  0.19709626  1.0
  C  C62  1  0.47240253  0.77665562  0.73170977  1.0
  C  C63  1  0.97239924  0.22334273  0.26829264  1.0
  C  C64  1  0.46517053  0.70193178  0.66373804  1.0
  C  C65  1  0.96516788  0.29806585  0.33626240  1.0
  C  C66  1  0.38810629  0.62517071  0.67017980  1.0
  C  C67  1  0.88810525  0.37482920  0.32982220  1.0
  C  C68  1  0.32048936  0.62241365  0.74271601  1.0
  C  C69  1  0.82048670  0.37758562  0.25728471  1.0
  C  C70  1  0.53414980  0.70476240  0.58496765  1.0
  C  C71  1  0.03415091  0.29523724  0.41503208  1.0
  C  C72  1  0.65592683  0.70583359  0.58536572  1.0
  C  C73  1  0.15592535  0.29416661  0.41463397  1.0
  C  C74  1  0.71439850  0.70920572  0.50813996  1.0
  C  C75  1  0.21440037  0.29079295  0.49185826  1.0
  C  C76  1  0.65675315  0.71143635  0.43037329  1.0
  C  C77  1  0.15675231  0.28856313  0.56962632  1.0
  C  C78  1  0.53487770  0.71145599  0.43019550  1.0
  C  C79  1  0.03488031  0.28854364  0.56980423  1.0
  C  C80  1  0.47639394  0.70808603  0.50744492  1.0
  C  C81  1  0.97639364  0.29191377  0.49255509  1.0
  C  C82  1  0.72651977  0.71267170  0.35174512  1.0
  C  C83  1  0.22652227  0.28732841  0.64825514  1.0
  C  C84  1  0.80819520  0.63908275  0.33059042  1.0
  C  C85  1  0.30819495  0.36091799  0.66940603  1.0
  C  C86  1  0.87614106  0.63791431  0.25788485  1.0
  C  C87  1  0.37614329  0.36208779  0.74211485  1.0
  C  C88  1  0.86713823  0.71289262  0.20617577  1.0
  C  C89  1  0.36713878  0.28711021  0.79382338  1.0
  C  C90  1  0.78707464  0.78761154  0.22753327  1.0
  C  C91  1  0.28707794  0.21239067  0.77246842  1.0
  C  C92  1  0.71599576  0.78649243  0.29856237  1.0
  C  C93  1  0.21599830  0.21351060  0.70143883  1.0
  C  C94  1  0.72441475  0.70214836  0.66426204  1.0
  C  C95  1  0.22441339  0.29785103  0.33573624  1.0
  C  C96  1  0.80219984  0.77725163  0.69065979  1.0
  C  C97  1  0.30219951  0.22274839  0.30933913  1.0
  C  C98  1  0.86956630  0.77378780  0.76309977  1.0
  C  C99  1  0.36956694  0.22621213  0.23690098  1.0
  C  C100  1  0.86280041  0.69410021  0.80983956  1.0
  C  C101  1  0.36280185  0.30589973  0.19016056  1.0
  C  C102  1  0.78565504  0.61863022  0.78366659  1.0
  C  C103  1  0.28565632  0.38137127  0.21633376  1.0
  C  C104  1  0.71631156  0.62335887  0.71219332  1.0
  C  C105  1  0.21631273  0.37664198  0.28780702  1.0
  C  C106  1  0.46619553  0.71198979  0.35100117  1.0
  C  C107  1  0.96619501  0.28800929  0.64899878  1.0
  C  C108  1  0.38838872  0.78780934  0.34270414  1.0
  C  C109  1  0.88838917  0.21219129  0.65729604  1.0
  C  C110  1  0.32151522  0.78781223  0.26948052  1.0
  C  C111  1  0.82151556  0.21218849  0.73051719  1.0
  C  C112  1  0.32834859  0.71034736  0.20410605  1.0
  C  C113  1  0.82834871  0.28965335  0.79589419  1.0
  C  C114  1  0.40485351  0.63380810  0.21257728  1.0
  C  C115  1  0.90485265  0.36619106  0.78742210  1.0
  C  C116  1  0.47434203  0.63551276  0.28463795  1.0
  C  C117  1  0.97434214  0.36448704  0.71536206  1.0
  C  C118  1  0.19832124  0.40484820  0.98884446  1.0
  C  C119  1  0.69832118  0.59515050  0.01115630  1.0
  C  C120  1  0.20257495  0.30521658  0.98968564  1.0
  C  C121  1  0.70257473  0.69478356  0.01031591  1.0
  C  C122  1  0.09937596  0.25396898  0.99555215  1.0
  C  C123  1  0.59937653  0.74602985  0.00444935  1.0
  C  C124  1  0.99535802  0.30569649  0.99955989  1.0
  C  C125  1  0.49535824  0.69430401  0.00044335  1.0
  C  C126  1  0.99845815  0.40543035  0.99970154  1.0
  C  C127  1  0.49845768  0.59456869  0.00030028  1.0
  C  C128  1  0.09955389  0.14862761  0.99926446  1.0
  C  C129  1  0.59955515  0.85137122  0.00073576  1.0
  C  C130  1  0.18971395  0.10384350  0.03930163  1.0
  C  C131  1  0.68971281  0.89615448  0.96069780  1.0
  C  C132  1  0.18421029  0.00495797  0.04451637  1.0
  C  C133  1  0.68420986  0.99504147  0.95548131  1.0
  C  C134  1  0.01011221  0.99171679  0.97168881  1.0
  C  C135  1  0.51011137  0.00828215  0.02830960  1.0
  C  C136  1  0.00822141  0.09029850  0.96473136  1.0
  C  C137  1  0.50822080  0.90970117  0.03526840  1.0
  C  C138  1  0.25144407  0.70923969  0.12786380  1.0
  C  C139  1  0.75144406  0.29075967  0.87213636  1.0
  C  C140  1  0.93999070  0.69131716  0.88551894  1.0
  C  C141  1  0.43998966  0.30868196  0.11448040  1.0
  C  C142  1  0.94394186  0.71243209  0.12992400  1.0
  C  C143  1  0.44394229  0.28756992  0.87007627  1.0
  N  N144  1  0.09809806  0.45417665  0.99450430  1.0
  N  N145  1  0.59809896  0.54582290  0.00549664  1.0
  N  N146  1  0.09603677  0.94984490  0.01146967  1.0
  N  N147  1  0.59603526  0.05015320  0.98852858  1.0
  O  O148  1  0.19769090  0.61874237  0.89494928  1.0
  O  O149  1  0.69769019  0.38125778  0.10505037  1.0
  O  O150  1  0.23754378  0.77753624  0.93408346  1.0
  O  O151  1  0.73754167  0.22246313  0.06591798  1.0
  O  O152  1  0.23808500  0.62924639  0.08052034  1.0
  O  O153  1  0.73808479  0.37075226  0.91947976  1.0
  O  O154  1  0.20372690  0.78974626  0.11621703  1.0
  O  O155  1  0.70372873  0.21025243  0.88378310  1.0
  O  O156  1  0.98873509  0.77156728  0.91315720  1.0
  O  O157  1  0.48873250  0.22843250  0.08684154  1.0
  O  O158  1  0.95269206  0.61179897  0.91698688  1.0
  O  O159  1  0.45269352  0.38820158  0.08301450  1.0
  O  O160  1  0.99265362  0.63209644  0.10332125  1.0
  O  O161  1  0.49265560  0.36790696  0.89667976  1.0
  O  O162  1  0.95546641  0.79127900  0.09674215  1.0
  O  O163  1  0.45546779  0.20872444  0.90325699  1.0
