# generated using pymatgen
data_Zr3H20C44(Cl3O8)2
_symmetry_space_group_name_H-M   'P 1'
_cell_length_a   19.02141227
_cell_length_b   19.23844148
_cell_length_c   19.23866375
_cell_angle_alpha   90.59758825
_cell_angle_beta   119.61225928
_cell_angle_gamma   119.61021370
_symmetry_Int_Tables_number   1
_chemical_formula_structural   Zr3H20C44(Cl3O8)2
_chemical_formula_sum   'Zr6 H40 C88 Cl12 O32'
_cell_volume   5010.47792046
_cell_formula_units_Z   2
loop_
 _symmetry_equiv_pos_site_id
 _symmetry_equiv_pos_as_xyz
  1  'x, y, z'
loop_
 _atom_site_type_symbol
 _atom_site_label
 _atom_site_symmetry_multiplicity
 _atom_site_fract_x
 _atom_site_fract_y
 _atom_site_fract_z
 _atom_site_occupancy
  Zr  Zr0  1  0.50098435  0.90793940  0.90797318  1.0
  Zr  Zr1  1  0.49955973  0.09205862  0.09208854  1.0
  Zr  Zr2  1  0.68521351  0.09171182  0.09171740  1.0
  Zr  Zr3  1  0.31533585  0.90828909  0.90832020  1.0
  Zr  Zr4  1  0.50026213  0.90865142  0.09138166  1.0
  Zr  Zr5  1  0.50024390  0.09138684  0.90863318  1.0
  H  H6  1  0.64617647  0.92765816  0.07171575  1.0
  H  H7  1  0.35438344  0.92834136  0.07238093  1.0
  H  H8  1  0.64536751  0.21665158  0.07283123  1.0
  H  H9  1  0.35522450  0.92720471  0.78336809  1.0
  H  H10  1  0.49582416  0.31790723  0.10989756  1.0
  H  H11  1  0.49706304  0.67835154  0.88653699  1.0
  H  H12  1  0.49701343  0.67819335  0.10909715  1.0
  H  H13  1  0.49936005  0.55355379  0.10790029  1.0
  H  H14  1  0.49689413  0.31860263  0.88783836  1.0
  H  H15  1  0.50038218  0.44608857  0.89194510  1.0
  H  H16  1  0.50320959  0.11348652  0.32150280  1.0
  H  H17  1  0.50454616  0.89013644  0.68195114  1.0
  H  H18  1  0.50326013  0.11210091  0.68123969  1.0
  H  H19  1  0.49921399  0.10776004  0.55348269  1.0
  H  H20  1  0.50292524  0.89075203  0.32154285  1.0
  H  H21  1  0.50012053  0.89176369  0.44593988  1.0
  H  H22  1  0.70685769  0.31487795  0.88755035  1.0
  H  H23  1  0.29359056  0.68159192  0.10882321  1.0
  H  H24  1  0.06459490  0.67578727  0.88692195  1.0
  H  H25  1  0.94230066  0.55118685  0.89144707  1.0
  H  H26  1  0.93608752  0.32146930  0.11004086  1.0
  H  H27  1  0.05803976  0.44935398  0.10870975  1.0
  H  H28  1  0.70678155  0.89137822  0.31855668  1.0
  H  H29  1  0.29349749  0.11248587  0.68530504  1.0
  H  H30  1  0.06431845  0.89007399  0.67881897  1.0
  H  H31  1  0.94229765  0.89151511  0.55105850  1.0
  H  H32  1  0.93594100  0.11330954  0.32458672  1.0
  H  H33  1  0.05811595  0.10882525  0.44932890  1.0
  H  H34  1  0.29000564  0.11322723  0.11020769  1.0
  H  H35  1  0.24193316  0.17643785  0.17669064  1.0
  H  H36  1  0.06834699  0.89056753  0.88728180  1.0
  H  H37  1  0.71022879  0.88965929  0.88655492  1.0
  H  H38  1  0.75827800  0.82316126  0.82324531  1.0
  H  H39  1  0.93195842  0.11244930  0.10930527  1.0
  H  H40  1  0.93199792  0.31701993  0.32064612  1.0
  H  H41  1  0.06872446  0.67944771  0.68308466  1.0
  H  H42  1  0.29074859  0.67656709  0.67969412  1.0
  H  H43  1  0.16245829  0.55234635  0.55279798  1.0
  H  H44  1  0.70992448  0.32038397  0.32347412  1.0
  H  H45  1  0.83821692  0.44726826  0.44773381  1.0
  C  C46  1  0.49610672  0.76455162  0.99692105  1.0
  C  C47  1  0.50428279  0.00311223  0.23538456  1.0
  C  C48  1  0.49447725  0.23055642  0.99832426  1.0
  C  C49  1  0.50603594  0.00176233  0.76943621  1.0
  C  C50  1  0.73587590  0.00162532  0.99728924  1.0
  C  C51  1  0.26637262  0.76423996  0.76889128  1.0
  C  C52  1  0.26451237  0.00263165  0.99824347  1.0
  C  C53  1  0.73431450  0.23114733  0.23584824  1.0
  C  C54  1  0.73455908  0.00260255  0.23510289  1.0
  C  C55  1  0.73465927  0.23015677  0.99760197  1.0
  C  C56  1  0.26577036  0.00240511  0.76994834  1.0
  C  C57  1  0.26597184  0.76498647  0.99749382  1.0
  C  C58  1  0.49526796  0.30838182  0.99855900  1.0
  C  C59  1  0.49646457  0.68730655  0.99729333  1.0
  C  C60  1  0.49642337  0.34640756  0.06145091  1.0
  C  C61  1  0.49894564  0.42018910  0.06450350  1.0
  C  C62  1  0.49757132  0.65038803  0.93553092  1.0
  C  C63  1  0.49962855  0.57886084  0.93475328  1.0
  C  C64  1  0.49739778  0.65066093  0.05963896  1.0
  C  C65  1  0.49886393  0.57942466  0.05825851  1.0
  C  C66  1  0.49700027  0.34635453  0.93754441  1.0
  C  C67  1  0.49904195  0.41931617  0.94067095  1.0
  C  C68  1  0.49962308  0.46088187  0.00248573  1.0
  C  C69  1  0.49978735  0.53859864  0.99718678  1.0
  C  C70  1  0.50368770  0.00265872  0.31250808  1.0
  C  C71  1  0.50502628  0.00144413  0.69150357  1.0
  C  C72  1  0.50253442  0.06441458  0.34938664  1.0
  C  C73  1  0.50026096  0.06510491  0.42080124  1.0
  C  C74  1  0.50378840  0.93852981  0.65340811  1.0
  C  C75  1  0.50099122  0.93536517  0.57949040  1.0
  C  C76  1  0.50308106  0.06236454  0.65344130  1.0
  C  C77  1  0.50074831  0.05911927  0.58033881  1.0
  C  C78  1  0.50252734  0.94021250  0.34904951  1.0
  C  C79  1  0.50082123  0.94149571  0.42016502  1.0
  C  C80  1  0.49993165  0.00258361  0.46099437  1.0
  C  C81  1  0.50013113  0.99729552  0.53872959  1.0
  C  C82  1  0.81192510  0.30819587  0.99806099  1.0
  C  C83  1  0.18860703  0.68773080  0.99771551  1.0
  C  C84  1  0.78493143  0.34474096  0.93631402  1.0
  C  C85  1  0.85483981  0.41868928  0.93534153  1.0
  C  C86  1  0.21550569  0.65236139  0.06065044  1.0
  C  C87  1  0.14545683  0.58083966  0.06400024  1.0
  C  C88  1  0.08819181  0.64951197  0.93679355  1.0
  C  C89  1  0.01900289  0.57830576  0.94021107  1.0
  C  C90  1  0.91232649  0.34795775  0.06042867  1.0
  C  C91  1  0.98136444  0.42112660  0.05891661  1.0
  C  C92  1  0.95895088  0.46111604  0.99755203  1.0
  C  C93  1  0.04134482  0.53901815  0.00230695  1.0
  C  C94  1  0.81185054  0.00245544  0.31249119  1.0
  C  C95  1  0.18844640  0.00200167  0.69200996  1.0
  C  C96  1  0.78488309  0.93954202  0.34786553  1.0
  C  C97  1  0.85487767  0.93621826  0.41947126  1.0
  C  C98  1  0.21542058  0.06377586  0.65549560  1.0
  C  C99  1  0.14549281  0.06482301  0.58163728  1.0
  C  C100  1  0.08804652  0.93969062  0.65232832  1.0
  C  C101  1  0.01897840  0.94126844  0.57923816  1.0
  C  C102  1  0.91227887  0.06342897  0.35083376  1.0
  C  C103  1  0.98140164  0.06003333  0.42211968  1.0
  C  C104  1  0.95899482  0.99791525  0.46136586  1.0
  C  C105  1  0.04138384  0.00265040  0.53926189  1.0
  C  C106  1  0.21204250  0.06452854  0.06184731  1.0
  C  C107  1  0.13903284  0.06457937  0.06316237  1.0
  C  C108  1  0.16421144  0.12788920  0.12746614  1.0
  C  C109  1  0.08644861  0.93842993  0.93561578  1.0
  C  C110  1  0.01127812  0.93617049  0.93467934  1.0
  C  C111  1  0.90767201  0.87220803  0.87170251  1.0
  C  C112  1  0.78820579  0.93797214  0.93524705  1.0
  C  C113  1  0.86119293  0.93664156  0.93515418  1.0
  C  C114  1  0.83601280  0.87235815  0.87181748  1.0
  C  C115  1  0.91384578  0.06414697  0.06140574  1.0
  C  C116  1  0.98896731  0.06506012  0.06361756  1.0
  C  C117  1  0.09256140  0.12802268  0.12760456  1.0
  C  C118  1  0.18582206  0.00214205  0.99847417  1.0
  C  C119  1  0.03713359  0.00018839  0.99892197  1.0
  C  C120  1  0.81447563  0.00132074  0.99769346  1.0
  C  C121  1  0.96308950  0.00083369  0.99956146  1.0
  C  C122  1  0.81167611  0.30879733  0.31302587  1.0
  C  C123  1  0.18900946  0.68704487  0.69126527  1.0
  C  C124  1  0.91143824  0.34597676  0.34915709  1.0
  C  C125  1  0.98586562  0.41948583  0.42054911  1.0
  C  C126  1  0.08925437  0.65092337  0.65411005  1.0
  C  C127  1  0.01482435  0.57952786  0.58061162  1.0
  C  C128  1  0.21349044  0.64970003  0.65267329  1.0
  C  C129  1  0.13931285  0.57863744  0.58000748  1.0
  C  C130  1  0.78719304  0.34740126  0.35036390  1.0
  C  C131  1  0.86136301  0.42006641  0.42143123  1.0
  C  C132  1  0.96412561  0.46085164  0.46155533  1.0
  C  C133  1  0.03655576  0.53851667  0.53922852  1.0
  Cl  Cl134  1  0.50194606  0.45227084  0.15211872  1.0
  Cl  Cl135  1  0.50243386  0.54963305  0.84999782  1.0
  Cl  Cl136  1  0.49746165  0.14984874  0.45003481  1.0
  Cl  Cl137  1  0.49792620  0.84771478  0.54736905  1.0
  Cl  Cl138  1  0.79649309  0.44871253  0.85095297  1.0
  Cl  Cl139  1  0.20372505  0.55367884  0.15131978  1.0
  Cl  Cl140  1  0.79657080  0.84894829  0.44666180  1.0
  Cl  Cl141  1  0.20386106  0.14927443  0.55167958  1.0
  Cl  Cl142  1  0.10250430  0.45035617  0.44858952  1.0
  Cl  Cl143  1  0.89819160  0.55149227  0.54974346  1.0
  Cl  Cl144  1  0.12700684  0.20610630  0.20686015  1.0
  Cl  Cl145  1  0.87319410  0.79292819  0.79360646  1.0
  O  O146  1  0.49699292  0.79483341  0.93830105  1.0
  O  O147  1  0.50339213  0.06172604  0.20508261  1.0
  O  O148  1  0.49473983  0.20081174  0.05750358  1.0
  O  O149  1  0.50596564  0.94267763  0.79926803  1.0
  O  O150  1  0.76415472  0.06042478  0.05651222  1.0
  O  O151  1  0.23707277  0.79501350  0.79900479  1.0
  O  O152  1  0.23628998  0.94337452  0.93951479  1.0
  O  O153  1  0.76361942  0.20107646  0.20503175  1.0
  O  O154  1  0.64455356  0.94328581  0.20404206  1.0
  O  O155  1  0.64460687  0.19972629  0.93899998  1.0
  O  O156  1  0.35580645  0.06103070  0.80036001  1.0
  O  O157  1  0.35596624  0.79601189  0.05682499  1.0
  O  O158  1  0.76410182  0.20043169  0.05667167  1.0
  O  O159  1  0.23637000  0.94326154  0.79960986  1.0
  O  O160  1  0.23658691  0.79521068  0.93890747  1.0
  O  O161  1  0.76399153  0.06109650  0.20480247  1.0
  O  O162  1  0.64616445  0.94234634  0.93855718  1.0
  O  O163  1  0.64433435  0.20132640  0.20544231  1.0
  O  O164  1  0.35420975  0.06142699  0.05748821  1.0
  O  O165  1  0.35635331  0.79470056  0.79864044  1.0
  O  O166  1  0.50506678  0.06049745  0.79966069  1.0
  O  O167  1  0.49663799  0.79550651  0.05640000  1.0
  O  O168  1  0.50392156  0.94370885  0.20453542  1.0
  O  O169  1  0.49538981  0.20032385  0.93955854  1.0
  O  O170  1  0.39646478  0.94797698  0.84492526  1.0
  O  O171  1  0.60409274  0.15509504  0.05207193  1.0
  O  O172  1  0.39583514  0.94875788  0.05175751  1.0
  O  O173  1  0.60470981  0.94826873  0.05127718  1.0
  O  O174  1  0.57684053  0.03847622  0.11430666  1.0
  O  O175  1  0.42371419  0.88570786  0.96156342  1.0
  O  O176  1  0.42335052  0.03799790  0.96237327  1.0
  O  O177  1  0.57715572  0.03764744  0.96203246  1.0
