# generated using pymatgen
data_Zn2H20C31(NO4)2
_symmetry_space_group_name_H-M   'P 1'
_cell_length_a   9.85416544
_cell_length_b   10.89201146
_cell_length_c   11.03603231
_cell_angle_alpha   88.36371444
_cell_angle_beta   89.75131193
_cell_angle_gamma   89.03379113
_symmetry_Int_Tables_number   1
_chemical_formula_structural   Zn2H20C31(NO4)2
_chemical_formula_sum   'Zn2 H20 C31 N2 O8'
_cell_volume   1183.85573535
_cell_formula_units_Z   1
loop_
 _symmetry_equiv_pos_site_id
 _symmetry_equiv_pos_as_xyz
  1  'x, y, z'
loop_
 _atom_site_type_symbol
 _atom_site_label
 _atom_site_symmetry_multiplicity
 _atom_site_fract_x
 _atom_site_fract_y
 _atom_site_fract_z
 _atom_site_occupancy
  Zn  Zn0  1  0.35386882  0.50020881  0.50018567  1.0
  Zn  Zn1  1  0.64452271  0.50216549  0.49991373  1.0
  H  H2  1  0.61009989  0.91221429  0.67721635  1.0
  H  H3  1  0.44190243  0.93077951  0.09821951  1.0
  H  H4  1  0.46791143  0.73670142  0.21827995  1.0
  H  H5  1  0.52175691  0.31241040  0.12020931  1.0
  H  H6  1  0.86923023  0.62793288  0.37652610  1.0
  H  H7  1  0.74750675  0.33215273  0.66538795  1.0
  H  H8  1  0.87548610  0.18830073  0.80291386  1.0
  H  H9  1  0.12855926  0.18641152  0.80225669  1.0
  H  H10  1  0.25438357  0.32838010  0.66420281  1.0
  H  H11  1  0.12692917  0.62625397  0.37586994  1.0
  H  H12  1  0.38080905  0.07619398  0.67424176  1.0
  H  H13  1  0.26347119  0.93479245  0.49004553  1.0
  H  H14  1  0.39121857  0.09068931  0.31332561  1.0
  H  H15  1  0.62044536  0.92627454  0.31580074  1.0
  H  H16  1  0.73794718  0.06804705  0.50065560  1.0
  H  H17  1  0.43942940  0.92788700  0.87154166  1.0
  H  H18  1  0.52263615  0.19627460  0.94368736  1.0
  H  H19  1  0.43064745  0.26022068  0.81799673  1.0
  H  H20  1  0.60936047  0.26770445  0.81969960  1.0
  H  H21  1  0.46282723  0.73177400  0.76642035  1.0
  C  C22  1  0.49600776  0.50366606  0.73752697  1.0
  C  C23  1  0.56759259  0.96121654  0.39548740  1.0
  C  C24  1  0.63296716  0.03712908  0.49806936  1.0
  C  C25  1  0.50646018  0.12536678  0.49632615  1.0
  C  C26  1  0.46534945  0.73252834  0.86517883  1.0
  C  C27  1  0.45171518  0.84202925  0.92410021  1.0
  C  C28  1  0.45312470  0.84369108  0.05234830  1.0
  C  C29  1  0.46788603  0.73554961  0.11944472  1.0
  C  C30  1  0.48221395  0.62114640  0.06151568  1.0
  C  C31  1  0.48123909  0.61938100  0.93162758  1.0
  C  C32  1  0.49523858  0.50482984  0.87351731  1.0
  C  C33  1  0.50451027  0.26155817  0.49782535  1.0
  C  C34  1  0.50815388  0.39475592  0.93948751  1.0
  C  C35  1  0.51036526  0.39843528  0.06754407  1.0
  C  C36  1  0.49799981  0.50765604  0.12744177  1.0
  C  C37  1  0.85756912  0.33069283  0.66632603  1.0
  C  C38  1  0.92975063  0.25118104  0.74198178  1.0
  C  C39  1  0.07334198  0.25007385  0.74151781  1.0
  C  C40  1  0.14431017  0.32843260  0.66542036  1.0
  C  C41  1  0.07318811  0.41125718  0.58638422  1.0
  C  C42  1  0.92723142  0.41228948  0.58675682  1.0
  C  C43  1  0.92701019  0.56585085  0.43690127  1.0
  C  C44  1  0.49913187  0.50606764  0.26359344  1.0
  C  C45  1  0.07029041  0.56498439  0.43662638  1.0
  C  C46  1  0.49621828  0.74045950  0.49389368  1.0
  C  C47  1  0.43396257  0.04112925  0.59465381  1.0
  C  C48  1  0.56182494  0.95359686  0.59642530  1.0
  C  C49  1  0.49503689  0.87695758  0.49361729  1.0
  C  C50  1  0.36854837  0.96535260  0.49218795  1.0
  C  C51  1  0.43973989  0.04890841  0.39387479  1.0
  C  C52  1  0.51832358  0.27333643  0.87742459  1.0
  N  N53  1  0.85716201  0.49157333  0.51015523  1.0
  N  N54  1  0.14161508  0.48991313  0.50956342  1.0
  O  O55  1  0.38144297  0.49930189  0.68556120  1.0
  O  O56  1  0.61126721  0.50609015  0.68558266  1.0
  O  O57  1  0.38772973  0.31370507  0.49655179  1.0
  O  O58  1  0.61802947  0.31541964  0.50136628  1.0
  O  O59  1  0.38358210  0.50855508  0.31555473  1.0
  O  O60  1  0.61475080  0.50200587  0.31436482  1.0
  O  O61  1  0.38192022  0.68723801  0.49827142  1.0
  O  O62  1  0.61321937  0.68831495  0.49088531  1.0
