# generated using pymatgen
data_Al6H39C84N4Cl9O28
_symmetry_space_group_name_H-M   'P 1'
_cell_length_a   13.01343914
_cell_length_b   13.03334646
_cell_length_c   27.69121268
_cell_angle_alpha   89.78382436
_cell_angle_beta   89.81743226
_cell_angle_gamma   60.76636937
_symmetry_Int_Tables_number   1
_chemical_formula_structural   Al6H39C84N4Cl9O28
_chemical_formula_sum   'Al6 H39 C84 N4 Cl9 O28'
_cell_volume   4098.44683759
_cell_formula_units_Z   1
loop_
 _symmetry_equiv_pos_site_id
 _symmetry_equiv_pos_as_xyz
  1  'x, y, z'
loop_
 _atom_site_type_symbol
 _atom_site_label
 _atom_site_symmetry_multiplicity
 _atom_site_fract_x
 _atom_site_fract_y
 _atom_site_fract_z
 _atom_site_occupancy
  Al  Al0  1  0.58581582  0.59650192  0.50498249  1.0
  Al  Al1  1  0.58593934  0.35107605  0.50052029  1.0
  Al  Al2  1  0.35186859  0.57380477  0.49886194  1.0
  Al  Al3  1  0.06796660  0.08803043  0.01698475  1.0
  Al  Al4  1  0.32119122  0.07142857  0.01316515  1.0
  Al  Al5  1  0.10825266  0.31090447  0.01657886  1.0
  H  H6  1  0.47743161  0.12563531  0.77724766  1.0
  H  H7  1  0.16789985  0.40924362  0.13481115  1.0
  H  H8  1  0.44839395  0.42706854  0.26522461  1.0
  H  H9  1  0.29795616  0.20983015  0.30886657  1.0
  H  H10  1  0.49152160  0.82770909  0.39356781  1.0
  H  H11  1  0.53617667  0.29403242  0.73915982  1.0
  H  H12  1  0.13269366  0.00672157  0.24539575  1.0
  H  H13  1  0.10278019  0.04056975  0.15662646  1.0
  H  H14  1  0.19406796  0.81090549  0.28684467  1.0
  H  H15  1  0.21281841  0.74512989  0.37287282  1.0
  H  H16  1  0.79360911  0.21569678  0.21754851  1.0
  H  H17  1  0.19949788  0.04392039  0.77678163  1.0
  H  H18  1  0.85108496  0.19559620  0.13075140  1.0
  H  H19  1  0.81763699  0.51611691  0.29122632  1.0
  H  H20  1  0.94780465  0.43937252  0.23912023  1.0
  H  H21  1  0.37561290  0.46369981  0.80434042  1.0
  H  H22  1  0.99338858  0.42743131  0.15132188  1.0
  H  H23  1  0.84392535  0.17276172  0.29568061  1.0
  H  H24  1  0.78218012  0.20752509  0.38157587  1.0
  H  H25  1  0.13584713  0.36743602  0.77272630  1.0
  H  H26  1  0.21800458  0.73095586  0.79825512  1.0
  H  H27  1  0.11002256  0.91169785  0.72790369  1.0
  H  H28  1  0.93180300  0.46959347  0.77290860  1.0
  H  H29  1  0.60190358  0.72497086  0.76992891  1.0
  H  H30  1  0.55661111  0.70582834  0.82444899  1.0
  H  H31  1  0.16486529  0.46631322  0.26383081  1.0
  H  H32  1  0.08697967  0.50928255  0.21097718  1.0
  H  H33  1  0.53496687  0.71997347  0.25671278  1.0
  H  H34  1  0.56962843  0.68027777  0.19864997  1.0
  H  H35  1  0.57573822  0.79573720  0.14512832  1.0
  H  H36  1  0.48808931  0.84611504  0.09511172  1.0
  H  H37  1  0.02999601  0.26778612  0.71209686  1.0
  H  H38  1  0.70752342  0.53981336  0.73151012  1.0
  H  H39  1  0.66355862  0.41364724  0.80500133  1.0
  H  H40  1  0.76170615  0.21180495  0.74437383  1.0
  H  H41  1  0.98543409  0.14046045  0.78564901  1.0
  H  H42  1  0.29679339  0.19658181  0.70760269  1.0
  H  H43  1  0.67604355  0.69786792  0.53813146  1.0
  H  H44  1  0.97820468  0.98117964  0.98957403  1.0
  C  C45  1  0.71381619  0.38704333  0.57178651  1.0
  C  C46  1  0.36063698  0.36119078  0.65733381  1.0
  C  C47  1  0.19918015  0.87712423  0.74199982  1.0
  C  C48  1  0.39968400  0.38978719  0.56563050  1.0
  C  C49  1  0.25904013  0.77634566  0.78019007  1.0
  C  C50  1  0.29750284  0.89190560  0.90058897  1.0
  C  C51  1  0.33551689  0.76513922  0.61706064  1.0
  C  C52  1  0.24840702  0.95039599  0.76803965  1.0
  C  C53  1  0.30877676  0.84923404  0.80741459  1.0
  C  C54  1  0.36277259  0.88956800  0.73664432  1.0
  C  C55  1  0.31240375  0.81743993  0.70913962  1.0
  C  C56  1  0.37423406  0.36939874  0.61412050  1.0
  C  C57  1  0.42457694  0.79008533  0.77549855  1.0
  C  C58  1  0.37315781  0.71676771  0.74867439  1.0
  C  C59  1  0.30396680  0.86998580  0.85760152  1.0
  C  C60  1  0.37245839  0.71149927  0.57035034  1.0
  C  C61  1  0.32026481  0.79419556  0.65930492  1.0
  C  C62  1  0.94919092  0.30002360  0.73343293  1.0
  C  C63  1  0.89427822  0.41199544  0.76622657  1.0
  C  C64  1  0.91650312  0.32612417  0.89997112  1.0
  C  C65  1  0.76847339  0.35383737  0.61846197  1.0
  C  C66  1  0.92393794  0.22919289  0.77298588  1.0
  C  C67  1  0.22532149  0.34994146  0.76511180  1.0
  C  C68  1  0.87003791  0.34106805  0.80702392  1.0
  C  C69  1  0.79949681  0.26910190  0.75122140  1.0
  C  C70  1  0.82367998  0.34001020  0.71040303  1.0
  C  C71  1  0.74463588  0.38102400  0.78389659  1.0
  C  C72  1  0.71838849  0.39683663  0.43502115  1.0
  C  C73  1  0.76992290  0.45171565  0.74440530  1.0
  C  C74  1  0.89348389  0.33735588  0.85697965  1.0
  C  C75  1  0.79731261  0.34356706  0.66078012  1.0
  C  C76  1  0.39313029  0.36241929  0.37904045  1.0
  C  C77  1  0.42971999  0.41041611  0.34161839  1.0
  C  C78  1  0.32609254  0.31106945  0.80440294  1.0
  C  C79  1  0.41884844  0.38855794  0.29326849  1.0
  C  C80  1  0.37158320  0.31600154  0.28105538  1.0
  C  C81  1  0.33379457  0.26753090  0.31764430  1.0
  C  C82  1  0.34521263  0.29078279  0.36607278  1.0
  C  C83  1  0.25611982  0.37236134  0.20394568  1.0
  C  C84  1  0.40917311  0.38929555  0.43052136  1.0
  C  C85  1  0.24787189  0.35266025  0.15480385  1.0
  C  C86  1  0.44525305  0.18456854  0.15391736  1.0
  C  C87  1  0.45345574  0.20436041  0.20342397  1.0
  C  C88  1  0.36033019  0.29502459  0.22898013  1.0
  C  C89  1  0.25809446  0.44186131  0.74452896  1.0
  C  C90  1  0.33883305  0.25942277  0.12968399  1.0
  C  C91  1  0.35467805  0.78066490  0.38782448  1.0
  C  C92  1  0.42510246  0.82617154  0.37020361  1.0
  C  C93  1  0.41055351  0.86733320  0.32282224  1.0
  C  C94  1  0.33058962  0.85801587  0.29117170  1.0
  C  C95  1  0.25708679  0.81715073  0.31085884  1.0
  C  C96  1  0.38332700  0.71994191  0.43529585  1.0
  C  C97  1  0.26719035  0.78042895  0.35852690  1.0
  C  C98  1  0.41615154  0.83227046  0.20757250  1.0
  C  C99  1  0.40138974  0.86169240  0.15745856  1.0
  C  C100  1  0.34777201  0.34754967  0.70728153  1.0
  C  C101  1  0.19004111  0.98410075  0.17146060  1.0
  C  C102  1  0.20678625  0.96408144  0.22046316  1.0
  C  C103  1  0.31976842  0.88743297  0.23925356  1.0
  C  C104  1  0.28672709  0.93445416  0.13935068  1.0
  C  C105  1  0.77006436  0.37695803  0.38566667  1.0
  C  C106  1  0.78343784  0.46306176  0.35943504  1.0
  C  C107  1  0.81373807  0.44530396  0.31064553  1.0
  C  C108  1  0.31433342  0.25540058  0.72970952  1.0
  C  C109  1  0.83502353  0.34247987  0.28648648  1.0
  C  C110  1  0.82569441  0.25498638  0.31296060  1.0
  C  C111  1  0.35879686  0.40398786  0.78253359  1.0
  C  C112  1  0.79325207  0.27319853  0.36125272  1.0
  C  C113  1  0.83925432  0.26096558  0.20357487  1.0
  C  C114  1  0.86898825  0.25098175  0.15483596  1.0
  C  C115  1  0.94931126  0.38203021  0.16647225  1.0
  C  C116  1  0.92228688  0.38940545  0.21522848  1.0
  C  C117  1  0.86583042  0.32997381  0.23472893  1.0
  C  C118  1  0.92375527  0.31212214  0.13589369  1.0
  C  C119  1  0.27645425  0.94266858  0.94809470  1.0
  C  C120  1  0.41526445  0.21654954  0.76757907  1.0
  C  C121  1  0.28195258  0.25855080  0.94578272  1.0
  C  C122  1  0.44751854  0.30916486  0.74702417  1.0
  C  C123  1  0.96438353  0.28947601  0.94766770  1.0
  C  C124  1  0.26166267  0.96654717  0.08800344  1.0
  C  C125  1  0.30924522  0.23962598  0.07969650  1.0
  C  C126  1  0.96586485  0.29331384  0.08515703  1.0
  C  C127  1  0.30569038  0.28153934  0.89743179  1.0
  C  C128  1  0.31495921  0.29514640  0.85434123  1.0
  N  N129  1  0.53539729  0.75818354  0.79462450  1.0
  N  N130  1  0.16659981  0.46769629  0.22726540  1.0
  N  N131  1  0.52932536  0.74867004  0.22214812  1.0
  N  N132  1  0.50053648  0.80915327  0.12854590  1.0
  Cl  Cl133  1  0.43358060  0.95581462  0.70756558  1.0
  Cl  Cl134  1  0.49155267  0.49763641  0.35509253  1.0
  Cl  Cl135  1  0.58201035  0.11560027  0.23435808  1.0
  Cl  Cl136  1  0.56611141  0.07452805  0.12546365  1.0
  Cl  Cl137  1  0.29995201  0.22924949  0.41092529  1.0
  Cl  Cl138  1  0.49071303  0.93436404  0.30381294  1.0
  Cl  Cl139  1  0.76128015  0.59432605  0.38321176  1.0
  Cl  Cl140  1  0.15502399  0.58622028  0.72969794  1.0
  Cl  Cl141  1  0.45709248  0.56917357  0.73374414  1.0
  O  O142  1  0.47349681  0.69006260  0.55658479  1.0
  O  O143  1  0.18778732  0.33897560  0.96558025  1.0
  O  O144  1  0.98315822  0.36155313  0.97307459  1.0
  O  O145  1  0.68116410  0.49110532  0.55831389  1.0
  O  O146  1  0.96428930  0.21159152  0.06155675  1.0
  O  O147  1  0.15738352  0.00465699  0.07332286  1.0
  O  O148  1  0.34658291  0.95794896  0.05994665  1.0
  O  O149  1  0.37257929  0.13924997  0.06006524  1.0
  O  O150  1  0.21608278  0.32198320  0.06036108  1.0
  O  O151  1  0.00752227  0.35937229  0.06914168  1.0
  O  O152  1  0.16708713  0.15768506  0.01451806  1.0
  O  O153  1  0.50410387  0.31645103  0.45149494  1.0
  O  O154  1  0.69875685  0.30973427  0.54848889  1.0
  O  O155  1  0.50037317  0.31682490  0.54815577  1.0
  O  O156  1  0.32177831  0.48259104  0.54429445  1.0
  O  O157  1  0.30143963  0.68595297  0.54780555  1.0
  O  O158  1  0.48035347  0.69635878  0.45439910  1.0
  O  O159  1  0.69138933  0.49218944  0.45600638  1.0
  O  O160  1  0.69845903  0.31579826  0.45252568  1.0
  O  O161  1  0.33048025  0.48650310  0.44787352  1.0
  O  O162  1  0.30935123  0.68985513  0.45259858  1.0
  O  O163  1  0.50628374  0.50567637  0.50164775  1.0
  O  O164  1  0.98827398  0.18663541  0.95980362  1.0
  O  O165  1  0.17977721  0.96933472  0.96833179  1.0
  O  O166  1  0.35833061  0.96192744  0.96465522  1.0
  O  O167  1  0.35231036  0.15891153  0.96443940  1.0
  O  O168  1  0.65897430  0.67932109  0.50641656  1.0
  O  O169  1  0.97854250  0.02226639  0.01850329  1.0
