# generated using pymatgen
data_Al3H10C33O14
_symmetry_space_group_name_H-M   'P 1'
_cell_length_a   12.74269346
_cell_length_b   12.76016197
_cell_length_c   26.87141002
_cell_angle_alpha   83.03636387
_cell_angle_beta   83.06032373
_cell_angle_gamma   62.53395669
_symmetry_Int_Tables_number   1
_chemical_formula_structural   Al3H10C33O14
_chemical_formula_sum   'Al6 H20 C66 O28'
_cell_volume   3837.71423447
_cell_formula_units_Z   2
loop_
 _symmetry_equiv_pos_site_id
 _symmetry_equiv_pos_as_xyz
  1  'x, y, z'
loop_
 _atom_site_type_symbol
 _atom_site_label
 _atom_site_symmetry_multiplicity
 _atom_site_fract_x
 _atom_site_fract_y
 _atom_site_fract_z
 _atom_site_occupancy
  Al  Al0  1  0.59574912  0.59189631  0.48973273  1.0
  Al  Al1  1  0.57624400  0.34754567  0.50407971  1.0
  Al  Al2  1  0.34974810  0.57538793  0.50239480  1.0
  Al  Al3  1  0.06824415  0.07116068  0.02133251  1.0
  Al  Al4  1  0.31567532  0.08532664  0.00438923  1.0
  Al  Al5  1  0.09002730  0.31384572  0.00679762  1.0
  H  H6  1  0.16603964  0.79333401  0.79863086  1.0
  H  H7  1  0.85553926  0.14305512  0.73789512  1.0
  H  H8  1  0.03146634  0.18831302  0.77297781  1.0
  H  H9  1  0.16302375  0.49674935  0.22414234  1.0
  H  H10  1  0.16314115  0.33378793  0.30584739  1.0
  H  H11  1  0.35831560  0.50403969  0.26122173  1.0
  H  H12  1  0.51616989  0.31339631  0.20310045  1.0
  H  H13  1  0.51623607  0.15055496  0.28475856  1.0
  H  H14  1  0.32089612  0.14326926  0.24772444  1.0
  H  H15  1  0.13408410  0.96790987  0.71745272  1.0
  H  H16  1  0.36854218  0.62922728  0.74385879  1.0
  H  H17  1  0.51313631  0.70140671  0.78905891  1.0
  H  H18  1  0.48129046  0.87585955  0.70774889  1.0
  H  H19  1  0.27870861  0.04012476  0.76260284  1.0
  H  H20  1  0.97332576  0.38607538  0.70108323  1.0
  H  H21  1  0.62884600  0.48811348  0.73819477  1.0
  H  H22  1  0.68672377  0.29045448  0.81013537  1.0
  H  H23  1  0.80464892  0.53327103  0.77325572  1.0
  H  H24  1  0.72094300  0.66922648  0.44925895  1.0
  H  H25  1  0.98918038  0.94686946  0.00546238  1.0
  C  C26  1  0.71414361  0.38385001  0.56458655  1.0
  C  C27  1  0.33343785  0.34258510  0.73132483  1.0
  C  C28  1  0.34788984  0.35717275  0.68107094  1.0
  C  C29  1  0.36222288  0.37067989  0.63515807  1.0
  C  C30  1  0.21801507  0.90893336  0.73388180  1.0
  C  C31  1  0.23588708  0.81162762  0.77799932  1.0
  C  C32  1  0.29894739  0.89908212  0.89729953  1.0
  C  C33  1  0.35558288  0.76809382  0.60911024  1.0
  C  C34  1  0.29867629  0.94876043  0.75770138  1.0
  C  C35  1  0.31625776  0.85163898  0.80325479  1.0
  C  C36  1  0.41144791  0.85773480  0.72847145  1.0
  C  C37  1  0.38968505  0.39433213  0.58266220  1.0
  C  C38  1  0.33108609  0.81771708  0.70321883  1.0
  C  C39  1  0.42929968  0.76039067  0.77255666  1.0
  C  C40  1  0.34862599  0.72059142  0.74874843  1.0
  C  C41  1  0.30797765  0.87450421  0.85403221  1.0
  C  C42  1  0.34143780  0.79422744  0.65240393  1.0
  C  C43  1  0.91000290  0.36486720  0.72584811  1.0
  C  C44  1  0.81582427  0.44669543  0.76504496  1.0
  C  C45  1  0.89706397  0.31376326  0.89927039  1.0
  C  C46  1  0.76442042  0.35437853  0.61229799  1.0
  C  C47  1  0.94189880  0.25470380  0.76449821  1.0
  C  C48  1  0.38635808  0.71602354  0.56182776  1.0
  C  C49  1  0.84798750  0.33683641  0.80510621  1.0
  C  C50  1  0.84442011  0.22952378  0.74622173  1.0
  C  C51  1  0.81227380  0.33925026  0.70614497  1.0
  C  C52  1  0.75016467  0.31143457  0.78534888  1.0
  C  C53  1  0.71835483  0.42157712  0.74668729  1.0
  C  C54  1  0.87142882  0.32827704  0.85584996  1.0
  C  C55  1  0.78920067  0.34521762  0.65554819  1.0
  C  C56  1  0.24134652  0.32928581  0.28249910  1.0
  C  C57  1  0.24148095  0.41999562  0.23793514  1.0
  C  C58  1  0.30765197  0.29146167  0.11095546  1.0
  C  C59  1  0.71433781  0.38565793  0.42278705  1.0
  C  C60  1  0.36805930  0.35968852  0.39790831  1.0
  C  C61  1  0.32937285  0.22348465  0.25120303  1.0
  C  C62  1  0.32880885  0.31446637  0.20488219  1.0
  C  C63  1  0.43774407  0.22734209  0.27101380  1.0
  C  C64  1  0.35037990  0.33295003  0.30404706  1.0
  C  C65  1  0.43790074  0.31803620  0.22643274  1.0
  C  C66  1  0.34984780  0.42382967  0.25773004  1.0
  C  C67  1  0.31847964  0.30233316  0.15434287  1.0
  C  C68  1  0.35955206  0.34636816  0.35455487  1.0
  C  C69  1  0.30681247  0.90054639  0.13660194  1.0
  C  C70  1  0.39025917  0.38621143  0.44453010  1.0
  C  C71  1  0.31979459  0.87245727  0.18155752  1.0
  C  C72  1  0.33201848  0.84379258  0.23084264  1.0
  C  C73  1  0.34109049  0.81931559  0.27646380  1.0
  C  C74  1  0.35272295  0.78992823  0.32574436  1.0
  C  C75  1  0.36458066  0.76087206  0.37070476  1.0
  C  C76  1  0.90159056  0.30077240  0.13817990  1.0
  C  C77  1  0.87324602  0.31234080  0.18318856  1.0
  C  C78  1  0.84474534  0.32396139  0.23252663  1.0
  C  C79  1  0.82095751  0.33345146  0.27814755  1.0
  C  C80  1  0.79288426  0.34554431  0.32748039  1.0
  C  C81  1  0.39232611  0.70915483  0.42090534  1.0
  C  C82  1  0.76528804  0.35779128  0.37250736  1.0
  C  C83  1  0.27404039  0.94843439  0.94500638  1.0
  C  C84  1  0.27070624  0.27252746  0.92625436  1.0
  C  C85  1  0.94842875  0.28046951  0.94680803  1.0
  C  C86  1  0.27602919  0.95141484  0.08655967  1.0
  C  C87  1  0.28171363  0.26866703  0.06433065  1.0
  C  C88  1  0.95308020  0.27461435  0.08784385  1.0
  C  C89  1  0.29538026  0.29928774  0.87380883  1.0
  C  C90  1  0.30813667  0.31432520  0.82789776  1.0
  C  C91  1  0.32162038  0.32960383  0.77763501  1.0
  O  O92  1  0.48809395  0.69261426  0.54091308  1.0
  O  O93  1  0.48594029  0.31196396  0.46471365  1.0
  O  O94  1  0.31598519  0.48510379  0.46214704  1.0
  O  O95  1  0.31280277  0.68637650  0.44731273  1.0
  O  O96  1  0.50616318  0.50376673  0.49848598  1.0
  O  O97  1  0.97388105  0.17707571  0.96606974  1.0
  O  O98  1  0.17521407  0.96894290  0.96851171  1.0
  O  O99  1  0.35355371  0.97242510  0.95916948  1.0
  O  O100  1  0.34569791  0.17470380  0.94645599  1.0
  O  O101  1  0.17332394  0.34646099  0.94723380  1.0
  O  O102  1  0.96892053  0.35801628  0.96515451  1.0
  O  O103  1  0.68922443  0.48610848  0.54415691  1.0
  O  O104  1  0.96902264  0.17776797  0.07326040  1.0
  O  O105  1  0.17291911  0.97693188  0.07591337  1.0
  O  O106  1  0.35547446  0.97009228  0.05791070  1.0
  O  O107  1  0.35402156  0.17098050  0.04524439  1.0
  O  O108  1  0.18478157  0.34489040  0.04559459  1.0
  O  O109  1  0.98225727  0.35147590  0.06311710  1.0
  O  O110  1  0.15931853  0.15770073  0.01059834  1.0
  O  O111  1  0.69413642  0.30478713  0.54727098  1.0
  O  O112  1  0.48843406  0.31931784  0.56312977  1.0
  O  O113  1  0.31565431  0.49058762  0.56102165  1.0
  O  O114  1  0.30828503  0.69295216  0.54555690  1.0
  O  O115  1  0.49285668  0.68686624  0.43380173  1.0
  O  O116  1  0.69677162  0.48417876  0.43627390  1.0
  O  O117  1  0.68713425  0.30876406  0.44871649  1.0
  O  O118  1  0.67734564  0.67212750  0.48152251  1.0
  O  O119  1  0.98556108  0.99202160  0.03258157  1.0
