# generated using pymatgen
data_ZnH4C7(NO2)4
_symmetry_space_group_name_H-M   'P 1'
_cell_length_a   7.94234736
_cell_length_b   8.99503438
_cell_length_c   14.08083679
_cell_angle_alpha   85.04798939
_cell_angle_beta   74.85303853
_cell_angle_gamma   85.35410399
_symmetry_Int_Tables_number   1
_chemical_formula_structural   ZnH4C7(NO2)4
_chemical_formula_sum   'Zn2 H8 C14 N8 O16'
_cell_volume   965.59801498
_cell_formula_units_Z   2
loop_
 _symmetry_equiv_pos_site_id
 _symmetry_equiv_pos_as_xyz
  1  'x, y, z'
loop_
 _atom_site_type_symbol
 _atom_site_label
 _atom_site_symmetry_multiplicity
 _atom_site_fract_x
 _atom_site_fract_y
 _atom_site_fract_z
 _atom_site_occupancy
  Zn  Zn0  1  0.69623472  0.50769722  0.47887936  1.0
  Zn  Zn1  1  0.30367054  0.49215354  0.52128236  1.0
  H  H2  1  0.86764008  0.30769113  0.56487548  1.0
  H  H3  1  0.94004831  0.20413902  0.70839360  1.0
  H  H4  1  0.90907006  0.39971650  0.72994270  1.0
  H  H5  1  0.12366558  0.31402722  0.68644280  1.0
  H  H6  1  0.13263624  0.69178175  0.43458149  1.0
  H  H7  1  0.06010310  0.79523461  0.29102252  1.0
  H  H8  1  0.87659326  0.68514314  0.31304111  1.0
  H  H9  1  0.09127599  0.59950908  0.26967696  1.0
  C  C10  1  0.45678566  0.78941602  0.48842192  1.0
  C  C11  1  0.54313012  0.21039986  0.51169058  1.0
  C  C12  1  0.53076662  0.48845067  0.31477752  1.0
  C  C13  1  0.46926449  0.51160879  0.68540748  1.0
  C  C14  1  0.45308183  0.50908118  0.79010779  1.0
  C  C15  1  0.54686627  0.49136355  0.21007631  1.0
  C  C16  1  0.43404066  0.49511213  0.97834039  1.0
  C  C17  1  0.56648623  0.50529252  0.02179615  1.0
  C  C18  1  0.55544536  0.49786482  0.12209174  1.0
  C  C19  1  0.44467199  0.50296903  0.87806995  1.0
  C  C20  1  0.43692673  0.95533665  0.49844397  1.0
  C  C21  1  0.56298976  0.04449137  0.50160312  1.0
  C  C22  1  0.98769462  0.31505287  0.68243321  1.0
  C  C23  1  0.01255454  0.68430539  0.31708706  1.0
  N  N24  1  0.04250271  0.46609975  0.52954161  1.0
  N  N25  1  0.95762138  0.53355074  0.47012072  1.0
  N  N26  1  0.74540165  0.52913560  0.95452031  1.0
  N  N27  1  0.25489182  0.47271929  0.04592612  1.0
  N  N28  1  0.25509261  0.01729871  0.50773807  1.0
  N  N29  1  0.74477017  0.98250973  0.49228611  1.0
  N  N30  1  0.97685589  0.34137309  0.58069226  1.0
  N  N31  1  0.02328383  0.65823118  0.41887534  1.0
  O  O32  1  0.61049903  0.73086771  0.47276799  1.0
  O  O33  1  0.38942280  0.26893240  0.52731403  1.0
  O  O34  1  0.31631452  0.72468369  0.49812457  1.0
  O  O35  1  0.68356181  0.27515070  0.50206967  1.0
  O  O36  1  0.67266464  0.48902209  0.34063988  1.0
  O  O37  1  0.32737463  0.51076576  0.65953634  1.0
  O  O38  1  0.37596018  0.48670041  0.36962354  1.0
  O  O39  1  0.62411246  0.51327700  0.63054903  1.0
  O  O40  1  0.78917465  0.65889692  0.94086995  1.0
  O  O41  1  0.83169541  0.41666937  0.92089111  1.0
  O  O42  1  0.21602923  0.34238375  0.06804821  1.0
  O  O43  1  0.16359978  0.58699925  0.07133363  1.0
  O  O44  1  0.15787551  0.01323046  0.59162220  1.0
  O  O45  1  0.21602942  0.05868003  0.43009917  1.0
  O  O46  1  0.84202412  0.98662677  0.40841561  1.0
  O  O47  1  0.78388089  0.94116251  0.56992024  1.0
