# generated using pymatgen
data_Zr6H23C52S10Br2N5O32
_symmetry_space_group_name_H-M   'P 1'
_cell_length_a   16.42713821
_cell_length_b   16.43409356
_cell_length_c   16.43534443
_cell_angle_alpha   119.70143939
_cell_angle_beta   91.30138863
_cell_angle_gamma   60.33622389
_symmetry_Int_Tables_number   1
_chemical_formula_structural   Zr6H23C52S10Br2N5O32
_chemical_formula_sum   'Zr6 H23 C52 S10 Br2 N5 O32'
_cell_volume   3200.11823152
_cell_formula_units_Z   1
loop_
 _symmetry_equiv_pos_site_id
 _symmetry_equiv_pos_as_xyz
  1  'x, y, z'
loop_
 _atom_site_type_symbol
 _atom_site_label
 _atom_site_symmetry_multiplicity
 _atom_site_fract_x
 _atom_site_fract_y
 _atom_site_fract_z
 _atom_site_occupancy
  Zr  Zr0  1  0.40238446  0.48534345  0.09778598  1.0
  Zr  Zr1  1  0.60086862  0.51128396  0.89891939  1.0
  Zr  Zr2  1  0.39315288  0.70884659  0.10650600  1.0
  Zr  Zr3  1  0.61032507  0.28711114  0.88938151  1.0
  Zr  Zr4  1  0.61085276  0.49879037  0.10745545  1.0
  Zr  Zr5  1  0.39224688  0.49850752  0.88910357  1.0
  H  H6  1  0.42380348  0.65504440  0.24795598  1.0
  H  H7  1  0.75117294  0.34311792  0.92043236  1.0
  H  H8  1  0.40956317  0.67358204  0.91919464  1.0
  H  H9  1  0.42222684  0.32255320  0.90617280  1.0
  H  H10  1  0.63949150  0.48603254  0.38754915  1.0
  H  H11  1  0.10124914  0.51024451  0.87300422  1.0
  H  H12  1  0.88126888  0.98711792  0.87524873  1.0
  H  H13  1  0.63834635  0.98808530  0.60390710  1.0
  H  H14  1  0.12794206  0.97322958  0.36347636  1.0
  H  H15  1  0.14876222  0.69341855  0.34467896  1.0
  H  H16  1  0.86768650  0.02353681  0.62533334  1.0
  H  H17  1  0.84843281  0.30323855  0.64548528  1.0
  H  H18  1  0.38964058  0.23418942  0.12605749  1.0
  H  H19  1  0.30348857  0.51144402  0.57187597  1.0
  H  H20  1  0.34259279  0.50177858  0.66797849  1.0
  H  H21  1  0.93644375  0.49339392  0.18846239  1.0
  H  H22  1  0.82831601  0.50747893  0.16056096  1.0
  H  H23  1  0.09087359  0.10337297  0.17938532  1.0
  H  H24  1  0.17961571  0.96955279  0.15167301  1.0
  H  H25  1  0.30284387  0.10387417  0.42713513  1.0
  H  H26  1  0.34514340  0.97059063  0.32287397  1.0
  H  H27  1  0.67640473  0.73845860  0.81264268  1.0
  H  H28  1  0.64499675  0.67707747  0.85666358  1.0
  C  C29  1  0.51498697  0.47947469  0.26192371  1.0
  C  C30  1  0.76542525  0.51807405  0.00992231  1.0
  C  C31  1  0.49686558  0.50356590  0.72737519  1.0
  C  C32  1  0.23152619  0.49259045  0.99194762  1.0
  C  C33  1  0.23389498  0.74743186  0.25957927  1.0
  C  C34  1  0.51357089  0.21751687  0.99389716  1.0
  C  C35  1  0.76321933  0.24931844  0.73064261  1.0
  C  C36  1  0.49486804  0.78207959  0.01260024  1.0
  C  C37  1  0.50554060  0.76865664  0.27125700  1.0
  C  C38  1  0.22105656  0.76750283  0.00114615  1.0
  C  C39  1  0.50566709  0.22855369  0.71856646  1.0
  C  C40  1  0.77419963  0.22790064  0.00106196  1.0
  C  C41  1  0.43628660  0.49158903  0.58015677  1.0
  C  C42  1  0.57734329  0.48539990  0.40772760  1.0
  C  C43  1  0.50177438  0.49591761  0.63619835  1.0
  C  C44  1  0.51343083  0.48116457  0.35195185  1.0
  C  C45  1  0.54983803  0.48916998  0.49087073  1.0
  C  C46  1  0.46522553  0.48778636  0.49667756  1.0
  C  C47  1  0.90945091  0.51263275  0.07397707  1.0
  C  C48  1  0.08153542  0.50815524  0.93431644  1.0
  C  C49  1  0.85257646  0.51903404  0.00936876  1.0
  C  C50  1  0.13887047  0.50008158  0.99641923  1.0
  C  C51  1  0.99781416  0.51292767  0.96208487  1.0
  C  C52  1  0.99301207  0.50889111  0.04529217  1.0
  C  C53  1  0.08575961  0.97271530  0.07003487  1.0
  C  C54  1  0.90715026  0.02262741  0.93664018  1.0
  C  C55  1  0.13254471  0.85562067  0.00253737  1.0
  C  C56  1  0.86089113  0.13790351  0.00257144  1.0
  C  C57  1  0.98898556  0.96180836  0.96057864  1.0
  C  C58  1  0.00339461  0.03223713  0.04468321  1.0
  C  C59  1  0.43860189  0.97400981  0.40466573  1.0
  C  C60  1  0.57540090  0.02367876  0.57972012  1.0
  C  C61  1  0.50822656  0.85694301  0.35542952  1.0
  C  C62  1  0.50701774  0.13886802  0.62875249  1.0
  C  C63  1  0.55128115  0.96297588  0.49797625  1.0
  C  C64  1  0.46468157  0.03345065  0.48635619  1.0
  C  C65  1  0.09955367  0.94259362  0.39264758  1.0
  C  C66  1  0.11071317  0.78434687  0.38236210  1.0
  C  C67  1  0.03019769  0.85779717  0.46334236  1.0
  C  C68  1  0.97964743  0.97725946  0.51348781  1.0
  C  C69  1  0.89654008  0.05405647  0.59643401  1.0
  C  C70  1  0.88604496  0.21230612  0.60733006  1.0
  C  C71  1  0.96692251  0.13882111  0.52673442  1.0
  C  C72  1  0.01691880  0.01939300  0.47601014  1.0
  C  C73  1  0.14547232  0.82770034  0.34681135  1.0
  C  C74  1  0.85060076  0.16894418  0.64221948  1.0
  C  C75  1  0.56776999  0.84758516  0.94357136  1.0
  C  C76  1  0.44759818  0.14948460  0.06666426  1.0
  C  C77  1  0.49966928  0.86759472  0.01320408  1.0
  C  C78  1  0.51354351  0.13030365  0.99779966  1.0
  C  C79  1  0.46661207  0.04715643  0.04772533  1.0
  C  C80  1  0.54720230  0.95208639  0.96479656  1.0
  S  S81  1  0.59631870  0.49449086  0.58718936  1.0
  S  S82  1  0.41993451  0.48112613  0.39962709  1.0
  S  S83  1  0.89994297  0.52194528  0.91718767  1.0
  S  S84  1  0.09128355  0.49932201  0.08937013  1.0
  S  S85  1  0.07578731  0.82072476  0.91104922  1.0
  S  S86  1  0.91597742  0.17305320  0.09461542  1.0
  S  S87  1  0.60334064  0.82207759  0.40832114  1.0
  S  S88  1  0.41345122  0.17414119  0.57534863  1.0
  S  S89  1  0.41423123  0.01088939  0.10241437  1.0
  S  S90  1  0.59972024  0.98822917  0.91036203  1.0
  Br  Br91  1  0.01277812  0.20105775  0.48272606  1.0
  Br  Br92  1  0.98617215  0.79565307  0.50913646  1.0
  N  N93  1  0.35876313  0.48818083  0.60122317  1.0
  N  N94  1  0.88684543  0.51191023  0.15242920  1.0
  N  N95  1  0.11330282  0.02237507  0.14949232  1.0
  N  N96  1  0.35936535  0.02378800  0.37709576  1.0
  N  N97  1  0.64324598  0.74483369  0.86848834  1.0
  O  O98  1  0.44671943  0.47630438  0.22410725  1.0
  O  O99  1  0.72581379  0.52087153  0.94218542  1.0
  O  O100  1  0.56214234  0.51141805  0.76912274  1.0
  O  O101  1  0.27128695  0.48563013  0.05817143  1.0
  O  O102  1  0.26473475  0.78867772  0.23000058  1.0
  O  O103  1  0.57932794  0.18672731  0.92554993  1.0
  O  O104  1  0.73359885  0.20810837  0.76146630  1.0
  O  O105  1  0.42665620  0.81095681  0.07783357  1.0
  O  O106  1  0.57414194  0.66539994  0.23676632  1.0
  O  O107  1  0.25726762  0.66448849  0.93076429  1.0
  O  O108  1  0.43469870  0.33050664  0.75330413  1.0
  O  O109  1  0.74184837  0.32998788  0.06996649  1.0
  O  O110  1  0.25895319  0.79941362  0.07122224  1.0
  O  O111  1  0.57517463  0.19657417  0.75554983  1.0
  O  O112  1  0.73908835  0.19605647  0.92982623  1.0
  O  O113  1  0.43221532  0.80027782  0.23678122  1.0
  O  O114  1  0.27270573  0.64278182  0.22245234  1.0
  O  O115  1  0.56112620  0.67901963  0.94282338  1.0
  O  O116  1  0.72601880  0.35389494  0.76926167  1.0
  O  O117  1  0.44481459  0.31908142  0.06045899  1.0
  O  O118  1  0.26525783  0.49255687  0.92254363  1.0
  O  O119  1  0.58229811  0.48341627  0.22985111  1.0
  O  O120  1  0.73388411  0.51204496  0.07706602  1.0
  O  O121  1  0.42681166  0.50332127  0.76163486  1.0
  O  O122  1  0.44539302  0.37190842  0.93145862  1.0
  O  O123  1  0.43463316  0.62406199  0.94215343  1.0
  O  O124  1  0.68020327  0.38647614  0.94236939  1.0
  O  O125  1  0.44579156  0.60966802  0.17692621  1.0
  O  O126  1  0.54283572  0.59139207  0.04778626  1.0
  O  O127  1  0.55107718  0.40524942  0.03967023  1.0
  O  O128  1  0.54255390  0.41569076  0.86648596  1.0
  O  O129  1  0.36969699  0.58035450  0.03922968  1.0
