# generated using pymatgen
data_AlH13C16O9
_symmetry_space_group_name_H-M   'P 1'
_cell_length_a   6.64251586
_cell_length_b   20.80393238
_cell_length_c   23.64781387
_cell_angle_alpha   89.94743911
_cell_angle_beta   90.01481347
_cell_angle_gamma   89.56842805
_symmetry_Int_Tables_number   1
_chemical_formula_structural   AlH13C16O9
_chemical_formula_sum   'Al4 H52 C64 O36'
_cell_volume   3267.80786468
_cell_formula_units_Z   4
loop_
 _symmetry_equiv_pos_site_id
 _symmetry_equiv_pos_as_xyz
  1  'x, y, z'
loop_
 _atom_site_type_symbol
 _atom_site_label
 _atom_site_symmetry_multiplicity
 _atom_site_fract_x
 _atom_site_fract_y
 _atom_site_fract_z
 _atom_site_occupancy
  Al  Al0  1  0.23696688  0.75048880  0.25128231  1.0
  Al  Al1  1  0.76589272  0.24815409  0.74827966  1.0
  Al  Al2  1  0.73720193  0.74755137  0.25144061  1.0
  Al  Al3  1  0.26533278  0.25071262  0.74826962  1.0
  H  H4  1  0.21893013  0.67111917  0.48595769  1.0
  H  H5  1  0.37715656  0.63917639  0.43097369  1.0
  H  H6  1  0.48610439  0.66369410  0.49666390  1.0
  H  H7  1  0.62355239  0.36256971  0.57072317  1.0
  H  H8  1  0.78328401  0.33155184  0.51561150  1.0
  H  H9  1  0.51627129  0.33846197  0.50470465  1.0
  H  H10  1  0.58899091  0.40711061  0.92724592  1.0
  H  H11  1  0.46908843  0.44444368  0.98712668  1.0
  H  H12  1  0.47589043  0.35826827  0.98084237  1.0
  H  H13  1  0.15855156  0.68355193  0.03565591  1.0
  H  H14  1  0.06509787  0.67900020  0.96439494  1.0
  H  H15  1  0.32297916  0.70014321  0.97748855  1.0
  H  H16  1  0.91065738  0.90454322  0.07426338  1.0
  H  H17  1  0.03291166  0.94278979  0.01544204  1.0
  H  H18  1  0.02802044  0.85650534  0.02050150  1.0
  H  H19  1  0.34366087  0.18477941  0.96443659  1.0
  H  H20  1  0.43768047  0.17907319  0.03562216  1.0
  H  H21  1  0.17982256  0.20176770  0.02281557  1.0
  H  H22  1  0.09733605  0.09666595  0.57434719  1.0
  H  H23  1  0.96998450  0.05705718  0.51709361  1.0
  H  H24  1  0.97624815  0.14342782  0.52035085  1.0
  H  H25  1  0.65924732  0.81363476  0.46415442  1.0
  H  H26  1  0.55447347  0.81952336  0.53414500  1.0
  H  H27  1  0.81337555  0.79616901  0.52455086  1.0
  H  H28  1  0.26630799  0.53908265  0.64038620  1.0
  H  H29  1  0.46033772  0.56460816  0.59224990  1.0
  H  H30  1  0.50342721  0.49729115  0.63862849  1.0
  H  H31  1  0.53560593  0.43833934  0.41084463  1.0
  H  H32  1  0.73367502  0.46126441  0.36303641  1.0
  H  H33  1  0.49960990  0.50478369  0.36303342  1.0
  H  H34  1  0.89929526  0.45611101  0.14858626  1.0
  H  H35  1  0.75104596  0.39991058  0.10834895  1.0
  H  H36  1  0.63122772  0.45402998  0.15747283  1.0
  H  H37  1  0.20209213  0.60344719  0.87622331  1.0
  H  H38  1  0.07090067  0.53804665  0.84277032  1.0
  H  H39  1  0.33517477  0.54890535  0.83049774  1.0
  H  H40  1  0.60151776  0.95749228  0.85212728  1.0
  H  H41  1  0.74879100  0.89957710  0.89162537  1.0
  H  H42  1  0.86924621  0.95317519  0.84257497  1.0
  H  H43  1  0.29744366  0.10322685  0.12458316  1.0
  H  H44  1  0.42714496  0.03640752  0.15737957  1.0
  H  H45  1  0.16269670  0.04857095  0.16929956  1.0
  H  H46  1  0.39416134  0.04319509  0.35169198  1.0
  H  H47  1  0.24511257  0.09944109  0.39241655  1.0
  H  H48  1  0.12576902  0.04596255  0.34308115  1.0
  H  H49  1  0.68820978  0.89887863  0.62776820  1.0
  H  H50  1  0.57070493  0.96949462  0.65775265  1.0
  H  H51  1  0.83276018  0.95329420  0.67026328  1.0
  H  H52  1  0.48296152  0.67021902  0.22724985  1.0
  H  H53  1  0.51878448  0.32788560  0.77321125  1.0
  H  H54  1  0.97933347  0.82951080  0.22952823  1.0
  H  H55  1  0.02248278  0.17116429  0.77356480  1.0
  C  C56  1  0.49370455  0.82489982  0.32711892  1.0
  C  C57  1  0.50996429  0.17488175  0.67126587  1.0
  C  C58  1  0.52044734  0.17150274  0.82537460  1.0
  C  C59  1  0.48099712  0.82606490  0.17380553  1.0
  C  C60  1  0.98462421  0.67138765  0.17454844  1.0
  C  C61  1  0.01765561  0.32642349  0.82607421  1.0
  C  C62  1  0.00677834  0.32523120  0.67205283  1.0
  C  C63  1  0.99756582  0.67533632  0.32883482  1.0
  C  C64  1  0.16384182  0.49221515  0.53819306  1.0
  C  C65  1  0.83651762  0.51043963  0.46412083  1.0
  C  C66  1  0.85934959  0.49845672  0.04163226  1.0
  C  C67  1  0.13246667  0.50908738  0.95110524  1.0
  C  C68  1  0.64474230  0.99826385  0.95891429  1.0
  C  C69  1  0.36875476  0.00964616  0.04871709  1.0
  C  C70  1  0.35629840  0.00051154  0.45842477  1.0
  C  C71  1  0.63253538  0.98935309  0.54828667  1.0
  C  C72  1  0.99531683  0.45036445  0.54038269  1.0
  C  C73  1  0.00498541  0.55231345  0.46199886  1.0
  C  C74  1  0.99361026  0.55131416  0.03899012  1.0
  C  C75  1  0.00252246  0.45574290  0.95475390  1.0
  C  C76  1  0.51028462  0.05170740  0.96131560  1.0
  C  C77  1  0.49950173  0.95585728  0.04538140  1.0
  C  C78  1  0.49009933  0.94686818  0.46121108  1.0
  C  C79  1  0.50281072  0.04336951  0.54448687  1.0
  C  C80  1  0.83092093  0.45874340  0.50239478  1.0
  C  C81  1  0.16928792  0.54394807  0.50001385  1.0
  C  C82  1  0.12804486  0.55726961  0.99264023  1.0
  C  C83  1  0.86505605  0.45054440  0.00022201  1.0
  C  C84  1  0.37425763  0.05802179  0.00733077  1.0
  C  C85  1  0.63859620  0.95028805  0.00029204  1.0
  C  C86  1  0.62547008  0.94050735  0.50745578  1.0
  C  C87  1  0.36305475  0.04878557  0.49946449  1.0
  C  C88  1  0.99626282  0.40491884  0.58464753  1.0
  C  C89  1  0.00487314  0.59743604  0.41749972  1.0
  C  C90  1  0.99440122  0.59426051  0.08510789  1.0
  C  C91  1  0.00730444  0.40899186  0.91159683  1.0
  C  C92  1  0.51073098  0.09478320  0.91520747  1.0
  C  C93  1  0.49321547  0.90890382  0.08840330  1.0
  C  C94  1  0.49059993  0.90362399  0.41536675  1.0
  C  C95  1  0.50928940  0.09073624  0.58702365  1.0
  C  C96  1  0.99624674  0.63324005  0.37672677  1.0
  C  C97  1  0.00654030  0.36862116  0.62505371  1.0
  C  C98  1  0.01127608  0.36999761  0.87324163  1.0
  C  C99  1  0.99201811  0.62903256  0.12653360  1.0
  C  C100  1  0.48758249  0.86975103  0.12665837  1.0
  C  C101  1  0.51454306  0.12952120  0.87371749  1.0
  C  C102  1  0.51187841  0.13058289  0.62467959  1.0
  C  C103  1  0.49028276  0.86826492  0.37433059  1.0
  C  C104  1  0.35380113  0.64200068  0.47678449  1.0
  C  C105  1  0.64767656  0.36020494  0.52492930  1.0
  C  C106  1  0.55793807  0.40281722  0.97275331  1.0
  C  C107  1  0.19665016  0.67082334  0.99192974  1.0
  C  C108  1  0.94440770  0.90107832  0.02884884  1.0
  C  C109  1  0.30584991  0.17187627  0.00813096  1.0
  C  C110  1  0.05988338  0.09896799  0.52911497  1.0
  C  C111  1  0.69058364  0.82641413  0.50825703  1.0
  C  C112  1  0.39125856  0.52305964  0.61305111  1.0
  C  C113  1  0.60854292  0.47883097  0.38953984  1.0
  C  C114  1  0.75443949  0.44826097  0.12704102  1.0
  C  C115  1  0.21427224  0.55324585  0.86183213  1.0
  C  C116  1  0.74674296  0.94816583  0.87327032  1.0
  C  C117  1  0.28440622  0.05281717  0.13825548  1.0
  C  C118  1  0.24934116  0.05125326  0.37339956  1.0
  C  C119  1  0.71033915  0.94961447  0.63938519  1.0
  O  O120  1  0.64824015  0.81376700  0.19816089  1.0
  O  O121  1  0.35236638  0.18452100  0.80170582  1.0
  O  O122  1  0.34017451  0.19910321  0.68474086  1.0
  O  O123  1  0.66274221  0.79909200  0.31506278  1.0
  O  O124  1  0.16605005  0.70039504  0.31583896  1.0
  O  O125  1  0.83786576  0.30082655  0.68556564  1.0
  O  O126  1  0.84973097  0.31329258  0.80279006  1.0
  O  O127  1  0.15136391  0.68367939  0.19888074  1.0
  O  O128  1  0.32801403  0.81626176  0.30117467  1.0
  O  O129  1  0.67769682  0.18494885  0.69564178  1.0
  O  O130  1  0.69346391  0.19151053  0.81052762  1.0
  O  O131  1  0.30819077  0.80468073  0.18725808  1.0
  O  O132  1  0.81091907  0.69247602  0.18841366  1.0
  O  O133  1  0.19132520  0.30586370  0.81154568  1.0
  O  O134  1  0.17444905  0.31511773  0.69691192  1.0
  O  O135  1  0.83127093  0.68356235  0.30275720  1.0
  O  O136  1  0.48625492  0.70953377  0.24924862  1.0
  O  O137  1  0.51627425  0.28864535  0.75112345  1.0
  O  O138  1  0.98443554  0.78848226  0.24894237  1.0
  O  O139  1  0.01801318  0.20991789  0.75072680  1.0
  O  O140  1  0.33992640  0.57940304  0.50195585  1.0
  O  O141  1  0.66071322  0.42323888  0.50036474  1.0
  O  O142  1  0.74303195  0.39781918  0.00484748  1.0
  O  O143  1  0.26574218  0.60523969  0.98707809  1.0
  O  O144  1  0.76128298  0.89713356  0.99584354  1.0
  O  O145  1  0.23638445  0.10660651  0.01268284  1.0
  O  O146  1  0.24034199  0.10183226  0.49478752  1.0
  O  O147  1  0.76102864  0.89140169  0.51369754  1.0
  O  O148  1  0.32178600  0.47675577  0.57264229  1.0
  O  O149  1  0.67937851  0.52568950  0.42936282  1.0
  O  O150  1  0.72160203  0.49702060  0.08465397  1.0
  O  O151  1  0.26934500  0.51123139  0.90764063  1.0
  O  O152  1  0.78280460  0.99606801  0.91593870  1.0
  O  O153  1  0.23003971  0.01207017  0.09173288  1.0
  O  O154  1  0.21833347  0.00224677  0.41550546  1.0
  O  O155  1  0.77161050  0.98675794  0.59122855  1.0
