# generated using pymatgen
data_MgH5C8O3
_symmetry_space_group_name_H-M   'P 1'
_cell_length_a   6.82558972
_cell_length_b   26.01497936
_cell_length_c   26.02412646
_cell_angle_alpha   119.22887515
_cell_angle_beta   94.94240231
_cell_angle_gamma   95.03520383
_symmetry_Int_Tables_number   1
_chemical_formula_structural   MgH5C8O3
_chemical_formula_sum   'Mg6 H30 C48 O18'
_cell_volume   3972.62599679
_cell_formula_units_Z   6
loop_
 _symmetry_equiv_pos_site_id
 _symmetry_equiv_pos_as_xyz
  1  'x, y, z'
loop_
 _atom_site_type_symbol
 _atom_site_label
 _atom_site_symmetry_multiplicity
 _atom_site_fract_x
 _atom_site_fract_y
 _atom_site_fract_z
 _atom_site_occupancy
  Mg  Mg0  1  0.16651517  0.66683257  0.29282174  1.0
  Mg  Mg1  1  0.87325067  0.70701763  0.37386178  1.0
  Mg  Mg2  1  0.49945803  0.62596746  0.33304289  1.0
  Mg  Mg3  1  0.83349534  0.33316357  0.70717593  1.0
  Mg  Mg4  1  0.12676399  0.29298386  0.62613629  1.0
  Mg  Mg5  1  0.50055455  0.37403580  0.66696061  1.0
  H  H6  1  0.66397846  0.87408808  0.43918563  1.0
  H  H7  1  0.22493650  0.56073450  0.43485476  1.0
  H  H8  1  0.79131915  0.56501015  0.12583525  1.0
  H  H9  1  0.50351783  0.00103826  0.44167104  1.0
  H  H10  1  0.05941821  0.55832140  0.55938233  1.0
  H  H11  1  0.50347287  0.44067238  0.99899128  1.0
  H  H12  1  0.68730926  0.97685834  0.47318567  1.0
  H  H13  1  0.21417830  0.52720701  0.50427414  1.0
  H  H14  1  0.71112857  0.49643234  0.02273700  1.0
  H  H15  1  0.49645747  0.99896100  0.55832889  1.0
  H  H16  1  0.94057547  0.44167341  0.44061239  1.0
  H  H17  1  0.49652013  0.55932109  0.00100584  1.0
  H  H18  1  0.31266782  0.02314448  0.52681527  1.0
  H  H19  1  0.78581311  0.47278913  0.49572041  1.0
  H  H20  1  0.28885791  0.50356870  0.97726444  1.0
  H  H21  1  0.33601797  0.12591518  0.56081482  1.0
  H  H22  1  0.77506625  0.43926966  0.56514665  1.0
  H  H23  1  0.20867033  0.43498510  0.87415997  1.0
  H  H24  1  0.06360566  0.15674103  0.62249664  1.0
  H  H25  1  0.44140187  0.37758500  0.53430742  1.0
  H  H26  1  0.90578072  0.46588377  0.84321722  1.0
  H  H27  1  0.87460402  0.05460055  0.57074296  1.0
  H  H28  1  0.30401200  0.42925865  0.48384299  1.0
  H  H29  1  0.81853408  0.51611802  0.94532108  1.0
  H  H30  1  0.12537413  0.94539559  0.42925781  1.0
  H  H31  1  0.69599089  0.57074284  0.51615597  1.0
  H  H32  1  0.18144178  0.48387946  0.05468337  1.0
  H  H33  1  0.93638838  0.84325155  0.37749661  1.0
  H  H34  1  0.55860698  0.62241961  0.46569588  1.0
  H  H35  1  0.09420779  0.53411549  0.15678800  1.0
  C  C36  1  0.19048127  0.80017634  0.37728761  1.0
  C  C37  1  0.81301909  0.62253203  0.42274724  1.0
  C  C38  1  0.39119457  0.57705646  0.19978190  1.0
  C  C39  1  0.40044131  0.80986361  0.39573629  1.0
  C  C40  1  0.00461127  0.60407429  0.41398095  1.0
  C  C41  1  0.59155416  0.58585500  0.19005245  1.0
  C  C42  1  0.50414513  0.86849620  0.42569247  1.0
  C  C43  1  0.07843754  0.57418271  0.44270602  1.0
  C  C44  1  0.63698407  0.55713779  0.13144159  1.0
  C  C45  1  0.41129672  0.91780410  0.43785561  1.0
  C  C46  1  0.97345402  0.56214091  0.47994829  1.0
  C  C47  1  0.49499226  0.52000952  0.08218856  1.0
  C  C48  1  0.52736549  0.97975951  0.46892754  1.0
  C  C49  1  0.05797943  0.53115488  0.51095166  1.0
  C  C50  1  0.54843371  0.48920877  0.02016688  1.0
  C  C51  1  0.47260539  0.02023975  0.53107536  1.0
  C  C52  1  0.94201696  0.46883948  0.48904328  1.0
  C  C53  1  0.45154613  0.51078782  0.97983338  1.0
  C  C54  1  0.58868953  0.08219650  0.56214714  1.0
  C  C55  1  0.02654606  0.43785790  0.52005045  1.0
  C  C56  1  0.50498665  0.47999108  0.91781248  1.0
  C  C57  1  0.49585312  0.13150484  0.57430616  1.0
  C  C58  1  0.92156623  0.42582056  0.55729536  1.0
  C  C59  1  0.36299920  0.44285390  0.86855751  1.0
  C  C60  1  0.59955855  0.19013476  0.60426030  1.0
  C  C61  1  0.99540920  0.39593298  0.58602546  1.0
  C  C62  1  0.40844436  0.41414069  0.80994549  1.0
  C  C63  1  0.80952184  0.19982559  0.62271348  1.0
  C  C64  1  0.18698490  0.37747168  0.57725744  1.0
  C  C65  1  0.60880973  0.42293611  0.80021889  1.0
  C  C66  1  0.90334924  0.14925866  0.60884865  1.0
  C  C67  1  0.29472769  0.39127981  0.54049596  1.0
  C  C68  1  0.75292901  0.45966900  0.85073087  1.0
  C  C69  1  0.79600943  0.09230398  0.57970769  1.0
  C  C70  1  0.21646068  0.42033542  0.51264019  1.0
  C  C71  1  0.70227690  0.48745415  0.90763778  1.0
  C  C72  1  0.48413813  0.23892757  0.61515813  1.0
  C  C73  1  0.86905213  0.38505644  0.62394489  1.0
  C  C74  1  0.24450326  0.37619364  0.76117984  1.0
  C  C75  1  0.20397687  0.90769082  0.42029108  1.0
  C  C76  1  0.78354448  0.57966473  0.48735893  1.0
  C  C77  1  0.29770556  0.51253887  0.09236311  1.0
  C  C78  1  0.09666502  0.85073614  0.39114845  1.0
  C  C79  1  0.70528433  0.60872524  0.45950687  1.0
  C  C80  1  0.24706257  0.54032758  0.14927427  1.0
  C  C81  1  0.51586860  0.76107570  0.38483909  1.0
  C  C82  1  0.13097017  0.61494861  0.37606201  1.0
  C  C83  1  0.75550443  0.62379983  0.23882030  1.0
  O  O84  1  0.69956938  0.77168845  0.40594994  1.0
  O  O85  1  0.29369457  0.59383890  0.36558091  1.0
  O  O86  1  0.92869642  0.63434556  0.22819633  1.0
  O  O87  1  0.42630285  0.70675151  0.35230476  1.0
  O  O88  1  0.07382598  0.64744765  0.35423776  1.0
  O  O89  1  0.71986312  0.64561046  0.29311400  1.0
  O  O90  1  0.07876391  0.74610367  0.34748088  1.0
  O  O91  1  0.73100027  0.65231277  0.39846045  1.0
  O  O92  1  0.33310256  0.60138016  0.25380937  1.0
  O  O93  1  0.30044742  0.22831437  0.59404845  1.0
  O  O94  1  0.70634008  0.40617327  0.63443398  1.0
  O  O95  1  0.07130630  0.36564969  0.77180034  1.0
  O  O96  1  0.57371219  0.29324775  0.64768762  1.0
  O  O97  1  0.92618705  0.35255651  0.64576734  1.0
  O  O98  1  0.28014989  0.35438479  0.70688367  1.0
  O  O99  1  0.92124934  0.25389203  0.65251164  1.0
  O  O100  1  0.26901079  0.34769629  0.60154699  1.0
  O  O101  1  0.66691337  0.39861509  0.74619144  1.0
