# generated using pymatgen
data_Zn2H17C32N3O10
_symmetry_space_group_name_H-M   'P 1'
_cell_length_a   10.94654271
_cell_length_b   11.83442023
_cell_length_c   13.14457635
_cell_angle_alpha   86.82670905
_cell_angle_beta   89.98786879
_cell_angle_gamma   85.12011302
_symmetry_Int_Tables_number   1
_chemical_formula_structural   Zn2H17C32N3O10
_chemical_formula_sum   'Zn2 H17 C32 N3 O10'
_cell_volume   1694.03590745
_cell_formula_units_Z   1
loop_
 _symmetry_equiv_pos_site_id
 _symmetry_equiv_pos_as_xyz
  1  'x, y, z'
loop_
 _atom_site_type_symbol
 _atom_site_label
 _atom_site_symmetry_multiplicity
 _atom_site_fract_x
 _atom_site_fract_y
 _atom_site_fract_z
 _atom_site_occupancy
  Zn  Zn0  1  0.48902888  0.61771151  0.50312498  1.0
  Zn  Zn1  1  0.51641872  0.37981591  0.49789023  1.0
  H  H2  1  0.13787966  0.39684360  0.38795204  1.0
  H  H3  1  0.20800108  0.57048858  0.70013056  1.0
  H  H4  1  0.07533055  0.64871330  0.83625820  1.0
  H  H5  1  0.84721400  0.66051545  0.81745335  1.0
  H  H6  1  0.75290134  0.59417086  0.66418187  1.0
  H  H7  1  0.90960057  0.40272857  0.37139522  1.0
  H  H8  1  0.54626462  0.36254217  0.17744134  1.0
  H  H9  1  0.60433786  0.27892323  0.01142086  1.0
  H  H10  1  0.38669373  0.72352491  0.99170095  1.0
  H  H11  1  0.61146659  0.29903961  0.82118851  1.0
  H  H12  1  0.44807769  0.64114473  0.82498139  1.0
  H  H13  1  0.63166698  0.80535381  0.42724180  1.0
  H  H14  1  0.30654785  0.78694758  0.58606606  1.0
  H  H15  1  0.71839629  0.99996697  0.38637141  1.0
  H  H16  1  0.28081967  0.99830411  0.60446911  1.0
  H  H17  1  0.69532412  0.21079866  0.40903613  1.0
  H  H18  1  0.36904931  0.19258690  0.56575356  1.0
  C  C19  1  0.52910479  0.48268684  0.69878224  1.0
  C  C20  1  0.26784098  0.48880158  0.52598057  1.0
  C  C21  1  0.46871585  0.51897223  0.30425406  1.0
  C  C22  1  0.73902928  0.49990430  0.48860459  1.0
  C  C23  1  0.10844912  0.57618497  0.69182450  1.0
  C  C24  1  0.03446271  0.61987444  0.76761396  1.0
  C  C25  1  0.90543411  0.62622237  0.75714421  1.0
  C  C26  1  0.85226108  0.58839584  0.67168225  1.0
  C  C27  1  0.92555376  0.54133216  0.59246813  1.0
  C  C28  1  0.05677253  0.53559420  0.60297242  1.0
  C  C29  1  0.13135300  0.48542488  0.52576294  1.0
  C  C30  1  0.07889617  0.43638670  0.44521719  1.0
  C  C31  1  0.95063643  0.44045328  0.43560414  1.0
  C  C32  1  0.87463225  0.49440707  0.50541886  1.0
  C  C33  1  0.46007687  0.52883436  0.19005823  1.0
  C  C34  1  0.52912247  0.47166552  0.81304150  1.0
  C  C35  1  0.56954184  0.35792877  0.97061044  1.0
  C  C36  1  0.57396106  0.36866797  0.86576931  1.0
  C  C37  1  0.48133978  0.56243122  0.86684819  1.0
  C  C38  1  0.47411805  0.55330427  0.97426347  1.0
  C  C39  1  0.51862014  0.44879842  0.02759724  1.0
  C  C40  1  0.51049776  0.44023976  0.13523105  1.0
  C  C41  1  0.41473830  0.63055917  0.13511272  1.0
  C  C42  1  0.42246876  0.64398689  0.03087421  1.0
  C  C43  1  0.64039517  0.03897606  0.42707056  1.0
  C  C44  1  0.62836023  0.15422941  0.43834834  1.0
  C  C45  1  0.44491053  0.14555789  0.52821020  1.0
  C  C46  1  0.44940845  0.02620237  0.52188199  1.0
  C  C47  1  0.55041743  0.97172135  0.46971248  1.0
  C  C48  1  0.55577719  0.85215615  0.46486387  1.0
  C  C49  1  0.37288421  0.84350697  0.55559342  1.0
  C  C50  1  0.35945051  0.95905917  0.56473684  1.0
  N  N51  1  0.47075084  0.79162751  0.50678144  1.0
  N  N52  1  0.53138865  0.20600689  0.48841866  1.0
  N  N53  1  0.34770218  0.72349802  0.18798861  1.0
  O  O54  1  0.50017892  0.58166706  0.65823476  1.0
  O  O55  1  0.55629209  0.39307400  0.65132469  1.0
  O  O56  1  0.30752645  0.58658706  0.51472996  1.0
  O  O57  1  0.33276060  0.39414329  0.53357162  1.0
  O  O58  1  0.48358792  0.61020145  0.34765395  1.0
  O  O59  1  0.46598856  0.42025644  0.34689071  1.0
  O  O60  1  0.67764276  0.59475470  0.49959840  1.0
  O  O61  1  0.69450281  0.40866170  0.46447694  1.0
  O  O62  1  0.37875963  0.82098059  0.16993154  1.0
  O  O63  1  0.26164682  0.69784810  0.24322979  1.0
