# generated using pymatgen
data_CdH17C12N2ClO2
_symmetry_space_group_name_H-M   'P 1'
_cell_length_a   14.58400186
_cell_length_b   16.37705629
_cell_length_c   16.37814056
_cell_angle_alpha   120.01119299
_cell_angle_beta   90.00000214
_cell_angle_gamma   90.00000086
_symmetry_Int_Tables_number   1
_chemical_formula_structural   CdH17C12N2ClO2
_chemical_formula_sum   'Cd6 H102 C72 N12 Cl6 O12'
_cell_volume   3387.33995024
_cell_formula_units_Z   6
loop_
 _symmetry_equiv_pos_site_id
 _symmetry_equiv_pos_as_xyz
  1  'x, y, z'
loop_
 _atom_site_type_symbol
 _atom_site_label
 _atom_site_symmetry_multiplicity
 _atom_site_fract_x
 _atom_site_fract_y
 _atom_site_fract_z
 _atom_site_occupancy
  Cd  Cd0  1  0.97118553  0.60714524  0.25976194  1.0
  Cd  Cd1  1  0.13791151  0.34742615  0.60717238  1.0
  Cd  Cd2  1  0.30457906  0.74022124  0.34739929  1.0
  Cd  Cd3  1  0.47118493  0.39285428  0.74023723  1.0
  Cd  Cd4  1  0.63791213  0.65257335  0.39282677  1.0
  Cd  Cd5  1  0.80457901  0.25977898  0.65260206  1.0
  H  H6  1  0.84402634  0.70943291  0.65055324  1.0
  H  H7  1  0.01055278  0.05894630  0.70939380  1.0
  H  H8  1  0.17717575  0.34955949  0.05907951  1.0
  H  H9  1  0.34402572  0.29056660  0.34944714  1.0
  H  H10  1  0.51055339  0.94105390  0.29060631  1.0
  H  H11  1  0.67717503  0.65044071  0.94092121  1.0
  H  H12  1  0.96550260  0.71387617  0.66165042  1.0
  H  H13  1  0.13204344  0.05235031  0.71388073  1.0
  H  H14  1  0.29864173  0.33838696  0.05226524  1.0
  H  H15  1  0.46550198  0.28612334  0.33834936  1.0
  H  H16  1  0.63204405  0.94764990  0.28611999  1.0
  H  H17  1  0.79864238  0.66161254  0.94773453  1.0
  H  H18  1  0.91300740  0.62278154  0.55817031  1.0
  H  H19  1  0.07955442  0.06470138  0.62278477  1.0
  H  H20  1  0.24614859  0.44188978  0.06471459  1.0
  H  H21  1  0.41300679  0.37721867  0.44183043  1.0
  H  H22  1  0.57955435  0.93529812  0.37721499  1.0
  H  H23  1  0.74614924  0.55811043  0.93528492  1.0
  H  H24  1  0.85346819  0.74232401  0.51943055  1.0
  H  H25  1  0.02005566  0.22305601  0.74231810  1.0
  H  H26  1  0.18681029  0.48076048  0.22309265  1.0
  H  H27  1  0.35346826  0.25767620  0.48056957  1.0
  H  H28  1  0.52005558  0.77694419  0.25768262  1.0
  H  H29  1  0.68681093  0.51924044  0.77690904  1.0
  H  H30  1  0.84290594  0.87836981  0.68280259  1.0
  H  H31  1  0.00940221  0.19567092  0.87834032  1.0
  H  H32  1  0.17619043  0.31732254  0.19571489  1.0
  H  H33  1  0.34290668  0.12162970  0.31719718  1.0
  H  H34  1  0.50940213  0.80432927  0.12165978  1.0
  H  H35  1  0.67618970  0.68267625  0.80428513  1.0
  H  H36  1  0.90407570  0.91058295  0.61012594  1.0
  H  H37  1  0.07055689  0.30058508  0.91059223  1.0
  H  H38  1  0.23739174  0.39004188  0.30059339  1.0
  H  H39  1  0.40407576  0.08941726  0.38987419  1.0
  H  H40  1  0.57055681  0.69941513  0.08940788  1.0
  H  H41  1  0.73739169  0.60995763  0.69940577  1.0
  H  H42  1  0.96485189  0.88688338  0.69009266  1.0
  H  H43  1  0.13135708  0.19690142  0.88685521  1.0
  H  H44  1  0.29814735  0.31004934  0.19689519  1.0
  H  H45  1  0.46485195  0.11311755  0.30990844  1.0
  H  H46  1  0.63135699  0.80309807  0.11314455  1.0
  H  H47  1  0.79814663  0.68995017  0.80310397  1.0
  H  H48  1  0.00486435  0.66112956  0.45834683  1.0
  H  H49  1  0.17151615  0.20279549  0.66118695  1.0
  H  H50  1  0.33832288  0.54162669  0.20285687  1.0
  H  H51  1  0.50486361  0.33887063  0.54165327  1.0
  H  H52  1  0.67151676  0.79720400  0.33881281  1.0
  H  H53  1  0.83832353  0.45837282  0.79714290  1.0
  H  H54  1  0.06113011  0.75549824  0.55596578  1.0
  H  H55  1  0.22765780  0.19945968  0.75554010  1.0
  H  H56  1  0.39441860  0.44391373  0.19956546  1.0
  H  H57  1  0.56112937  0.24450197  0.44403433  1.0
  H  H58  1  0.72765772  0.80053983  0.24445906  1.0
  H  H59  1  0.89441855  0.55608649  0.80043467  1.0
  H  H60  1  0.01588670  0.86639595  0.50186518  1.0
  H  H61  1  0.18256319  0.36455729  0.86646355  1.0
  H  H62  1  0.34928764  0.49818837  0.36463788  1.0
  H  H63  1  0.51588664  0.13360354  0.49813518  1.0
  H  H64  1  0.68256379  0.63544221  0.13353621  1.0
  H  H65  1  0.84928759  0.50181184  0.63536224  1.0
  H  H66  1  0.88600110  0.79925814  0.28572154  1.0
  H  H67  1  0.05275862  0.51370517  0.79950409  1.0
  H  H68  1  0.21948994  0.71430414  0.51371024  1.0
  H  H69  1  0.38600186  0.20074278  0.71427893  1.0
  H  H70  1  0.55275785  0.48629504  0.20049541  1.0
  H  H71  1  0.71948988  0.28569607  0.48628988  1.0
  H  H72  1  0.00330510  0.82734327  0.31164220  1.0
  H  H73  1  0.17008993  0.51580756  0.82752248  1.0
  H  H74  1  0.33680616  0.68835028  0.51580957  1.0
  H  H75  1  0.50330505  0.17265622  0.68835694  1.0
  H  H76  1  0.67008916  0.48419194  0.17247729  1.0
  H  H77  1  0.83680610  0.31164922  0.48419020  1.0
  H  H78  1  0.03117949  0.99562855  0.39727143  1.0
  H  H79  1  0.19792180  0.59852843  0.99578878  1.0
  H  H80  1  0.36455575  0.60269703  0.59847305  1.0
  H  H81  1  0.53117805  0.00437165  0.60272868  1.0
  H  H82  1  0.69792102  0.40147178  0.00421134  1.0
  H  H83  1  0.86455569  0.39730247  0.40152672  1.0
  H  H84  1  0.98239988  0.15627363  0.51903025  1.0
  H  H85  1  0.14910321  0.63748278  0.15640709  1.0
  H  H86  1  0.31564668  0.48096726  0.63727020  1.0
  H  H87  1  0.48239857  0.84372659  0.48096988  1.0
  H  H88  1  0.64910249  0.36251743  0.84359241  1.0
  H  H89  1  0.81564729  0.51903225  0.36272896  1.0
  H  H90  1  0.74527430  0.05343783  0.57636678  1.0
  H  H91  1  0.91210846  0.47706015  0.05351442  1.0
  H  H92  1  0.07871445  0.42353974  0.47680192  1.0
  H  H93  1  0.24527367  0.94656378  0.42363526  1.0
  H  H94  1  0.41210855  0.52294006  0.94648571  1.0
  H  H95  1  0.57871438  0.57646046  0.52319819  1.0
  H  H96  1  0.78398726  0.88903495  0.45972046  1.0
  H  H97  1  0.95084614  0.42925338  0.88911100  1.0
  H  H98  1  0.11756798  0.54019819  0.42911762  1.0
  H  H99  1  0.28398664  0.11096526  0.54028028  1.0
  H  H100  1  0.45084549  0.57074684  0.11088852  1.0
  H  H101  1  0.61756861  0.45980131  0.57088153  1.0
  H  H102  1  0.87944391  0.75961613  0.40808126  1.0
  H  H103  1  0.04615755  0.35163473  0.75966338  1.0
  H  H104  1  0.21289984  0.59199842  0.35163284  1.0
  H  H105  1  0.37944330  0.24038338  0.59191851  1.0
  H  H106  1  0.54615679  0.64836476  0.24033576  1.0
  H  H107  1  0.71290047  0.40800109  0.64836693  1.0
  C  C108  1  0.90855595  0.69796062  0.61167397  1.0
  C  C109  1  0.07507622  0.08638006  0.69795035  1.0
  C  C110  1  0.24173211  0.38840984  0.08640749  1.0
  C  C111  1  0.40855602  0.30204031  0.38832713  1.0
  C  C112  1  0.57507615  0.91362015  0.30204976  1.0
  C  C113  1  0.74173276  0.61158967  0.91359228  1.0
  C  C114  1  0.91341196  0.76043366  0.56670096  1.0
  C  C115  1  0.07994320  0.19383749  0.76043584  1.0
  C  C116  1  0.24669988  0.43340551  0.19385454  1.0
  C  C117  1  0.41341202  0.23956656  0.43329856  1.0
  C  C118  1  0.57994312  0.80616271  0.23956427  1.0
  C  C119  1  0.74669984  0.56659398  0.80614522  1.0
  C  C120  1  0.90604704  0.86488346  0.64140621  1.0
  C  C121  1  0.07254126  0.22359879  0.86487081  1.0
  C  C122  1  0.23933153  0.35873605  0.22361453  1.0
  C  C123  1  0.40604779  0.13511675  0.35859391  1.0
  C  C124  1  0.57254118  0.77640141  0.13512930  1.0
  C  C125  1  0.73933081  0.64126275  0.77638488  1.0
  C  C126  1  0.00188780  0.73770655  0.50816199  1.0
  C  C127  1  0.16849914  0.22956738  0.73775283  1.0
  C  C128  1  0.33524691  0.49182722  0.22961285  1.0
  C  C129  1  0.50188774  0.26229364  0.49183811  1.0
  C  C130  1  0.66849906  0.77043283  0.26224729  1.0
  C  C131  1  0.83524755  0.50817229  0.77038692  1.0
  C  C132  1  0.01441934  0.78970762  0.45267818  1.0
  C  C133  1  0.18109857  0.33705912  0.78977810  1.0
  C  C134  1  0.34783399  0.54733129  0.33709566  1.0
  C  C135  1  0.51441928  0.21029259  0.54732193  1.0
  C  C136  1  0.68109849  0.66294108  0.21022201  1.0
  C  C137  1  0.84783394  0.45266821  0.66290472  1.0
  C  C138  1  0.93650918  0.82830089  0.34323940  1.0
  C  C139  1  0.10328522  0.48515609  0.82845352  1.0
  C  C140  1  0.27000077  0.65677789  0.48515934  1.0
  C  C141  1  0.43650857  0.17169933  0.65676073  1.0
  C  C142  1  0.60328514  0.51484411  0.17154659  1.0
  C  C143  1  0.77000071  0.34322232  0.51484078  1.0
  C  C144  1  0.91105389  0.92788027  0.41614349  1.0
  C  C145  1  0.07784913  0.51179749  0.92800133  1.0
  C  C146  1  0.24453725  0.58381099  0.51170983  1.0
  C  C147  1  0.41105328  0.07212065  0.58385699  1.0
  C  C148  1  0.57784973  0.48820271  0.07199878  1.0
  C  C149  1  0.74453788  0.41618851  0.48828932  1.0
  C  C150  1  0.96672586  0.00471180  0.43470692  1.0
  C  C151  1  0.13348061  0.57014421  0.00484988  1.0
  C  C152  1  0.30012831  0.56524904  0.57001857  1.0
  C  C153  1  0.46672592  0.99528842  0.56529321  1.0
  C  C154  1  0.63348058  0.42985600  0.99515023  1.0
  C  C155  1  0.80012892  0.43475046  0.42998119  1.0
  C  C156  1  0.94001097  0.09518555  0.50306124  1.0
  C  C157  1  0.10674447  0.59229105  0.09531355  1.0
  C  C158  1  0.27334074  0.49688899  0.59208082  1.0
  C  C159  1  0.44001035  0.90481467  0.49693828  1.0
  C  C160  1  0.60674511  0.40770986  0.90468569  1.0
  C  C161  1  0.77334135  0.50311051  0.40791834  1.0
  C  C162  1  0.80832009  0.03741592  0.53548532  1.0
  C  C163  1  0.97513643  0.50195365  0.03749748  1.0
  C  C164  1  0.14176299  0.46441920  0.50172052  1.0
  C  C165  1  0.30831878  0.96258500  0.46451394  1.0
  C  C166  1  0.47513584  0.49804657  0.96250204  1.0
  C  C167  1  0.64176429  0.53557960  0.49827828  1.0
  C  C168  1  0.83030857  0.94541008  0.46870943  1.0
  C  C169  1  0.99713316  0.47669613  0.94549743  1.0
  C  C170  1  0.16381866  0.53120165  0.47654160  1.0
  C  C171  1  0.33030932  0.05459083  0.53129043  1.0
  C  C172  1  0.49713320  0.52330480  0.05450245  1.0
  C  C173  1  0.66381861  0.46879786  0.52345817  1.0
  C  C174  1  0.10757347  0.76266661  0.40193366  1.0
  C  C175  1  0.27423350  0.36075927  0.76274198  1.0
  C  C176  1  0.44098950  0.59804001  0.36074510  1.0
  C  C177  1  0.60757341  0.23733289  0.59806671  1.0
  C  C178  1  0.77423342  0.63924024  0.23725779  1.0
  C  C179  1  0.94098944  0.40196020  0.63925503  1.0
  N  N180  1  0.94175328  0.76374432  0.38160516  1.0
  N  N181  1  0.10848132  0.38222250  0.76383049  1.0
  N  N182  1  0.27521470  0.61846151  0.38223446  1.0
  N  N183  1  0.44175336  0.23625589  0.61839497  1.0
  N  N184  1  0.60848124  0.61777770  0.23616901  1.0
  N  N185  1  0.77521464  0.38153870  0.61776566  1.0
  N  N186  1  0.86186027  0.11127310  0.55233973  1.0
  N  N187  1  0.02863216  0.55903131  0.11136278  1.0
  N  N188  1  0.19522089  0.44758048  0.55877693  1.0
  N  N189  1  0.36186033  0.88872712  0.44765979  1.0
  N  N190  1  0.52863144  0.44096889  0.88863671  1.0
  N  N191  1  0.69522081  0.55241832  0.44122188  1.0
  Cl  Cl192  1  0.99097022  0.47972698  0.29512010  1.0
  Cl  Cl193  1  0.15763586  0.18459329  0.47971462  1.0
  Cl  Cl194  1  0.32432467  0.70483696  0.18460829  1.0
  Cl  Cl195  1  0.49097168  0.52027324  0.70488003  1.0
  Cl  Cl196  1  0.65763374  0.81540620  0.52028453  1.0
  Cl  Cl197  1  0.82432394  0.29516395  0.81539340  1.0
  O  O198  1  0.17580234  0.81382140  0.44594337  1.0
  O  O199  1  0.34246648  0.36802877  0.81394978  1.0
  O  O200  1  0.50919848  0.55406306  0.36800115  1.0
  O  O201  1  0.67580297  0.18617810  0.55405761  1.0
  O  O202  1  0.84246640  0.63197145  0.18604974  1.0
  O  O203  1  0.00919787  0.44593714  0.63199957  1.0
  O  O204  1  0.11295882  0.68957497  0.32028923  1.0
  O  O205  1  0.27962502  0.36920772  0.68961001  1.0
  O  O206  1  0.44641530  0.67959138  0.36912216  1.0
  O  O207  1  0.61295808  0.31042524  0.67971089  1.0
  O  O208  1  0.77962494  0.63079107  0.31038940  1.0
  O  O209  1  0.94641525  0.32040884  0.63087736  1.0
