# generated using pymatgen
data_Al2H12C20O11
_symmetry_space_group_name_H-M   'P 1'
_cell_length_a   6.65383781
_cell_length_b   11.12761432
_cell_length_c   12.99206868
_cell_angle_alpha   71.35481814
_cell_angle_beta   78.69654400
_cell_angle_gamma   72.67631111
_symmetry_Int_Tables_number   1
_chemical_formula_structural   Al2H12C20O11
_chemical_formula_sum   'Al2 H12 C20 O11'
_cell_volume   864.69737305
_cell_formula_units_Z   1
loop_
 _symmetry_equiv_pos_site_id
 _symmetry_equiv_pos_as_xyz
  1  'x, y, z'
loop_
 _atom_site_type_symbol
 _atom_site_label
 _atom_site_symmetry_multiplicity
 _atom_site_fract_x
 _atom_site_fract_y
 _atom_site_fract_z
 _atom_site_occupancy
  Al  Al0  1  0.50015055  0.49864713  0.49945885  1.0
  Al  Al1  1  0.99837336  0.50396115  0.49800034  1.0
  H  H2  1  0.24818371  0.39412594  0.63083233  1.0
  H  H3  1  0.69379607  0.66393977  0.41777468  1.0
  H  H4  1  0.73358560  0.87509425  0.53252717  1.0
  H  H5  1  0.38660009  0.89289449  0.46368642  1.0
  H  H6  1  0.62385615  0.10892714  0.53530243  1.0
  H  H7  1  0.31321292  0.55290815  0.81089470  1.0
  H  H8  1  0.98129668  0.39182963  0.83300291  1.0
  H  H9  1  0.92933354  0.39024021  0.02850724  1.0
  H  H10  1  0.68876053  0.44397746  0.19005130  1.0
  H  H11  1  0.02045059  0.60299847  0.16847073  1.0
  H  H12  1  0.07284333  0.60567042  0.97215426  1.0
  H  H13  1  0.23936313  0.22557271  0.46599551  1.0
  C  C14  1  0.68248006  0.47355735  0.69411648  1.0
  C  C15  1  0.86990881  0.27125798  0.50248814  1.0
  C  C16  1  0.31912302  0.52241857  0.30651609  1.0
  C  C17  1  0.13225001  0.73087663  0.49451089  1.0
  C  C18  1  0.94105303  0.13278765  0.50147859  1.0
  C  C19  1  0.06671017  0.87019995  0.49787259  1.0
  C  C20  1  0.15926949  0.07131714  0.48065352  1.0
  C  C21  1  0.85062954  0.93072077  0.51859559  1.0
  C  C22  1  0.21937023  0.93974699  0.47957020  1.0
  C  C23  1  0.79027959  0.06026518  0.52057430  1.0
  C  C24  1  0.44669336  0.51803671  0.85913600  1.0
  C  C25  1  0.82427483  0.42709710  0.87272909  1.0
  C  C26  1  0.79509822  0.42691615  0.98054567  1.0
  C  C27  1  0.59008074  0.47474276  0.03154724  1.0
  C  C28  1  0.55564565  0.47824108  0.14161877  1.0
  C  C29  1  0.17747162  0.56873249  0.12810677  1.0
  C  C30  1  0.20701121  0.56918484  0.02018627  1.0
  C  C31  1  0.41223622  0.52158217  0.96919269  1.0
  C  C32  1  0.64867273  0.47242557  0.81114350  1.0
  C  C33  1  0.35348416  0.52358978  0.18945314  1.0
  O  O34  1  0.51947147  0.49086146  0.64806080  1.0
  O  O35  1  0.01506976  0.33333333  0.48494280  1.0
  O  O36  1  0.12798946  0.54426981  0.35090746  1.0
  O  O37  1  0.32982218  0.67800160  0.47821967  1.0
  O  O38  1  0.48154697  0.49942938  0.35459232  1.0
  O  O39  1  0.98393345  0.67447130  0.50756953  1.0
  O  O40  1  0.87311903  0.45710691  0.64814544  1.0
  O  O41  1  0.67379591  0.32271068  0.52092333  1.0
  O  O42  1  0.26141066  0.43286520  0.55232778  1.0
  O  O43  1  0.73341697  0.56956045  0.44811089  1.0
  O  O44  1  0.31323618  0.13451765  0.46099015  1.0
