# generated using pymatgen
data_Zn2H21C20(NO4)3
_symmetry_space_group_name_H-M   'P 1'
_cell_length_a   9.70432617
_cell_length_b   10.93592043
_cell_length_c   11.17836303
_cell_angle_alpha   90.16392657
_cell_angle_beta   92.99080168
_cell_angle_gamma   91.21633178
_symmetry_Int_Tables_number   1
_chemical_formula_structural   Zn2H21C20(NO4)3
_chemical_formula_sum   'Zn2 H21 C20 N3 O12'
_cell_volume   1184.41988756
_cell_formula_units_Z   1
loop_
 _symmetry_equiv_pos_site_id
 _symmetry_equiv_pos_as_xyz
  1  'x, y, z'
loop_
 _atom_site_type_symbol
 _atom_site_label
 _atom_site_symmetry_multiplicity
 _atom_site_fract_x
 _atom_site_fract_y
 _atom_site_fract_z
 _atom_site_occupancy
  Zn  Zn0  1  0.36277500  0.49348828  0.49358070  1.0
  Zn  Zn1  1  0.64280296  0.49949808  0.50599756  1.0
  H  H2  1  0.28341341  0.10933832  0.44687880  1.0
  H  H3  1  0.68491117  0.88302524  0.60186655  1.0
  H  H4  1  0.68075652  0.91156066  0.39670824  1.0
  H  H5  1  0.71012669  0.50907362  0.11728286  1.0
  H  H6  1  0.39498953  0.47067599  0.09151862  1.0
  H  H7  1  0.70451712  0.47999793  0.89674446  1.0
  H  H8  1  0.40006276  0.55355537  0.89813498  1.0
  H  H9  1  0.13138346  0.67119563  0.43100666  1.0
  H  H10  1  0.09646387  0.41365365  0.49566433  1.0
  H  H11  1  0.86757412  0.64000034  0.38373414  1.0
  H  H12  1  0.31964380  0.08934866  0.60109596  1.0
  H  H13  1  0.91119275  0.46139412  0.57595431  1.0
  H  H14  1  0.29581230  0.87717174  0.56483411  1.0
  H  H15  1  0.29416047  0.89915558  0.40893994  1.0
  H  H16  1  0.46408294  0.08929049  0.31024417  1.0
  H  H17  1  0.70199206  0.09553383  0.59209337  1.0
  H  H18  1  0.56334337  0.10193992  0.68825133  1.0
  H  H19  1  0.86748415  0.15099506  0.34620444  1.0
  H  H20  1  0.56187336  0.73867559  0.16350810  1.0
  H  H21  1  0.44031884  0.91992906  0.73837707  1.0
  H  H22  1  0.59251252  0.87021770  0.78315638  1.0
  C  C23  1  0.50128618  0.51596488  0.73224984  1.0
  C  C24  1  0.49716316  0.87676022  0.49266733  1.0
  C  C25  1  0.57068947  0.93108278  0.38288637  1.0
  C  C26  1  0.58223688  0.92269758  0.60612465  1.0
  C  C27  1  0.60983902  0.50175159  0.06818474  1.0
  C  C28  1  0.49770996  0.48685714  0.13369225  1.0
  C  C29  1  0.60841126  0.50177827  0.93830516  1.0
  C  C30  1  0.49844628  0.52664878  0.86420712  1.0
  C  C31  1  0.07738510  0.58545243  0.45240904  1.0
  C  C32  1  0.92428350  0.58090354  0.44734859  1.0
  C  C33  1  0.50350212  0.25669110  0.50674615  1.0
  C  C34  1  0.50488513  0.48589235  0.26639534  1.0
  C  C35  1  0.50020462  0.73661883  0.48955834  1.0
  C  C36  1  0.35367225  0.06422170  0.51213396  1.0
  C  C37  1  0.34968160  0.92426451  0.49374474  1.0
  C  C38  1  0.54853110  0.07146698  0.37683058  1.0
  C  C39  1  0.59502835  0.06472127  0.60259496  1.0
  C  C40  1  0.50092997  0.11661061  0.50049675  1.0
  C  C41  1  0.67354180  0.13728875  0.32925137  1.0
  C  C42  1  0.51817496  0.86958848  0.26688581  1.0
  N  N43  1  0.15099871  0.49312215  0.47977028  1.0
  N  N44  1  0.85414087  0.51189008  0.51460968  1.0
  N  N45  1  0.52164550  0.87027945  0.71261089  1.0
  O  O46  1  0.38449774  0.52355226  0.67475806  1.0
  O  O47  1  0.61674106  0.49774673  0.68609172  1.0
  O  O48  1  0.38933121  0.30917012  0.51878482  1.0
  O  O49  1  0.62059195  0.31015203  0.50002570  1.0
  O  O50  1  0.38951982  0.46783983  0.31449991  1.0
  O  O51  1  0.62144323  0.50378403  0.32239493  1.0
  O  O52  1  0.38576625  0.67956307  0.46868231  1.0
  O  O53  1  0.61725220  0.68788915  0.50631090  1.0
  O  O54  1  0.66999430  0.20707634  0.24438984  1.0
  O  O55  1  0.79588006  0.10500912  0.38664929  1.0
  O  O56  1  0.40993157  0.89158169  0.21119409  1.0
  O  O57  1  0.60643708  0.78280356  0.23231842  1.0
