# generated using pymatgen
data_CdH14C20S2(NO)4
_symmetry_space_group_name_H-M   'P 1'
_cell_length_a   8.93876608
_cell_length_b   16.75880197
_cell_length_c   19.32330365
_cell_angle_alpha   89.99974155
_cell_angle_beta   89.99968149
_cell_angle_gamma   78.59567117
_symmetry_Int_Tables_number   1
_chemical_formula_structural   CdH14C20S2(NO)4
_chemical_formula_sum   'Cd4 H56 C80 S8 N16 O16'
_cell_volume   2837.53701039
_cell_formula_units_Z   4
loop_
 _symmetry_equiv_pos_site_id
 _symmetry_equiv_pos_as_xyz
  1  'x, y, z'
loop_
 _atom_site_type_symbol
 _atom_site_label
 _atom_site_symmetry_multiplicity
 _atom_site_fract_x
 _atom_site_fract_y
 _atom_site_fract_z
 _atom_site_occupancy
  Cd  Cd0  1  0.18610642  0.98531294  0.44184612  1.0
  Cd  Cd1  1  0.81388486  0.51468163  0.94184717  1.0
  Cd  Cd2  1  0.81388652  0.01468467  0.55815444  1.0
  Cd  Cd3  1  0.18612434  0.48532380  0.05815236  1.0
  H  H4  1  0.19618456  0.66506131  0.10861024  1.0
  H  H5  1  0.80381019  0.83493463  0.60860851  1.0
  H  H6  1  0.80381135  0.33494054  0.89139084  1.0
  H  H7  1  0.19618301  0.16506541  0.39139257  1.0
  H  H8  1  0.10170259  0.76111272  0.20562982  1.0
  H  H9  1  0.89829185  0.73888403  0.70562822  1.0
  H  H10  1  0.89829376  0.23888791  0.79437230  1.0
  H  H11  1  0.10170562  0.26111660  0.29437235  1.0
  H  H12  1  0.81113659  0.59643616  0.26714406  1.0
  H  H13  1  0.18885811  0.90356094  0.76714055  1.0
  H  H14  1  0.18885997  0.40356387  0.73285754  1.0
  H  H15  1  0.81113845  0.09643908  0.23285742  1.0
  H  H16  1  0.91856029  0.50686379  0.16657123  1.0
  H  H17  1  0.08143434  0.99313373  0.66656713  1.0
  H  H18  1  0.08143697  0.49313744  0.83343036  1.0
  H  H19  1  0.91856356  0.00686568  0.33343084  1.0
  H  H20  1  0.64249141  0.75432474  0.49316588  1.0
  H  H21  1  0.35750262  0.74567933  0.99316359  1.0
  H  H22  1  0.35750200  0.24567470  0.50683520  1.0
  H  H23  1  0.64249868  0.25432311  0.00683594  1.0
  H  H24  1  0.52994434  0.83237230  0.44472851  1.0
  H  H25  1  0.47005175  0.66763074  0.94472726  1.0
  H  H26  1  0.47005243  0.16762712  0.55527257  1.0
  H  H27  1  0.52994663  0.33237049  0.05527279  1.0
  H  H28  1  0.54047095  0.72849042  0.41939348  1.0
  H  H29  1  0.45952541  0.77151272  0.91939134  1.0
  H  H30  1  0.45952561  0.27150960  0.58060605  1.0
  H  H31  1  0.54047857  0.22848848  0.08060819  1.0
  H  H32  1  0.56886099  0.54237141  0.06688835  1.0
  H  H33  1  0.43114011  0.95763014  0.56689021  1.0
  H  H34  1  0.43114390  0.45763039  0.93310807  1.0
  H  H35  1  0.56886420  0.04236377  0.43310932  1.0
  H  H36  1  0.47638996  0.64130523  0.15938799  1.0
  H  H37  1  0.52360298  0.85869415  0.65939103  1.0
  H  H38  1  0.52360954  0.35869599  0.84060947  1.0
  H  H39  1  0.47639573  0.14129978  0.34060850  1.0
  H  H40  1  0.77253029  0.79408552  0.07796386  1.0
  H  H41  1  0.22746755  0.70591539  0.57796050  1.0
  H  H42  1  0.22746770  0.20591997  0.92203670  1.0
  H  H43  1  0.77252271  0.29408345  0.42204006  1.0
  H  H44  1  0.85400472  0.68712796  0.98667659  1.0
  H  H45  1  0.14600326  0.81287484  0.48667270  1.0
  H  H46  1  0.14600288  0.31287565  0.01332501  1.0
  H  H47  1  0.85399687  0.18712456  0.51332683  1.0
  H  H48  1  0.59456823  0.02628564  0.22761081  1.0
  H  H49  1  0.40542899  0.47370822  0.72760905  1.0
  H  H50  1  0.40542828  0.97371134  0.77238872  1.0
  H  H51  1  0.59458365  0.52628747  0.27238789  1.0
  H  H52  1  0.77469879  0.96009675  0.23905400  1.0
  H  H53  1  0.22530047  0.53990106  0.73905130  1.0
  H  H54  1  0.22529682  0.03989964  0.76094605  1.0
  H  H55  1  0.77471264  0.46009645  0.26094409  1.0
  H  H56  1  0.64639973  0.98721685  0.31118050  1.0
  H  H57  1  0.35359584  0.51277946  0.81117860  1.0
  H  H58  1  0.35359864  0.01278438  0.68882059  1.0
  H  H59  1  0.64641210  0.48721686  0.18881937  1.0
  C  C60  1  0.11122440  0.65238747  0.14540584  1.0
  C  C61  1  0.88877291  0.84760952  0.64540229  1.0
  C  C62  1  0.88877376  0.34761437  0.85459679  1.0
  C  C63  1  0.11122008  0.15239113  0.35459569  1.0
  C  C64  1  0.05819450  0.70518230  0.19939813  1.0
  C  C65  1  0.94179909  0.79481387  0.69939620  1.0
  C  C66  1  0.94180297  0.29481832  0.80060244  1.0
  C  C67  1  0.05819923  0.20518432  0.30060488  1.0
  C  C68  1  0.94884348  0.68535417  0.24512936  1.0
  C  C69  1  0.05115550  0.81464422  0.74512552  1.0
  C  C70  1  0.05115399  0.31464646  0.75487276  1.0
  C  C71  1  0.94884111  0.18535884  0.25487246  1.0
  C  C72  1  0.89639106  0.61301190  0.23282215  1.0
  C  C73  1  0.10360330  0.88698414  0.73281737  1.0
  C  C74  1  0.10360907  0.38698750  0.76717893  1.0
  C  C75  1  0.89639326  0.11301589  0.26718216  1.0
  C  C76  1  0.95543122  0.56375067  0.17772341  1.0
  C  C77  1  0.04456489  0.93624863  0.67771859  1.0
  C  C78  1  0.04456673  0.43625178  0.82227974  1.0
  C  C79  1  0.95543103  0.06375323  0.32227886  1.0
  C  C80  1  0.88872422  0.73560051  0.30437180  1.0
  C  C81  1  0.11127216  0.76440008  0.80436903  1.0
  C  C82  1  0.11127170  0.26440134  0.69562928  1.0
  C  C83  1  0.88872845  0.23560114  0.19562946  1.0
  C  C84  1  0.83563703  0.83097290  0.39970165  1.0
  C  C85  1  0.16436642  0.66902664  0.89969757  1.0
  C  C86  1  0.16436466  0.16902527  0.60030150  1.0
  C  C87  1  0.83563510  0.33097518  0.10029886  1.0
  C  C88  1  0.73703828  0.77609534  0.39426855  1.0
  C  C89  1  0.26296144  0.72390546  0.89426555  1.0
  C  C90  1  0.26295737  0.22390408  0.60573357  1.0
  C  C91  1  0.73704078  0.27609757  0.10573346  1.0
  C  C92  1  0.83688713  0.89570487  0.45142922  1.0
  C  C93  1  0.16312272  0.60429381  0.95142746  1.0
  C  C94  1  0.16311163  0.10429210  0.54857341  1.0
  C  C95  1  0.83687923  0.39570679  0.04856948  1.0
  C  C96  1  0.60462412  0.77235171  0.44031262  1.0
  C  C97  1  0.39537180  0.72765196  0.94030977  1.0
  C  C98  1  0.39537266  0.22764771  0.55968847  1.0
  C  C99  1  0.60462950  0.27235048  0.05968924  1.0
  C  C100  1  0.61180875  0.59875502  0.07060701  1.0
  C  C101  1  0.38818554  0.90124352  0.57060972  1.0
  C  C102  1  0.38819389  0.40124680  0.92939045  1.0
  C  C103  1  0.61181300  0.09875407  0.42939032  1.0
  C  C104  1  0.55949441  0.65514878  0.12224359  1.0
  C  C105  1  0.44050612  0.84485254  0.62224327  1.0
  C  C106  1  0.44050776  0.34485122  0.87775439  1.0
  C  C107  1  0.55949552  0.15514259  0.37775832  1.0
  C  C108  1  0.61756221  0.72694164  0.12629444  1.0
  C  C109  1  0.38243171  0.77305605  0.62629559  1.0
  C  C110  1  0.38243482  0.27306020  0.87370406  1.0
  C  C111  1  0.61756277  0.22694034  0.37370445  1.0
  C  C112  1  0.72554812  0.73896162  0.07632042  1.0
  C  C113  1  0.27445534  0.76103927  0.57631828  1.0
  C  C114  1  0.27445276  0.26104203  0.92367963  1.0
  C  C115  1  0.72554272  0.23895650  0.42368332  1.0
  C  C116  1  0.77084753  0.68001776  0.02633989  1.0
  C  C117  1  0.22915197  0.81998336  0.52633815  1.0
  C  C118  1  0.22915202  0.31998650  0.97366016  1.0
  C  C119  1  0.77084278  0.18001547  0.47365827  1.0
  C  C120  1  0.57382169  0.78882194  0.17961083  1.0
  C  C121  1  0.42617349  0.71117674  0.67960952  1.0
  C  C122  1  0.42617263  0.21117810  0.82038922  1.0
  C  C123  1  0.57382776  0.28882265  0.32038949  1.0
  C  C124  1  0.46570109  0.87699825  0.27473583  1.0
  C  C125  1  0.53430090  0.62299696  0.77473304  1.0
  C  C126  1  0.53429655  0.12299873  0.72526628  1.0
  C  C127  1  0.46570980  0.37700421  0.22526442  1.0
  C  C128  1  0.58738569  0.90010143  0.24038074  1.0
  C  C129  1  0.41261330  0.59989394  0.74037835  1.0
  C  C130  1  0.41260970  0.09989557  0.75962293  1.0
  C  C131  1  0.58739800  0.40010236  0.25962014  1.0
  C  C132  1  0.37281991  0.91596238  0.33374235  1.0
  C  C133  1  0.62717422  0.58402777  0.83373947  1.0
  C  C134  1  0.62717773  0.08403460  0.66625925  1.0
  C  C135  1  0.37283792  0.41597886  0.16625851  1.0
  C  C136  1  0.65529196  0.97253193  0.25599016  1.0
  C  C137  1  0.34470510  0.52746521  0.75598771  1.0
  C  C138  1  0.34470568  0.02746505  0.74401144  1.0
  C  C139  1  0.65530534  0.47253353  0.24400975  1.0
  S  S140  1  0.97032343  0.81391184  0.33489479  1.0
  S  S141  1  0.02967931  0.68608555  0.83489150  1.0
  S  S142  1  0.02967670  0.18608756  0.66510836  1.0
  S  S143  1  0.97032600  0.31391504  0.16510492  1.0
  S  S144  1  0.42746460  0.78939154  0.23837943  1.0
  S  S145  1  0.57253397  0.71060505  0.73837723  1.0
  S  S146  1  0.57253105  0.21060788  0.76161958  1.0
  S  S147  1  0.42746664  0.28939617  0.26162229  1.0
  N  N148  1  0.06140891  0.58263081  0.13466099  1.0
  N  N149  1  0.93858333  0.91736504  0.63465807  1.0
  N  N150  1  0.93858856  0.41736982  0.86534010  1.0
  N  N151  1  0.06141254  0.08263378  0.36534250  1.0
  N  N152  1  0.76985180  0.72254569  0.34067633  1.0
  N  N153  1  0.23014559  0.77745717  0.84067372  1.0
  N  N154  1  0.23014524  0.27745615  0.65932424  1.0
  N  N155  1  0.76985283  0.22254710  0.15932529  1.0
  N  N156  1  0.71644405  0.61064767  0.02363093  1.0
  N  N157  1  0.28356022  0.88935587  0.52363137  1.0
  N  N158  1  0.28356307  0.38935412  0.97636860  1.0
  N  N159  1  0.71644259  0.11064230  0.47637023  1.0
  N  N160  1  0.64593393  0.85013807  0.18711813  1.0
  N  N161  1  0.35406070  0.64985876  0.68711570  1.0
  N  N162  1  0.35406173  0.14986136  0.81288502  1.0
  N  N163  1  0.64594500  0.35013757  0.31288331  1.0
  O  O164  1  0.94130256  0.93808581  0.44788458  1.0
  O  O165  1  0.05870642  0.56191229  0.94787912  1.0
  O  O166  1  0.05869598  0.06191178  0.55212064  1.0
  O  O167  1  0.94129996  0.43808525  0.05211627  1.0
  O  O168  1  0.73328270  0.90668746  0.49767608  1.0
  O  O169  1  0.26671956  0.59331532  0.99767410  1.0
  O  O170  1  0.26671519  0.09331195  0.50232551  1.0
  O  O171  1  0.73327796  0.40668834  0.00232181  1.0
  O  O172  1  0.25908791  0.88512406  0.35205361  1.0
  O  O173  1  0.74091039  0.61487267  0.85205238  1.0
  O  O174  1  0.74090663  0.11487537  0.64794747  1.0
  O  O175  1  0.25909907  0.38513519  0.14794663  1.0
  O  O176  1  0.40979716  0.97723633  0.36318176  1.0
  O  O177  1  0.59020231  0.52275670  0.86317818  1.0
  O  O178  1  0.59020181  0.02276004  0.63681983  1.0
  O  O179  1  0.40981720  0.47724806  0.13681927  1.0
