# generated using pymatgen
data_Zn4H40C69N22O13
_symmetry_space_group_name_H-M   'P 1'
_cell_length_a   16.66035949
_cell_length_b   17.02113925
_cell_length_c   18.69654250
_cell_angle_alpha   114.12726834
_cell_angle_beta   103.50556768
_cell_angle_gamma   102.78724640
_symmetry_Int_Tables_number   1
_chemical_formula_structural   Zn4H40C69N22O13
_chemical_formula_sum   'Zn4 H40 C69 N22 O13'
_cell_volume   4394.93195574
_cell_formula_units_Z   1
loop_
 _symmetry_equiv_pos_site_id
 _symmetry_equiv_pos_as_xyz
  1  'x, y, z'
loop_
 _atom_site_type_symbol
 _atom_site_label
 _atom_site_symmetry_multiplicity
 _atom_site_fract_x
 _atom_site_fract_y
 _atom_site_fract_z
 _atom_site_occupancy
  Zn  Zn0  1  0.39108780  0.91594882  0.00150802  1.0
  Zn  Zn1  1  0.61338504  0.04439754  0.99744481  1.0
  Zn  Zn2  1  0.46664447  0.14920563  0.09912559  1.0
  Zn  Zn3  1  0.50726990  0.83726367  0.87052050  1.0
  H  H4  1  0.22670360  0.87219925  0.84332986  1.0
  H  H5  1  0.52357457  0.14340807  0.89534369  1.0
  H  H6  1  0.48712335  0.38526677  0.21834622  1.0
  H  H7  1  0.36380986  0.66204802  0.73036353  1.0
  H  H8  1  0.57952332  0.36024186  0.01425687  1.0
  H  H9  1  0.21085036  0.75621324  0.88337890  1.0
  H  H10  1  0.37796399  0.85303308  0.71798877  1.0
  H  H11  1  0.31870831  0.17099437  0.97774311  1.0
  H  H12  1  0.48715139  0.86349261  0.12855213  1.0
  H  H13  1  0.79174880  0.21666487  0.12567869  1.0
  H  H14  1  0.45252280  0.18065728  0.28015976  1.0
  H  H15  1  0.31859669  0.88445216  0.14142504  1.0
  H  H16  1  0.69561824  0.90388298  0.03141276  1.0
  H  H17  1  0.62079385  0.27871322  0.26640606  1.0
  H  H18  1  0.13532884  0.56612042  0.48572304  1.0
  H  H19  1  0.25619287  0.64551380  0.62215517  1.0
  H  H20  1  0.94841939  0.53848479  0.60716002  1.0
  H  H21  1  0.86075641  0.53785161  0.49412820  1.0
  H  H22  1  0.73569237  0.42529204  0.36212533  1.0
  H  H23  1  0.91338751  0.30853130  0.25853032  1.0
  H  H24  1  0.03810719  0.42164455  0.38962802  1.0
  H  H25  1  0.49700770  0.15944746  0.62952205  1.0
  H  H26  1  0.52117178  0.15047398  0.76055875  1.0
  H  H27  1  0.28840900  0.90441714  0.63350841  1.0
  H  H28  1  0.26554772  0.91223068  0.50206231  1.0
  H  H29  1  0.36152117  0.88869768  0.27563125  1.0
  H  H30  1  0.39212804  0.17641922  0.38935136  1.0
  H  H31  1  0.38995592  0.17433945  0.51974157  1.0
  H  H32  1  0.66765505  0.50852547  0.09448796  1.0
  H  H33  1  0.49967516  0.54787607  0.23984095  1.0
  H  H34  1  0.52271065  0.70359022  0.25654946  1.0
  H  H35  1  0.56023911  0.80826936  0.20188542  1.0
  H  H36  1  0.87412220  0.06271485  0.85935161  1.0
  H  H37  1  0.78547172  0.76567539  0.74006044  1.0
  H  H38  1  0.02143625  0.15186942  0.88177776  1.0
  H  H39  1  0.17646054  0.16190334  0.90688320  1.0
  H  H40  1  0.09157771  0.86485594  0.78071054  1.0
  H  H41  1  0.91435761  0.03322824  0.02046193  1.0
  H  H42  1  0.84599483  0.07227192  0.07838550  1.0
  H  H43  1  0.93145269  0.15405784  0.07397930  1.0
  C  C44  1  0.26233724  0.94568506  0.88347674  1.0
  C  C45  1  0.49584642  0.06859817  0.86038091  1.0
  C  C46  1  0.50482174  0.36367495  0.16273989  1.0
  C  C47  1  0.33879636  0.69507946  0.77903275  1.0
  C  C48  1  0.55322555  0.34960854  0.05895466  1.0
  C  C49  1  0.26092568  0.74219641  0.85724334  1.0
  C  C50  1  0.41935207  0.92037870  0.77132809  1.0
  C  C51  1  0.30833508  0.09813063  0.95195852  1.0
  C  C52  1  0.23510124  0.01960354  0.88787341  1.0
  C  C53  1  0.43543278  0.00805902  0.77749107  1.0
  C  C54  1  0.54989782  0.41696875  0.13345229  1.0
  C  C55  1  0.25118668  0.68618590  0.77346989  1.0
  C  C56  1  0.53246364  0.88161642  0.09971138  1.0
  C  C57  1  0.73851047  0.21964497  0.14970266  1.0
  C  C58  1  0.42070730  0.10797145  0.23401903  1.0
  C  C59  1  0.66694717  0.85380859  0.82180787  1.0
  C  C60  1  0.75644693  0.99519186  0.91533279  1.0
  C  C61  1  0.35368838  0.95687581  0.16386341  1.0
  C  C62  1  0.63796029  0.89973192  0.04891358  1.0
  C  C63  1  0.65062893  0.25066649  0.22059160  1.0
  C  C64  1  0.61086467  0.86299154  0.09778380  1.0
  C  C65  1  0.73919669  0.28144311  0.22773809  1.0
  C  C66  1  0.38217184  0.03305554  0.24452469  1.0
  C  C67  1  0.75034873  0.91844630  0.84152820  1.0
  C  C68  1  0.12017522  0.57572060  0.54172199  1.0
  C  C69  1  0.18864416  0.62121638  0.61926843  1.0
  C  C70  1  0.17430315  0.63909805  0.69500627  1.0
  C  C71  1  0.08497524  0.60934184  0.68607546  1.0
  C  C72  1  0.01553740  0.56161846  0.60881980  1.0
  C  C73  1  0.03178115  0.54322260  0.53451827  1.0
  C  C74  1  0.87238368  0.48701673  0.44270332  1.0
  C  C75  1  0.80184967  0.42334418  0.36825269  1.0
  C  C76  1  0.81425197  0.35591418  0.30119012  1.0
  C  C77  1  0.90128952  0.35951655  0.30938226  1.0
  C  C78  1  0.97195086  0.42365727  0.38340737  1.0
  C  C79  1  0.95854140  0.48644802  0.45259778  1.0
  C  C80  1  0.45014115  0.10416078  0.63047554  1.0
  C  C81  1  0.46363218  0.09927954  0.70458060  1.0
  C  C82  1  0.40873281  0.02488927  0.70634733  1.0
  C  C83  1  0.33484647  0.96037260  0.63298770  1.0
  C  C84  1  0.32189738  0.96470556  0.55872036  1.0
  C  C85  1  0.38172766  0.03438333  0.55530166  1.0
  C  C86  1  0.36895963  0.95349376  0.40291432  1.0
  C  C87  1  0.36708665  0.95244289  0.32781290  1.0
  C  C88  1  0.37733484  0.03301600  0.32144033  1.0
  C  C89  1  0.38590894  0.11285541  0.39248732  1.0
  C  C90  1  0.38541673  0.11201359  0.46645425  1.0
  C  C91  1  0.37801125  0.03260043  0.47500168  1.0
  C  C92  1  0.57818395  0.51491108  0.16094165  1.0
  C  C93  1  0.64048550  0.80217387  0.12638339  1.0
  C  C94  1  0.70066093  0.67777855  0.10014140  1.0
  C  C95  1  0.69699642  0.75649742  0.09631116  1.0
  C  C96  1  0.60064661  0.77265589  0.17332008  1.0
  C  C97  1  0.60326330  0.69369108  0.17962122  1.0
  C  C98  1  0.64865492  0.63887119  0.13645732  1.0
  C  C99  1  0.63642169  0.55144939  0.12999942  1.0
  C  C100  1  0.54161983  0.57386302  0.21158514  1.0
  C  C101  1  0.55415129  0.66048757  0.22081796  1.0
  C  C102  1  0.82189938  0.91527481  0.80918331  1.0
  C  C103  1  0.14513743  0.01337376  0.85076610  1.0
  C  C104  1  0.03746338  0.08933769  0.85987545  1.0
  C  C105  1  0.12356768  0.09468983  0.87380270  1.0
  C  C106  1  0.07652588  0.92767117  0.80207875  1.0
  C  C107  1  0.98769725  0.91996047  0.78793006  1.0
  C  C108  1  0.96812225  0.00269122  0.82309748  1.0
  C  C109  1  0.88542136  0.99829918  0.83034582  1.0
  C  C110  1  0.83593565  0.83254572  0.76457537  1.0
  C  C111  1  0.91423750  0.83544659  0.75106054  1.0
  C  C112  1  0.88213294  0.08416325  0.03930822  1.0
  N  N113  1  0.34355819  0.97793577  0.94138409  1.0
  N  N114  1  0.51497724  0.01947145  0.89885927  1.0
  N  N115  1  0.48426438  0.27347122  0.10921416  1.0
  N  N116  1  0.39571608  0.75434052  0.85872810  1.0
  N  N117  1  0.51396105  0.26461110  0.04433572  1.0
  N  N118  1  0.34686981  0.78436949  0.90730129  1.0
  N  N119  1  0.46774888  0.92831596  0.84382396  1.0
  N  N120  1  0.37196758  0.07194262  0.98360017  1.0
  N  N121  1  0.51449310  0.92418131  0.05489182  1.0
  N  N122  1  0.65588541  0.15821661  0.10094391  1.0
  N  N123  1  0.41586210  0.07854910  0.15397153  1.0
  N  N124  1  0.63074470  0.88965483  0.87899445  1.0
  N  N125  1  0.68440720  0.97643427  0.93536349  1.0
  N  N126  1  0.37374000  0.98467115  0.11035213  1.0
  N  N127  1  0.57865321  0.93454742  0.02180937  1.0
  N  N128  1  0.60111584  0.17672427  0.14471847  1.0
  N  N129  1  0.61093365  0.76515983  0.75261112  1.0
  N  N130  1  0.05799459  0.62751489  0.75927749  1.0
  N  N131  1  0.36968007  0.86748119  0.40446974  1.0
  N  N132  1  0.75948317  0.63432817  0.06496046  1.0
  N  N133  1  0.74826018  0.79063201  0.05363746  1.0
  N  N134  1  0.91950327  0.74693219  0.69697489  1.0
  O  O135  1  0.63658015  0.72554980  0.69564567  1.0
  O  O136  1  0.53460222  0.73183068  0.75251439  1.0
  O  O137  1  0.82237141  0.07836980  0.96536051  1.0
  O  O138  1  0.01946184  0.56071544  0.76493516  1.0
  O  O139  1  0.07341212  0.70954382  0.80921577  1.0
  O  O140  1  0.42747672  0.87375931  0.46391770  1.0
  O  O141  1  0.31414296  0.79405827  0.34381244  1.0
  O  O142  1  0.72912544  0.54989754  0.01722613  1.0
  O  O143  1  0.83611590  0.68572034  0.08609587  1.0
  O  O144  1  0.80728429  0.86755833  0.09774525  1.0
  O  O145  1  0.72566277  0.74244912  0.97662708  1.0
  O  O146  1  0.86779171  0.67490131  0.68685300  1.0
  O  O147  1  0.97415469  0.74857269  0.66168451  1.0
