# generated using pymatgen
data_GdH26C34N8O21
_symmetry_space_group_name_H-M   'P 1'
_cell_length_a   12.82964333
_cell_length_b   19.38595318
_cell_length_c   19.38446578
_cell_angle_alpha   102.85923073
_cell_angle_beta   95.93103134
_cell_angle_gamma   95.95549580
_symmetry_Int_Tables_number   1
_chemical_formula_structural   GdH26C34N8O21
_chemical_formula_sum   'Gd4 H104 C136 N32 O84'
_cell_volume   4635.01566566
_cell_formula_units_Z   4
loop_
 _symmetry_equiv_pos_site_id
 _symmetry_equiv_pos_as_xyz
  1  'x, y, z'
loop_
 _atom_site_type_symbol
 _atom_site_label
 _atom_site_symmetry_multiplicity
 _atom_site_fract_x
 _atom_site_fract_y
 _atom_site_fract_z
 _atom_site_occupancy
  Gd  Gd0  1  0.34157806  0.45936311  0.97988832  1.0
  Gd  Gd1  1  0.15840004  0.02017016  0.54066702  1.0
  Gd  Gd2  1  0.65842773  0.54063964  0.02011961  1.0
  Gd  Gd3  1  0.84159375  0.97982220  0.45933024  1.0
  H  H4  1  0.28517300  0.58581721  0.81945925  1.0
  H  H5  1  0.21456329  0.18056482  0.41421751  1.0
  H  H6  1  0.71483232  0.41419144  0.18055716  1.0
  H  H7  1  0.78543712  0.81942549  0.58577504  1.0
  H  H8  1  0.59648273  0.69919907  0.89163519  1.0
  H  H9  1  0.90319542  0.10835985  0.30087150  1.0
  H  H10  1  0.40351578  0.30080349  0.10836455  1.0
  H  H11  1  0.09679712  0.89163790  0.69913717  1.0
  H  H12  1  0.34125432  0.81100896  0.55991752  1.0
  H  H13  1  0.15871589  0.44004450  0.18920067  1.0
  H  H14  1  0.65875722  0.18899119  0.44008554  1.0
  H  H15  1  0.84125816  0.55995179  0.81079733  1.0
  H  H16  1  0.31911775  0.95923354  0.75880997  1.0
  H  H17  1  0.18094973  0.24126584  0.04079297  1.0
  H  H18  1  0.68088698  0.04077012  0.24118159  1.0
  H  H19  1  0.81904390  0.75873709  0.95919728  1.0
  H  H20  1  0.30492976  0.55813717  0.14043136  1.0
  H  H21  1  0.19532880  0.85971125  0.44179431  1.0
  H  H22  1  0.69508717  0.44186531  0.85958542  1.0
  H  H23  1  0.80467642  0.14028878  0.55820733  1.0
  H  H24  1  0.52591074  0.74879339  0.16543647  1.0
  H  H25  1  0.97427001  0.83475161  0.25117167  1.0
  H  H26  1  0.47407830  0.25121581  0.83455178  1.0
  H  H27  1  0.02572220  0.16525083  0.74882717  1.0
  H  H28  1  0.26767475  0.62843486  0.95125673  1.0
  H  H29  1  0.23243267  0.04877029  0.37156498  1.0
  H  H30  1  0.73232060  0.37155550  0.04875205  1.0
  H  H31  1  0.76755587  0.95121020  0.62841908  1.0
  H  H32  1  0.17562881  0.70961521  0.92898308  1.0
  H  H33  1  0.32455973  0.07109376  0.29045200  1.0
  H  H34  1  0.82439507  0.29038255  0.07102688  1.0
  H  H35  1  0.67544343  0.92889875  0.70954377  1.0
  H  H36  1  0.07456690  0.73272461  0.98348913  1.0
  H  H37  1  0.42550988  0.01652886  0.26727346  1.0
  H  H38  1  0.92543811  0.26727383  0.01651371  1.0
  H  H39  1  0.57450521  0.98347932  0.73272948  1.0
  H  H40  1  0.04249924  0.67141943  0.89815698  1.0
  H  H41  1  0.45769822  0.10184795  0.32858590  1.0
  H  H42  1  0.95750740  0.32857578  0.10183647  1.0
  H  H43  1  0.54228838  0.89814753  0.67141781  1.0
  H  H44  1  0.98920435  0.64442735  0.03660304  1.0
  H  H45  1  0.51088463  0.96350450  0.35565105  1.0
  H  H46  1  0.01078482  0.35556496  0.96339755  1.0
  H  H47  1  0.48911785  0.03649915  0.64434451  1.0
  H  H48  1  0.06161479  0.57278203  0.04985072  1.0
  H  H49  1  0.43834876  0.95023975  0.42728641  1.0
  H  H50  1  0.93836939  0.42720910  0.95014520  1.0
  H  H51  1  0.56166366  0.04975717  0.57270877  1.0
  H  H52  1  0.97417183  0.56311169  0.96953901  1.0
  H  H53  1  0.52584431  0.03054597  0.43698271  1.0
  H  H54  1  0.02582165  0.43688436  0.03045490  1.0
  H  H55  1  0.47415727  0.96945232  0.56300905  1.0
  H  H56  1  0.19041640  0.32565187  0.83501576  1.0
  H  H57  1  0.30950503  0.16482903  0.67427885  1.0
  H  H58  1  0.80958292  0.67435501  0.16499064  1.0
  H  H59  1  0.69049128  0.83516975  0.32571840  1.0
  H  H60  1  0.13198086  0.27303391  0.72491537  1.0
  H  H61  1  0.36774721  0.27493752  0.72696646  1.0
  H  H62  1  0.86802194  0.72696934  0.27509508  1.0
  H  H63  1  0.63224599  0.72506122  0.27303162  1.0
  H  H64  1  0.15585129  0.32535563  0.66181572  1.0
  H  H65  1  0.34394413  0.33809157  0.67470111  1.0
  H  H66  1  0.84415294  0.67463648  0.33819343  1.0
  H  H67  1  0.65605690  0.66191260  0.32529602  1.0
  H  H68  1  0.02667088  0.31202258  0.68663765  1.0
  H  H69  1  0.47312123  0.31329495  0.68802925  1.0
  H  H70  1  0.97333918  0.68797227  0.31336934  1.0
  H  H71  1  0.52688141  0.68669916  0.31196735  1.0
  H  H72  1  0.16949620  0.46368542  0.70917040  1.0
  H  H73  1  0.33042408  0.29088279  0.53636884  1.0
  H  H74  1  0.83050152  0.53630752  0.29082411  1.0
  H  H75  1  0.66957416  0.70911817  0.46363001  1.0
  H  H76  1  0.13522699  0.49308945  0.79726594  1.0
  H  H77  1  0.36463611  0.20279918  0.50690401  1.0
  H  H78  1  0.86477132  0.50691356  0.20272357  1.0
  H  H79  1  0.63535942  0.79719959  0.49309319  1.0
  H  H80  1  0.03519919  0.44840309  0.72558034  1.0
  H  H81  1  0.46467308  0.27447455  0.55157812  1.0
  H  H82  1  0.96480028  0.55159095  0.27441503  1.0
  H  H83  1  0.53532396  0.72552372  0.44842009  1.0
  H  H84  1  0.65436741  0.72978113  0.02902656  1.0
  H  H85  1  0.84525771  0.97070659  0.27027856  1.0
  H  H86  1  0.34563472  0.27019787  0.97100801  1.0
  H  H87  1  0.15476088  0.02930277  0.72973206  1.0
  H  H88  1  0.47352321  0.71156414  0.01946670  1.0
  H  H89  1  0.02646730  0.98045268  0.28849075  1.0
  H  H90  1  0.52642513  0.28841838  0.98052478  1.0
  H  H91  1  0.97354075  0.01954957  0.71151669  1.0
  H  H92  1  0.29597599  0.75503759  0.02591257  1.0
  H  H93  1  0.20409039  0.97404924  0.24492977  1.0
  H  H94  1  0.70399508  0.24496880  0.97409364  1.0
  H  H95  1  0.79593446  0.02594632  0.75506945  1.0
  H  H96  1  0.28385226  0.88400119  0.04553460  1.0
  H  H97  1  0.21608557  0.95445698  0.11599623  1.0
  H  H98  1  0.71615902  0.11601074  0.95448132  1.0
  H  H99  1  0.78391292  0.04554128  0.88399742  1.0
  H  H100  1  0.44714907  0.97177532  0.06647834  1.0
  H  H101  1  0.05258836  0.93343996  0.02826701  1.0
  H  H102  1  0.55287306  0.02822693  0.93349792  1.0
  H  H103  1  0.94739583  0.06656558  0.97173719  1.0
  H  H104  1  0.62411243  0.92844461  0.06493200  1.0
  H  H105  1  0.87567025  0.93498700  0.07177103  1.0
  H  H106  1  0.37587550  0.07153619  0.93502578  1.0
  H  H107  1  0.12431471  0.06502990  0.92825787  1.0
  C  C108  1  0.46380709  0.58662470  0.90865562  1.0
  C  C109  1  0.03613165  0.09119118  0.41331929  1.0
  C  C110  1  0.53618838  0.41338212  0.09135313  1.0
  C  C111  1  0.96386777  0.90880714  0.58667958  1.0
  C  C112  1  0.44445317  0.63537323  0.85928818  1.0
  C  C113  1  0.05523611  0.14077094  0.36477118  1.0
  C  C114  1  0.55554574  0.36463148  0.14071462  1.0
  C  C115  1  0.94476264  0.85922791  0.63522931  1.0
  C  C116  1  0.34648201  0.62849770  0.81813975  1.0
  C  C117  1  0.15318447  0.18197221  0.37161961  1.0
  C  C118  1  0.65351394  0.37150752  0.18186661  1.0
  C  C119  1  0.84681701  0.81802504  0.62837451  1.0
  C  C120  1  0.32588570  0.67668012  0.77670560  1.0
  C  C121  1  0.17382910  0.22333187  0.32338521  1.0
  C  C122  1  0.67411105  0.32332512  0.22330133  1.0
  C  C123  1  0.82616623  0.77666203  0.67660215  1.0
  C  C124  1  0.40269841  0.73248241  0.77158172  1.0
  C  C125  1  0.09704655  0.22840734  0.26758625  1.0
  C  C126  1  0.59729839  0.26752386  0.22842131  1.0
  C  C127  1  0.90295430  0.77158666  0.73240196  1.0
  C  C128  1  0.49970494  0.73787311  0.81488152  1.0
  C  C129  1  0.00001613  0.18517877  0.26230872  1.0
  C  C130  1  0.50029357  0.26213374  0.18512380  1.0
  C  C131  1  0.99998301  0.81481817  0.73768962  1.0
  C  C132  1  0.52086645  0.69134016  0.85815149  1.0
  C  C133  1  0.97879344  0.14192816  0.30885255  1.0
  C  C134  1  0.47913485  0.30866031  0.14184744  1.0
  C  C135  1  0.02120369  0.85807013  0.69114877  1.0
  C  C136  1  0.38013048  0.78688753  0.73017371  1.0
  C  C137  1  0.11965403  0.26975834  0.21313355  1.0
  C  C138  1  0.61986009  0.21311385  0.26982841  1.0
  C  C139  1  0.88034517  0.73023940  0.78686002  1.0
  C  C140  1  0.37848549  0.77514608  0.65558970  1.0
  C  C141  1  0.12136284  0.34434637  0.22491710  1.0
  C  C142  1  0.62150794  0.22485323  0.34441420  1.0
  C  C143  1  0.87864591  0.65565157  0.77508171  1.0
  C  C144  1  0.34608600  0.82389493  0.61787826  1.0
  C  C145  1  0.15383766  0.38209122  0.17620089  1.0
  C  C146  1  0.65391339  0.17610237  0.38212554  1.0
  C  C147  1  0.84615944  0.61790757  0.82379641  1.0
  C  C148  1  0.32026950  0.88933642  0.65427810  1.0
  C  C149  1  0.17964874  0.34574875  0.11073648  1.0
  C  C150  1  0.67972563  0.11065969  0.34571901  1.0
  C  C151  1  0.82035115  0.65425276  0.88926208  1.0
  C  C152  1  0.33300528  0.90680519  0.72872737  1.0
  C  C153  1  0.16691934  0.27129065  0.09321072  1.0
  C  C154  1  0.66698792  0.09319355  0.27127072  1.0
  C  C155  1  0.83308193  0.72871031  0.90678368  1.0
  C  C156  1  0.35992409  0.85511784  0.76463878  1.0
  C  C157  1  0.13994003  0.23533854  0.14487718  1.0
  C  C158  1  0.64007316  0.14488202  0.23535823  1.0
  C  C159  1  0.86006112  0.76466189  0.85511606  1.0
  C  C160  1  0.27617841  0.93878325  0.61282890  1.0
  C  C161  1  0.22371624  0.38720095  0.06126392  1.0
  C  C162  1  0.72382788  0.06121840  0.38717418  1.0
  C  C163  1  0.77628502  0.61279900  0.93873645  1.0
  C  C164  1  0.49797467  0.60740226  0.10461896  1.0
  C  C165  1  0.00222587  0.89546465  0.39262855  1.0
  C  C166  1  0.50202757  0.39260838  0.89538739  1.0
  C  C167  1  0.99776489  0.10453249  0.60737524  1.0
  C  C168  1  0.42503274  0.64853777  0.14835054  1.0
  C  C169  1  0.07525990  0.85194872  0.35137573  1.0
  C  C170  1  0.57496659  0.35146860  0.85165884  1.0
  C  C171  1  0.92473595  0.14805065  0.64863038  1.0
  C  C172  1  0.32898907  0.61537193  0.16079066  1.0
  C  C173  1  0.17122484  0.83946708  0.38454238  1.0
  C  C174  1  0.67101787  0.38463196  0.83922482  1.0
  C  C175  1  0.82877563  0.16053285  0.61545742  1.0
  C  C176  1  0.26390788  0.65614769  0.20129861  1.0
  C  C177  1  0.23611574  0.79881854  0.34374199  1.0
  C  C178  1  0.73609151  0.34385492  0.79870480  1.0
  C  C179  1  0.76388143  0.20118027  0.65625789  1.0
  C  C180  1  0.28613425  0.73064810  0.22704554  1.0
  C  C181  1  0.21381825  0.77295710  0.26926887  1.0
  C  C182  1  0.71386971  0.26935453  0.77295246  1.0
  C  C183  1  0.78618521  0.22704234  0.73072841  1.0
  C  C184  1  0.38190195  0.76171939  0.21121771  1.0
  C  C185  1  0.11815149  0.78883173  0.23815825  1.0
  C  C186  1  0.61809550  0.23828786  0.78877422  1.0
  C  C187  1  0.88185080  0.21116932  0.76184499  1.0
  C  C188  1  0.45186569  0.72190336  0.17480991  1.0
  C  C189  1  0.04835889  0.82541007  0.27800379  1.0
  C  C190  1  0.54812943  0.27810386  0.82518291  1.0
  C  C191  1  0.95163392  0.17459030  0.72200030  1.0
  C  C192  1  0.20800071  0.60178405  0.97715482  1.0
  C  C193  1  0.29206006  0.02284273  0.39823687  1.0
  C  C194  1  0.79199788  0.39820740  0.02285180  1.0
  C  C195  1  0.70794061  0.97714489  0.60175098  1.0
  C  C196  1  0.10170465  0.68937508  0.94560347  1.0
  C  C197  1  0.39844183  0.05442716  0.31063629  1.0
  C  C198  1  0.89829756  0.31062013  0.05440005  1.0
  C  C199  1  0.60156099  0.94557383  0.68935768  1.0
  C  C200  1  0.03061629  0.60096875  0.01076628  1.0
  C  C201  1  0.46945665  0.98930063  0.39908986  1.0
  C  C202  1  0.96937729  0.39902305  0.98922620  1.0
  C  C203  1  0.53054842  0.01069456  0.60090350  1.0
  C  C204  1  0.17964831  0.37996312  0.82929243  1.0
  C  C205  1  0.32030285  0.17061876  0.61997793  1.0
  C  C206  1  0.82035477  0.62004806  0.17071305  1.0
  C  C207  1  0.67969304  0.82937735  0.38001819  1.0
  C  C208  1  0.11138627  0.31989474  0.70633428  1.0
  C  C209  1  0.38838880  0.29359717  0.68014539  1.0
  C  C210  1  0.88860766  0.68010196  0.29367373  1.0
  C  C211  1  0.61160677  0.70639681  0.31985077  1.0
  C  C212  1  0.11805173  0.45121434  0.74800794  1.0
  C  C213  1  0.38182803  0.25202932  0.54880028  1.0
  C  C214  1  0.88194466  0.54878548  0.25198592  1.0
  C  C215  1  0.61816805  0.74796736  0.45120011  1.0
  C  C216  1  0.65993029  0.78890405  0.03717668  1.0
  C  C217  1  0.84000482  0.96285130  0.21120575  1.0
  C  C218  1  0.34006331  0.21107183  0.96281803  1.0
  C  C219  1  0.16001479  0.03716397  0.78881033  1.0
  C  C220  1  0.55829976  0.81754467  0.04122479  1.0
  C  C221  1  0.94166813  0.95878596  0.18258950  1.0
  C  C222  1  0.44168246  0.18243671  0.95875136  1.0
  C  C223  1  0.05834792  0.04122759  0.81741982  1.0
  C  C224  1  0.46604806  0.76846644  0.03027836  1.0
  C  C225  1  0.03394392  0.96968723  0.23159764  1.0
  C  C226  1  0.53392561  0.23151911  0.96970646  1.0
  C  C227  1  0.96607535  0.03031149  0.76841020  1.0
  C  C228  1  0.36772633  0.79251189  0.03306609  1.0
  C  C229  1  0.13226694  0.96689812  0.20751454  1.0
  C  C230  1  0.63225705  0.20748351  0.96693484  1.0
  C  C231  1  0.86774782  0.03309200  0.79248962  1.0
  C  C232  1  0.36126360  0.86560986  0.04547752  1.0
  C  C233  1  0.13865237  0.95448239  0.13440001  1.0
  C  C234  1  0.63873858  0.13439015  0.95452755  1.0
  C  C235  1  0.86134794  0.04551648  0.86560007  1.0
  C  C236  1  0.45283621  0.91480668  0.05662832  1.0
  C  C237  1  0.04699657  0.94333426  0.08525255  1.0
  C  C238  1  0.54717034  0.08519279  0.94336708  1.0
  C  C239  1  0.95299625  0.05667672  0.91475075  1.0
  C  C240  1  0.55154714  0.89114603  0.05491023  1.0
  C  C241  1  0.94833050  0.94504898  0.10897228  1.0
  C  C242  1  0.44844167  0.10883910  0.94505680  1.0
  C  C243  1  0.05167143  0.05496382  0.89104019  1.0
  N  N244  1  0.21710432  0.66847440  0.74022813  1.0
  N  N245  1  0.28266552  0.25968828  0.33150101  1.0
  N  N246  1  0.78289600  0.33152346  0.25977843  1.0
  N  N247  1  0.71733370  0.74030466  0.66849101  1.0
  N  N248  1  0.58209778  0.79832893  0.82075300  1.0
  N  N249  1  0.91763093  0.17933654  0.20190770  1.0
  N  N250  1  0.41790153  0.20167365  0.17924730  1.0
  N  N251  1  0.08236016  0.82066325  0.79809359  1.0
  N  N252  1  0.40709306  0.70790825  0.61387824  1.0
  N  N253  1  0.09293095  0.38603602  0.29223250  1.0
  N  N254  1  0.59290558  0.29209434  0.38612616  1.0
  N  N255  1  0.90707285  0.61395973  0.70776916  1.0
  N  N256  1  0.36742190  0.87478030  0.84330384  1.0
  N  N257  1  0.13254870  0.15666967  0.12520292  1.0
  N  N258  1  0.63260168  0.12523278  0.15669652  1.0
  N  N259  1  0.86744606  0.84333061  0.87478579  1.0
  N  N260  1  0.16759903  0.61784463  0.21761105  1.0
  N  N261  1  0.33229751  0.78246496  0.38203752  1.0
  N  N262  1  0.83240644  0.38215650  0.78239394  1.0
  N  N263  1  0.66770650  0.21754351  0.61795918  1.0
  N  N264  1  0.41276985  0.83941934  0.23310457  1.0
  N  N265  1  0.08721494  0.76684030  0.16044633  1.0
  N  N266  1  0.58722426  0.16059057  0.76689444  1.0
  N  N267  1  0.91279284  0.23317677  0.83955554  1.0
  N  N268  1  0.11815523  0.63057253  0.97924435  1.0
  N  N269  1  0.38194085  0.02080453  0.36944730  1.0
  N  N270  1  0.88184522  0.36942158  0.02075831  1.0
  N  N271  1  0.61806436  0.97918640  0.63054566  1.0
  N  N272  1  0.13719969  0.38339190  0.76429073  1.0
  N  N273  1  0.36266232  0.23566988  0.61660201  1.0
  N  N274  1  0.86279784  0.61660906  0.23571066  1.0
  N  N275  1  0.63732967  0.76432618  0.38339543  1.0
  O  O276  1  0.38898339  0.53762305  0.90654777  1.0
  O  O277  1  0.11106613  0.09326573  0.46220900  1.0
  O  O278  1  0.61101561  0.46238599  0.09346372  1.0
  O  O279  1  0.88892718  0.90673406  0.53778726  1.0
  O  O280  1  0.55097846  0.60053711  0.94922385  1.0
  O  O281  1  0.94910818  0.05045399  0.39933633  1.0
  O  O282  1  0.44902418  0.39947089  0.05078350  1.0
  O  O283  1  0.05088950  0.94953945  0.60065364  1.0
  O  O284  1  0.23917737  0.91273699  0.54744968  1.0
  O  O285  1  0.26067085  0.45261120  0.08726407  1.0
  O  O286  1  0.76084130  0.08726482  0.45254693  1.0
  O  O287  1  0.73933918  0.54738944  0.91273798  1.0
  O  O288  1  0.27307111  0.00360828  0.64373561  1.0
  O  O289  1  0.22689645  0.35627083  0.99645577  1.0
  O  O290  1  0.72692641  0.99638787  0.35626269  1.0
  O  O291  1  0.77310148  0.64373811  0.00354532  1.0
  O  O292  1  0.15153775  0.62245356  0.75236682  1.0
  O  O293  1  0.34821142  0.24752440  0.37749716  1.0
  O  O294  1  0.84846415  0.37754484  0.24763685  1.0
  O  O295  1  0.65178748  0.75245732  0.62248673  1.0
  O  O296  1  0.19609468  0.70841954  0.70025932  1.0
  O  O297  1  0.30370165  0.29958083  0.29148037  1.0
  O  O298  1  0.80391036  0.29157462  0.29973897  1.0
  O  O299  1  0.69629488  0.70042383  0.70852126  1.0
  O  O300  1  0.64224502  0.81779079  0.87765137  1.0
  O  O301  1  0.85740460  0.12245435  0.18249308  1.0
  O  O302  1  0.35776557  0.18219919  0.12234376  1.0
  O  O303  1  0.14257557  0.87755058  0.81751024  1.0
  O  O304  1  0.58599962  0.82653320  0.76935217  1.0
  O  O305  1  0.91387156  0.23070531  0.17365381  1.0
  O  O306  1  0.41399519  0.17347517  0.23065222  1.0
  O  O307  1  0.08612985  0.76929571  0.82634627  1.0
  O  O308  1  0.42834517  0.66164484  0.64631623  1.0
  O  O309  1  0.07160046  0.35357964  0.33847954  1.0
  O  O310  1  0.57163751  0.33835537  0.35369034  1.0
  O  O311  1  0.92841749  0.64641637  0.66152299  1.0
  O  O312  1  0.40819059  0.70155914  0.54902293  1.0
  O  O313  1  0.09203953  0.45090737  0.29865550  1.0
  O  O314  1  0.59180410  0.29843277  0.45098202  1.0
  O  O315  1  0.90795004  0.54908811  0.70134219  1.0
  O  O316  1  0.34104716  0.82717670  0.87389677  1.0
  O  O317  1  0.15867616  0.12612949  0.17289165  1.0
  O  O318  1  0.65898908  0.17284572  0.12611564  1.0
  O  O319  1  0.84130430  0.87386468  0.82709388  1.0
  O  O320  1  0.39987456  0.93764069  0.87306629  1.0
  O  O321  1  0.10058198  0.12683728  0.06229492  1.0
  O  O322  1  0.60016296  0.06237307  0.12692419  1.0
  O  O323  1  0.89942135  0.87316844  0.93769133  1.0
  O  O324  1  0.45895420  0.54936688  0.06005969  1.0
  O  O325  1  0.04108324  0.93987880  0.45079319  1.0
  O  O326  1  0.54105382  0.45064016  0.93994930  1.0
  O  O327  1  0.95891512  0.06011687  0.54921021  1.0
  O  O328  1  0.59494249  0.63201059  0.11186731  1.0
  O  O329  1  0.90523643  0.88803933  0.36807605  1.0
  O  O330  1  0.40506369  0.36799532  0.88813721  1.0
  O  O331  1  0.09475409  0.11195040  0.63193128  1.0
  O  O332  1  0.13500087  0.64264060  0.27504809  1.0
  O  O333  1  0.36496230  0.72506193  0.35720400  1.0
  O  O334  1  0.86500006  0.35736732  0.72495347  1.0
  O  O335  1  0.63505024  0.27495145  0.64279115  1.0
  O  O336  1  0.12537391  0.56322147  0.17333885  1.0
  O  O337  1  0.37436972  0.82670426  0.43671627  1.0
  O  O338  1  0.87464923  0.43677149  0.82667054  1.0
  O  O339  1  0.62564035  0.17331385  0.56327718  1.0
  O  O340  1  0.34127151  0.87779529  0.24255264  1.0
  O  O341  1  0.15871938  0.75736478  0.12204920  1.0
  O  O342  1  0.65873025  0.12220911  0.75747194  1.0
  O  O343  1  0.84130039  0.24269022  0.87795436  1.0
  O  O344  1  0.50820548  0.86184662  0.24059222  1.0
  O  O345  1  0.99178821  0.75933707  0.13804308  1.0
  O  O346  1  0.49179316  0.13816433  0.75939386  1.0
  O  O347  1  0.00822289  0.24065560  0.86195628  1.0
  O  O348  1  0.22599676  0.54923075  0.00223582  1.0
  O  O349  1  0.27401171  0.99771512  0.45077006  1.0
  O  O350  1  0.77399281  0.45076270  0.99777381  1.0
  O  O351  1  0.72598152  0.00227453  0.54922141  1.0
  O  O352  1  0.20516994  0.43342492  0.88042169  1.0
  O  O353  1  0.29485709  0.11949924  0.56649101  1.0
  O  O354  1  0.79484076  0.56659062  0.11958105  1.0
  O  O355  1  0.70514138  0.88049319  0.43350498  1.0
  O  O356  1  0.74631328  0.82448818  0.04093474  1.0
  O  O357  1  0.75376757  0.95939110  0.17554830  1.0
  O  O358  1  0.25367966  0.17548191  0.95906796  1.0
  O  O359  1  0.24623149  0.04062326  0.82446538  1.0
