# generated using pymatgen
data_AlH9C14SNO8
_symmetry_space_group_name_H-M   'P 1'
_cell_length_a   6.67965706
_cell_length_b   10.93336658
_cell_length_c   17.60930235
_cell_angle_alpha   93.27065327
_cell_angle_beta   98.42116838
_cell_angle_gamma   104.16210158
_symmetry_Int_Tables_number   1
_chemical_formula_structural   AlH9C14SNO8
_chemical_formula_sum   'Al2 H18 C28 S2 N2 O16'
_cell_volume   1227.70014212
_cell_formula_units_Z   2
loop_
 _symmetry_equiv_pos_site_id
 _symmetry_equiv_pos_as_xyz
  1  'x, y, z'
loop_
 _atom_site_type_symbol
 _atom_site_label
 _atom_site_symmetry_multiplicity
 _atom_site_fract_x
 _atom_site_fract_y
 _atom_site_fract_z
 _atom_site_occupancy
  Al  Al0  1  0.49810685  0.50244896  0.50141341  1.0
  Al  Al1  1  0.99720018  0.50221488  0.50230063  1.0
  H  H2  1  0.24884822  0.58656814  0.42150246  1.0
  H  H3  1  0.73864684  0.39899253  0.57396104  1.0
  H  H4  1  0.68271079  0.52147102  0.72105816  1.0
  H  H5  1  0.77917936  0.52352730  0.86371269  1.0
  H  H6  1  0.03232388  0.44413646  0.74274491  1.0
  H  H7  1  0.94218605  0.45236887  0.26437648  1.0
  H  H8  1  0.37651795  0.56953858  0.27555504  1.0
  H  H9  1  0.31457411  0.56955990  0.13207464  1.0
  H  H10  1  0.18440561  0.79007475  0.62629280  1.0
  H  H11  1  0.45790266  0.23960094  0.58339059  1.0
  H  H12  1  0.77243979  0.11641119  0.43313424  1.0
  H  H13  1  0.63848490  0.88678360  0.45040471  1.0
  H  H14  1  0.13957521  0.39078209  0.94680514  1.0
  H  H15  1  0.95457624  0.35106863  0.86601593  1.0
  H  H16  1  0.86463703  0.42776128  0.05282632  1.0
  H  H17  1  0.01687327  0.40037798  0.13485424  1.0
  H  H18  1  0.65689564  0.76861386  0.62822035  1.0
  H  H19  1  0.62690241  0.29346379  0.77162950  1.0
  C  C20  1  0.84829608  0.73507772  0.52216103  1.0
  C  C21  1  0.69927214  0.50618391  0.36282329  1.0
  C  C22  1  0.14489747  0.27207587  0.48759519  1.0
  C  C23  1  0.30133781  0.49758320  0.64047778  1.0
  C  C24  1  0.35035244  0.48265134  0.72416655  1.0
  C  C25  1  0.56234182  0.50000221  0.75726528  1.0
  C  C26  1  0.61531578  0.50086393  0.83640899  1.0
  C  C27  1  0.45903228  0.47661312  0.88362375  1.0
  C  C28  1  0.24395283  0.44657195  0.84891484  1.0
  C  C29  1  0.19426037  0.45675894  0.76957713  1.0
  C  C30  1  0.51138121  0.48404781  0.96457798  1.0
  C  C31  1  0.54422120  0.49581271  0.03526211  1.0
  C  C32  1  0.58755993  0.50544631  0.11650177  1.0
  C  C33  1  0.77110964  0.47455511  0.15383278  1.0
  C  C34  1  0.80477336  0.47722859  0.23449569  1.0
  C  C35  1  0.66189992  0.50879723  0.27769227  1.0
  C  C36  1  0.48422937  0.54262804  0.24107136  1.0
  C  C37  1  0.44986286  0.54204085  0.16147700  1.0
  C  C38  1  0.92022489  0.87571133  0.52190706  1.0
  C  C39  1  0.12275740  0.94354887  0.56105567  1.0
  C  C40  1  0.79567531  0.93876168  0.47802725  1.0
  C  C41  1  0.24382224  0.88801035  0.61511888  1.0
  C  C42  1  0.43480153  0.95522764  0.65613616  1.0
  C  C43  1  0.07463560  0.13396237  0.49938891  1.0
  C  C44  1  0.87223598  0.06740574  0.46731951  1.0
  C  C45  1  0.20135748  0.07363563  0.54908309  1.0
  C  C46  1  0.39779111  0.14077808  0.59170485  1.0
  C  C47  1  0.51309887  0.08481034  0.64390675  1.0
  S  S48  1  0.56024462  0.86643968  0.72178993  1.0
  S  S49  1  0.75257837  0.18949400  0.69178653  1.0
  N  N50  1  0.08853128  0.41333150  0.89342798  1.0
  N  N51  1  0.91181142  0.44567643  0.11073748  1.0
  O  O52  1  0.65839318  0.68575678  0.52972716  1.0
  O  O53  1  0.87661072  0.49428552  0.39459557  1.0
  O  O54  1  0.00080288  0.32956545  0.48731199  1.0
  O  O55  1  0.45178403  0.49657507  0.60326401  1.0
  O  O56  1  0.33430749  0.32130535  0.48083863  1.0
  O  O57  1  0.12275421  0.50978810  0.61030261  1.0
  O  O58  1  0.98478566  0.67581237  0.51193409  1.0
  O  O59  1  0.54983043  0.51712126  0.39871038  1.0
  O  O60  1  0.25993052  0.55904865  0.47297913  1.0
  O  O61  1  0.73623842  0.44910798  0.52972674  1.0
  O  O62  1  0.72686948  0.82976470  0.67413160  1.0
  O  O63  1  0.67855764  0.94652220  0.78849018  1.0
  O  O64  1  0.40335957  0.75323629  0.72915742  1.0
  O  O65  1  0.70128880  0.22521491  0.77583227  1.0
  O  O66  1  0.91809619  0.12760733  0.70309470  1.0
  O  O67  1  0.78001958  0.30436147  0.65336418  1.0
