# generated using pymatgen
data_CdSiH32C52N8(O4F3)2
_symmetry_space_group_name_H-M   'P 1'
_cell_length_a   16.43640648
_cell_length_b   21.45210275
_cell_length_c   21.45210934
_cell_angle_alpha   89.99998767
_cell_angle_beta   89.99998543
_cell_angle_gamma   89.99996844
_symmetry_Int_Tables_number   1
_chemical_formula_structural   CdSiH32C52N8(O4F3)2
_chemical_formula_sum   'Cd4 Si4 H128 C208 N32 O32 F24'
_cell_volume   7563.91680369
_cell_formula_units_Z   4
loop_
 _symmetry_equiv_pos_site_id
 _symmetry_equiv_pos_as_xyz
  1  'x, y, z'
loop_
 _atom_site_type_symbol
 _atom_site_label
 _atom_site_symmetry_multiplicity
 _atom_site_fract_x
 _atom_site_fract_y
 _atom_site_fract_z
 _atom_site_occupancy
  Cd  Cd0  1  0.15690677  0.75000049  0.75000028  1.0
  Cd  Cd1  1  0.84309413  0.24999953  0.25000141  1.0
  Cd  Cd2  1  0.34269217  0.24999964  0.25000146  1.0
  Cd  Cd3  1  0.65730813  0.75000085  0.75000069  1.0
  Si  Si4  1  0.09212098  0.25000062  0.25000009  1.0
  Si  Si5  1  0.90787932  0.74999940  0.74999974  1.0
  Si  Si6  1  0.40805048  0.74999950  0.75000025  1.0
  Si  Si7  1  0.59194921  0.25000005  0.25000051  1.0
  H  H8  1  0.03272206  0.76602131  0.86360124  1.0
  H  H9  1  0.03271968  0.73397599  0.63639841  1.0
  H  H10  1  0.03272030  0.63639813  0.76602204  1.0
  H  H11  1  0.03271840  0.86360104  0.73397668  1.0
  H  H12  1  0.96727945  0.23397684  0.13639905  1.0
  H  H13  1  0.96728123  0.26602449  0.36360095  1.0
  H  H14  1  0.96728061  0.36360096  0.23397732  1.0
  H  H15  1  0.96728129  0.13639852  0.26602408  1.0
  H  H16  1  0.02891706  0.80265361  0.97464113  1.0
  H  H17  1  0.02891535  0.69734277  0.52535852  1.0
  H  H18  1  0.02891597  0.52535773  0.80265341  1.0
  H  H19  1  0.02891522  0.97464144  0.69734437  1.0
  H  H20  1  0.97108384  0.19734362  0.02535916  1.0
  H  H21  1  0.97108495  0.30265772  0.47464131  1.0
  H  H22  1  0.97108432  0.47464089  0.19734455  1.0
  H  H23  1  0.97108386  0.02535858  0.30265592  1.0
  H  H24  1  0.28328591  0.85032021  0.95693515  1.0
  H  H25  1  0.28328605  0.64968305  0.54306212  1.0
  H  H26  1  0.28328543  0.54306363  0.85032003  1.0
  H  H27  1  0.28328592  0.95693683  0.64968144  1.0
  H  H28  1  0.71671378  0.14968214  0.04306374  1.0
  H  H29  1  0.71671364  0.35031697  0.45693678  1.0
  H  H30  1  0.71671426  0.45693686  0.14968213  1.0
  H  H31  1  0.71671437  0.04306365  0.35031886  1.0
  H  H32  1  0.27927777  0.80741487  0.84846377  1.0
  H  H33  1  0.27927784  0.69258792  0.65153396  1.0
  H  H34  1  0.27927661  0.65153505  0.80741468  1.0
  H  H35  1  0.27927656  0.84846494  0.69258585  1.0
  H  H36  1  0.72072192  0.19258701  0.15153559  1.0
  H  H37  1  0.72072306  0.30741163  0.34846540  1.0
  H  H38  1  0.72072307  0.34846543  0.19258701  1.0
  H  H39  1  0.72072313  0.15153461  0.30741397  1.0
  H  H40  1  0.19953538  0.89231061  0.04592357  1.0
  H  H41  1  0.19953541  0.60768999  0.45407554  1.0
  H  H42  1  0.19953479  0.45407563  0.89231032  1.0
  H  H43  1  0.19953498  0.04592453  0.60768940  1.0
  H  H44  1  0.80046431  0.10768987  0.95407625  1.0
  H  H45  1  0.80046427  0.39231096  0.54592335  1.0
  H  H46  1  0.80046551  0.54592392  0.10768997  1.0
  H  H47  1  0.80046471  0.95407596  0.39230996  1.0
  H  H48  1  0.09661995  0.86734385  0.05618179  1.0
  H  H49  1  0.09661936  0.63265633  0.44381688  1.0
  H  H50  1  0.09661936  0.44381698  0.86734309  1.0
  H  H51  1  0.09661953  0.05618322  0.63265665  1.0
  H  H52  1  0.90337974  0.13265617  0.94381804  1.0
  H  H53  1  0.90337972  0.36734416  0.55618248  1.0
  H  H54  1  0.90338094  0.55618210  0.13265674  1.0
  H  H55  1  0.90338015  0.94381727  0.36734364  1.0
  H  H56  1  0.42211326  0.76041813  0.11714640  1.0
  H  H57  1  0.42211262  0.73958191  0.38285407  1.0
  H  H58  1  0.42211268  0.38285367  0.76041838  1.0
  H  H59  1  0.42211278  0.11714592  0.73958223  1.0
  H  H60  1  0.57788703  0.23958189  0.88285436  1.0
  H  H61  1  0.57788707  0.26041811  0.61714669  1.0
  H  H62  1  0.57788700  0.61714635  0.23958191  1.0
  H  H63  1  0.57788691  0.88285410  0.26041760  1.0
  H  H64  1  0.46786537  0.68072709  0.19366149  1.0
  H  H65  1  0.46786530  0.81927293  0.30633851  1.0
  H  H66  1  0.46786604  0.30633856  0.68072739  1.0
  H  H67  1  0.46786544  0.19366101  0.81927321  1.0
  H  H68  1  0.53213492  0.31927293  0.80633880  1.0
  H  H69  1  0.53213499  0.18072755  0.69366225  1.0
  H  H70  1  0.53213426  0.69366099  0.31927291  1.0
  H  H71  1  0.53213424  0.80633854  0.18072661  1.0
  H  H72  1  0.07717658  0.61773427  0.26561716  1.0
  H  H73  1  0.07717649  0.88226545  0.23438198  1.0
  H  H74  1  0.07717727  0.23438207  0.61773409  1.0
  H  H75  1  0.07717721  0.26561767  0.88226565  1.0
  H  H76  1  0.92282250  0.38226668  0.73438266  1.0
  H  H77  1  0.92282381  0.11773503  0.76561785  1.0
  H  H78  1  0.92282242  0.76561795  0.38226527  1.0
  H  H79  1  0.92282369  0.73438235  0.11773464  1.0
  H  H80  1  0.03137458  0.69381821  0.18549450  1.0
  H  H81  1  0.03137391  0.80618107  0.31450465  1.0
  H  H82  1  0.03137463  0.31450429  0.69381798  1.0
  H  H83  1  0.03137405  0.18549548  0.80618177  1.0
  H  H84  1  0.96862511  0.30618228  0.81450532  1.0
  H  H85  1  0.96862578  0.19381848  0.68549518  1.0
  H  H86  1  0.96862566  0.68549527  0.30618091  1.0
  H  H87  1  0.96862624  0.81450454  0.19381852  1.0
  H  H88  1  0.29895681  0.54568020  0.39578011  1.0
  H  H89  1  0.29895793  0.95431989  0.10421899  1.0
  H  H90  1  0.29895756  0.10421950  0.54568056  1.0
  H  H91  1  0.29895799  0.39578015  0.95432007  1.0
  H  H92  1  0.70104227  0.45431935  0.60421972  1.0
  H  H93  1  0.70104358  0.04568059  0.89577990  1.0
  H  H94  1  0.70104213  0.89578005  0.45432019  1.0
  H  H95  1  0.70104291  0.60421940  0.04568022  1.0
  H  H96  1  0.40208763  0.55511748  0.37088930  1.0
  H  H97  1  0.40208814  0.94488257  0.12911024  1.0
  H  H98  1  0.40208897  0.12910981  0.55511832  1.0
  H  H99  1  0.40208943  0.37088980  0.94488230  1.0
  H  H100  1  0.59791084  0.44488207  0.62911099  1.0
  H  H101  1  0.59791277  0.05511792  0.87088959  1.0
  H  H102  1  0.59791072  0.87088928  0.44488244  1.0
  H  H103  1  0.59791209  0.62910976  0.05511800  1.0
  H  H104  1  0.46996564  0.47329846  0.30860079  1.0
  H  H105  1  0.46996582  0.02670169  0.19140118  1.0
  H  H106  1  0.46996694  0.19139973  0.47329931  1.0
  H  H107  1  0.46996818  0.30860181  0.02670266  1.0
  H  H108  1  0.53003465  0.52670063  0.69140230  1.0
  H  H109  1  0.53003447  0.97329973  0.80859772  1.0
  H  H110  1  0.53003336  0.80859982  0.52670145  1.0
  H  H111  1  0.53003394  0.69140054  0.97329950  1.0
  H  H112  1  0.46687621  0.36277876  0.27077236  1.0
  H  H113  1  0.46687386  0.13722092  0.22923008  1.0
  H  H114  1  0.46687624  0.22922867  0.36278011  1.0
  H  H115  1  0.46687626  0.27077288  0.13722233  1.0
  H  H116  1  0.53312531  0.63722033  0.72923027  1.0
  H  H117  1  0.53312522  0.86278003  0.77076928  1.0
  H  H118  1  0.53312406  0.77077135  0.63722158  1.0
  H  H119  1  0.53312525  0.72922901  0.86277936  1.0
  H  H120  1  0.21967132  0.34697523  0.31106399  1.0
  H  H121  1  0.21967080  0.15302409  0.18893523  1.0
  H  H122  1  0.21967259  0.18893664  0.34697656  1.0
  H  H123  1  0.21967136  0.31106268  0.15302313  1.0
  H  H124  1  0.78032837  0.65302432  0.68893397  1.0
  H  H125  1  0.78032828  0.84697499  0.81106553  1.0
  H  H126  1  0.78032832  0.81106431  0.65302420  1.0
  H  H127  1  0.78032833  0.68893454  0.84697623  1.0
  H  H128  1  0.21470851  0.45551936  0.35328454  1.0
  H  H129  1  0.21470869  0.04448089  0.14671375  1.0
  H  H130  1  0.21470921  0.14671466  0.45551974  1.0
  H  H131  1  0.21470921  0.35328373  0.04447995  1.0
  H  H132  1  0.78528996  0.54448065  0.64671296  1.0
  H  H133  1  0.78529039  0.95551866  0.85328701  1.0
  H  H134  1  0.78529048  0.85328536  0.54448055  1.0
  H  H135  1  0.78529109  0.64671256  0.95551941  1.0
  C  C136  1  0.08716522  0.78408246  0.88659198  1.0
  C  C137  1  0.08716346  0.71591621  0.61340719  1.0
  C  C138  1  0.08716408  0.61340736  0.78408319  1.0
  C  C139  1  0.08716217  0.88659131  0.71591598  1.0
  C  C140  1  0.91283630  0.21591616  0.11340832  1.0
  C  C141  1  0.91283684  0.28408380  0.38659263  1.0
  C  C142  1  0.91283683  0.38659219  0.21591663  1.0
  C  C143  1  0.91283752  0.11340871  0.28408385  1.0
  C  C144  1  0.08526454  0.80529343  0.94797708  1.0
  C  C145  1  0.08526282  0.69470571  0.55202256  1.0
  C  C146  1  0.08526283  0.55202224  0.80529324  1.0
  C  C147  1  0.08526210  0.94797737  0.69470593  1.0
  C  C148  1  0.91473697  0.19470566  0.05202321  1.0
  C  C149  1  0.91473748  0.30529431  0.44797727  1.0
  C  C150  1  0.91473686  0.44797732  0.19470566  1.0
  C  C151  1  0.91473637  0.05202218  0.30529483  1.0
  C  C152  1  0.15616750  0.82984765  0.97445652  1.0
  C  C153  1  0.15616580  0.67015286  0.52554217  1.0
  C  C154  1  0.15616641  0.52554183  0.82984746  1.0
  C  C155  1  0.15616567  0.97445775  0.67015263  1.0
  C  C156  1  0.84383280  0.17015237  0.02554284  1.0
  C  C157  1  0.84383328  0.32984716  0.47445765  1.0
  C  C158  1  0.84383389  0.47445772  0.17015283  1.0
  C  C159  1  0.84383402  0.02554227  0.32984720  1.0
  C  C160  1  0.22678574  0.83175887  0.93803399  1.0
  C  C161  1  0.22678525  0.66824394  0.56196376  1.0
  C  C162  1  0.22678463  0.56196482  0.83175822  1.0
  C  C163  1  0.22678392  0.93803566  0.66824232  1.0
  C  C164  1  0.77321456  0.16824301  0.06196491  1.0
  C  C165  1  0.77321505  0.33175608  0.43803560  1.0
  C  C166  1  0.77321506  0.43803567  0.16824301  1.0
  C  C167  1  0.77321516  0.06196436  0.33175750  1.0
  C  C168  1  0.22463322  0.80860357  0.87748703  1.0
  C  C169  1  0.22463269  0.69139877  0.62251072  1.0
  C  C170  1  0.22463208  0.62251180  0.80860385  1.0
  C  C171  1  0.22463140  0.87748822  0.69139716  1.0
  C  C172  1  0.77536708  0.19139784  0.12251233  1.0
  C  C173  1  0.77536761  0.30860218  0.37748864  1.0
  C  C174  1  0.77536761  0.37748822  0.19139785  1.0
  C  C175  1  0.77536829  0.12251227  0.30860313  1.0
  C  C176  1  0.15736377  0.85317413  0.04090729  1.0
  C  C177  1  0.15736316  0.64682602  0.45909137  1.0
  C  C178  1  0.15736317  0.45909100  0.85317338  1.0
  C  C179  1  0.15736335  0.04090871  0.64682635  1.0
  C  C180  1  0.84263592  0.14682635  0.95909253  1.0
  C  C181  1  0.84263592  0.35317400  0.54090799  1.0
  C  C182  1  0.84263713  0.54090809  0.14682645  1.0
  C  C183  1  0.84263634  0.95909131  0.35317348  1.0
  C  C184  1  0.12473561  0.76883182  0.11439005  1.0
  C  C185  1  0.12473436  0.73116835  0.38560908  1.0
  C  C186  1  0.12473442  0.38560918  0.76883157  1.0
  C  C187  1  0.12473513  0.11439101  0.73116770  1.0
  C  C188  1  0.87526408  0.23116820  0.88560977  1.0
  C  C189  1  0.87526472  0.26883307  0.61439075  1.0
  C  C190  1  0.87526588  0.61439038  0.23116779  1.0
  C  C191  1  0.87526638  0.88560947  0.26883212  1.0
  C  C192  1  0.15238035  0.72233800  0.16076172  1.0
  C  C193  1  0.15237969  0.77766216  0.33923694  1.0
  C  C194  1  0.15238039  0.33923750  0.72233777  1.0
  C  C195  1  0.15238044  0.16076315  0.77766196  1.0
  C  C196  1  0.84761995  0.27766295  0.83923857  1.0
  C  C197  1  0.84762000  0.22233786  0.66076196  1.0
  C  C198  1  0.84761930  0.66076206  0.27766159  1.0
  C  C199  1  0.84761985  0.83923734  0.22233787  1.0
  C  C200  1  0.23659401  0.71301115  0.17060783  1.0
  C  C201  1  0.23659335  0.78698943  0.32939221  1.0
  C  C202  1  0.23659406  0.32939229  0.71301048  1.0
  C  C203  1  0.23659410  0.17060925  0.78698830  1.0
  C  C204  1  0.76340629  0.28698887  0.82939199  1.0
  C  C205  1  0.76340695  0.21301152  0.67060808  1.0
  C  C206  1  0.76340624  0.67060773  0.28698888  1.0
  C  C207  1  0.76340619  0.82939124  0.21301152  1.0
  C  C208  1  0.29520718  0.74739425  0.13671931  1.0
  C  C209  1  0.29520714  0.75260631  0.36328025  1.0
  C  C210  1  0.29520661  0.36327986  0.74739450  1.0
  C  C211  1  0.29520669  0.13672072  0.75260567  1.0
  C  C212  1  0.70479251  0.25260576  0.86327958  1.0
  C  C213  1  0.70479255  0.24739464  0.63672004  1.0
  C  C214  1  0.70479247  0.63671969  0.25260579  1.0
  C  C215  1  0.70479300  0.86328023  0.24739369  1.0
  C  C216  1  0.26898854  0.79723600  0.09344012  1.0
  C  C217  1  0.26898792  0.70276411  0.40655945  1.0
  C  C218  1  0.26898857  0.40655954  0.79723622  1.0
  C  C219  1  0.26898809  0.09344106  0.70276349  1.0
  C  C220  1  0.73101115  0.20276402  0.90656018  1.0
  C  C221  1  0.73101116  0.29723591  0.59344084  1.0
  C  C222  1  0.73101112  0.59344002  0.20276361  1.0
  C  C223  1  0.73101099  0.90655989  0.29723587  1.0
  C  C224  1  0.37747456  0.73522340  0.14488214  1.0
  C  C225  1  0.37747330  0.76477759  0.35511927  1.0
  C  C226  1  0.37747460  0.35511794  0.73522320  1.0
  C  C227  1  0.37747467  0.14488214  0.76477696  1.0
  C  C228  1  0.62252635  0.26477708  0.85511908  1.0
  C  C229  1  0.62252579  0.23522336  0.64488242  1.0
  C  C230  1  0.62252509  0.64488208  0.26477710  1.0
  C  C231  1  0.62252563  0.85511835  0.23522240  1.0
  C  C232  1  0.40322350  0.69021102  0.18814176  1.0
  C  C233  1  0.40322344  0.80978996  0.31185825  1.0
  C  C234  1  0.40322356  0.31185831  0.69021038  1.0
  C  C235  1  0.40322297  0.18814222  0.80978931  1.0
  C  C236  1  0.59677619  0.30978900  0.81185853  1.0
  C  C237  1  0.59677625  0.19021099  0.68814204  1.0
  C  C238  1  0.59677613  0.68814171  0.30978945  1.0
  C  C239  1  0.59677611  0.81185826  0.19021005  1.0
  C  C240  1  0.34697399  0.65785056  0.22408602  1.0
  C  C241  1  0.34697391  0.84214951  0.27591400  1.0
  C  C242  1  0.34697466  0.27591407  0.65785040  1.0
  C  C243  1  0.34697465  0.22408556  0.84215023  1.0
  C  C244  1  0.65302509  0.34214945  0.77591427  1.0
  C  C245  1  0.65302578  0.15785051  0.72408582  1.0
  C  C246  1  0.65302503  0.72408549  0.34214943  1.0
  C  C247  1  0.65302565  0.77591446  0.15785006  1.0
  C  C248  1  0.37456701  0.61227134  0.27145619  1.0
  C  C249  1  0.37456631  0.88772872  0.22854336  1.0
  C  C250  1  0.37456831  0.22854342  0.61227166  1.0
  C  C251  1  0.37456825  0.27145620  0.88772989  1.0
  C  C252  1  0.62543207  0.38772821  0.72854364  1.0
  C  C253  1  0.62543338  0.11227130  0.77145600  1.0
  C  C254  1  0.62543199  0.77145613  0.38772909  1.0
  C  C255  1  0.62543205  0.72854335  0.11227134  1.0
  C  C256  1  0.23023863  0.59208407  0.30034381  1.0
  C  C257  1  0.23023792  0.90791559  0.19965577  1.0
  C  C258  1  0.23023811  0.19965537  0.59208392  1.0
  C  C259  1  0.23023802  0.30034430  0.90791626  1.0
  C  C260  1  0.76976106  0.40791549  0.69965649  1.0
  C  C261  1  0.76976177  0.09208396  0.80034312  1.0
  C  C262  1  0.76976097  0.80034371  0.40791544  1.0
  C  C263  1  0.76976167  0.69965618  0.09208450  1.0
  C  C264  1  0.20411977  0.63551385  0.25067083  1.0
  C  C265  1  0.20411847  0.86448581  0.24932875  1.0
  C  C266  1  0.20412046  0.24932883  0.63551415  1.0
  C  C267  1  0.20411920  0.25067086  0.86448650  1.0
  C  C268  1  0.79587992  0.36448663  0.74932946  1.0
  C  C269  1  0.79588061  0.13551327  0.75067061  1.0
  C  C270  1  0.79588045  0.75067073  0.36448568  1.0
  C  C271  1  0.79588110  0.74932916  0.13551379  1.0
  C  C272  1  0.26278466  0.66842064  0.21539923  1.0
  C  C273  1  0.26278520  0.83157993  0.28459987  1.0
  C  C274  1  0.26278533  0.28460041  0.66842046  1.0
  C  C275  1  0.26278533  0.21539972  0.83158018  1.0
  C  C276  1  0.73721442  0.33157984  0.78460059  1.0
  C  C277  1  0.73721510  0.16842009  0.71539902  1.0
  C  C278  1  0.73721436  0.71539961  0.33157890  1.0
  C  C279  1  0.73721497  0.78460030  0.16841965  1.0
  C  C280  1  0.12180433  0.64463606  0.23952928  1.0
  C  C281  1  0.12180425  0.85536318  0.26046939  1.0
  C  C282  1  0.12180501  0.26046948  0.64463634  1.0
  C  C283  1  0.12180438  0.23953025  0.85536293  1.0
  C  C284  1  0.87819536  0.35536443  0.76047055  1.0
  C  C285  1  0.87819543  0.14463637  0.73952997  1.0
  C  C286  1  0.87819528  0.73953008  0.35536302  1.0
  C  C287  1  0.87819592  0.76046977  0.14463689  1.0
  C  C288  1  0.09605843  0.68762719  0.19430995  1.0
  C  C289  1  0.09605715  0.81237159  0.30568872  1.0
  C  C290  1  0.09605909  0.30568882  0.68762744  1.0
  C  C291  1  0.09605790  0.19431138  0.81237230  1.0
  C  C292  1  0.90394126  0.31237330  0.80569035  1.0
  C  C293  1  0.90394193  0.18762796  0.69431110  1.0
  C  C294  1  0.90394242  0.69431120  0.31237192  1.0
  C  C295  1  0.90394240  0.80568911  0.18762799  1.0
  C  C296  1  0.34127629  0.53988682  0.35683988  1.0
  C  C297  1  0.34127678  0.96011279  0.14315968  1.0
  C  C298  1  0.34127762  0.14315926  0.53988765  1.0
  C  C299  1  0.34127808  0.35684037  0.96011344  1.0
  C  C300  1  0.65872218  0.46011226  0.64315995  1.0
  C  C301  1  0.65872351  0.03988723  0.85684015  1.0
  C  C302  1  0.65872207  0.85683982  0.46011264  1.0
  C  C303  1  0.65872343  0.64315965  0.03988732  1.0
  C  C304  1  0.34230087  0.47317355  0.33424817  1.0
  C  C305  1  0.34230106  0.02682618  0.16575150  1.0
  C  C306  1  0.34230157  0.16575193  0.47317393  1.0
  C  C307  1  0.34230219  0.33424828  0.02682713  1.0
  C  C308  1  0.65769821  0.52682553  0.66575213  1.0
  C  C309  1  0.65769863  0.97317337  0.83424880  1.0
  C  C310  1  0.65769751  0.83424763  0.52682590  1.0
  C  C311  1  0.65769932  0.66575174  0.97317363  1.0
  C  C312  1  0.41360723  0.44659060  0.31055772  1.0
  C  C313  1  0.41360800  0.05340957  0.18944240  1.0
  C  C314  1  0.41360851  0.18944190  0.44659099  1.0
  C  C315  1  0.41360914  0.31055734  0.05340959  1.0
  C  C316  1  0.58639246  0.55340849  0.68944397  1.0
  C  C317  1  0.58639230  0.94659091  0.81055696  1.0
  C  C318  1  0.58639117  0.81055765  0.55340977  1.0
  C  C319  1  0.58639237  0.68944221  0.94659117  1.0
  C  C320  1  0.41210632  0.38533553  0.28896637  1.0
  C  C321  1  0.41210582  0.11466371  0.21103467  1.0
  C  C322  1  0.41210697  0.21103513  0.38533687  1.0
  C  C323  1  0.41210760  0.28896598  0.11466511  1.0
  C  C324  1  0.58789398  0.61466309  0.71103578  1.0
  C  C325  1  0.58789387  0.88533631  0.78896469  1.0
  C  C326  1  0.58789272  0.78896536  0.61466436  1.0
  C  C327  1  0.58789392  0.71103451  0.88533611  1.0
  C  C328  1  0.27428118  0.37611921  0.31230535  1.0
  C  C329  1  0.27428129  0.12388055  0.18769386  1.0
  C  C330  1  0.27428245  0.18769479  0.37612008  1.0
  C  C331  1  0.27428184  0.31230451  0.12388100  1.0
  C  C332  1  0.72571790  0.62387987  0.68769354  1.0
  C  C333  1  0.72571779  0.87611900  0.81230690  1.0
  C  C334  1  0.72571724  0.81230570  0.62388022  1.0
  C  C335  1  0.72571846  0.68769364  0.87611883  1.0
  C  C336  1  0.27166136  0.43671420  0.33543407  1.0
  C  C337  1  0.27166213  0.06328556  0.16456514  1.0
  C  C338  1  0.27166266  0.16456558  0.43671459  1.0
  C  C339  1  0.27166266  0.33543372  0.06328556  1.0
  C  C340  1  0.72833711  0.56328581  0.66456435  1.0
  C  C341  1  0.72833756  0.93671399  0.83543562  1.0
  C  C342  1  0.72833764  0.83543444  0.56328524  1.0
  C  C343  1  0.72833764  0.66456397  0.93671427  1.0
  N  N344  1  0.15584934  0.78549443  0.85241631  1.0
  N  N345  1  0.15584879  0.71450654  0.64758238  1.0
  N  N346  1  0.15584757  0.64758349  0.78549423  1.0
  N  N347  1  0.15584751  0.85241703  0.71450539  1.0
  N  N348  1  0.84415157  0.21450605  0.14758398  1.0
  N  N349  1  0.84415212  0.28549394  0.35241745  1.0
  N  N350  1  0.84415212  0.35241700  0.21450652  1.0
  N  N351  1  0.84415218  0.14758346  0.28549490  1.0
  N  N352  1  0.18480956  0.80426283  0.08461815  1.0
  N  N353  1  0.18480893  0.69573777  0.41538097  1.0
  N  N354  1  0.18480897  0.41538060  0.80426211  1.0
  N  N355  1  0.18480911  0.08461910  0.69573715  1.0
  N  N356  1  0.81519013  0.19573718  0.91538121  1.0
  N  N357  1  0.81519015  0.30426364  0.58461885  1.0
  N  N358  1  0.81519072  0.58461895  0.19573725  1.0
  N  N359  1  0.81519058  0.91538092  0.30426268  1.0
  N  N360  1  0.34338510  0.35113377  0.28958823  1.0
  N  N361  1  0.34338458  0.14886550  0.21041283  1.0
  N  N362  1  0.34338575  0.21041330  0.35113511  1.0
  N  N363  1  0.34338576  0.28958737  0.14886642  1.0
  N  N364  1  0.65661519  0.64886531  0.71041299  1.0
  N  N365  1  0.65661511  0.85113452  0.78958747  1.0
  N  N366  1  0.65661455  0.78958766  0.64886565  1.0
  N  N367  1  0.65661515  0.71041265  0.85113481  1.0
  N  N368  1  0.31433609  0.58302759  0.30726619  1.0
  N  N369  1  0.31433599  0.91697203  0.19273337  1.0
  N  N370  1  0.31433679  0.19273342  0.58302840  1.0
  N  N371  1  0.31433609  0.30726622  0.91697270  1.0
  N  N372  1  0.68566360  0.41697196  0.69273410  1.0
  N  N373  1  0.68566431  0.08302753  0.80726599  1.0
  N  N374  1  0.68566351  0.80726613  0.41697190  1.0
  N  N375  1  0.68566421  0.69273380  0.08302806  1.0
  O  O376  1  0.05211754  0.77741794  0.10259821  1.0
  O  O377  1  0.05211751  0.72258226  0.39740093  1.0
  O  O378  1  0.05211757  0.39740104  0.77741674  1.0
  O  O379  1  0.05211829  0.10259918  0.72258254  1.0
  O  O380  1  0.94788215  0.22258208  0.89740161  1.0
  O  O381  1  0.94788278  0.27741916  0.60259843  1.0
  O  O382  1  0.94788273  0.60259805  0.22258262  1.0
  O  O383  1  0.94788201  0.89740131  0.27741729  1.0
  O  O384  1  0.31760561  0.83201766  0.06693176  1.0
  O  O385  1  0.31760439  0.66798382  0.43306780  1.0
  O  O386  1  0.31760380  0.43306741  0.83201647  1.0
  O  O387  1  0.31760518  0.06693269  0.66798276  1.0
  O  O388  1  0.68239408  0.16798282  0.93306807  1.0
  O  O389  1  0.68239347  0.33201806  0.56693203  1.0
  O  O390  1  0.68239528  0.56693307  0.16798289  1.0
  O  O391  1  0.68239512  0.93306779  0.33201660  1.0
  O  O392  1  0.18151813  0.56571789  0.33516603  1.0
  O  O393  1  0.18151863  0.93428271  0.16483262  1.0
  O  O394  1  0.18152006  0.16483456  0.56571776  1.0
  O  O395  1  0.18151933  0.33516654  0.93428243  1.0
  O  O396  1  0.81848095  0.43428306  0.66483333  1.0
  O  O397  1  0.81848166  0.06571684  0.83516627  1.0
  O  O398  1  0.81848145  0.83516686  0.43428253  1.0
  O  O399  1  0.81848158  0.66483348  0.06571740  1.0
  O  O400  1  0.44718568  0.60075777  0.28040029  1.0
  O  O401  1  0.44718559  0.89924227  0.21959924  1.0
  O  O402  1  0.44718516  0.21959976  0.60075811  1.0
  O  O403  1  0.44718509  0.28039983  0.89924250  1.0
  O  O404  1  0.55281400  0.39924225  0.71959954  1.0
  O  O405  1  0.55281410  0.10075822  0.78040012  1.0
  O  O406  1  0.55281453  0.78039979  0.39924219  1.0
  O  O407  1  0.55281521  0.71959973  0.10075779  1.0
  F  F408  1  0.51557581  0.74999995  0.75000024  1.0
  F  F409  1  0.48442449  0.24999914  0.25000052  1.0
  F  F410  1  0.40816974  0.73382394  0.67217947  1.0
  F  F411  1  0.40816971  0.76617553  0.82782104  1.0
  F  F412  1  0.40816970  0.82782032  0.73382421  1.0
  F  F413  1  0.40817036  0.67217916  0.76617676  1.0
  F  F414  1  0.59182873  0.26617654  0.32782036  1.0
  F  F415  1  0.59182877  0.23382449  0.17217926  1.0
  F  F416  1  0.59183060  0.17217877  0.26617655  1.0
  F  F417  1  0.59182933  0.32782086  0.23382400  1.0
  F  F418  1  0.30012664  0.74999999  0.75000026  1.0
  F  F419  1  0.69987304  0.25000003  0.25000003  1.0
  F  F420  1  0.09175779  0.18847519  0.19966891  1.0
  F  F421  1  0.09175408  0.31152559  0.30033126  1.0
  F  F422  1  0.09175654  0.30033136  0.18847513  1.0
  F  F423  1  0.09175533  0.19966942  0.31152551  1.0
  F  F424  1  0.90824433  0.81152390  0.80033138  1.0
  F  F425  1  0.90824561  0.68847490  0.69966763  1.0
  F  F426  1  0.90824498  0.69966726  0.81152376  1.0
  F  F427  1  0.90824435  0.80033153  0.68847525  1.0
  F  F428  1  0.98452772  0.24999950  0.24999907  1.0
  F  F429  1  0.01547257  0.75000005  0.74999982  1.0
  F  F430  1  0.19982153  0.25000153  0.25000101  1.0
  F  F431  1  0.80017877  0.74999895  0.74999975  1.0
