# generated using pymatgen
data_Zn4H20C48O29
_symmetry_space_group_name_H-M   'P 1'
_cell_length_a   23.78882353
_cell_length_b   23.78846135
_cell_length_c   23.78708852
_cell_angle_alpha   113.63671687
_cell_angle_beta   107.43345479
_cell_angle_gamma   107.42887199
_symmetry_Int_Tables_number   1
_chemical_formula_structural   Zn4H20C48O29
_chemical_formula_sum   'Zn8 H40 C96 O58'
_cell_volume   10320.55928784
_cell_formula_units_Z   2
loop_
 _symmetry_equiv_pos_site_id
 _symmetry_equiv_pos_as_xyz
  1  'x, y, z'
loop_
 _atom_site_type_symbol
 _atom_site_label
 _atom_site_symmetry_multiplicity
 _atom_site_fract_x
 _atom_site_fract_y
 _atom_site_fract_z
 _atom_site_occupancy
  Zn  Zn0  1  0.94327957  0.89930860  0.45603011  1.0
  Zn  Zn1  1  0.94328323  0.04396378  0.48723744  1.0
  Zn  Zn2  1  0.05672830  0.04396873  0.60070640  1.0
  Zn  Zn3  1  0.05671226  0.01275112  0.45602198  1.0
  Zn  Zn4  1  0.05672770  0.60068698  0.04397478  1.0
  Zn  Zn5  1  0.94326333  0.45601592  0.89929531  1.0
  Zn  Zn6  1  0.05673164  0.45604061  0.01275810  1.0
  Zn  Zn7  1  0.94328231  0.48724606  0.04397092  1.0
  H  H8  1  0.07640620  0.87457045  0.29820328  1.0
  H  H9  1  0.92365074  0.62542360  0.20185465  1.0
  H  H10  1  0.07637076  0.77821285  0.20180368  1.0
  H  H11  1  0.92355914  0.72177964  0.29812878  1.0
  H  H12  1  0.07643183  0.20186749  0.77823624  1.0
  H  H13  1  0.92362932  0.29819584  0.72175424  1.0
  H  H14  1  0.07635898  0.29816723  0.87458566  1.0
  H  H15  1  0.92357786  0.20177151  0.62540565  1.0
  H  H16  1  0.08024285  0.72784240  0.96336015  1.0
  H  H17  1  0.91973457  0.53661795  0.77211285  1.0
  H  H18  1  0.07298408  0.96530646  0.72984412  1.0
  H  H19  1  0.92705548  0.77018298  0.53467776  1.0
  H  H20  1  0.91974873  0.38309252  0.14758805  1.0
  H  H21  1  0.08024619  0.35237227  0.11686855  1.0
  H  H22  1  0.92705235  0.15688525  0.39236295  1.0
  H  H23  1  0.07298278  0.10768707  0.34317958  1.0
  H  H24  1  0.26451132  0.72981361  0.15685501  1.0
  H  H25  1  0.26452227  0.53469432  0.10766440  1.0
  H  H26  1  0.73550622  0.96337093  0.38313283  1.0
  H  H27  1  0.73550430  0.77215264  0.35242031  1.0
  H  H28  1  0.73547674  0.34312140  0.77017168  1.0
  H  H29  1  0.73549087  0.39233835  0.96531794  1.0
  H  H30  1  0.26448320  0.11686182  0.53661901  1.0
  H  H31  1  0.26450932  0.14760538  0.72786471  1.0
  H  H32  1  0.87870428  0.65876988  0.70454783  1.0
  H  H33  1  0.12130596  0.79541491  0.84122685  1.0
  H  H34  1  0.98923256  0.67502210  0.63004393  1.0
  H  H35  1  0.01080641  0.86992959  0.82498122  1.0
  H  H36  1  0.12131115  0.32588044  0.28008014  1.0
  H  H37  1  0.87871636  0.21990796  0.17412032  1.0
  H  H38  1  0.01079684  0.14084781  0.18582262  1.0
  H  H39  1  0.98923393  0.31420190  0.35915077  1.0
  H  H40  1  0.45504328  0.63007278  0.14086710  1.0
  H  H41  1  0.45503425  0.82497411  0.31420121  1.0
  H  H42  1  0.54579444  0.70459015  0.32590188  1.0
  H  H43  1  0.54580136  0.84122177  0.21993228  1.0
  H  H44  1  0.54496884  0.35913506  0.86994220  1.0
  H  H45  1  0.54495613  0.18579050  0.67501763  1.0
  H  H46  1  0.45421425  0.17412474  0.79543869  1.0
  H  H47  1  0.45419238  0.28004992  0.65876006  1.0
  C  C48  1  0.81871480  0.90937143  0.40937169  1.0
  C  C49  1  0.00001184  0.13915501  0.63915913  1.0
  C  C50  1  0.00001896  0.90936319  0.59066965  1.0
  C  C51  1  0.18128617  0.09063176  0.59063518  1.0
  C  C52  1  0.99997790  0.86084291  0.36082460  1.0
  C  C53  1  0.00000521  0.09066508  0.40935947  1.0
  C  C54  1  0.99999355  0.59063137  0.90934903  1.0
  C  C55  1  0.99999383  0.36085044  0.86083153  1.0
  C  C56  1  0.18130833  0.59064614  0.09066101  1.0
  C  C57  1  0.00000986  0.40935135  0.09063823  1.0
  C  C58  1  0.00002580  0.63915687  0.13917334  1.0
  C  C59  1  0.81869476  0.40934453  0.90935370  1.0
  C  C60  1  0.99998259  0.80353828  0.30352807  1.0
  C  C61  1  0.00001537  0.69645578  0.19647174  1.0
  C  C62  1  0.04320681  0.81989537  0.27668642  1.0
  C  C63  1  0.95680288  0.68010025  0.22332428  1.0
  C  C64  1  0.04320950  0.76652545  0.22331704  1.0
  C  C65  1  0.95677330  0.73346913  0.27666792  1.0
  C  C66  1  0.00000964  0.19646122  0.69645914  1.0
  C  C67  1  0.99999704  0.30354737  0.80353140  1.0
  C  C68  1  0.04322372  0.22333444  0.76653857  1.0
  C  C69  1  0.95679172  0.27668353  0.73345120  1.0
  C  C70  1  0.04320695  0.27669394  0.81990376  1.0
  C  C71  1  0.95678616  0.22330058  0.68008844  1.0
  C  C72  1  0.99998963  0.62822375  0.87174038  1.0
  C  C73  1  0.04535049  0.69940192  0.90770153  1.0
  C  C74  1  0.04731013  0.73460354  0.87294334  1.0
  C  C75  1  0.00000356  0.69899862  0.80096087  1.0
  C  C76  1  0.95268426  0.62702948  0.76535521  1.0
  C  C77  1  0.95463325  0.59226777  0.80055448  1.0
  C  C78  1  0.00001288  0.73458984  0.76535795  1.0
  C  C79  1  0.00002325  0.76536100  0.73459390  1.0
  C  C80  1  0.00002454  0.80096538  0.69900683  1.0
  C  C81  1  0.03959194  0.87499341  0.73668143  1.0
  C  C82  1  0.04062452  0.90897449  0.70070751  1.0
  C  C83  1  0.00001784  0.87175035  0.62825139  1.0
  C  C84  1  0.95941123  0.79930240  0.59101529  1.0
  C  C85  1  0.96044360  0.76330645  0.62497339  1.0
  C  C86  1  0.99999892  0.37173857  0.12822480  1.0
  C  C87  1  0.95464222  0.36233442  0.15404257  1.0
  C  C88  1  0.95268662  0.32561956  0.18728756  1.0
  C  C89  1  0.99999627  0.30095630  0.19899574  1.0
  C  C90  1  0.04730700  0.31266832  0.17433978  1.0
  C  C91  1  0.04535083  0.34591157  0.13762144  1.0
  C  C92  1  0.00000474  0.26536606  0.23460128  1.0
  C  C93  1  0.00001283  0.23462054  0.26538782  1.0
  C  C94  1  0.00002162  0.19904656  0.30100516  1.0
  C  C95  1  0.96044719  0.19713764  0.33545745  1.0
  C  C96  1  0.95941080  0.16011959  0.36839259  1.0
  C  C97  1  0.00001898  0.12828051  0.37178004  1.0
  C  C98  1  0.04062941  0.13166420  0.33994478  1.0
  C  C99  1  0.03959606  0.16459591  0.30292233  1.0
  C  C100  1  0.25650304  0.62824787  0.12825404  1.0
  C  C101  1  0.29172128  0.70069374  0.16009159  1.0
  C  C102  1  0.36167444  0.73668547  0.19711630  1.0
  C  C103  1  0.39804416  0.69902856  0.19903958  1.0
  C  C104  1  0.36168134  0.62499949  0.16457659  1.0
  C  C105  1  0.29172619  0.59102367  0.13163355  1.0
  C  C106  1  0.46923625  0.73463294  0.23465518  1.0
  C  C107  1  0.53076788  0.76539896  0.26542501  1.0
  C  C108  1  0.60196325  0.80099227  0.30101785  1.0
  C  C109  1  0.63833112  0.87295993  0.32566751  1.0
  C  C110  1  0.70829376  0.90772423  0.36238582  1.0
  C  C111  1  0.74351535  0.87176711  0.37178377  1.0
  C  C112  1  0.70829464  0.80059303  0.34596499  1.0
  C  C113  1  0.63833610  0.76539248  0.31272662  1.0
  C  C114  1  0.74349822  0.37173597  0.87175152  1.0
  C  C115  1  0.70827265  0.33989069  0.79929649  1.0
  C  C116  1  0.63832069  0.30286635  0.76330756  1.0
  C  C117  1  0.60195943  0.30094796  0.80097133  1.0
  C  C118  1  0.63832560  0.33541636  0.87500632  1.0
  C  C119  1  0.70827976  0.36835957  0.90898069  1.0
  C  C120  1  0.53076549  0.26534154  0.76536907  1.0
  C  C121  1  0.46923721  0.23458182  0.73460738  1.0
  C  C122  1  0.39803933  0.19899165  0.69901167  1.0
  C  C123  1  0.36166383  0.17433375  0.62703485  1.0
  C  C124  1  0.29170248  0.13761942  0.59227428  1.0
  C  C125  1  0.25648615  0.12822776  0.62823634  1.0
  C  C126  1  0.29171362  0.15405254  0.69941915  1.0
  C  C127  1  0.36167360  0.18729576  0.73461954  1.0
  C  C128  1  0.89992928  0.58340724  0.68947274  1.0
  C  C129  1  0.10006156  0.81047998  0.91657892  1.0
  C  C130  1  0.91673015  0.68502826  0.57886678  1.0
  C  C131  1  0.08330023  0.92108780  0.81496912  1.0
  C  C132  1  0.10006942  0.28956117  0.18348019  1.0
  C  C133  1  0.89993382  0.31649135  0.21040590  1.0
  C  C134  1  0.08329736  0.16219827  0.26834817  1.0
  C  C135  1  0.91673430  0.23170286  0.33783356  1.0
  C  C136  1  0.39386357  0.57890399  0.16218695  1.0
  C  C137  1  0.39384866  0.81496430  0.23169294  1.0
  C  C138  1  0.60609324  0.68952170  0.28962044  1.0
  C  C139  1  0.60608237  0.91658384  0.31653460  1.0
  C  C140  1  0.60614929  0.33780450  0.92110726  1.0
  C  C141  1  0.60613262  0.26829489  0.68501976  1.0
  C  C142  1  0.39392463  0.21042319  0.81050367  1.0
  C  C143  1  0.39390181  0.18345427  0.58340041  1.0
  O  O144  1  0.00000635  0.00000027  0.50000353  1.0
  O  O145  1  0.84731767  0.87265541  0.41386959  1.0
  O  O146  1  0.95962496  0.11694546  0.57645142  1.0
  O  O147  1  0.04037665  0.97489731  0.62762724  1.0
  O  O148  1  0.84731452  0.97466665  0.43345803  1.0
  O  O149  1  0.95964765  0.87240834  0.52511774  1.0
  O  O150  1  0.04039971  0.11684272  0.65735150  1.0
  O  O151  1  0.15269047  0.08614773  0.62735217  1.0
  O  O152  1  0.04035228  0.92354045  0.38301979  1.0
  O  O153  1  0.15267955  0.06652192  0.52532147  1.0
  O  O154  1  0.95959647  0.84265888  0.38314718  1.0
  O  O155  1  0.95963411  0.08723881  0.43451985  1.0
  O  O156  1  0.04036582  0.06548440  0.41276625  1.0
  O  O157  1  0.99999881  0.49999740  0.99999819  1.0
  O  O158  1  0.04120569  0.62734052  0.97466101  1.0
  O  O159  1  0.95947464  0.38303347  0.84263898  1.0
  O  O160  1  0.15272421  0.52511089  0.06548324  1.0
  O  O161  1  0.95878206  0.52532261  0.87263743  1.0
  O  O162  1  0.15271744  0.62759894  0.08725609  1.0
  O  O163  1  0.04050453  0.38318352  0.92353742  1.0
  O  O164  1  0.04120726  0.41384997  0.06653380  1.0
  O  O165  1  0.95953188  0.57645305  0.11685937  1.0
  O  O166  1  0.95881144  0.43346965  0.08615746  1.0
  O  O167  1  0.04051879  0.65734040  0.11696864  1.0
  O  O168  1  0.84727687  0.41275416  0.87239986  1.0
  O  O169  1  0.84728685  0.43452992  0.97490256  1.0
  O  O170  1  0.86296748  0.61121690  0.66686917  1.0
  O  O171  1  0.88872413  0.52468725  0.65047584  1.0
  O  O172  1  0.13703318  0.83308633  0.88878209  1.0
  O  O173  1  0.11125426  0.84946549  0.97529743  1.0
  O  O174  1  0.94409450  0.64527498  0.58981079  1.0
  O  O175  1  0.86036239  0.65810410  0.53181376  1.0
  O  O176  1  0.05595537  0.91013834  0.85473045  1.0
  O  O177  1  0.13967138  0.96814785  0.84189809  1.0
  O  O178  1  0.13704786  0.30394625  0.24826206  1.0
  O  O179  1  0.11126950  0.26176646  0.13595931  1.0
  O  O180  1  0.86297715  0.25172424  0.19605083  1.0
  O  O181  1  0.88872261  0.36400380  0.23817796  1.0
  O  O182  1  0.05594262  0.14577970  0.20122904  1.0
  O  O183  1  0.13967349  0.17151977  0.29780412  1.0
  O  O184  1  0.94408817  0.29880622  0.35421554  1.0
  O  O185  1  0.86037051  0.20226903  0.32852502  1.0
  O  O186  1  0.44458201  0.58986322  0.14580454  1.0
  O  O187  1  0.37372780  0.53184157  0.17149284  1.0
  O  O188  1  0.44455809  0.85472059  0.29880827  1.0
  O  O189  1  0.37371407  0.84188856  0.20224841  1.0
  O  O190  1  0.55568523  0.66692224  0.30397977  1.0
  O  O191  1  0.62583545  0.65053599  0.26185239  1.0
  O  O192  1  0.55568132  0.88877582  0.25175000  1.0
  O  O193  1  0.62580397  0.97529960  0.36405198  1.0
  O  O194  1  0.55544213  0.35420380  0.91015869  1.0
  O  O195  1  0.62628347  0.32848869  0.96816407  1.0
  O  O196  1  0.55541874  0.20118539  0.64526648  1.0
  O  O197  1  0.62625435  0.29772902  0.65809018  1.0
  O  O198  1  0.44433026  0.19605942  0.83311036  1.0
  O  O199  1  0.37419306  0.23820960  0.84948866  1.0
  O  O200  1  0.44430356  0.24822755  0.61120121  1.0
  O  O201  1  0.37416652  0.13593315  0.52467550  1.0
