# generated using pymatgen
data_Al2H10C21S2(NO7)2
_symmetry_space_group_name_H-M   'P 1'
_cell_length_a   6.62540981
_cell_length_b   11.06584903
_cell_length_c   12.65316568
_cell_angle_alpha   81.99514666
_cell_angle_beta   75.88832311
_cell_angle_gamma   73.78959145
_symmetry_Int_Tables_number   1
_chemical_formula_structural   Al2H10C21S2(NO7)2
_chemical_formula_sum   'Al2 H10 C21 S2 N2 O14'
_cell_volume   861.38485982
_cell_formula_units_Z   1
loop_
 _symmetry_equiv_pos_site_id
 _symmetry_equiv_pos_as_xyz
  1  'x, y, z'
loop_
 _atom_site_type_symbol
 _atom_site_label
 _atom_site_symmetry_multiplicity
 _atom_site_fract_x
 _atom_site_fract_y
 _atom_site_fract_z
 _atom_site_occupancy
  Al  Al0  1  0.48521280  0.49427176  0.50119476  1.0
  Al  Al1  1  0.98606774  0.49013961  0.50248091  1.0
  H  H2  1  0.18581119  0.64502625  0.44166037  1.0
  H  H3  1  0.70744748  0.41958074  0.63460743  1.0
  H  H4  1  0.38913780  0.38902139  0.86557583  1.0
  H  H5  1  0.84576608  0.75692662  0.64881716  1.0
  H  H6  1  0.64025781  0.22682393  0.61880634  1.0
  H  H7  1  0.18954230  0.11287712  0.42514292  1.0
  H  H8  1  0.30575093  0.87704270  0.43152158  1.0
  H  H9  1  0.46525049  0.61831635  0.22388329  1.0
  H  H10  1  0.42681610  0.53749846  0.12251481  1.0
  H  H11  1  0.49768521  0.68251564  0.08392533  1.0
  C  C12  1  0.61744626  0.72043263  0.51179140  1.0
  C  C13  1  0.83723808  0.48520728  0.30786020  1.0
  C  C14  1  0.35412764  0.26745317  0.50072918  1.0
  C  C15  1  0.13963085  0.48582658  0.69945500  1.0
  C  C16  1  0.75705268  0.52691198  0.11522768  1.0
  C  C17  1  0.21732456  0.43101873  0.89148345  1.0
  C  C18  1  0.89047724  0.47845020  0.18928452  1.0
  C  C19  1  0.08365900  0.48028861  0.81872544  1.0
  C  C20  1  0.09872793  0.44399648  0.00017306  1.0
  C  C21  1  0.87894807  0.50529714  0.00771035  1.0
  C  C22  1  0.54988140  0.86025134  0.51985321  1.0
  C  C23  1  0.65004122  0.92445545  0.57427561  1.0
  C  C24  1  0.38403349  0.92829476  0.46966367  1.0
  C  C25  1  0.80025414  0.85961819  0.63967258  1.0
  C  C26  1  0.88134402  0.92544579  0.69651371  1.0
  C  C27  1  0.42192207  0.12647941  0.51110276  1.0
  C  C28  1  0.31913827  0.06057107  0.46560458  1.0
  C  C29  1  0.58560475  0.06008117  0.56875070  1.0
  C  C30  1  0.67839132  0.12447839  0.62581208  1.0
  C  C31  1  0.82208222  0.05916838  0.68843510  1.0
  C  C32  1  0.52448184  0.59586946  0.13863428  1.0
  S  S33  1  0.15695843  0.40841127  0.12808372  1.0
  S  S34  1  0.81575958  0.54173518  0.88112856  1.0
  N  N35  1  0.00900905  0.85320851  0.77586592  1.0
  N  N36  1  0.92505486  0.13271032  0.73724568  1.0
  O  O37  1  0.46667621  0.66717265  0.52003706  1.0
  O  O38  1  0.99388980  0.46324619  0.35629462  1.0
  O  O39  1  0.15317549  0.31848699  0.51755963  1.0
  O  O40  1  0.33825332  0.46423085  0.65158836  1.0
  O  O41  1  0.50247150  0.32497027  0.47613895  1.0
  O  O42  1  0.98108394  0.51228554  0.65153011  1.0
  O  O43  1  0.81855822  0.66713427  0.49299826  1.0
  O  O44  1  0.63887305  0.51421775  0.35558010  1.0
  O  O45  1  0.22757745  0.55384663  0.45411014  1.0
  O  O46  1  0.73565220  0.43696384  0.55561592  1.0
  O  O47  1  0.15854489  0.76184558  0.74377262  1.0
  O  O48  1  0.94999600  0.88756391  0.87000430  1.0
  O  O49  1  0.81835761  0.23903102  0.76522288  1.0
  O  O50  1  0.11483626  0.08472727  0.74371478  1.0
