# generated using pymatgen
data_Al2H15C18S2ClO10
_symmetry_space_group_name_H-M   'P 1'
_cell_length_a   6.63672250
_cell_length_b   10.97372105
_cell_length_c   12.68702718
_cell_angle_alpha   91.02821986
_cell_angle_beta   103.93070782
_cell_angle_gamma   107.58525060
_symmetry_Int_Tables_number   1
_chemical_formula_structural   Al2H15C18S2ClO10
_chemical_formula_sum   'Al2 H15 C18 S2 Cl1 O10'
_cell_volume   850.78822005
_cell_formula_units_Z   1
loop_
 _symmetry_equiv_pos_site_id
 _symmetry_equiv_pos_as_xyz
  1  'x, y, z'
loop_
 _atom_site_type_symbol
 _atom_site_label
 _atom_site_symmetry_multiplicity
 _atom_site_fract_x
 _atom_site_fract_y
 _atom_site_fract_z
 _atom_site_occupancy
  Al  Al0  1  0.00194897  0.49335103  0.50201512  1.0
  Al  Al1  1  0.50514028  0.49979018  0.50256519  1.0
  H  H2  1  0.15658058  0.41633375  0.37112639  1.0
  H  H3  1  0.86862457  0.65244687  0.56593486  1.0
  H  H4  1  0.08603217  0.40934097  0.85517309  1.0
  H  H5  1  0.59615915  0.90116975  0.67427255  1.0
  H  H6  1  0.77166956  0.90375968  0.58868830  1.0
  H  H7  1  0.86986107  0.12818902  0.60539594  1.0
  H  H8  1  0.67219514  0.12314789  0.67867478  1.0
  H  H9  1  0.75843575  0.09864512  0.40128723  1.0
  H  H10  1  0.49559971  0.09702368  0.32742183  1.0
  H  H11  1  0.62688817  0.87343772  0.38460815  1.0
  H  H12  1  0.35786745  0.87439129  0.32463770  1.0
  H  H13  1  0.20430560  0.89670594  0.58771378  1.0
  H  H14  1  0.10002934  0.87330516  0.44497864  1.0
  H  H15  1  0.21003538  0.09550036  0.43343433  1.0
  H  H16  1  0.28817106  0.11810431  0.57645184  1.0
  C  C17  1  0.62783294  0.26874286  0.50487057  1.0
  C  C18  1  0.67165663  0.49694170  0.30483156  1.0
  C  C19  1  0.37341373  0.72836527  0.50135109  1.0
  C  C20  1  0.33168668  0.49293017  0.69580755  1.0
  C  C21  1  0.74012113  0.54328020  0.11461349  1.0
  C  C22  1  0.26314433  0.44874272  0.88411505  1.0
  C  C23  1  0.61023072  0.49774610  0.18569435  1.0
  C  C24  1  0.39626391  0.49216256  0.81497446  1.0
  C  C25  1  0.38925298  0.46451648  0.99345403  1.0
  C  C26  1  0.61492147  0.52267435  0.00479783  1.0
  C  C27  1  0.63504214  0.93588567  0.59843278  1.0
  C  C28  1  0.69674333  0.08424030  0.60392815  1.0
  C  C29  1  0.55332266  0.12336505  0.50349595  1.0
  C  C30  1  0.58425441  0.06324708  0.39980210  1.0
  C  C31  1  0.50060455  0.91487755  0.39469431  1.0
  C  C32  1  0.43486523  0.87349037  0.50063006  1.0
  C  C33  1  0.24627638  0.92291286  0.51067015  1.0
  C  C34  1  0.31237424  0.07009045  0.50600998  1.0
  S  S35  1  0.33458524  0.43293139  0.11791865  1.0
  S  S36  1  0.67373887  0.55321649  0.88120278  1.0
  Cl  Cl37  1  0.01517923  0.62213976  0.15090934  1.0
  O  O38  1  0.81174790  0.32168867  0.48430892  1.0
  O  O39  1  0.51462776  0.47449817  0.35130106  1.0
  O  O40  1  0.51153436  0.67546541  0.48483540  1.0
  O  O41  1  0.12915395  0.46616442  0.64899998  1.0
  O  O42  1  0.19098712  0.66952305  0.52102487  1.0
  O  O43  1  0.48820946  0.52291719  0.64943461  1.0
  O  O44  1  0.50257580  0.32847298  0.52519685  1.0
  O  O45  1  0.87243172  0.51558477  0.35148113  1.0
  O  O46  1  0.20181406  0.43911378  0.44935662  1.0
  O  O47  1  0.80860508  0.55985973  0.54997140  1.0
