# generated using pymatgen
data_AlH4C10SClO6
_symmetry_space_group_name_H-M   'P 1'
_cell_length_a   6.62756724
_cell_length_b   10.97057970
_cell_length_c   12.72516344
_cell_angle_alpha   93.68374230
_cell_angle_beta   104.78135064
_cell_angle_gamma   105.76168769
_symmetry_Int_Tables_number   1
_chemical_formula_structural   AlH4C10SClO6
_chemical_formula_sum   'Al2 H8 C20 S2 Cl2 O12'
_cell_volume   852.05501235
_cell_formula_units_Z   2
loop_
 _symmetry_equiv_pos_site_id
 _symmetry_equiv_pos_as_xyz
  1  'x, y, z'
loop_
 _atom_site_type_symbol
 _atom_site_label
 _atom_site_symmetry_multiplicity
 _atom_site_fract_x
 _atom_site_fract_y
 _atom_site_fract_z
 _atom_site_occupancy
  Al  Al0  1  0.01453665  0.50196133  0.49804691  1.0
  Al  Al1  1  0.51605596  0.50319987  0.50007381  1.0
  H  H2  1  0.36627388  0.59836694  0.62669406  1.0
  H  H3  1  0.66946804  0.34094409  0.45939457  1.0
  H  H4  1  0.48770883  0.75855527  0.36979799  1.0
  H  H5  1  0.75845076  0.22454297  0.35583989  1.0
  H  H6  1  0.38970874  0.11819812  0.55942763  1.0
  H  H7  1  0.26243170  0.88012897  0.54938070  1.0
  H  H8  1  0.15348457  0.77609962  0.27726924  1.0
  H  H9  1  0.40735926  0.20532123  0.26499239  1.0
  C  C10  1  0.86574954  0.72486805  0.47972157  1.0
  C  C11  1  0.86750536  0.52305057  0.69751151  1.0
  C  C12  1  0.15026081  0.27278316  0.49593793  1.0
  C  C13  1  0.16991859  0.48930952  0.30274559  1.0
  C  C14  1  0.13716074  0.56856460  0.89336436  1.0
  C  C15  1  0.90336146  0.44979889  0.10750401  1.0
  C  C16  1  0.93279582  0.52109713  0.81655480  1.0
  C  C17  1  0.10774331  0.49618746  0.18459813  1.0
  C  C18  1  0.91453543  0.47638677  0.00149718  1.0
  C  C19  1  0.12682416  0.54301304  0.99989507  1.0
  C  C20  1  0.92710369  0.86410944  0.47203525  1.0
  C  C21  1  0.77145918  0.92706707  0.42298074  1.0
  C  C22  1  0.14707461  0.93185485  0.51607021  1.0
  C  C23  1  0.54869789  0.86106029  0.36865037  1.0
  C  C24  1  0.40664661  0.92319619  0.31427955  1.0
  C  C25  1  0.07130440  0.13060555  0.47837434  1.0
  C  C26  1  0.21873437  0.06493827  0.52061121  1.0
  C  C27  1  0.84764847  0.06309720  0.42324111  1.0
  C  C28  1  0.69973334  0.12373518  0.36404864  1.0
  C  C29  1  0.48458443  0.05731519  0.31087823  1.0
  S  S30  1  0.72808209  0.44645107  0.87433246  1.0
  S  S31  1  0.31306438  0.57173869  0.12722759  1.0
  Cl  Cl32  1  0.37495441  0.65186423  0.86897154  1.0
  Cl  Cl33  1  0.66444392  0.36587667  0.13014612  1.0
  O  O34  1  0.99843024  0.66523824  0.46333790  1.0
  O  O35  1  0.66232925  0.50040598  0.65259729  1.0
  O  O36  1  0.34022956  0.32682013  0.48614986  1.0
  O  O37  1  0.01840431  0.46179800  0.34941732  1.0
  O  O38  1  0.02354828  0.33185448  0.52099518  1.0
  O  O39  1  0.37421012  0.51314556  0.34972335  1.0
  O  O40  1  0.69134804  0.67418261  0.50567907  1.0
  O  O41  1  0.01672502  0.54504647  0.64888485  1.0
  O  O42  1  0.31783608  0.56606198  0.54874821  1.0
  O  O43  1  0.71093408  0.43218329  0.45469532  1.0
  O  O44  1  0.19182396  0.86375480  0.26099093  1.0
  O  O45  1  0.33815122  0.11292834  0.25357636  1.0
