# generated using pymatgen
data_Zn2H14C38I5Br5N8
_symmetry_space_group_name_H-M   'P 1'
_cell_length_a   19.58972667
_cell_length_b   19.91870882
_cell_length_c   20.85975702
_cell_angle_alpha   106.80989185
_cell_angle_beta   107.84183113
_cell_angle_gamma   111.73598779
_symmetry_Int_Tables_number   1
_chemical_formula_structural   Zn2H14C38I5Br5N8
_chemical_formula_sum   'Zn4 H28 C76 I10 Br10 N16'
_cell_volume   6407.60498540
_cell_formula_units_Z   2
loop_
 _symmetry_equiv_pos_site_id
 _symmetry_equiv_pos_as_xyz
  1  'x, y, z'
loop_
 _atom_site_type_symbol
 _atom_site_label
 _atom_site_symmetry_multiplicity
 _atom_site_fract_x
 _atom_site_fract_y
 _atom_site_fract_z
 _atom_site_occupancy
  Zn  Zn0  1  0.89478018  0.89495924  0.51393604  1.0
  Zn  Zn1  1  0.10155396  0.08716462  0.48925309  1.0
  Zn  Zn2  1  0.09902497  0.00347412  0.60348154  1.0
  Zn  Zn3  1  0.89456238  0.98898001  0.40658322  1.0
  H  H4  1  0.85676248  0.01301039  0.62177252  1.0
  H  H5  1  0.45484793  0.95805966  0.39572370  1.0
  H  H6  1  0.03270548  0.48105407  0.50606146  1.0
  H  H7  1  0.13531433  0.62105659  0.64964250  1.0
  H  H8  1  0.09081900  0.52077404  0.72038114  1.0
  H  H9  1  0.76729774  0.61076428  0.26306020  1.0
  H  H10  1  0.28686078  0.14307538  0.75131637  1.0
  H  H11  1  0.62818462  0.55654558  0.97428240  1.0
  H  H12  1  0.61095122  0.35917268  0.85933677  1.0
  H  H13  1  0.89998249  0.75929089  0.17960804  1.0
  H  H14  1  0.68077699  0.43324223  0.99423804  1.0
  H  H15  1  0.12343051  0.96336434  0.36656761  1.0
  H  H16  1  0.48071776  0.48852149  0.89515088  1.0
  H  H17  1  0.69411331  0.94869437  0.34248331  1.0
  H  H18  1  0.97729281  0.21441639  0.26451633  1.0
  H  H19  1  0.86218923  0.04303906  0.73157850  1.0
  H  H20  1  0.92181253  0.12582082  0.98139957  1.0
  H  H21  1  0.10418628  0.27200386  0.96842361  1.0
  H  H22  1  0.29421302  0.24773802  0.59687506  1.0
  H  H23  1  0.86086466  0.12377029  0.49586594  1.0
  H  H24  1  0.12585382  0.15322524  0.73368519  1.0
  H  H25  1  0.13507195  0.88515455  0.67770187  1.0
  H  H26  1  0.86117061  0.02884776  0.25222651  1.0
  H  H27  1  0.86661982  0.75640106  0.57581220  1.0
  H  H28  1  0.88157680  0.86433559  0.26641367  1.0
  H  H29  1  0.12291984  0.85460651  0.51930770  1.0
  H  H30  1  0.39814433  0.92150136  0.49825952  1.0
  H  H31  1  0.26173643  0.68558339  0.34753394  1.0
  C  C32  1  0.92285001  0.04007084  0.63922995  1.0
  C  C33  1  0.93200939  0.79922408  0.59850407  1.0
  C  C34  1  0.88735342  0.84297214  0.30908609  1.0
  C  C35  1  0.05918543  0.22011436  0.54479461  1.0
  C  C36  1  0.11853867  0.88940160  0.48824342  1.0
  C  C37  1  0.87421964  0.76642137  0.30200943  1.0
  C  C38  1  0.13635693  0.88814224  0.42746375  1.0
  C  C39  1  0.00141337  0.79343004  0.63545899  1.0
  C  C40  1  0.99527091  0.09153604  0.27856977  1.0
  C  C41  1  0.38109982  0.87784124  0.44223370  1.0
  C  C42  1  0.39482298  0.80375636  0.42471296  1.0
  C  C43  1  0.98914168  0.22789160  0.54014779  1.0
  C  C44  1  0.57498508  0.84931117  0.38292749  1.0
  C  C45  1  0.17691014  0.85066141  0.40028751  1.0
  C  C46  1  0.41157957  0.89799385  0.38588140  1.0
  C  C47  1  0.27524593  0.15698456  0.70377676  1.0
  C  C48  1  0.42900243  0.82487477  0.36902395  1.0
  C  C49  1  0.32142836  0.84139008  0.31968696  1.0
  C  C50  1  0.28840559  0.82061235  0.37624511  1.0
  C  C51  1  0.33624942  0.76712132  0.30301087  1.0
  C  C52  1  0.30443400  0.74655840  0.35878118  1.0
  C  C53  1  0.50445007  0.83288133  0.37128124  1.0
  C  C54  1  0.32511805  0.22491772  0.69867008  1.0
  C  C55  1  0.22136692  0.82702412  0.38383258  1.0
  C  C56  1  0.97368757  0.53180869  0.66390832  1.0
  C  C57  1  0.91632930  0.45508554  0.58455544  1.0
  C  C58  1  0.98613594  0.29991086  0.55837983  1.0
  C  C59  1  0.70937281  0.92085047  0.37826944  1.0
  C  C60  1  0.00163179  0.72543184  0.64236855  1.0
  C  C61  1  0.04866347  0.51859634  0.67037815  1.0
  C  C62  1  0.99189605  0.44040112  0.59075111  1.0
  C  C63  1  0.07288608  0.57269181  0.63088822  1.0
  C  C64  1  0.99824364  0.58837882  0.62524815  1.0
  C  C65  1  0.65747498  0.87137594  0.39955695  1.0
  C  C66  1  0.01644392  0.49654382  0.55171022  1.0
  C  C67  1  0.94135452  0.50961682  0.54526268  1.0
  C  C68  1  0.98848951  0.36485356  0.57327691  1.0
  C  C69  1  0.00113113  0.66324774  0.63967409  1.0
  C  C70  1  0.83837138  0.69452405  0.23063728  1.0
  C  C71  1  0.27912252  0.21053947  0.62501688  1.0
  C  C72  1  0.78056456  0.61805956  0.21776019  1.0
  C  C73  1  0.73619031  0.55275156  0.14593529  1.0
  C  C74  1  0.74428791  0.55944767  0.08278779  1.0
  C  C75  1  0.80629800  0.63555890  0.09830086  1.0
  C  C76  1  0.89003274  0.77464241  0.37549932  1.0
  C  C77  1  0.85291807  0.70155272  0.17033095  1.0
  C  C78  1  0.55398068  0.36183004  0.84407619  1.0
  C  C79  1  0.48035182  0.29647395  0.78203502  1.0
  C  C80  1  0.40855508  0.36833677  0.80198873  1.0
  C  C81  1  0.48144368  0.43498052  0.86321039  1.0
  C  C82  1  0.55480523  0.43149323  0.88664194  1.0
  C  C83  1  0.71075519  0.85341164  0.44565714  1.0
  C  C84  1  0.68405918  0.49188820  0.00643868  1.0
  C  C85  1  0.62657178  0.49839021  0.95736434  1.0
  C  C86  1  0.40449541  0.29623651  0.75960560  1.0
  C  C87  1  0.11825155  0.94480172  0.40973870  1.0
  C  C88  1  0.98867132  0.13867878  0.77960427  1.0
  C  C89  1  0.05431176  0.20665494  0.84843620  1.0
  C  C90  1  0.05048318  0.22152663  0.91638158  1.0
  C  C91  1  0.98062897  0.17177674  0.92089662  1.0
  C  C92  1  0.91078678  0.11084213  0.85042606  1.0
  C  C93  1  0.91558561  0.09463685  0.78322421  1.0
  C  C94  1  0.03307708  0.11201172  0.11579999  1.0
  C  C95  1  0.92586706  0.14713619  0.50979613  1.0
  C  C96  1  0.02010029  0.08062712  0.16586059  1.0
  C  C97  1  0.99191547  0.18513496  0.22207611  1.0
  C  C98  1  0.06929399  0.86470554  0.64974359  1.0
  C  C99  1  0.00298255  0.21498226  0.17104601  1.0
  C  C100  1  0.02480415  0.18008694  0.11755209  1.0
  C  C101  1  0.98056863  0.17293975  0.99068992  1.0
  C  C102  1  0.03902449  0.21087167  0.06342135  1.0
  C  C103  1  0.00125056  0.11842446  0.22088277  1.0
  C  C104  1  0.06006617  0.11198933  0.69621141  1.0
  C  C105  1  0.99132676  0.10442867  0.70866176  1.0
  C  C106  1  0.92598764  0.05023310  0.28742764  1.0
  C  C107  1  0.06095949  0.10163430  0.33958647  1.0
  I  I108  1  0.26373003  0.87114617  0.23819939  1.0
  I  I109  1  0.89766664  0.69265836  0.41667365  1.0
  I  I110  1  0.85820772  0.50408364  0.44854349  1.0
  I  I111  1  0.48419955  0.19456207  0.71985244  1.0
  I  I112  1  0.83348862  0.65380944  0.01212722  1.0
  I  I113  1  0.64648232  0.44176110  0.13121455  1.0
  I  I114  1  0.16450653  0.29207206  0.85631535  1.0
  I  I115  1  0.79526130  0.03615670  0.84198600  1.0
  I  I116  1  0.98642170  0.31439079  0.17585628  1.0
  I  I117  1  0.68756606  0.78610401  0.50347270  1.0
  Br  Br118  1  0.17504002  0.15384261  0.36922396  1.0
  Br  Br119  1  0.06343887  0.06373217  0.04511105  1.0
  Br  Br120  1  0.44760191  0.77698640  0.49900119  1.0
  Br  Br121  1  0.16410920  0.30352891  0.57353659  1.0
  Br  Br122  1  0.30468824  0.68863154  0.20552787  1.0
  Br  Br123  1  0.80729469  0.37295490  0.55276660  1.0
  Br  Br124  1  0.94332867  0.55651646  0.74244255  1.0
  Br  Br125  1  0.31025116  0.37577731  0.77798256  1.0
  Br  Br126  1  0.02568131  0.98599170  0.15957191  1.0
  Br  Br127  1  0.15017842  0.29768152  0.10591562  1.0
  N  N128  1  0.94950752  0.01139499  0.59140941  1.0
  N  N129  1  0.20492859  0.10610091  0.63804782  1.0
  N  N130  1  0.78580070  0.93100090  0.40906957  1.0
  N  N131  1  0.20714720  0.13949990  0.58898996  1.0
  N  N132  1  0.78664263  0.88892566  0.45096243  1.0
  N  N133  1  0.95659459  0.09694203  0.49784230  1.0
  N  N134  1  0.03390441  0.05555642  0.62645790  1.0
  N  N135  1  0.90868905  0.84955399  0.42134787  1.0
  N  N136  1  0.09352207  0.97762721  0.45751276  1.0
  N  N137  1  0.04213448  0.90820588  0.62242572  1.0
  N  N138  1  0.94920977  0.03690217  0.34839295  1.0
  N  N139  1  0.03374301  0.06928744  0.38088738  1.0
  N  N140  1  0.95662489  0.86720911  0.59022385  1.0
  N  N141  1  0.90713976  0.89132402  0.37983525  1.0
  N  N142  1  0.09371461  0.94362824  0.50548810  1.0
  N  N143  1  0.03942882  0.14220551  0.52054670  1.0
