# generated using pymatgen
data_CuH7(C7O2)2
_symmetry_space_group_name_H-M   'P 1'
_cell_length_a   18.26829637
_cell_length_b   18.26832219
_cell_length_c   24.50467294
_cell_angle_alpha   105.40723896
_cell_angle_beta   105.40717357
_cell_angle_gamma   106.68504870
_symmetry_Int_Tables_number   1
_chemical_formula_structural   CuH7(C7O2)2
_chemical_formula_sum   'Cu8 H56 C112 O32'
_cell_volume   7015.28682450
_cell_formula_units_Z   8
loop_
 _symmetry_equiv_pos_site_id
 _symmetry_equiv_pos_as_xyz
  1  'x, y, z'
loop_
 _atom_site_type_symbol
 _atom_site_label
 _atom_site_symmetry_multiplicity
 _atom_site_fract_x
 _atom_site_fract_y
 _atom_site_fract_z
 _atom_site_occupancy
  Cu  Cu0  1  0.50601734  0.95303934  0.95717603  1.0
  Cu  Cu1  1  0.45116179  0.50417602  0.95720516  1.0
  Cu  Cu2  1  0.04696321  0.49398218  0.54282554  1.0
  Cu  Cu3  1  0.49582490  0.54883912  0.54279615  1.0
  Cu  Cu4  1  0.49398435  0.04696546  0.04283188  1.0
  Cu  Cu5  1  0.54884373  0.49582693  0.04280151  1.0
  Cu  Cu6  1  0.95303693  0.50601709  0.45717077  1.0
  Cu  Cu7  1  0.50417429  0.45115769  0.45720030  1.0
  H  H8  1  0.77847191  0.57201101  0.00946362  1.0
  H  H9  1  0.70899407  0.65065282  0.82897410  1.0
  H  H10  1  0.88396893  0.61334182  0.96525218  1.0
  H  H11  1  0.60355034  0.60666886  0.87234287  1.0
  H  H12  1  0.76628144  0.57986269  0.77376222  1.0
  H  H13  1  0.72766395  0.60038411  0.68854915  1.0
  H  H14  1  0.23106787  0.93744064  0.00943277  1.0
  H  H15  1  0.11990008  0.67830048  0.82894994  1.0
  H  H16  1  0.08136727  0.85194377  0.96528292  1.0
  H  H17  1  0.26872278  0.76558019  0.87227644  1.0
  H  H18  1  0.00753742  0.69393694  0.77374893  1.0
  H  H19  1  0.96089681  0.58824445  0.68850401  1.0
  H  H20  1  0.42798858  0.22152818  0.49053615  1.0
  H  H21  1  0.34934674  0.29100563  0.67102582  1.0
  H  H22  1  0.38665876  0.11603049  0.53474818  1.0
  H  H23  1  0.39333009  0.39644873  0.62765643  1.0
  H  H24  1  0.42013660  0.23371810  0.72623795  1.0
  H  H25  1  0.39961510  0.27233606  0.81145087  1.0
  H  H26  1  0.06255891  0.76893175  0.49056659  1.0
  H  H27  1  0.32169970  0.88009856  0.67104983  1.0
  H  H28  1  0.14805656  0.91863356  0.53471743  1.0
  H  H29  1  0.23441938  0.73127574  0.62772274  1.0
  H  H30  1  0.30606370  0.99246317  0.72625098  1.0
  H  H31  1  0.41175581  0.03910369  0.81149700  1.0
  H  H32  1  0.22153041  0.42798949  0.99053704  1.0
  H  H33  1  0.29100390  0.34934522  0.17102766  1.0
  H  H34  1  0.11603282  0.38665868  0.03474796  1.0
  H  H35  1  0.39644862  0.39332733  0.12765831  1.0
  H  H36  1  0.23371813  0.42013658  0.22623765  1.0
  H  H37  1  0.27233529  0.39961576  0.31145077  1.0
  H  H38  1  0.76893113  0.06255862  0.99056780  1.0
  H  H39  1  0.88009840  0.32170186  0.17105073  1.0
  H  H40  1  0.91863220  0.14805673  0.03471840  1.0
  H  H41  1  0.73127612  0.23442030  0.12772354  1.0
  H  H42  1  0.99246252  0.30606479  0.22625150  1.0
  H  H43  1  0.03910129  0.41175542  0.31149324  1.0
  H  H44  1  0.57201075  0.77847046  0.50946273  1.0
  H  H45  1  0.65065445  0.70899487  0.32897339  1.0
  H  H46  1  0.61334139  0.88396878  0.46525140  1.0
  H  H47  1  0.60667086  0.60355116  0.37234261  1.0
  H  H48  1  0.57986401  0.76628240  0.27376196  1.0
  H  H49  1  0.60038598  0.72766566  0.18854978  1.0
  H  H50  1  0.93744155  0.23106689  0.50943292  1.0
  H  H51  1  0.67830057  0.11990255  0.32894932  1.0
  H  H52  1  0.85194301  0.08136569  0.46528080  1.0
  H  H53  1  0.76558146  0.26872536  0.37227733  1.0
  H  H54  1  0.69393657  0.00753794  0.27374817  1.0
  H  H55  1  0.58824495  0.96089865  0.18850698  1.0
  H  H56  1  0.97175695  0.72178076  0.94352047  1.0
  H  H57  1  0.75984386  0.50986476  0.51975512  1.0
  H  H58  1  0.27821904  0.02824360  0.55647930  1.0
  H  H59  1  0.49013357  0.24015592  0.98024462  1.0
  H  H60  1  0.02824308  0.27821973  0.05647932  1.0
  H  H61  1  0.24015420  0.49013205  0.48024315  1.0
  H  H62  1  0.72178044  0.97175690  0.44352039  1.0
  H  H63  1  0.50986728  0.75984520  0.01975669  1.0
  C  C64  1  0.68390263  0.58522929  0.94292909  1.0
  C  C65  1  0.76378020  0.58941587  0.96990572  1.0
  C  C66  1  0.72430539  0.63226849  0.86802792  1.0
  C  C67  1  0.80366806  0.63328050  0.89298538  1.0
  C  C68  1  0.82293935  0.61323893  0.94517880  1.0
  C  C69  1  0.66513303  0.60832791  0.89233883  1.0
  C  C70  1  0.86217597  0.65104900  0.86199927  1.0
  C  C71  1  0.83135594  0.61886973  0.79806090  1.0
  C  C72  1  0.76720607  0.58487766  0.66501722  1.0
  C  C73  1  0.73475383  0.55099738  0.60134815  1.0
  C  C74  1  0.61775909  0.55449750  0.96565101  1.0
  C  C75  1  0.64692301  0.53213059  0.56626590  1.0
  C  C76  1  0.25901542  0.85769816  0.94281167  1.0
  C  C77  1  0.20617219  0.88051003  0.96985119  1.0
  C  C78  1  0.14366671  0.73574991  0.86798849  1.0
  C  C79  1  0.08932316  0.75972593  0.89298918  1.0
  C  C80  1  0.12229546  0.83194816  0.94519382  1.0
  C  C81  1  0.22715268  0.78397755  0.89226727  1.0
  C  C82  1  0.99984466  0.71100643  0.86200030  1.0
  C  C83  1  0.96676740  0.67927327  0.79806330  1.0
  C  C84  1  0.89783352  0.58026586  0.66498985  1.0
  C  C85  1  0.86657540  0.55038676  0.60132098  1.0
  C  C86  1  0.34789211  0.91112156  0.96554421  1.0
  C  C87  1  0.91932119  0.53415568  0.56623295  1.0
  C  C88  1  0.41477085  0.31609661  0.55707002  1.0
  C  C89  1  0.41058401  0.23621921  0.53009455  1.0
  C  C90  1  0.36773126  0.27569370  0.63197108  1.0
  C  C91  1  0.36671880  0.19633182  0.60701528  1.0
  C  C92  1  0.38676070  0.17705996  0.55482179  1.0
  C  C93  1  0.39167159  0.33486628  0.60766059  1.0
  C  C94  1  0.34895086  0.13782303  0.63800104  1.0
  C  C95  1  0.38113067  0.16864368  0.70193801  1.0
  C  C96  1  0.41512175  0.23279354  0.83498273  1.0
  C  C97  1  0.44900015  0.26524532  0.89865134  1.0
  C  C98  1  0.44550338  0.38224119  0.53434888  1.0
  C  C99  1  0.46787209  0.35307656  0.93373555  1.0
  C  C100  1  0.14230392  0.74098442  0.55718547  1.0
  C  C101  1  0.11949121  0.79382966  0.53014827  1.0
  C  C102  1  0.26425046  0.85633251  0.63201104  1.0
  C  C103  1  0.24027573  0.91067696  0.60701124  1.0
  C  C104  1  0.16805376  0.87770565  0.55480646  1.0
  C  C105  1  0.21602346  0.77284530  0.60773131  1.0
  C  C106  1  0.28899473  0.00015554  0.63800046  1.0
  C  C107  1  0.32072818  0.03323263  0.70193708  1.0
  C  C108  1  0.41973224  0.10216679  0.83501072  1.0
  C  C109  1  0.44960867  0.13342291  0.89867908  1.0
  C  C110  1  0.08888238  0.65210778  0.53445492  1.0
  C  C111  1  0.46584146  0.08068161  0.93377075  1.0
  C  C112  1  0.31609727  0.41476937  0.05707236  1.0
  C  C113  1  0.23622064  0.41058524  0.03009558  1.0
  C  C114  1  0.27569521  0.36773200  0.13197321  1.0
  C  C115  1  0.19633378  0.36671877  0.10701657  1.0
  C  C116  1  0.17706206  0.38676218  0.05482343  1.0
  C  C117  1  0.33486734  0.39167197  0.10766295  1.0
  C  C118  1  0.13782259  0.34895209  0.13800035  1.0
  C  C119  1  0.16864329  0.38113014  0.20193861  1.0
  C  C120  1  0.23279464  0.41512161  0.33498206  1.0
  C  C121  1  0.26524678  0.44900312  0.39865176  1.0
  C  C122  1  0.38224867  0.44550240  0.03435714  1.0
  C  C123  1  0.35307624  0.46786929  0.43373158  1.0
  C  C124  1  0.74098566  0.14230357  0.05718776  1.0
  C  C125  1  0.79382980  0.11949110  0.03014953  1.0
  C  C126  1  0.85633153  0.26425181  0.13201119  1.0
  C  C127  1  0.91067498  0.24027701  0.10701195  1.0
  C  C128  1  0.87770519  0.16805540  0.05480752  1.0
  C  C129  1  0.77284476  0.21602355  0.10773295  1.0
  C  C130  1  0.00015390  0.28899467  0.13799932  1.0
  C  C131  1  0.03323174  0.32072784  0.20193644  1.0
  C  C132  1  0.10216387  0.41973217  0.33500893  1.0
  C  C133  1  0.13342290  0.44961066  0.39867787  1.0
  C  C134  1  0.65210828  0.08888877  0.03446046  1.0
  C  C135  1  0.08067630  0.46584112  0.43376439  1.0
  C  C136  1  0.58522962  0.68390204  0.44292787  1.0
  C  C137  1  0.58941556  0.76378006  0.46990451  1.0
  C  C138  1  0.63226855  0.72430619  0.36802774  1.0
  C  C139  1  0.63328101  0.80366806  0.39298476  1.0
  C  C140  1  0.61323750  0.82293869  0.44517728  1.0
  C  C141  1  0.60832741  0.66513298  0.39233753  1.0
  C  C142  1  0.65104828  0.86217808  0.36200033  1.0
  C  C143  1  0.61886961  0.83135744  0.29806237  1.0
  C  C144  1  0.58487962  0.76720450  0.16501725  1.0
  C  C145  1  0.55099472  0.73475208  0.10134641  1.0
  C  C146  1  0.55449739  0.61775378  0.46564548  1.0
  C  C147  1  0.53213123  0.64692210  0.06626902  1.0
  C  C148  1  0.85769770  0.25901424  0.44281346  1.0
  C  C149  1  0.88051006  0.20616960  0.46985112  1.0
  C  C150  1  0.73574981  0.14366859  0.36798892  1.0
  C  C151  1  0.75972502  0.08932539  0.39298825  1.0
  C  C152  1  0.83194604  0.12229423  0.44519235  1.0
  C  C153  1  0.78397772  0.22715520  0.39226749  1.0
  C  C154  1  0.71100602  0.99984680  0.36200025  1.0
  C  C155  1  0.67927323  0.96676847  0.29806351  1.0
  C  C156  1  0.58026794  0.89783554  0.16499110  1.0
  C  C157  1  0.55039284  0.86657697  0.10132211  1.0
  C  C158  1  0.91111468  0.34789086  0.46554351  1.0
  C  C159  1  0.53415853  0.91932318  0.06623601  1.0
  C  C160  1  0.94688194  0.69690809  0.89375531  1.0
  C  C161  1  0.88266500  0.63268123  0.76526225  1.0
  C  C162  1  0.84894424  0.59900420  0.69781397  1.0
  C  C163  1  0.78463757  0.53466893  0.56929311  1.0
  C  C164  1  0.30309178  0.05311625  0.60624564  1.0
  C  C165  1  0.36732011  0.11733578  0.73473787  1.0
  C  C166  1  0.40099425  0.15105569  0.80218500  1.0
  C  C167  1  0.46532723  0.21536031  0.93070745  1.0
  C  C168  1  0.05311696  0.30309240  0.10624467  1.0
  C  C169  1  0.11733505  0.36731926  0.23473755  1.0
  C  C170  1  0.15105547  0.40099690  0.30218547  1.0
  C  C171  1  0.21536076  0.46533155  0.43070471  1.0
  C  C172  1  0.69690803  0.94688362  0.39375521  1.0
  C  C173  1  0.63268220  0.88266472  0.26526278  1.0
  C  C174  1  0.59900362  0.84894356  0.19781371  1.0
  C  C175  1  0.53466949  0.78463894  0.06929593  1.0
  O  O176  1  0.54517224  0.54545908  0.93401983  1.0
  O  O177  1  0.60943813  0.56998716  0.59263939  1.0
  O  O178  1  0.63723021  0.53852255  0.01408861  1.0
  O  O179  1  0.61644613  0.47888417  0.51186890  1.0
  O  O180  1  0.38884326  0.88856303  0.93389558  1.0
  O  O181  1  0.98319054  0.52271229  0.59263820  1.0
  O  O182  1  0.37687922  0.97545068  0.01402789  1.0
  O  O183  1  0.89540443  0.53297887  0.51182699  1.0
  O  O184  1  0.45454231  0.45482664  0.56597828  1.0
  O  O185  1  0.43001079  0.39056023  0.90735929  1.0
  O  O186  1  0.46147633  0.36276684  0.48590925  1.0
  O  O187  1  0.52111357  0.38355585  0.98813081  1.0
  O  O188  1  0.11143322  0.61115356  0.56610139  1.0
  O  O189  1  0.47728576  0.01681107  0.90736091  1.0
  O  O190  1  0.02455183  0.62312494  0.48596963  1.0
  O  O191  1  0.46702291  0.10459366  0.98817549  1.0
  O  O192  1  0.45483299  0.45454756  0.06597976  1.0
  O  O193  1  0.39056499  0.43001395  0.40736277  1.0
  O  O194  1  0.36276431  0.46147240  0.98591390  1.0
  O  O195  1  0.38354809  0.52111447  0.48812897  1.0
  O  O196  1  0.61114663  0.11142576  0.06610030  1.0
  O  O197  1  0.01680799  0.47728574  0.40736081  1.0
  O  O198  1  0.62313237  0.02455476  0.98597354  1.0
  O  O199  1  0.10459851  0.46701733  0.48817131  1.0
  O  O200  1  0.54545529  0.54516894  0.43402088  1.0
  O  O201  1  0.56998254  0.60943163  0.09263461  1.0
  O  O202  1  0.53852531  0.63723488  0.51408702  1.0
  O  O203  1  0.47888299  0.61645631  0.01187061  1.0
  O  O204  1  0.88857255  0.38885002  0.43389934  1.0
  O  O205  1  0.52271178  0.98318880  0.09263378  1.0
  O  O206  1  0.97544690  0.37687063  0.51402812  1.0
  O  O207  1  0.53298299  0.89539394  0.01182618  1.0
