# generated using pymatgen
data_ZnH14C22(NO2)3
_symmetry_space_group_name_H-M   'P 1'
_cell_length_a   9.72260756
_cell_length_b   10.87289058
_cell_length_c   19.25149316
_cell_angle_alpha   91.61342299
_cell_angle_beta   90.20242662
_cell_angle_gamma   94.54792789
_symmetry_Int_Tables_number   1
_chemical_formula_structural   ZnH14C22(NO2)3
_chemical_formula_sum   'Zn2 H28 C44 N6 O12'
_cell_volume   2027.88402783
_cell_formula_units_Z   2
loop_
 _symmetry_equiv_pos_site_id
 _symmetry_equiv_pos_as_xyz
  1  'x, y, z'
loop_
 _atom_site_type_symbol
 _atom_site_label
 _atom_site_symmetry_multiplicity
 _atom_site_fract_x
 _atom_site_fract_y
 _atom_site_fract_z
 _atom_site_occupancy
  Zn  Zn0  1  0.63818574  0.50488259  0.49902009  1.0
  Zn  Zn1  1  0.34674819  0.51330959  0.49413078  1.0
  H  H2  1  0.70958541  0.57050772  0.28092855  1.0
  H  H3  1  0.32681210  0.37318381  0.71031907  1.0
  H  H4  1  0.34003001  0.34536675  0.83884646  1.0
  H  H5  1  0.28735315  0.95233490  0.61142127  1.0
  H  H6  1  0.33843140  0.71432124  0.32993730  1.0
  H  H7  1  0.06552384  0.47214301  0.67181092  1.0
  H  H8  1  0.99754055  0.39619853  0.78778209  1.0
  H  H9  1  0.77717512  0.26612057  0.80204957  1.0
  H  H10  1  0.62527222  0.21108368  0.69887509  1.0
  H  H11  1  0.68988342  0.28985562  0.58377520  1.0
  H  H12  1  0.85859493  0.64673037  0.76835343  1.0
  H  H13  1  0.62879643  0.93995670  0.50436171  1.0
  H  H14  1  0.00533802  0.82814159  0.72879057  1.0
  H  H15  1  0.90204694  0.98854563  0.65913234  1.0
  H  H16  1  0.65188462  0.96416133  0.62923405  1.0
  H  H17  1  0.50699468  0.78006614  0.66634966  1.0
  H  H18  1  0.67438059  0.19444741  0.39626746  1.0
  H  H19  1  0.73189159  0.26656835  0.27767744  1.0
  H  H20  1  0.56160171  0.22664029  0.18116801  1.0
  H  H21  1  0.33201184  0.11802919  0.20442279  1.0
  H  H22  1  0.27487612  0.04509276  0.32280614  1.0
  H  H23  1  0.89076538  0.49125497  0.45936627  1.0
  H  H24  1  0.13341197  0.37471915  0.56024847  1.0
  H  H25  1  0.08381082  0.59952322  0.48643343  1.0
  H  H26  1  0.72092399  0.56201542  0.15069503  1.0
  H  H27  1  0.29342023  0.42434782  0.14155223  1.0
  H  H28  1  0.28194860  0.43868762  0.27155590  1.0
  H  H29  1  0.66394777  0.63864839  0.85269320  1.0
  C  C30  1  0.55092105  0.74424048  0.48907626  1.0
  C  C31  1  0.50517714  0.48888307  0.85335203  1.0
  C  C32  1  0.44298586  0.06069504  0.43657897  1.0
  C  C33  1  0.49117998  0.50262242  0.36126473  1.0
  C  C34  1  0.42255941  0.12876871  0.49494892  1.0
  C  C35  1  0.45036603  0.92571381  0.44004764  1.0
  C  C36  1  0.54874268  0.87897659  0.47847782  1.0
  C  C37  1  0.92221200  0.43697119  0.55263483  1.0
  C  C38  1  0.07370795  0.44654009  0.53916488  1.0
  C  C39  1  0.43507322  0.26808200  0.49548034  1.0
  C  C40  1  0.48321609  0.52045209  0.63178435  1.0
  C  C41  1  0.49567290  0.50370962  0.28356588  1.0
  C  C42  1  0.61909360  0.53972841  0.24966686  1.0
  C  C43  1  0.62543201  0.53493409  0.17761338  1.0
  C  C44  1  0.50840284  0.49102690  0.13836742  1.0
  C  C45  1  0.38361485  0.45810305  0.17231293  1.0
  C  C46  1  0.37724338  0.46580811  0.24441434  1.0
  C  C47  1  0.39200312  0.07740802  0.56457518  1.0
  C  C48  1  0.34650127  0.84270322  0.39907380  1.0
  C  C49  1  0.88007422  0.38866659  0.62018282  1.0
  C  C50  1  0.96847549  0.41561336  0.67781034  1.0
  C  C51  1  0.93036262  0.37300829  0.74305991  1.0
  C  C52  1  0.51669794  0.47348486  0.92842294  1.0
  C  C53  1  0.80650248  0.30004149  0.75096289  1.0
  C  C54  1  0.72082269  0.26944519  0.69357351  1.0
  C  C55  1  0.75652650  0.31411886  0.62845841  1.0
  C  C56  1  0.67262779  0.70088981  0.72033689  1.0
  C  C57  1  0.81351966  0.71616274  0.73752150  1.0
  C  C58  1  0.89596555  0.81809989  0.71494934  1.0
  C  C59  1  0.83852033  0.90755667  0.67574486  1.0
  C  C60  1  0.69834340  0.89337611  0.65842651  1.0
  C  C61  1  0.61652733  0.79034508  0.67989233  1.0
  C  C62  1  0.47185162  0.11393405  0.36710776  1.0
  C  C63  1  0.51756520  0.47586644  0.06268300  1.0
  C  C64  1  0.60018301  0.17701962  0.35391604  1.0
  C  C65  1  0.63210222  0.21702072  0.28723040  1.0
  C  C66  1  0.53660167  0.19482397  0.23316531  1.0
  C  C67  1  0.40787738  0.13378832  0.24624267  1.0
  C  C68  1  0.37542911  0.09290256  0.31271899  1.0
  C  C69  1  0.59132430  0.57945416  0.82097351  1.0
  C  C70  1  0.58380027  0.59771699  0.74939987  1.0
  C  C71  1  0.48747632  0.52054816  0.70971132  1.0
  C  C72  1  0.39918946  0.43187509  0.74243781  1.0
  C  C73  1  0.40704289  0.41541202  0.81355823  1.0
  N  N74  1  0.41898075  0.40113355  0.02897572  1.0
  N  N75  1  0.41781354  0.40164093  0.96063026  1.0
  N  N76  1  0.63225279  0.52263422  0.96186042  1.0
  N  N77  1  0.63138211  0.52521939  0.03021471  1.0
  N  N78  1  0.83944067  0.46646345  0.50396490  1.0
  N  N79  1  0.13942685  0.52996012  0.50408002  1.0
  O  O80  1  0.66556177  0.69650881  0.49022561  1.0
  O  O81  1  0.29634402  0.97958477  0.56342543  1.0
  O  O82  1  0.22171666  0.84001350  0.40664051  1.0
  O  O83  1  0.40924869  0.77368215  0.35078559  1.0
  O  O84  1  0.43163115  0.68833434  0.49754059  1.0
  O  O85  1  0.60539913  0.49939050  0.39333046  1.0
  O  O86  1  0.37214660  0.50466219  0.38888266  1.0
  O  O87  1  0.55646495  0.31955213  0.49923927  1.0
  O  O88  1  0.32366835  0.32098435  0.49324358  1.0
  O  O89  1  0.59923516  0.53027059  0.60139371  1.0
  O  O90  1  0.36547473  0.50519065  0.60235343  1.0
  O  O91  1  0.44391056  0.12229882  0.61869707  1.0
