# generated using pymatgen
data_AlH3C4O5
_symmetry_space_group_name_H-M   'P 1'
_cell_length_a   6.68950712
_cell_length_b   11.09421727
_cell_length_c   13.16764296
_cell_angle_alpha   90.00014937
_cell_angle_beta   90.00034639
_cell_angle_gamma   78.60107448
_symmetry_Int_Tables_number   1
_chemical_formula_structural   AlH3C4O5
_chemical_formula_sum   'Al4 H12 C16 O20'
_cell_volume   957.95851842
_cell_formula_units_Z   4
loop_
 _symmetry_equiv_pos_site_id
 _symmetry_equiv_pos_as_xyz
  1  'x, y, z'
loop_
 _atom_site_type_symbol
 _atom_site_label
 _atom_site_symmetry_multiplicity
 _atom_site_fract_x
 _atom_site_fract_y
 _atom_site_fract_z
 _atom_site_occupancy
  Al  Al0  1  0.49999541  0.00000953  0.50000544  1.0
  Al  Al1  1  0.00000625  0.49998909  0.99999607  1.0
  Al  Al2  1  0.99998371  0.00000561  0.50000467  1.0
  Al  Al3  1  0.50001137  0.49999006  0.00000161  1.0
  H  H4  1  0.48347984  0.74651760  0.24076175  1.0
  H  H5  1  0.01650404  0.75347524  0.74075715  1.0
  H  H6  1  0.51650655  0.25348382  0.75924048  1.0
  H  H7  1  0.98349188  0.24653676  0.25924660  1.0
  H  H8  1  0.01774972  0.76138848  0.25367910  1.0
  H  H9  1  0.48222141  0.73861485  0.75367738  1.0
  H  H10  1  0.98223927  0.23861466  0.74631629  1.0
  H  H11  1  0.51776043  0.26138036  0.24631877  1.0
  H  H12  1  0.80153091  0.84038437  0.51922828  1.0
  H  H13  1  0.69846481  0.65961809  0.01923409  1.0
  H  H14  1  0.19847962  0.15960981  0.48076104  1.0
  H  H15  1  0.30151405  0.34038998  0.98076966  1.0
  C  C16  1  0.29969621  0.85662170  0.35922093  1.0
  C  C17  1  0.20030221  0.64336627  0.85921585  1.0
  C  C18  1  0.70030956  0.14336719  0.64077294  1.0
  C  C19  1  0.79968635  0.35663871  0.14077878  1.0
  C  C20  1  0.32822553  0.77383834  0.26955334  1.0
  C  C21  1  0.17180527  0.72614740  0.76955825  1.0
  C  C22  1  0.67178543  0.22615401  0.73043901  1.0
  C  C23  1  0.82823631  0.27384202  0.23045233  1.0
  C  C24  1  0.17319035  0.73359318  0.22517078  1.0
  C  C25  1  0.32684476  0.76641691  0.72518006  1.0
  C  C26  1  0.82681376  0.26641580  0.77482233  1.0
  C  C27  1  0.67320052  0.23358239  0.27483357  1.0
  C  C28  1  0.20440485  0.64894741  0.13683297  1.0
  C  C29  1  0.29561019  0.85104776  0.63682337  1.0
  C  C30  1  0.79559424  0.35104445  0.86318141  1.0
  C  C31  1  0.70439756  0.14895198  0.36317278  1.0
  O  O32  1  0.12244356  0.88362698  0.39834615  1.0
  O  O33  1  0.37753641  0.61638448  0.89834913  1.0
  O  O34  1  0.87754951  0.11637146  0.60164848  1.0
  O  O35  1  0.62243360  0.38362299  0.10164854  1.0
  O  O36  1  0.45936025  0.89234763  0.38990476  1.0
  O  O37  1  0.04065426  0.60763709  0.88990519  1.0
  O  O38  1  0.54064079  0.10764871  0.61008911  1.0
  O  O39  1  0.95934940  0.39236735  0.11009704  1.0
  O  O40  1  0.04417229  0.62063325  0.09886007  1.0
  O  O41  1  0.45584992  0.87938072  0.59886849  1.0
  O  O42  1  0.95582668  0.37938501  0.90114064  1.0
  O  O43  1  0.54417873  0.12061281  0.40112919  1.0
  O  O44  1  0.38617624  0.61097583  0.10562868  1.0
  O  O45  1  0.11381818  0.88902913  0.60563381  1.0
  O  O46  1  0.61381793  0.38903077  0.89436748  1.0
  O  O47  1  0.88617855  0.11096645  0.39436918  1.0
  O  O48  1  0.77402187  0.92610389  0.49946323  1.0
  O  O49  1  0.72597818  0.57389834  0.99946489  1.0
  O  O50  1  0.22602211  0.07389455  0.50053748  1.0
  O  O51  1  0.27397888  0.42610686  0.00053886  1.0
