# generated using pymatgen
data_Al6H27C74NO30
_symmetry_space_group_name_H-M   'P 1'
_cell_length_a   12.55066855
_cell_length_b   12.56615882
_cell_length_c   28.76145368
_cell_angle_alpha   88.64371247
_cell_angle_beta   88.88325510
_cell_angle_gamma   60.96970167
_symmetry_Int_Tables_number   1
_chemical_formula_structural   Al6H27C74NO30
_chemical_formula_sum   'Al6 H27 C74 N1 O30'
_cell_volume   3964.89984241
_cell_formula_units_Z   1
loop_
 _symmetry_equiv_pos_site_id
 _symmetry_equiv_pos_as_xyz
  1  'x, y, z'
loop_
 _atom_site_type_symbol
 _atom_site_label
 _atom_site_symmetry_multiplicity
 _atom_site_fract_x
 _atom_site_fract_y
 _atom_site_fract_z
 _atom_site_occupancy
  Al  Al0  1  0.58927630  0.58864980  0.49914475  1.0
  Al  Al1  1  0.57998142  0.33746513  0.50199531  1.0
  Al  Al2  1  0.34209118  0.57146415  0.50064605  1.0
  Al  Al3  1  0.07082106  0.08060865  0.00115668  1.0
  Al  Al4  1  0.32448848  0.08595127  0.99899657  1.0
  Al  Al5  1  0.09196251  0.32545816  0.99968976  1.0
  H  H6  1  0.54018587  0.21634962  0.78174688  1.0
  H  H7  1  0.43785752  0.12355460  0.71798915  1.0
  H  H8  1  0.44766939  0.43536935  0.72805820  1.0
  H  H9  1  0.22981575  0.53465877  0.78205240  1.0
  H  H10  1  0.12745833  0.44197529  0.71827531  1.0
  H  H11  1  0.21955185  0.22343658  0.77195476  1.0
  H  H12  1  0.29371990  0.66389888  0.72292022  1.0
  H  H13  1  0.28646970  0.70530442  0.80766789  1.0
  H  H14  1  0.35421588  0.00432263  0.77637559  1.0
  H  H15  1  0.36087652  0.96330149  0.69165287  1.0
  H  H16  1  0.95359947  0.38623068  0.69470729  1.0
  H  H17  1  0.99039946  0.38374624  0.77979989  1.0
  H  H18  1  0.70919289  0.28800002  0.80900057  1.0
  H  H19  1  0.67242957  0.29049567  0.72391152  1.0
  H  H20  1  0.41676763  0.42896722  0.18889151  1.0
  H  H21  1  0.24366675  0.21348118  0.22637223  1.0
  H  H22  1  0.26970102  0.24034424  0.30954911  1.0
  H  H23  1  0.52730994  0.74501130  0.29262062  1.0
  H  H24  1  0.52348147  0.77856754  0.20661925  1.0
  H  H25  1  0.13383427  0.92234653  0.20801799  1.0
  H  H26  1  0.13768492  0.88948489  0.29408552  1.0
  H  H27  1  0.00015708  0.15478225  0.30359872  1.0
  H  H28  1  0.03462229  0.15431802  0.21802033  1.0
  H  H29  1  0.70545161  0.49960945  0.20450440  1.0
  H  H30  1  0.67180030  0.50027731  0.28992639  1.0
  H  H31  1  0.69365997  0.68572502  0.52678364  1.0
  H  H32  1  0.97642274  0.97273124  0.03158824  1.0
  C  C33  1  0.71270356  0.37797482  0.56842400  1.0
  C  C34  1  0.38528399  0.37919779  0.56456340  1.0
  C  C35  1  0.37683571  0.70822037  0.56703774  1.0
  C  C36  1  0.72303017  0.37418673  0.43658643  1.0
  C  C37  1  0.39746113  0.38375275  0.43477077  1.0
  C  C38  1  0.37652825  0.71420432  0.43443231  1.0
  C  C39  1  0.39151252  0.21475410  0.73261792  1.0
  C  C40  1  0.44866318  0.26658545  0.76721153  1.0
  C  C41  1  0.31058143  0.30118731  0.88867341  1.0
  C  C42  1  0.36059288  0.35437702  0.61131580  1.0
  C  C43  1  0.27052020  0.27035472  0.76166267  1.0
  C  C44  1  0.32785729  0.32218407  0.79782967  1.0
  C  C45  1  0.21904164  0.39172985  0.73275336  1.0
  C  C46  1  0.33991317  0.33607040  0.70214466  1.0
  C  C47  1  0.27614574  0.44349895  0.76739007  1.0
  C  C48  1  0.39709225  0.38802626  0.73832107  1.0
  C  C49  1  0.31941901  0.31206142  0.84669678  1.0
  C  C50  1  0.34959851  0.34525385  0.65327174  1.0
  C  C51  1  0.34655951  0.75810067  0.61298289  1.0
  C  C52  1  0.30673971  0.73832152  0.73494060  1.0
  C  C53  1  0.30286617  0.76112800  0.78204057  1.0
  C  C54  1  0.34096944  0.93005090  0.76436477  1.0
  C  C55  1  0.34468564  0.90730975  0.71727114  1.0
  C  C56  1  0.32795538  0.81076876  0.70179948  1.0
  C  C57  1  0.31988034  0.85751337  0.79750198  1.0
  C  C58  1  0.31283542  0.88364835  0.84534750  1.0
  C  C59  1  0.33583549  0.78420729  0.65396403  1.0
  C  C60  1  0.30330528  0.90925170  0.88635289  1.0
  C  C61  1  0.76169030  0.35191884  0.61465891  1.0
  C  C62  1  0.90070711  0.36473021  0.71996508  1.0
  C  C63  1  0.92099785  0.36343949  0.76722447  1.0
  C  C64  1  0.76202842  0.30958684  0.78374286  1.0
  C  C65  1  0.74177366  0.31087429  0.73647739  1.0
  C  C66  1  0.81047966  0.33873629  0.70383657  1.0
  C  C67  1  0.85215547  0.33573185  0.79985700  1.0
  C  C68  1  0.87604014  0.33098536  0.84789438  1.0
  C  C69  1  0.78625476  0.34390847  0.65580622  1.0
  C  C70  1  0.90004072  0.32318991  0.88908926  1.0
  C  C71  1  0.37651139  0.36255636  0.38769766  1.0
  C  C72  1  0.39810760  0.40075696  0.26150791  1.0
  C  C73  1  0.38418571  0.38643385  0.21463109  1.0
  C  C74  1  0.28762820  0.26594869  0.23620452  1.0
  C  C75  1  0.30212460  0.28093509  0.28285538  1.0
  C  C76  1  0.35857876  0.34835914  0.29727509  1.0
  C  C77  1  0.32906067  0.31823389  0.20112126  1.0
  C  C78  1  0.31531032  0.30370174  0.15322718  1.0
  C  C79  1  0.37113527  0.35966214  0.34541535  1.0
  C  C80  1  0.30373630  0.29252946  0.11194635  1.0
  C  C81  1  0.34719692  0.76674103  0.38851713  1.0
  C  C82  1  0.44166104  0.78508988  0.27380445  1.0
  C  C83  1  0.43950724  0.80346141  0.22606744  1.0
  C  C84  1  0.21926926  0.88457028  0.22693260  1.0
  C  C85  1  0.22138199  0.86641724  0.27470246  1.0
  C  C86  1  0.33277379  0.81606126  0.29878380  1.0
  C  C87  1  0.32834723  0.85331372  0.20193985  1.0
  C  C88  1  0.32400948  0.87414463  0.15336151  1.0
  C  C89  1  0.33761172  0.79229146  0.34715094  1.0
  C  C90  1  0.31548891  0.89619017  0.11168813  1.0
  C  C91  1  0.77983537  0.34194522  0.39152225  1.0
  C  C92  1  0.93664522  0.23025694  0.28173944  1.0
  C  C93  1  0.95579479  0.23010451  0.23407672  1.0
  C  C94  1  0.77057086  0.42523841  0.22632765  1.0
  C  C95  1  0.75179299  0.42578040  0.27399163  1.0
  C  C96  1  0.83408509  0.32808327  0.30234973  1.0
  C  C97  1  0.87281448  0.32732556  0.20564805  1.0
  C  C98  1  0.89238748  0.32419106  0.15701789  1.0
  C  C99  1  0.80935082  0.33115595  0.35058870  1.0
  C  C100  1  0.91174505  0.31711502  0.11522466  1.0
  C  C101  1  0.27617554  0.95805915  0.93248816  1.0
  C  C102  1  0.28679213  0.27628921  0.93552811  1.0
  C  C103  1  0.94990696  0.29579600  0.93513947  1.0
  C  C104  1  0.28845665  0.94545127  0.06522969  1.0
  C  C105  1  0.27897270  0.27191812  0.06522205  1.0
  C  C106  1  0.95548503  0.28854213  0.06819715  1.0
  N  N107  1  0.45596597  0.47431078  0.27261956  1.0
  O  O108  1  0.47883067  0.68735765  0.55042126  1.0
  O  O109  1  0.69361210  0.47745029  0.54969261  1.0
  O  O110  1  0.68792643  0.29888875  0.55106670  1.0
  O  O111  1  0.48612188  0.30207969  0.54585995  1.0
  O  O112  1  0.30741344  0.48016072  0.54586103  1.0
  O  O113  1  0.29878681  0.68484953  0.54769949  1.0
  O  O114  1  0.47934297  0.68972829  0.44997213  1.0
  O  O115  1  0.69064797  0.48068261  0.44973113  1.0
  O  O116  1  0.70542460  0.29352330  0.45897586  1.0
  O  O117  1  0.49805999  0.30625881  0.45319734  1.0
  O  O118  1  0.31659965  0.48173280  0.45340241  1.0
  O  O119  1  0.29695738  0.69192294  0.45520948  1.0
  O  O120  1  0.50263845  0.49792670  0.50115603  1.0
  O  O121  1  0.96477887  0.19827780  0.95426453  1.0
  O  O122  1  0.17252496  0.98490050  0.94902651  1.0
  O  O123  1  0.35882689  0.97410272  0.95203433  1.0
  O  O124  1  0.36285224  0.17343646  0.95361539  1.0
  O  O125  1  0.18836117  0.35540717  0.95502342  1.0
  O  O126  1  0.98004034  0.37174057  0.95198618  1.0
  O  O127  1  0.98100776  0.18410042  0.05449549  1.0
  O  O128  1  0.18606129  0.97001536  0.04910457  1.0
  O  O129  1  0.36942479  0.96573264  0.04452043  1.0
  O  O130  1  0.35562970  0.17257981  0.04633544  1.0
  O  O131  1  0.17880500  0.35259358  0.04748046  1.0
  O  O132  1  0.97006579  0.36933300  0.04456207  1.0
  O  O133  1  0.16389193  0.16508061  0.99996476  1.0
  O  O134  1  0.47800627  0.48085171  0.31399748  1.0
  O  O135  1  0.47981177  0.52559509  0.23980499  1.0
  O  O136  1  0.66757110  0.67189720  0.49721165  1.0
  O  O137  1  0.98503713  0.00497942  0.00176753  1.0
