# generated using pymatgen
data_CdH24C24(N2O)6
_symmetry_space_group_name_H-M   'P 1'
_cell_length_a   7.19173640
_cell_length_b   11.24423636
_cell_length_c   23.80352829
_cell_angle_alpha   89.99993921
_cell_angle_beta   89.99977137
_cell_angle_gamma   104.52688404
_symmetry_Int_Tables_number   1
_chemical_formula_structural   CdH24C24(N2O)6
_chemical_formula_sum   'Cd2 H48 C48 N24 O12'
_cell_volume   1863.34770185
_cell_formula_units_Z   2
loop_
 _symmetry_equiv_pos_site_id
 _symmetry_equiv_pos_as_xyz
  1  'x, y, z'
loop_
 _atom_site_type_symbol
 _atom_site_label
 _atom_site_symmetry_multiplicity
 _atom_site_fract_x
 _atom_site_fract_y
 _atom_site_fract_z
 _atom_site_occupancy
  Cd  Cd0  1  0.99999801  0.99999983  0.00000041  1.0
  Cd  Cd1  1  0.49999869  0.99999754  0.49999970  1.0
  H  H2  1  0.25328768  0.19552049  0.90903394  1.0
  H  H3  1  0.24670248  0.80447973  0.40903397  1.0
  H  H4  1  0.74671119  0.80448067  0.09096738  1.0
  H  H5  1  0.75329047  0.19552051  0.59096483  1.0
  H  H6  1  0.85354769  0.86269028  0.88848016  1.0
  H  H7  1  0.64645359  0.13730583  0.38848022  1.0
  H  H8  1  0.14645463  0.13730904  0.11152032  1.0
  H  H9  1  0.35354595  0.86269349  0.61151984  1.0
  H  H10  1  0.82723213  0.46342699  0.00587289  1.0
  H  H11  1  0.67277141  0.53656908  0.50587279  1.0
  H  H12  1  0.17276154  0.53657510  0.99412676  1.0
  H  H13  1  0.32724366  0.46342380  0.49412770  1.0
  H  H14  1  0.28587570  0.22870732  0.80452882  1.0
  H  H15  1  0.21411193  0.77129707  0.30452890  1.0
  H  H16  1  0.71412208  0.77129109  0.19547250  1.0
  H  H17  1  0.78587903  0.22870869  0.69547032  1.0
  H  H18  1  0.87761403  0.87970314  0.78279413  1.0
  H  H19  1  0.62238679  0.12029531  0.28279339  1.0
  H  H20  1  0.12238757  0.12029434  0.21720635  1.0
  H  H21  1  0.37761450  0.87970493  0.71720626  1.0
  H  H22  1  0.53528697  0.28632899  0.00850381  1.0
  H  H23  1  0.96471484  0.71366983  0.50850369  1.0
  H  H24  1  0.46470598  0.71367126  0.99149625  1.0
  H  H25  1  0.03529854  0.28632581  0.49149637  1.0
  H  H26  1  0.68044316  0.09417036  0.95872635  1.0
  H  H27  1  0.81955785  0.90583094  0.45872707  1.0
  H  H28  1  0.31955499  0.90582896  0.04127288  1.0
  H  H29  1  0.18044556  0.09417114  0.54127341  1.0
  H  H30  1  0.83531915  0.18555327  0.99692687  1.0
  H  H31  1  0.66468092  0.81444693  0.49692783  1.0
  H  H32  1  0.16467622  0.81444606  0.00307319  1.0
  H  H33  1  0.33532418  0.18555239  0.50307265  1.0
  H  H34  1  0.83949353  0.82376108  0.62572081  1.0
  H  H35  1  0.66050446  0.17623902  0.12572000  1.0
  H  H36  1  0.16050709  0.17624099  0.37427967  1.0
  H  H37  1  0.33949266  0.82376122  0.87427964  1.0
  H  H38  1  0.39401371  0.35088678  0.65233910  1.0
  H  H39  1  0.10598691  0.64911372  0.15233980  1.0
  H  H40  1  0.60598830  0.64911529  0.34766180  1.0
  H  H41  1  0.89401299  0.35088652  0.84765943  1.0
  H  H42  1  0.89354532  0.90693267  0.56305862  1.0
  H  H43  1  0.60645500  0.09306772  0.06305791  1.0
  H  H44  1  0.10645458  0.09306757  0.43694186  1.0
  H  H45  1  0.39354490  0.90693252  0.93694173  1.0
  H  H46  1  0.35987373  0.29637387  0.58361655  1.0
  H  H47  1  0.14012721  0.70362511  0.08361718  1.0
  H  H48  1  0.64012617  0.70362637  0.41638435  1.0
  H  H49  1  0.85987233  0.29637421  0.91638247  1.0
  C  C50  1  0.09614814  0.07066621  0.72381111  1.0
  C  C51  1  0.40384723  0.92933396  0.22381172  1.0
  C  C52  1  0.90385037  0.92933403  0.27618895  1.0
  C  C53  1  0.59614850  0.07066629  0.77618792  1.0
  C  C54  1  0.17012415  0.12861321  0.87962156  1.0
  C  C55  1  0.32986405  0.87138807  0.37962188  1.0
  C  C56  1  0.82987436  0.87138703  0.12037934  1.0
  C  C57  1  0.67012685  0.12861402  0.62037734  1.0
  C  C58  1  0.94941588  0.94128415  0.86787642  1.0
  C  C59  1  0.55057779  0.05871666  0.36787579  1.0
  C  C60  1  0.05058438  0.05871701  0.13212491  1.0
  C  C61  1  0.44941933  0.94128359  0.63212385  1.0
  C  C62  1  0.33761674  0.40072110  0.00136630  1.0
  C  C63  1  0.16238786  0.59927735  0.50136702  1.0
  C  C64  1  0.66237658  0.59928006  0.99863376  1.0
  C  C65  1  0.83762897  0.40071645  0.49863346  1.0
  C  C66  1  0.08277069  0.05638024  0.78588889  1.0
  C  C67  1  0.41722345  0.94362239  0.28588864  1.0
  C  C68  1  0.91723199  0.94361999  0.21411159  1.0
  C  C69  1  0.58276884  0.05637969  0.71411100  1.0
  C  C70  1  0.20832380  0.18465077  0.64682453  1.0
  C  C71  1  0.29167552  0.81534976  0.14682365  1.0
  C  C72  1  0.79167544  0.81535131  0.35317680  1.0
  C  C73  1  0.70832160  0.18465049  0.85317557  1.0
  C  C74  1  0.68391379  0.47917312  0.00361196  1.0
  C  C75  1  0.81609088  0.52082572  0.50361170  1.0
  C  C76  1  0.31607917  0.52082713  0.99638768  1.0
  C  C77  1  0.18392703  0.47917083  0.49638837  1.0
  C  C78  1  0.16535349  0.29301364  0.00289058  1.0
  C  C79  1  0.33464830  0.70698481  0.50289146  1.0
  C  C80  1  0.83464019  0.70698845  0.99710949  1.0
  C  C81  1  0.66536786  0.29301082  0.49710818  1.0
  C  C82  1  0.18896366  0.14659357  0.82187339  1.0
  C  C83  1  0.31102679  0.85340799  0.32187373  1.0
  C  C84  1  0.81103624  0.85340667  0.17812709  1.0
  C  C85  1  0.68896374  0.14659318  0.67812549  1.0
  C  C86  1  0.96236160  0.95105623  0.80979090  1.0
  C  C87  1  0.53763882  0.04894209  0.30979029  1.0
  C  C88  1  0.03764072  0.04894309  0.19020958  1.0
  C  C89  1  0.46235933  0.95105723  0.69020935  1.0
  C  C90  1  0.52217444  0.38052007  0.00490895  1.0
  C  C91  1  0.97783123  0.61947784  0.50490928  1.0
  C  C92  1  0.47781887  0.61948110  0.99508985  1.0
  C  C93  1  0.02218843  0.38051963  0.49508994  1.0
  C  C94  1  0.01655135  0.99033584  0.63714352  1.0
  C  C95  1  0.48344812  0.00966473  0.13714324  1.0
  C  C96  1  0.98344928  0.00966624  0.36285654  1.0
  C  C97  1  0.51655039  0.99033551  0.86285598  1.0
  N  N98  1  0.05119377  0.02852838  0.90241450  1.0
  N  N99  1  0.44880242  0.97147279  0.40241462  1.0
  N  N100  1  0.94880474  0.97147186  0.09758724  1.0
  N  N101  1  0.55119368  0.02852838  0.59758544  1.0
  N  N102  1  0.00612824  0.97306053  0.69356500  1.0
  N  N103  1  0.49386935  0.02694070  0.19356470  1.0
  N  N104  1  0.99387064  0.02694063  0.30643548  1.0
  N  N105  1  0.50612814  0.97306046  0.80643452  1.0
  N  N106  1  0.19675980  0.17894880  0.70373543  1.0
  N  N107  1  0.30323558  0.82105422  0.20373580  1.0
  N  N108  1  0.80323980  0.82105420  0.29626506  1.0
  N  N109  1  0.69676088  0.17894786  0.79626342  1.0
  N  N110  1  0.11804506  0.09409206  0.61174241  1.0
  N  N111  1  0.38195545  0.90590680  0.11174222  1.0
  N  N112  1  0.88195520  0.90590910  0.38825807  1.0
  N  N113  1  0.61804373  0.09409161  0.88825700  1.0
  N  N114  1  0.92222255  0.89663149  0.60500365  1.0
  N  N115  1  0.57777750  0.10336963  0.10500255  1.0
  N  N116  1  0.07777983  0.10337151  0.39499725  1.0
  N  N117  1  0.42222137  0.89663153  0.89499667  1.0
  N  N118  1  0.31722749  0.28952679  0.62468066  1.0
  N  N119  1  0.18277180  0.71047292  0.12468081  1.0
  N  N120  1  0.68277000  0.71047437  0.37532024  1.0
  N  N121  1  0.81722774  0.28952640  0.87531841  1.0
  O  O122  1  0.19653744  0.19011400  0.01710318  1.0
  O  O123  1  0.30346414  0.80988438  0.51710363  1.0
  O  O124  1  0.80345727  0.80988717  0.98289604  1.0
  O  O125  1  0.69654785  0.19011126  0.48289559  1.0
  O  O126  1  0.74035147  0.10144361  0.99734663  1.0
  O  O127  1  0.75964859  0.89855659  0.49734702  1.0
  O  O128  1  0.25964807  0.89855571  0.00265343  1.0
  O  O129  1  0.24035343  0.10144549  0.50265346  1.0
  O  O130  1  0.00148282  0.30984295  0.98994602  1.0
  O  O131  1  0.49852039  0.69015780  0.48994748  1.0
  O  O132  1  0.99850838  0.69015638  0.01005446  1.0
  O  O133  1  0.50149650  0.30983967  0.51005300  1.0
