# generated using pymatgen
data_ZnH16C23N2(ClO2)2
_symmetry_space_group_name_H-M   'P 1'
_cell_length_a   16.28837860
_cell_length_b   17.15868751
_cell_length_c   17.66772092
_cell_angle_alpha   91.76211629
_cell_angle_beta   97.46438444
_cell_angle_gamma   90.27580487
_symmetry_Int_Tables_number   1
_chemical_formula_structural   ZnH16C23N2(ClO2)2
_chemical_formula_sum   'Zn2 H32 C46 N4 Cl4 O8'
_cell_volume   4893.54849814
_cell_formula_units_Z   2
loop_
 _symmetry_equiv_pos_site_id
 _symmetry_equiv_pos_as_xyz
  1  'x, y, z'
loop_
 _atom_site_type_symbol
 _atom_site_label
 _atom_site_symmetry_multiplicity
 _atom_site_fract_x
 _atom_site_fract_y
 _atom_site_fract_z
 _atom_site_occupancy
  Zn  Zn0  1  0.58514829  0.50987497  0.50818465  1.0
  Zn  Zn1  1  0.41338228  0.49008127  0.49292831  1.0
  H  H2  1  0.29065945  0.57016407  0.56464533  1.0
  H  H3  1  0.13864508  0.57730880  0.56652757  1.0
  H  H4  1  0.11360140  0.38740270  0.39712125  1.0
  H  H5  1  0.88648859  0.59620216  0.61908712  1.0
  H  H6  1  0.85792084  0.44010849  0.41948744  1.0
  H  H7  1  0.70608003  0.44285527  0.42503834  1.0
  H  H8  1  0.99069264  0.43743131  0.43585217  1.0
  H  H9  1  0.00759232  0.56223394  0.56619540  1.0
  H  H10  1  0.39975285  0.55680822  0.73607400  1.0
  H  H11  1  0.40527248  0.55904006  0.87674613  1.0
  H  H12  1  0.62330499  0.41531572  0.88949220  1.0
  H  H13  1  0.35811855  0.56105424  0.11140007  1.0
  H  H14  1  0.60576150  0.46890801  0.12407349  1.0
  H  H15  1  0.61331903  0.46941294  0.26474348  1.0
  H  H16  1  0.57928678  0.45546901  0.00366835  1.0
  H  H17  1  0.41433920  0.54328577  0.99724368  1.0
  H  H18  1  0.39459756  0.25151882  0.47625995  1.0
  H  H19  1  0.39680003  0.10482216  0.47086862  1.0
  H  H20  1  0.35146476  0.89246190  0.52164613  1.0
  H  H21  1  0.59544570  0.89213187  0.45597667  1.0
  H  H22  1  0.72782071  0.23395591  0.57195467  1.0
  H  H23  1  0.67467776  0.32453812  0.56384535  1.0
  H  H24  1  0.71394398  0.28211691  0.48396304  1.0
  H  H25  1  0.73076677  0.12558740  0.48374099  1.0
  H  H26  1  0.67684076  0.03837603  0.50164622  1.0
  H  H27  1  0.71506928  0.10370039  0.57793826  1.0
  H  H28  1  0.34348360  0.69760844  0.57695475  1.0
  H  H29  1  0.29703911  0.70318709  0.48151809  1.0
  H  H30  1  0.28481115  0.78162678  0.54804554  1.0
  H  H31  1  0.65872548  0.77998952  0.42360225  1.0
  H  H32  1  0.60781579  0.68704391  0.41429793  1.0
  H  H33  1  0.66051419  0.71846467  0.50332756  1.0
  C  C34  1  0.50160575  0.49434448  0.64738987  1.0
  C  C35  1  0.47940741  0.65008819  0.49914760  1.0
  C  C36  1  0.49883911  0.50620981  0.35336701  1.0
  C  C37  1  0.51851012  0.35044456  0.49838811  1.0
  C  C38  1  0.24820675  0.53121981  0.52855593  1.0
  C  C39  1  0.16352163  0.53424951  0.52929319  1.0
  C  C40  1  0.11168108  0.48189015  0.48170604  1.0
  C  C41  1  0.14993968  0.42935655  0.43529970  1.0
  C  C42  1  0.23598778  0.43044103  0.43813651  1.0
  C  C43  1  0.02184411  0.47910734  0.47821503  1.0
  C  C44  1  0.97635414  0.52171729  0.52274231  1.0
  C  C45  1  0.84941979  0.56116554  0.57468936  1.0
  C  C46  1  0.88659305  0.51834780  0.51965523  1.0
  C  C47  1  0.83383422  0.47451090  0.46435072  1.0
  C  C48  1  0.74932313  0.47571339  0.46651678  1.0
  C  C49  1  0.76350299  0.55887008  0.57279017  1.0
  C  C50  1  0.50818370  0.48793728  0.73248313  1.0
  C  C51  1  0.44883458  0.52643810  0.77104668  1.0
  C  C52  1  0.45198927  0.52712472  0.84977337  1.0
  C  C53  1  0.51554130  0.48745203  0.89462998  1.0
  C  C54  1  0.57413782  0.44761066  0.85662919  1.0
  C  C55  1  0.57102182  0.44757787  0.77735798  1.0
  C  C56  1  0.52403076  0.48531694  0.97757321  1.0
  C  C57  1  0.47084195  0.51535090  0.02327748  1.0
  C  C58  1  0.41419391  0.53933593  0.14423709  1.0
  C  C59  1  0.48024110  0.51349850  0.10628666  1.0
  C  C60  1  0.55253473  0.48797395  0.15111086  1.0
  C  C61  1  0.55703323  0.48804096  0.22995850  1.0
  C  C62  1  0.49031367  0.51156393  0.26813667  1.0
  C  C63  1  0.41858380  0.53774127  0.22351272  1.0
  C  C64  1  0.52682479  0.26339837  0.49950928  1.0
  C  C65  1  0.45264405  0.21980631  0.48508275  1.0
  C  C66  1  0.45355800  0.13940669  0.48202289  1.0
  C  C67  1  0.52975788  0.10044859  0.49290055  1.0
  C  C68  1  0.60524561  0.14276115  0.50738911  1.0
  C  C69  1  0.60372020  0.22515957  0.51276620  1.0
  C  C70  1  0.40484841  0.85923119  0.50798493  1.0
  C  C71  1  0.47388710  0.90039542  0.49044292  1.0
  C  C72  1  0.54293426  0.85936439  0.47140954  1.0
  C  C73  1  0.54528787  0.77830961  0.47288280  1.0
  C  C74  1  0.47572405  0.73714558  0.49334987  1.0
  C  C75  1  0.40434513  0.77793460  0.50960390  1.0
  C  C76  1  0.68422167  0.26884095  0.53469395  1.0
  C  C77  1  0.68629523  0.10011727  0.51796192  1.0
  C  C78  1  0.32809288  0.73799367  0.53021885  1.0
  C  C79  1  0.62212669  0.73867042  0.45202151  1.0
  N  N80  1  0.28471231  0.48022623  0.48370893  1.0
  N  N81  1  0.71391897  0.51739224  0.51976019  1.0
  N  N82  1  0.53516729  0.01844415  0.48959006  1.0
  N  N83  1  0.46787285  0.98246424  0.49437174  1.0
  Cl  Cl84  1  0.28163801  0.36546810  0.38144063  1.0
  Cl  Cl85  1  0.71919143  0.61121513  0.64068327  1.0
  Cl  Cl86  1  0.64608201  0.39309300  0.73924229  1.0
  Cl  Cl87  1  0.33423013  0.57297203  0.26411875  1.0
  O  O88  1  0.56775194  0.48500925  0.61738056  1.0
  O  O89  1  0.43060466  0.50999688  0.61176384  1.0
  O  O90  1  0.41375739  0.60992634  0.47888543  1.0
  O  O91  1  0.54942231  0.62186676  0.52483523  1.0
  O  O92  1  0.43669456  0.48005573  0.38128671  1.0
  O  O93  1  0.56849036  0.52665036  0.39043607  1.0
  O  O94  1  0.57938499  0.39127050  0.48258437  1.0
  O  O95  1  0.44902733  0.37790796  0.51205661  1.0
