# generated using pymatgen
data_AlH12C24(SO5)3
_symmetry_space_group_name_H-M   'P 1'
_cell_length_a   4.25220354
_cell_length_b   28.88857448
_cell_length_c   28.88703599
_cell_angle_alpha   59.99747827
_cell_angle_beta   89.99949883
_cell_angle_gamma   90.00001296
_symmetry_Int_Tables_number   1
_chemical_formula_structural   AlH12C24(SO5)3
_chemical_formula_sum   'Al2 H24 C48 S6 O30'
_cell_volume   3073.00123283
_cell_formula_units_Z   2
loop_
 _symmetry_equiv_pos_site_id
 _symmetry_equiv_pos_as_xyz
  1  'x, y, z'
loop_
 _atom_site_type_symbol
 _atom_site_label
 _atom_site_symmetry_multiplicity
 _atom_site_fract_x
 _atom_site_fract_y
 _atom_site_fract_z
 _atom_site_occupancy
  Al  Al0  1  0.02821398  0.50000255  0.99999468  1.0
  Al  Al1  1  0.02852780  0.16665697  0.66668996  1.0
  H  H2  1  0.78912383  0.30582398  0.51963930  1.0
  H  H3  1  0.78257260  0.35520655  0.41968037  1.0
  H  H4  1  0.31558330  0.17322330  0.52110177  1.0
  H  H5  1  0.31546542  0.49343298  0.14558037  1.0
  H  H6  1  0.78866696  0.36079874  0.14705321  1.0
  H  H7  1  0.78221553  0.31143183  0.24701335  1.0
  H  H8  1  0.78911755  0.17453940  0.80585813  1.0
  H  H9  1  0.78261278  0.22512047  0.85522851  1.0
  H  H10  1  0.31562123  0.30567982  0.67323836  1.0
  H  H11  1  0.31550980  0.36099443  0.99342860  1.0
  H  H12  1  0.78864502  0.49216771  0.86078122  1.0
  H  H13  1  0.78224506  0.44157632  0.81141993  1.0
  H  H14  1  0.78905547  0.01963153  0.67453488  1.0
  H  H15  1  0.78255614  0.91967937  0.72510198  1.0
  H  H16  1  0.31562879  0.02105776  0.80570621  1.0
  H  H17  1  0.31552105  0.64558492  0.86096713  1.0
  H  H18  1  0.78859658  0.64704131  0.99215362  1.0
  H  H19  1  0.78222501  0.74699621  0.94155879  1.0
  H  H20  1  0.85022813  0.22239056  0.37533357  1.0
  H  H21  1  0.85018615  0.44427752  0.29134645  1.0
  H  H22  1  0.85032296  0.40228741  0.72237887  1.0
  H  H23  1  0.85029272  0.26438568  0.94428304  1.0
  H  H24  1  0.85035332  0.87529356  0.90229545  1.0
  H  H25  1  0.85034324  0.79134959  0.76435680  1.0
  C  C26  1  0.53181998  0.58077727  0.96141888  1.0
  C  C27  1  0.53182102  0.45779551  0.08077527  1.0
  C  C28  1  0.53182938  0.46143502  0.95778617  1.0
  C  C29  1  0.53210209  0.20884271  0.58590769  1.0
  C  C30  1  0.53210313  0.20525079  0.70887361  1.0
  C  C31  1  0.53210784  0.08588072  0.70527368  1.0
  C  C32  1  0.54782279  0.23705965  0.52646637  1.0
  C  C33  1  0.68702681  0.28770226  0.49786698  1.0
  C  C34  1  0.68593728  0.31500173  0.44237351  1.0
  C  C35  1  0.56279019  0.29109020  0.41394321  1.0
  C  C36  1  0.43983654  0.23857491  0.44371463  1.0
  C  C37  1  0.42251208  0.21268424  0.49914176  1.0
  C  C38  1  0.56431581  0.32007981  0.35763105  1.0
  C  C39  1  0.56425378  0.34658375  0.30905385  1.0
  C  C40  1  0.56263750  0.37556672  0.25274250  1.0
  C  C41  1  0.43971158  0.42808241  0.22296889  1.0
  C  C42  1  0.42232697  0.45396763  0.16754020  1.0
  C  C43  1  0.54751932  0.42957985  0.14021817  1.0
  C  C44  1  0.68664864  0.37893057  0.16882331  1.0
  C  C45  1  0.68564043  0.35164099  0.22431638  1.0
  C  C46  1  0.54780477  0.23647407  0.73708609  1.0
  C  C47  1  0.68702904  0.21443379  0.78772806  1.0
  C  C48  1  0.68600996  0.24263144  0.81502158  1.0
  C  C49  1  0.56288632  0.29497732  0.79109974  1.0
  C  C50  1  0.43991166  0.31771632  0.73858565  1.0
  C  C51  1  0.42255670  0.28817712  0.71270204  1.0
  C  C52  1  0.56436236  0.32229951  0.82008256  1.0
  C  C53  1  0.56434278  0.34437845  0.84658344  1.0
  C  C54  1  0.56268398  0.37170601  0.87556106  1.0
  C  C55  1  0.43977201  0.34896006  0.92807936  1.0
  C  C56  1  0.42237323  0.37850212  0.95396140  1.0
  C  C57  1  0.54754205  0.43021386  0.92956807  1.0
  C  C58  1  0.68665733  0.45226249  0.87891654  1.0
  C  C59  1  0.68566568  0.42405985  0.85163023  1.0
  C  C60  1  0.54779049  0.02644113  0.73648809  1.0
  C  C61  1  0.68699431  0.99785356  0.71443484  1.0
  C  C62  1  0.68594455  0.94236242  0.74262282  1.0
  C  C63  1  0.56285150  0.91392408  0.79497047  1.0
  C  C64  1  0.43990048  0.94368368  0.81772505  1.0
  C  C65  1  0.42253864  0.99910877  0.78819317  1.0
  C  C66  1  0.56437925  0.85761032  0.82228782  1.0
  C  C67  1  0.56435974  0.80904307  0.84435294  1.0
  C  C68  1  0.56275265  0.75273089  0.87168029  1.0
  C  C69  1  0.43982879  0.72296318  0.84893430  1.0
  C  C70  1  0.42238514  0.66753880  0.87847861  1.0
  C  C71  1  0.54753987  0.64021664  0.93019245  1.0
  C  C72  1  0.68665770  0.66881433  0.95224407  1.0
  C  C73  1  0.68569438  0.72430353  0.92403852  1.0
  S  S74  1  0.30441587  0.20192100  0.41297475  1.0
  S  S75  1  0.30435970  0.46475014  0.25369982  1.0
  S  S76  1  0.30451243  0.38511269  0.70191447  1.0
  S  S77  1  0.30445513  0.28156121  0.96475479  1.0
  S  S78  1  0.30451922  0.91293497  0.88512368  1.0
  S  S79  1  0.30449864  0.75370101  0.78153112  1.0
  O  O80  1  0.29148252  0.45336249  0.98739226  1.0
  O  O81  1  0.29146952  0.55924569  0.95334773  1.0
  O  O82  1  0.29147571  0.48740088  0.05924056  1.0
  O  O83  1  0.75907653  0.49357637  0.94975418  1.0
  O  O84  1  0.75906391  0.44976339  0.05666613  1.0
  O  O85  1  0.75906118  0.55666986  0.99356262  1.0
  O  O86  1  0.29178986  0.10742022  0.71334284  1.0
  O  O87  1  0.29177661  0.17924223  0.60744922  1.0
  O  O88  1  0.29176981  0.21331261  0.67926954  1.0
  O  O89  1  0.75935099  0.10998824  0.67312835  1.0
  O  O90  1  0.75934975  0.17310281  0.71691679  1.0
  O  O91  1  0.75936237  0.21688720  0.61001564  1.0
  O  O92  1  0.56633504  0.19517358  0.38392439  1.0
  O  O93  1  0.15314483  0.15414930  0.45297946  1.0
  O  O94  1  0.07279610  0.24097693  0.36975814  1.0
  O  O95  1  0.56631714  0.47150517  0.28274052  1.0
  O  O96  1  0.15307466  0.51251887  0.21369896  1.0
  O  O97  1  0.07275610  0.42569507  0.29692162  1.0
  O  O98  1  0.56643568  0.42091250  0.69515719  1.0
  O  O99  1  0.15322759  0.39287471  0.65414501  1.0
  O  O100  1  0.07289019  0.38928071  0.74096627  1.0
  O  O101  1  0.56642260  0.24576771  0.97151401  1.0
  O  O102  1  0.15316509  0.27379462  0.01252370  1.0
  O  O103  1  0.07286578  0.27738860  0.92570178  1.0
  O  O104  1  0.56644821  0.88388655  0.92092064  1.0
  O  O105  1  0.15319984  0.95292239  0.89290801  1.0
  O  O106  1  0.07290503  0.86972209  0.88927949  1.0
  O  O107  1  0.56645333  0.78274061  0.74573450  1.0
  O  O108  1  0.15318200  0.71370846  0.77375704  1.0
  O  O109  1  0.07290359  0.79692030  0.77736732  1.0
