# generated using pymatgen
data_Zn2H13C29N5O8
_symmetry_space_group_name_H-M   'P 1'
_cell_length_a   9.79626041
_cell_length_b   10.99335931
_cell_length_c   14.42873391
_cell_angle_alpha   84.21216623
_cell_angle_beta   88.89017525
_cell_angle_gamma   88.21783348
_symmetry_Int_Tables_number   1
_chemical_formula_structural   Zn2H13C29N5O8
_chemical_formula_sum   'Zn2 H13 C29 N5 O8'
_cell_volume   1545.01016831
_cell_formula_units_Z   1
loop_
 _symmetry_equiv_pos_site_id
 _symmetry_equiv_pos_as_xyz
  1  'x, y, z'
loop_
 _atom_site_type_symbol
 _atom_site_label
 _atom_site_symmetry_multiplicity
 _atom_site_fract_x
 _atom_site_fract_y
 _atom_site_fract_z
 _atom_site_occupancy
  Zn  Zn0  1  0.63990622  0.49349611  0.50259566  1.0
  Zn  Zn1  1  0.36140581  0.50138175  0.51279792  1.0
  H  H2  1  0.27959380  0.88554500  0.55687816  1.0
  H  H3  1  0.89475134  0.56417526  0.28648168  1.0
  H  H4  1  0.14668240  0.56294476  0.29326019  1.0
  H  H5  1  0.27622421  0.11244693  0.54684207  1.0
  H  H6  1  0.75882928  0.11609110  0.37178425  1.0
  H  H7  1  0.81941787  0.11250393  0.48771764  1.0
  H  H8  1  0.76074530  0.89142676  0.38191249  1.0
  H  H9  1  0.85244811  0.51463625  0.64372769  1.0
  H  H10  1  0.86641752  0.99143998  0.61887332  1.0
  H  H11  1  0.75887860  0.86646580  0.64931902  1.0
  H  H12  1  0.93915857  0.84570624  0.65584706  1.0
  H  H13  1  0.84896258  0.76142090  0.51383494  1.0
  H  H14  1  0.96270073  0.88167366  0.48273168  1.0
  C  C15  1  0.48863014  0.73142243  0.51668449  1.0
  C  C16  1  0.52162417  0.46169641  0.79001013  1.0
  C  C17  1  0.60548482  0.93401500  0.48608405  1.0
  C  C18  1  0.49020621  0.86693866  0.51327263  1.0
  C  C19  1  0.37132171  0.93513903  0.53507223  1.0
  C  C20  1  0.36933656  0.06240953  0.52933010  1.0
  C  C21  1  0.48607087  0.12965815  0.50133148  1.0
  C  C22  1  0.60286404  0.06170684  0.47986658  1.0
  C  C23  1  0.74814871  0.07119147  0.44296689  1.0
  C  C24  1  0.75325004  0.92627360  0.45084886  1.0
  C  C25  1  0.07848870  0.49083240  0.43428272  1.0
  C  C26  1  0.51062914  0.52762521  0.32338219  1.0
  C  C27  1  0.06064305  0.51748849  0.58642045  1.0
  C  C28  1  0.91752941  0.50896152  0.58196108  1.0
  C  C29  1  0.93739020  0.48667338  0.42919531  1.0
  C  C30  1  0.93657293  0.47963273  0.32431422  1.0
  C  C31  1  0.10291542  0.48044618  0.33034494  1.0
  C  C32  1  0.48341491  0.26527752  0.49783282  1.0
  C  C33  1  0.52308116  0.46268536  0.69011695  1.0
  C  C34  1  0.50504846  0.52172055  0.22440195  1.0
  C  C35  1  0.50554669  0.50850351  0.14093920  1.0
  C  C36  1  0.50761406  0.49402011  0.04981454  1.0
  C  C37  1  0.51140640  0.48093752  0.96588104  1.0
  C  C38  1  0.51637808  0.46968537  0.87423798  1.0
  C  C39  1  0.17493865  0.37202753  0.30339826  1.0
  C  C40  1  0.86159664  0.86052343  0.51434416  1.0
  C  C41  1  0.85612571  0.89281504  0.61499525  1.0
  C  C42  1  0.11483795  0.54203574  0.67364254  1.0
  C  C43  1  0.87823241  0.37424809  0.28913112  1.0
  N  N44  1  0.14503915  0.50668724  0.51112388  1.0
  N  N45  1  0.85363438  0.49374498  0.50200030  1.0
  N  N46  1  0.22846191  0.28381468  0.28003828  1.0
  N  N47  1  0.14591800  0.56567901  0.74726192  1.0
  N  N48  1  0.83502527  0.28870474  0.25972647  1.0
  O  O49  1  0.60346493  0.67519002  0.50774047  1.0
  O  O50  1  0.37310637  0.68026062  0.52705377  1.0
  O  O51  1  0.62964842  0.52201182  0.35824843  1.0
  O  O52  1  0.39720744  0.53642949  0.36760064  1.0
  O  O53  1  0.59910302  0.31639799  0.49622295  1.0
  O  O54  1  0.36719664  0.32111263  0.49794929  1.0
  O  O55  1  0.63912235  0.47164823  0.64851476  1.0
  O  O56  1  0.40806377  0.45641315  0.65192690  1.0
