# generated using pymatgen
data_ZnH4C14Br2NO6
_symmetry_space_group_name_H-M   'P 1'
_cell_length_a   11.81312992
_cell_length_b   12.21151525
_cell_length_c   13.25086011
_cell_angle_alpha   84.34811504
_cell_angle_beta   85.84806180
_cell_angle_gamma   87.09230652
_symmetry_Int_Tables_number   1
_chemical_formula_structural   ZnH4C14Br2NO6
_chemical_formula_sum   'Zn2 H8 C28 Br4 N2 O12'
_cell_volume   1895.40291071
_cell_formula_units_Z   2
loop_
 _symmetry_equiv_pos_site_id
 _symmetry_equiv_pos_as_xyz
  1  'x, y, z'
loop_
 _atom_site_type_symbol
 _atom_site_label
 _atom_site_symmetry_multiplicity
 _atom_site_fract_x
 _atom_site_fract_y
 _atom_site_fract_z
 _atom_site_occupancy
  Zn  Zn0  1  0.49703380  0.62097289  0.49001124  1.0
  Zn  Zn1  1  0.50298251  0.37902889  0.50999028  1.0
  H  H2  1  0.67818249  0.60488417  0.17513331  1.0
  H  H3  1  0.32184368  0.39508306  0.82485658  1.0
  H  H4  1  0.30140729  0.38356276  0.01334517  1.0
  H  H5  1  0.69859944  0.61643402  0.98664586  1.0
  H  H6  1  0.40891591  0.75206501  0.64263483  1.0
  H  H7  1  0.59104198  0.24795124  0.35736698  1.0
  H  H8  1  0.53626905  0.78212689  0.21589647  1.0
  H  H9  1  0.46376709  0.21783300  0.78416766  1.0
  C  C10  1  0.47983369  0.49136228  0.69807671  1.0
  C  C11  1  0.52839939  0.98493553  0.45267246  1.0
  C  C12  1  0.28240025  0.51228435  0.49321620  1.0
  C  C13  1  0.71760942  0.48771904  0.50677789  1.0
  C  C14  1  0.16024173  0.50970279  0.49457429  1.0
  C  C15  1  0.83976968  0.49028742  0.50541412  1.0
  C  C16  1  0.05698656  0.50344592  0.49796134  1.0
  C  C17  1  0.94302916  0.49651301  0.50202517  1.0
  C  C18  1  0.52602176  0.51215156  0.18801828  1.0
  C  C19  1  0.47399497  0.48784280  0.81198238  1.0
  C  C20  1  0.37240686  0.42515073  0.97182133  1.0
  C  C21  1  0.52017832  0.50863865  0.30192808  1.0
  C  C22  1  0.62761955  0.57482474  0.02817384  1.0
  C  C23  1  0.38354527  0.43182685  0.86735304  1.0
  C  C24  1  0.61647405  0.56815352  0.13264348  1.0
  C  C25  1  0.55343246  0.53456487  0.86436433  1.0
  C  C26  1  0.44657466  0.46543686  0.13563304  1.0
  C  C27  1  0.54694705  0.52810265  0.97274058  1.0
  C  C28  1  0.45307265  0.47188679  0.02725512  1.0
  C  C29  1  0.58614007  0.82631897  0.33764302  1.0
  C  C30  1  0.41391073  0.17367808  0.66240210  1.0
  C  C31  1  0.57378227  0.07231977  0.38485502  1.0
  C  C32  1  0.42616627  0.92769478  0.61512315  1.0
  C  C33  1  0.55995415  0.17953226  0.40916812  1.0
  C  C34  1  0.44004136  0.82047434  0.59083984  1.0
  C  C35  1  0.46572287  0.12827219  0.56606615  1.0
  C  C36  1  0.53429337  0.87173454  0.43395607  1.0
  C  C37  1  0.47157811  0.01507919  0.54732794  1.0
  Br  Br38  1  0.32182731  0.39497466  0.21033663  1.0
  Br  Br39  1  0.67815592  0.60505823  0.78966569  1.0
  Br  Br40  1  0.65667485  0.05389367  0.26006936  1.0
  Br  Br41  1  0.34305116  0.94616398  0.73979531  1.0
  N  N42  1  0.49279855  0.79357963  0.50183503  1.0
  N  N43  1  0.50723553  0.20642391  0.49819129  1.0
  O  O44  1  0.47305528  0.58482738  0.64777467  1.0
  O  O45  1  0.50799251  0.83058357  0.26804050  1.0
  O  O46  1  0.31876068  0.21589543  0.66938419  1.0
  O  O47  1  0.49204676  0.16938623  0.73201432  1.0
  O  O48  1  0.52693232  0.41518082  0.35223950  1.0
  O  O49  1  0.48878103  0.39808002  0.66266587  1.0
  O  O50  1  0.51123674  0.60192754  0.33733281  1.0
  O  O51  1  0.32490955  0.60661486  0.48800959  1.0
  O  O52  1  0.67510337  0.39338855  0.51198890  1.0
  O  O53  1  0.33517259  0.41853604  0.49788502  1.0
  O  O54  1  0.66483176  0.58146732  0.50211684  1.0
  O  O55  1  0.68130936  0.78414623  0.33064558  1.0
