# generated using pymatgen
data_AlH9C24(O2F)3
_symmetry_space_group_name_H-M   'P 1'
_cell_length_a   3.94634200
_cell_length_b   29.02949430
_cell_length_c   29.03051057
_cell_angle_alpha   60.00373329
_cell_angle_beta   89.99942154
_cell_angle_gamma   89.99386095
_symmetry_Int_Tables_number   1
_chemical_formula_structural   AlH9C24(O2F)3
_chemical_formula_sum   'Al2 H18 C48 O12 F6'
_cell_volume   2880.28743114
_cell_formula_units_Z   2
loop_
 _symmetry_equiv_pos_site_id
 _symmetry_equiv_pos_as_xyz
  1  'x, y, z'
loop_
 _atom_site_type_symbol
 _atom_site_label
 _atom_site_symmetry_multiplicity
 _atom_site_fract_x
 _atom_site_fract_y
 _atom_site_fract_z
 _atom_site_occupancy
  Al  Al0  1  0.99993060  0.49999512  0.00001434  1.0
  Al  Al1  1  0.00048689  0.16666312  0.66666692  1.0
  H  H2  1  0.69333875  0.30958505  0.51991598  1.0
  H  H3  1  0.67561925  0.36020402  0.42043751  1.0
  H  H4  1  0.30891235  0.17067738  0.51941631  1.0
  H  H5  1  0.30879122  0.49599653  0.14726412  1.0
  H  H6  1  0.69268650  0.35705040  0.14676453  1.0
  H  H7  1  0.67514296  0.30644016  0.24624340  1.0
  H  H8  1  0.69332947  0.17049685  0.80958935  1.0
  H  H9  1  0.67560881  0.21936532  0.86020698  1.0
  H  H10  1  0.30894283  0.30990110  0.67068119  1.0
  H  H11  1  0.30880383  0.35675600  0.99599289  1.0
  H  H12  1  0.69266280  0.49618352  0.85707365  1.0
  H  H13  1  0.67511946  0.44731534  0.80645579  1.0
  H  H14  1  0.69338828  0.01990000  0.67050832  1.0
  H  H15  1  0.67563237  0.92042047  0.71935592  1.0
  H  H16  1  0.30893329  0.01941837  0.80990331  1.0
  H  H17  1  0.30874495  0.64724261  0.85675128  1.0
  H  H18  1  0.69266482  0.64675824  0.99617416  1.0
  H  H19  1  0.67514856  0.74623887  0.94730520  1.0
  C  C20  1  0.50012320  0.58187308  0.95923507  1.0
  C  C21  1  0.50020526  0.45888757  0.08188938  1.0
  C  C22  1  0.50021164  0.45922748  0.95890138  1.0
  C  C23  1  0.50069877  0.20776315  0.58479109  1.0
  C  C24  1  0.50069491  0.20744006  0.70776954  1.0
  C  C25  1  0.50075548  0.08478563  0.70744938  1.0
  C  C26  1  0.50204078  0.23733824  0.52572363  1.0
  C  C27  1  0.60969685  0.29048201  0.49777792  1.0
  C  C28  1  0.60190475  0.31847167  0.44261333  1.0
  C  C29  1  0.50203812  0.29349407  0.41365420  1.0
  C  C30  1  0.40393561  0.23968024  0.44315941  1.0
  C  C31  1  0.39397949  0.21186605  0.49814379  1.0
  C  C32  1  0.50028493  0.32109955  0.35758188  1.0
  C  C33  1  0.50022631  0.34556667  0.30909859  1.0
  C  C34  1  0.50185347  0.37316856  0.25302587  1.0
  C  C35  1  0.40384272  0.42698985  0.22352064  1.0
  C  C36  1  0.39377776  0.45480058  0.16853626  1.0
  C  C37  1  0.50164304  0.42931646  0.14095645  1.0
  C  C38  1  0.60920654  0.37616387  0.16890218  1.0
  C  C39  1  0.60151087  0.34817883  0.22406716  1.0
  C  C40  1  0.50204121  0.23693461  0.73734383  1.0
  C  C41  1  0.60969993  0.21173982  0.79048744  1.0
  C  C42  1  0.60190564  0.23891820  0.81847387  1.0
  C  C43  1  0.50205469  0.29285713  0.79349406  1.0
  C  C44  1  0.40395908  0.31716427  0.73967928  1.0
  C  C45  1  0.39399513  0.28998868  0.71187061  1.0
  C  C46  1  0.50030548  0.32132712  0.82109827  1.0
  C  C47  1  0.50024028  0.34534281  0.84556965  1.0
  C  C48  1  0.50185621  0.37381300  0.87317346  1.0
  C  C49  1  0.40384616  0.34950022  0.92699101  1.0
  C  C50  1  0.39378144  0.37667451  0.95480087  1.0
  C  C51  1  0.50163753  0.42973387  0.92932591  1.0
  C  C52  1  0.60919233  0.45493572  0.87617851  1.0
  C  C53  1  0.60149632  0.42775773  0.84819128  1.0
  C  C54  1  0.50211396  0.02571787  0.73694018  1.0
  C  C55  1  0.60974637  0.99776436  0.71174618  1.0
  C  C56  1  0.60192880  0.94260006  0.73891200  1.0
  C  C57  1  0.50204994  0.91364545  0.79284536  1.0
  C  C58  1  0.40394007  0.94315735  0.81715171  1.0
  C  C59  1  0.39400464  0.99814129  0.78998834  1.0
  C  C60  1  0.50029177  0.85757277  0.82130790  1.0
  C  C61  1  0.50022808  0.80908635  0.84533253  1.0
  C  C62  1  0.50184265  0.75301397  0.87380343  1.0
  C  C63  1  0.40381646  0.72350186  0.84949586  1.0
  C  C64  1  0.39373335  0.66851826  0.87666956  1.0
  C  C65  1  0.50160787  0.64094121  0.92973114  1.0
  C  C66  1  0.60917827  0.66889375  0.95492687  1.0
  C  C67  1  0.60150302  0.72405884  0.92774912  1.0
  O  O68  1  0.26504756  0.44847331  0.99302870  1.0
  O  O69  1  0.26492819  0.55849836  0.94849052  1.0
  O  O70  1  0.26500715  0.49301450  0.05851650  1.0
  O  O71  1  0.73445963  0.49345459  0.94827176  1.0
  O  O72  1  0.73448639  0.44825348  0.05829443  1.0
  O  O73  1  0.73437402  0.55827962  0.99347043  1.0
  O  O74  1  0.26559337  0.10817124  0.71819428  1.0
  O  O75  1  0.26557272  0.17363285  0.60816871  1.0
  O  O76  1  0.26552976  0.21819192  0.67364140  1.0
  O  O77  1  0.73504490  0.10836817  0.67322479  1.0
  O  O78  1  0.73500742  0.17321407  0.71840238  1.0
  O  O79  1  0.73497814  0.21839828  0.60838250  1.0
  F  F80  1  0.31125541  0.21441501  0.41639113  1.0
  F  F81  1  0.31137423  0.45226742  0.25028811  1.0
  F  F82  1  0.31130879  0.36919800  0.71441662  1.0
  F  F83  1  0.31140099  0.29746104  0.95225604  1.0
  F  F84  1  0.31123839  0.91639421  0.86917706  1.0
  F  F85  1  0.31135680  0.75026416  0.79745817  1.0
