# generated using pymatgen
data_Zn4H32C48Cl4O13
_symmetry_space_group_name_H-M   'P 1'
_cell_length_a   23.87502674
_cell_length_b   23.87541958
_cell_length_c   23.87361357
_cell_angle_alpha   66.74520213
_cell_angle_beta   72.38446224
_cell_angle_gamma   107.61269910
_symmetry_Int_Tables_number   1
_chemical_formula_structural   Zn4H32C48Cl4O13
_chemical_formula_sum   'Zn8 H64 C96 Cl8 O26'
_cell_volume   10441.16631987
_cell_formula_units_Z   2
loop_
 _symmetry_equiv_pos_site_id
 _symmetry_equiv_pos_as_xyz
  1  'x, y, z'
loop_
 _atom_site_type_symbol
 _atom_site_label
 _atom_site_symmetry_multiplicity
 _atom_site_fract_x
 _atom_site_fract_y
 _atom_site_fract_z
 _atom_site_occupancy
  Zn  Zn0  1  0.05764340  0.09944331  0.45818903  1.0
  Zn  Zn1  1  0.05764438  0.95819243  0.48416202  1.0
  Zn  Zn2  1  0.94234903  0.95818329  0.59945891  1.0
  Zn  Zn3  1  0.94237006  0.98417401  0.45817853  1.0
  Zn  Zn4  1  0.94235816  0.40055307  0.04180914  1.0
  Zn  Zn5  1  0.05765294  0.54181777  0.90053812  1.0
  Zn  Zn6  1  0.94235402  0.54180149  0.01583676  1.0
  Zn  Zn7  1  0.05763077  0.51583098  0.04181614  1.0
  H  H8  1  0.92405448  0.27208455  0.96354020  1.0
  H  H9  1  0.07594808  0.46354893  0.77203904  1.0
  H  H10  1  0.92409903  0.03643862  0.72796937  1.0
  H  H11  1  0.07585592  0.22793885  0.53643592  1.0
  H  H12  1  0.07596542  0.61244486  0.15194889  1.0
  H  H13  1  0.92406397  0.65201369  0.11238008  1.0
  H  H14  1  0.07586360  0.84790508  0.38769671  1.0
  H  H15  1  0.92410214  0.88765133  0.34795555  1.0
  H  H16  1  0.73561071  0.27205648  0.15206661  1.0
  H  H17  1  0.73560637  0.46355709  0.11232513  1.0
  H  H18  1  0.26439840  0.03645241  0.38761445  1.0
  H  H19  1  0.26439121  0.22791666  0.34804779  1.0
  H  H20  1  0.26440066  0.65209501  0.77204675  1.0
  H  H21  1  0.26438909  0.61232467  0.96357426  1.0
  H  H22  1  0.73561347  0.88761686  0.53643533  1.0
  H  H23  1  0.73560025  0.84802653  0.72792739  1.0
  H  H24  1  0.08025659  0.45694896  0.65908813  1.0
  H  H25  1  0.08670544  0.38292070  0.66476949  1.0
  H  H26  1  0.14312094  0.44093658  0.67539057  1.0
  H  H27  1  0.91973371  0.15914153  0.95695272  1.0
  H  H28  1  0.91327465  0.16480406  0.88292877  1.0
  H  H29  1  0.85686104  0.17543134  0.94094739  1.0
  H  H30  1  0.14306628  0.32460779  0.55937637  1.0
  H  H31  1  0.08628754  0.33531544  0.61695721  1.0
  H  H32  1  0.08041393  0.34081732  0.54274006  1.0
  H  H33  1  0.85688022  0.05940530  0.82463415  1.0
  H  H34  1  0.91367393  0.11697803  0.83532848  1.0
  H  H35  1  0.91953542  0.04276270  0.84083085  1.0
  H  H36  1  0.91974596  0.76064603  0.12329639  1.0
  H  H37  1  0.91329164  0.74851075  0.20378152  1.0
  H  H38  1  0.85687915  0.68147571  0.20217751  1.0
  H  H39  1  0.08027812  0.62335082  0.26057941  1.0
  H  H40  1  0.08672566  0.70382375  0.24846313  1.0
  H  H41  1  0.14314587  0.70223539  0.18141089  1.0
  H  H42  1  0.85688127  0.79747003  0.31851359  1.0
  H  H43  1  0.91367596  0.79669645  0.25101186  1.0
  H  H44  1  0.91953342  0.87677141  0.23965232  1.0
  H  H45  1  0.14307028  0.81845595  0.29752526  1.0
  H  H46  1  0.08628806  0.75096943  0.29673215  1.0
  H  H47  1  0.08041961  0.73959127  0.37682424  1.0
  H  H48  1  0.61597830  0.44059300  0.20250993  1.0
  H  H49  1  0.54770599  0.38301887  0.20329367  1.0
  H  H50  1  0.61642230  0.45723731  0.12320650  1.0
  H  H51  1  0.61599334  0.17539919  0.18151494  1.0
  H  H52  1  0.54771112  0.16468911  0.24901308  1.0
  H  H53  1  0.61642354  0.15918376  0.26038193  1.0
  H  H54  1  0.38392560  0.34085756  0.23943169  1.0
  H  H55  1  0.45228418  0.33518949  0.25154867  1.0
  H  H56  1  0.38364120  0.32455405  0.31860244  1.0
  H  H57  1  0.38394885  0.04305016  0.37671431  1.0
  H  H58  1  0.45229791  0.11707947  0.29622865  1.0
  H  H59  1  0.38365861  0.05906166  0.29783278  1.0
  H  H60  1  0.38401464  0.70250160  0.94061481  1.0
  H  H61  1  0.45228741  0.70328594  0.88303439  1.0
  H  H62  1  0.38357014  0.62320612  0.95725356  1.0
  H  H63  1  0.38402121  0.68155508  0.67537844  1.0
  H  H64  1  0.45230100  0.74903935  0.66467452  1.0
  H  H65  1  0.38359057  0.76041491  0.65916735  1.0
  H  H66  1  0.61606383  0.73939955  0.84087127  1.0
  H  H67  1  0.54770766  0.75152184  0.83520524  1.0
  H  H68  1  0.61634486  0.81855982  0.82458169  1.0
  H  H69  1  0.61606902  0.87671092  0.54303146  1.0
  H  H70  1  0.54771724  0.79623052  0.61706001  1.0
  H  H71  1  0.61636313  0.79783901  0.55903813  1.0
  C  C72  1  0.18244479  0.09120921  0.40878949  1.0
  C  C73  1  0.99998634  0.86337183  0.63663471  1.0
  C  C74  1  0.99998250  0.09120933  0.59123122  1.0
  C  C75  1  0.81755648  0.90879805  0.59120658  1.0
  C  C76  1  0.00001871  0.13663127  0.36336478  1.0
  C  C77  1  0.99999567  0.90876393  0.40878818  1.0
  C  C78  1  0.99999784  0.40879778  0.90876032  1.0
  C  C79  1  0.99999246  0.63661584  0.86337832  1.0
  C  C80  1  0.81755539  0.40878002  0.09123321  1.0
  C  C81  1  0.00001006  0.59125214  0.09119343  1.0
  C  C82  1  0.99999112  0.36337321  0.13662694  1.0
  C  C83  1  0.18244480  0.59122777  0.90878894  1.0
  C  C84  1  0.00001100  0.19473976  0.30526023  1.0
  C  C85  1  0.99999979  0.30526680  0.19473248  1.0
  C  C86  1  0.95708958  0.18010098  0.27699708  1.0
  C  C87  1  0.04291965  0.31990506  0.22299673  1.0
  C  C88  1  0.95708630  0.23408220  0.22301307  1.0
  C  C89  1  0.04292269  0.26592332  0.27698060  1.0
  C  C90  1  0.99998635  0.80525813  0.69474324  1.0
  C  C91  1  0.99999611  0.69472571  0.80526390  1.0
  C  C92  1  0.95708382  0.77698365  0.76593572  1.0
  C  C93  1  0.04289740  0.72299881  0.73407194  1.0
  C  C94  1  0.95708741  0.72299931  0.81991542  1.0
  C  C95  1  0.04289385  0.77698419  0.68009306  1.0
  C  C96  1  0.99999631  0.37143881  0.87140123  1.0
  C  C97  1  0.95715565  0.29978616  0.90770487  1.0
  C  C98  1  0.95625023  0.26371438  0.87395334  1.0
  C  C99  1  0.99998042  0.30096608  0.80094616  1.0
  C  C100  1  0.04372700  0.37396493  0.76368031  1.0
  C  C101  1  0.04283396  0.40772410  0.79974463  1.0
  C  C102  1  0.99996889  0.26536797  0.76535310  1.0
  C  C103  1  0.99996373  0.23464330  0.73463490  1.0
  C  C104  1  0.99996722  0.19904726  0.69904024  1.0
  C  C105  1  0.95627571  0.12603300  0.73631983  1.0
  C  C106  1  0.95717080  0.09227539  0.70025344  1.0
  C  C107  1  0.99997243  0.12857454  0.62858549  1.0
  C  C108  1  0.04277121  0.20023672  0.59227360  1.0
  C  C109  1  0.04366445  0.23631162  0.62602172  1.0
  C  C110  1  0.00002037  0.62862151  0.12854031  1.0
  C  C111  1  0.04286134  0.63516932  0.15734950  1.0
  C  C112  1  0.04375762  0.66981854  0.19252292  1.0
  C  C113  1  0.00001225  0.69907187  0.19901525  1.0
  C  C114  1  0.95627439  0.69259261  0.16975159  1.0
  C  C115  1  0.95717710  0.65742960  0.13509189  1.0
  C  C116  1  0.99999766  0.73464744  0.23463013  1.0
  C  C117  1  0.99998229  0.76534400  0.26537612  1.0
  C  C118  1  0.99997443  0.80092495  0.30098434  1.0
  C  C119  1  0.04366841  0.80734853  0.33030338  1.0
  C  C120  1  0.04277746  0.84252456  0.36494978  1.0
  C  C121  1  0.99997942  0.87138936  0.37144558  1.0
  C  C122  1  0.95717650  0.86488940  0.34258754  1.0
  C  C123  1  0.95628007  0.83024175  0.30741228  1.0
  C  C124  1  0.74283819  0.37142105  0.12858526  1.0
  C  C125  1  0.70747944  0.29976155  0.15744384  1.0
  C  C126  1  0.63765594  0.26368917  0.19262740  1.0
  C  C127  1  0.60191107  0.30095496  0.19906170  1.0
  C  C128  1  0.63765421  0.37396725  0.16973660  1.0
  C  C129  1  0.70747770  0.40772233  0.13508543  1.0
  C  C130  1  0.53072180  0.26535679  0.23467252  1.0
  C  C131  1  0.46927952  0.23462830  0.26540635  1.0
  C  C132  1  0.39809074  0.19903118  0.30100069  1.0
  C  C133  1  0.36234881  0.12603187  0.33025746  1.0
  C  C134  1  0.29252620  0.09227680  0.36490417  1.0
  C  C135  1  0.25716255  0.12856560  0.37145378  1.0
  C  C136  1  0.29251929  0.20021419  0.34264914  1.0
  C  C137  1  0.36234238  0.23628189  0.30748514  1.0
  C  C138  1  0.25716330  0.62860183  0.87142509  1.0
  C  C139  1  0.29252608  0.65747248  0.79975589  1.0
  C  C140  1  0.36234869  0.69265221  0.76368378  1.0
  C  C141  1  0.39808988  0.69907624  0.80095517  1.0
  C  C142  1  0.36234452  0.66974649  0.87397498  1.0
  C  C143  1  0.29252045  0.63509564  0.90773119  1.0
  C  C144  1  0.46928008  0.73467546  0.76535789  1.0
  C  C145  1  0.53072229  0.76539718  0.73462927  1.0
  C  C146  1  0.60191433  0.80098807  0.69902970  1.0
  C  C147  1  0.63765891  0.83024707  0.62602426  1.0
  C  C148  1  0.70748263  0.86490000  0.59226817  1.0
  C  C149  1  0.74284041  0.87144532  0.62856253  1.0
  C  C150  1  0.70747867  0.84263085  0.70022010  1.0
  C  C151  1  0.63765639  0.80746413  0.73628865  1.0
  C  C152  1  0.09081016  0.41556465  0.68664559  1.0
  C  C153  1  0.90917173  0.18668677  0.91556829  1.0
  C  C154  1  0.09070859  0.31334755  0.58440088  1.0
  C  C155  1  0.90923930  0.08442134  0.81336524  1.0
  C  C156  1  0.90919010  0.72253337  0.17523817  1.0
  C  C157  1  0.09083410  0.67529320  0.22247330  1.0
  C  C158  1  0.90924241  0.82481755  0.27741263  1.0
  C  C159  1  0.09071232  0.77735679  0.32486843  1.0
  C  C160  1  0.60222834  0.41557798  0.17516471  1.0
  C  C161  1  0.60223324  0.18665464  0.22261889  1.0
  C  C162  1  0.39776157  0.31330604  0.27753861  1.0
  C  C163  1  0.39777700  0.08443465  0.32477221  1.0
  C  C164  1  0.39776772  0.67516254  0.91559322  1.0
  C  C165  1  0.39777759  0.72264957  0.68663977  1.0
  C  C166  1  0.60222789  0.77750735  0.81332362  1.0
  C  C167  1  0.60223873  0.82477223  0.58441535  1.0
  Cl  Cl168  1  0.90223079  0.09665429  0.30561291  1.0
  Cl  Cl169  1  0.09777815  0.40335019  0.19437951  1.0
  Cl  Cl170  1  0.90223050  0.20783428  0.19442301  1.0
  Cl  Cl171  1  0.09777469  0.29216969  0.30557368  1.0
  Cl  Cl172  1  0.90224673  0.80558563  0.79219506  1.0
  Cl  Cl173  1  0.09773183  0.69439111  0.70781189  1.0
  Cl  Cl174  1  0.90225272  0.69439992  0.90337251  1.0
  Cl  Cl175  1  0.09773230  0.80558411  0.59663380  1.0
  O  O176  1  0.99999916  0.99999581  0.50000131  1.0
  O  O177  1  0.15328603  0.12729614  0.41383250  1.0
  O  O178  1  0.03990535  0.88574615  0.57441391  1.0
  O  O179  1  0.95885396  0.02596594  0.62732390  1.0
  O  O180  1  0.15329174  0.02597345  0.43287727  1.0
  O  O181  1  0.04112607  0.12729494  0.52598372  1.0
  O  O182  1  0.96006508  0.88566432  0.65419224  1.0
  O  O183  1  0.84670818  0.91383696  0.62729743  1.0
  O  O184  1  0.96017540  0.07441675  0.38565959  1.0
  O  O185  1  0.84671906  0.93290952  0.52595551  1.0
  O  O186  1  0.03986909  0.15417898  0.38572886  1.0
  O  O187  1  0.04112500  0.91380598  0.43290251  1.0
  O  O188  1  0.95887796  0.93289614  0.41381288  1.0
  O  O189  1  0.00000089  0.50000070  0.99999635  1.0
  O  O190  1  0.95885686  0.37271338  0.97400615  1.0
  O  O191  1  0.03993778  0.61433636  0.84581172  1.0
  O  O192  1  0.84670765  0.47401786  0.06712181  1.0
  O  O193  1  0.04114168  0.47404135  0.87266798  1.0
  O  O194  1  0.84671305  0.37268790  0.08619677  1.0
  O  O195  1  0.96006990  0.61423007  0.92558796  1.0
  O  O196  1  0.95888018  0.58620229  0.06708403  1.0
  O  O197  1  0.03981796  0.42558825  0.11434571  1.0
  O  O198  1  0.04113651  0.56712929  0.08616030  1.0
  O  O199  1  0.96015646  0.34582341  0.11424721  1.0
  O  O200  1  0.15329281  0.58618729  0.87269419  1.0
  O  O201  1  0.15328305  0.56709444  0.97404170  1.0
