# generated using pymatgen
data_Zn4H10C25S4O15
_symmetry_space_group_name_H-M   'P 1'
_cell_length_a   19.62082133
_cell_length_b   19.65594218
_cell_length_c   33.29382655
_cell_angle_alpha   79.18786357
_cell_angle_beta   79.27914334
_cell_angle_gamma   64.02033190
_symmetry_Int_Tables_number   1
_chemical_formula_structural   Zn4H10C25S4O15
_chemical_formula_sum   'Zn16 H40 C100 S16 O60'
_cell_volume   11259.16939092
_cell_formula_units_Z   4
loop_
 _symmetry_equiv_pos_site_id
 _symmetry_equiv_pos_as_xyz
  1  'x, y, z'
loop_
 _atom_site_type_symbol
 _atom_site_label
 _atom_site_symmetry_multiplicity
 _atom_site_fract_x
 _atom_site_fract_y
 _atom_site_fract_z
 _atom_site_occupancy
  Zn  Zn0  1  0.05264633  0.40139631  0.47764733  1.0
  Zn  Zn1  1  0.99178501  0.48157424  0.56117466  1.0
  Zn  Zn2  1  0.05319277  0.56425047  0.48100252  1.0
  Zn  Zn3  1  0.89586019  0.55221115  0.48375161  1.0
  Zn  Zn4  1  0.69277832  0.34850487  0.27149543  1.0
  Zn  Zn5  1  0.68507295  0.19171539  0.26520443  1.0
  Zn  Zn6  1  0.77382518  0.26223448  0.19133805  1.0
  Zn  Zn7  1  0.84579106  0.19181149  0.27586733  1.0
  Zn  Zn8  1  0.27357441  0.76363518  0.69000483  1.0
  Zn  Zn9  1  0.34690759  0.69978562  0.77509080  1.0
  Zn  Zn10  1  0.18928182  0.84793976  0.77077466  1.0
  Zn  Zn11  1  0.19493312  0.68405928  0.76494208  1.0
  Zn  Zn12  1  0.56391809  0.05623205  0.98217100  1.0
  Zn  Zn13  1  0.40089858  0.05745067  0.98022387  1.0
  Zn  Zn14  1  0.55206054  0.90004377  0.97793520  1.0
  Zn  Zn15  1  0.48800579  0.98020508  0.06076974  1.0
  H  H16  1  0.94249084  0.24582641  0.35942384  1.0
  H  H17  1  0.74637859  0.45942329  0.34670873  1.0
  H  H18  1  0.98723909  0.29815325  0.40730597  1.0
  H  H19  1  0.09847330  0.60389952  0.69487938  1.0
  H  H20  1  0.21894017  0.69352246  0.59424510  1.0
  H  H21  1  0.05153276  0.55902122  0.64441588  1.0
  H  H22  1  0.46160735  0.23883818  0.34395426  1.0
  H  H23  1  0.48983827  0.70074460  0.60895345  1.0
  H  H24  1  0.20574638  0.97615956  0.59931537  1.0
  H  H25  1  0.94226254  0.95968255  0.34183851  1.0
  H  H26  1  0.56470209  0.04111511  0.15069619  1.0
  H  H27  1  0.64583071  0.16159405  0.04618656  1.0
  H  H28  1  0.61306481  0.09284811  0.19704091  1.0
  H  H29  1  0.54859599  0.76605140  0.14774950  1.0
  H  H30  1  0.16612612  0.15230302  0.04649929  1.0
  H  H31  1  0.48564569  0.80080278  0.90259864  1.0
  H  H32  1  0.29226387  0.01762688  0.89650050  1.0
  H  H33  1  0.43243847  0.75867384  0.85396701  1.0
  H  H34  1  0.30586335  0.27992624  0.90208037  1.0
  H  H35  1  0.78218752  0.00470703  0.90201634  1.0
  H  H36  1  0.72761364  0.56255562  0.37594274  1.0
  H  H37  1  0.80611639  0.56998696  0.39147502  1.0
  H  H38  1  0.74661182  0.53833060  0.42836012  1.0
  H  H39  1  0.13274858  0.69296801  0.51384879  1.0
  H  H40  1  0.20985065  0.60291938  0.51612435  1.0
  H  H41  1  0.22108872  0.68242227  0.52738345  1.0
  H  H42  1  0.76629757  0.20204264  0.08853002  1.0
  H  H43  1  0.68008525  0.28196071  0.09734129  1.0
  H  H44  1  0.70035370  0.23948418  0.05113785  1.0
  H  H45  1  0.17117079  0.97612413  0.85507549  1.0
  H  H46  1  0.22140783  0.00391858  0.81075630  1.0
  H  H47  1  0.19992431  0.05044998  0.85563538  1.0
  H  H48  1  0.32710523  0.54035015  0.40228969  1.0
  H  H49  1  0.76629776  0.53982515  0.69386993  1.0
  H  H50  1  0.04141822  0.25319055  0.68173203  1.0
  H  H51  1  0.72883923  0.81285653  0.38675128  1.0
  H  H52  1  0.70567922  0.48890461  0.06448999  1.0
  H  H53  1  0.15397077  0.05571710  0.22521182  1.0
  H  H54  1  0.50863599  0.43852601  0.86558661  1.0
  H  H55  1  0.93273372  0.69149751  0.85745038  1.0
  C  C56  1  0.05979438  0.31379593  0.55982279  1.0
  C  C57  1  0.07648796  0.57268567  0.56407226  1.0
  C  C58  1  0.18257193  0.44033679  0.44082097  1.0
  C  C59  1  0.92634945  0.67804052  0.43449890  1.0
  C  C60  1  0.92173071  0.43182419  0.43447389  1.0
  C  C61  1  0.82563626  0.56425638  0.57092138  1.0
  C  C62  1  0.56429707  0.31021600  0.31274492  1.0
  C  C63  1  0.68572964  0.18110331  0.17796869  1.0
  C  C64  1  0.68614639  0.42913700  0.18693476  1.0
  C  C65  1  0.94042905  0.18616829  0.19570176  1.0
  C  C66  1  0.81349955  0.31986066  0.32196847  1.0
  C  C67  1  0.80351565  0.06191564  0.30876581  1.0
  C  C68  1  0.44060299  0.68558419  0.69480133  1.0
  C  C69  1  0.30632822  0.83197737  0.81984899  1.0
  C  C70  1  0.19418644  0.93100591  0.68685551  1.0
  C  C71  1  0.06333120  0.80353868  0.80702812  1.0
  C  C72  1  0.19092804  0.67754271  0.67692834  1.0
  C  C73  1  0.31455584  0.56899610  0.81490056  1.0
  C  C74  1  0.44268136  0.18342894  0.93892073  1.0
  C  C75  1  0.42241209  0.93770651  0.93140871  1.0
  C  C76  1  0.68429819  0.93102846  0.93777136  1.0
  C  C77  1  0.56107170  0.81282916  0.06081817  1.0
  C  C78  1  0.57498630  0.06780063  0.06750706  1.0
  C  C79  1  0.31977081  0.06061494  0.06464229  1.0
  C  C80  1  0.89101088  0.40693098  0.40475313  1.0
  C  C81  1  0.84114023  0.34978242  0.35062496  1.0
  C  C82  1  0.82194172  0.45465429  0.38770519  1.0
  C  C83  1  0.90953912  0.30357742  0.36747847  1.0
  C  C84  1  0.79893053  0.42430253  0.36061982  1.0
  C  C85  1  0.93397559  0.33261961  0.39404327  1.0
  C  C86  1  0.10807299  0.60176177  0.59125004  1.0
  C  C87  1  0.16167974  0.65134149  0.64726336  1.0
  C  C88  1  0.15581782  0.64028922  0.57593271  1.0
  C  C89  1  0.11412505  0.61356207  0.66187296  1.0
  C  C90  1  0.18170838  0.66413581  0.60483166  1.0
  C  C91  1  0.08814018  0.58898875  0.63387874  1.0
  C  C92  1  0.30525325  0.45374328  0.40506829  1.0
  C  C93  1  0.44552180  0.29528595  0.35221583  1.0
  C  C94  1  0.25854869  0.41487663  0.41750004  1.0
  C  C95  1  0.49086632  0.33467244  0.33913493  1.0
  C  C96  1  0.37809275  0.33819243  0.37645120  1.0
  C  C97  1  0.37362086  0.40961812  0.38146994  1.0
  C  C98  1  0.73609307  0.57776248  0.63974404  1.0
  C  C99  1  0.53398800  0.67212999  0.62944893  1.0
  C  C100  1  0.75253401  0.58856284  0.59702280  1.0
  C  C101  1  0.51706722  0.66108556  0.67166088  1.0
  C  C102  1  0.61347675  0.64190708  0.61783447  1.0
  C  C103  1  0.65600068  0.60840103  0.65159931  1.0
  C  C104  1  0.07592625  0.22331327  0.62754329  1.0
  C  C105  1  0.17654600  0.02101440  0.61925286  1.0
  C  C106  1  0.08431432  0.23930380  0.58471432  1.0
  C  C107  1  0.16810412  0.00568392  0.66171122  1.0
  C  C108  1  0.14267481  0.10022302  0.60657738  1.0
  C  C109  1  0.10927284  0.14363379  0.63987677  1.0
  C  C110  1  0.83102375  0.79447216  0.39236276  1.0
  C  C111  1  0.89657981  0.94084084  0.34660246  1.0
  C  C112  1  0.90080779  0.75079149  0.40799395  1.0
  C  C113  1  0.82716963  0.98512605  0.33169800  1.0
  C  C114  1  0.89840659  0.87119625  0.36818347  1.0
  C  C115  1  0.82993120  0.86356585  0.36943259  1.0
  C  C116  1  0.65778550  0.15469930  0.14764109  1.0
  C  C117  1  0.60315988  0.09819811  0.09560366  1.0
  C  C118  1  0.66780971  0.17559231  0.10454388  1.0
  C  C119  1  0.59329840  0.07845141  0.13825567  1.0
  C  C120  1  0.63955706  0.14646865  0.07946487  1.0
  C  C121  1  0.62029456  0.10701122  0.16376411  1.0
  C  C122  1  0.66978681  0.51913703  0.11861383  1.0
  C  C123  1  0.57588236  0.72143617  0.12759705  1.0
  C  C124  1  0.66087174  0.50298802  0.16142882  1.0
  C  C125  1  0.58491966  0.73740297  0.08519892  1.0
  C  C126  1  0.60623220  0.64207563  0.13986413  1.0
  C  C127  1  0.63816913  0.59898039  0.10638879  1.0
  C  C128  1  0.08793814  0.11538686  0.18400471  1.0
  C  C129  1  0.17445097  0.12974191  0.07848748  1.0
  C  C130  1  0.01570917  0.16088822  0.17149749  1.0
  C  C131  1  0.24603804  0.08477134  0.09081236  1.0
  C  C132  1  0.11688940  0.14112317  0.11228944  1.0
  C  C133  1  0.14581339  0.10431133  0.14994655  1.0
  C  C134  1  0.33250670  0.86388358  0.84833691  1.0
  C  C135  1  0.39140852  0.91185217  0.90248384  1.0
  C  C136  1  0.29112258  0.93851450  0.85987938  1.0
  C  C137  1  0.43179494  0.83846188  0.89062012  1.0
  C  C138  1  0.32230808  0.96057278  0.88701977  1.0
  C  C139  1  0.40217418  0.81534492  0.86377025  1.0
  C  C140  1  0.40964312  0.45255740  0.85641982  1.0
  C  C141  1  0.34997802  0.30070762  0.89825082  1.0
  C  C142  1  0.34091586  0.49426313  0.83948578  1.0
  C  C143  1  0.41834911  0.25895013  0.91466151  1.0
  C  C144  1  0.34688498  0.37087868  0.87674180  1.0
  C  C145  1  0.41298220  0.38159113  0.87757582  1.0
  C  C146  1  0.94692849  0.78369826  0.84861160  1.0
  C  C147  1  0.80123444  0.94597205  0.89654380  1.0
  C  C148  1  0.98928147  0.82612355  0.83230016  1.0
  C  C149  1  0.75876026  0.90442886  0.91242907  1.0
  C  C150  1  0.86945366  0.90237612  0.87316809  1.0
  C  C151  1  0.87798780  0.82783793  0.87188693  1.0
  C  C152  1  0.77298088  0.53571251  0.39623440  1.0
  C  C153  1  0.18132536  0.65554459  0.53094505  1.0
  C  C154  1  0.70555248  0.22759885  0.08425424  1.0
  C  C155  1  0.21694846  0.99543625  0.84453838  1.0
  S  S156  1  0.29854629  0.32488206  0.40075484  1.0
  S  S157  1  0.45233547  0.42393848  0.35639953  1.0
  S  S158  1  0.67095266  0.63587492  0.57170160  1.0
  S  S159  1  0.59761054  0.61401417  0.69774526  1.0
  S  S160  1  0.13250436  0.15722893  0.55995334  1.0
  S  S161  1  0.11888312  0.08717088  0.68666125  1.0
  S  S162  1  0.96437647  0.79376224  0.39455659  1.0
  S  S163  1  0.76360128  0.94214618  0.34344589  1.0
  S  S164  1  0.61419344  0.58491234  0.18633442  1.0
  S  S165  1  0.63014882  0.65620120  0.05980150  1.0
  S  S166  1  0.01893982  0.18944874  0.11850705  1.0
  S  S167  1  0.24402282  0.05592340  0.14366262  1.0
  S  S168  1  0.28121379  0.44693219  0.84937720  1.0
  S  S169  1  0.47945052  0.30462979  0.90425933  1.0
  S  S170  1  0.94527477  0.91883576  0.84561577  1.0
  S  S171  1  0.80136542  0.81187496  0.89913453  1.0
  O  O172  1  0.99866188  0.49903525  0.50076686  1.0
  O  O173  1  0.07227135  0.31336128  0.52057118  1.0
  O  O174  1  0.05441914  0.52064674  0.58106558  1.0
  O  O175  1  0.15348669  0.50707011  0.45190426  1.0
  O  O176  1  0.02874164  0.37212670  0.57927838  1.0
  O  O177  1  0.15210451  0.39265809  0.44772255  1.0
  O  O178  1  0.07305212  0.60185938  0.52645283  1.0
  O  O179  1  0.99407911  0.65350067  0.44444728  1.0
  O  O180  1  0.87469823  0.48680794  0.45446538  1.0
  O  O181  1  0.88064860  0.64577985  0.44554876  1.0
  O  O182  1  0.99302217  0.39521473  0.43793165  1.0
  O  O183  1  0.88690930  0.53003267  0.58807892  1.0
  O  O184  1  0.82021417  0.58023845  0.53208631  1.0
  O  O185  1  0.74924718  0.24824370  0.25144149  1.0
  O  O186  1  0.59534720  0.35728895  0.30442367  1.0
  O  O187  1  0.65527195  0.17729549  0.21531151  1.0
  O  O188  1  0.72215258  0.36939772  0.16865017  1.0
  O  O189  1  0.59013968  0.24469603  0.30047113  1.0
  O  O190  1  0.66952955  0.43173470  0.22595715  1.0
  O  O191  1  0.73802748  0.20447642  0.16470730  1.0
  O  O192  1  0.88394620  0.22680864  0.17479329  1.0
  O  O193  1  0.85395084  0.25087360  0.31472589  1.0
  O  O194  1  0.93663045  0.16656937  0.23453968  1.0
  O  O195  1  0.75158587  0.36560285  0.30701002  1.0
  O  O196  1  0.73782744  0.09092968  0.29586340  1.0
  O  O197  1  0.85043732  0.09244175  0.30412101  1.0
  O  O198  1  0.25099810  0.74907973  0.75006264  1.0
  O  O199  1  0.38444872  0.72102903  0.67358599  1.0
  O  O200  1  0.35606607  0.77085565  0.80567634  1.0
  O  O201  1  0.17643018  0.93202480  0.72584096  1.0
  O  O202  1  0.43750190  0.66929807  0.73395037  1.0
  O  O203  1  0.23177244  0.87243872  0.66779078  1.0
  O  O204  1  0.23714982  0.86687053  0.81197706  1.0
  O  O205  1  0.08843193  0.85560712  0.79677083  1.0
  O  O206  1  0.17460104  0.65936757  0.71521387  1.0
  O  O207  1  0.09627532  0.73566280  0.79748979  1.0
  O  O208  1  0.22998924  0.71596863  0.66169836  1.0
  O  O209  1  0.35462029  0.60681312  0.81147064  1.0
  O  O210  1  0.25260377  0.58964333  0.79902020  1.0
  O  O211  1  0.50116514  0.99845971  0.00029273  1.0
  O  O212  1  0.51077131  0.15350437  0.94871449  1.0
  O  O213  1  0.38052938  0.00290777  0.94365406  1.0
  O  O214  1  0.65253815  0.88456903  0.94710106  1.0
  O  O215  1  0.39382609  0.15473651  0.94802810  1.0
  O  O216  1  0.65813960  0.99811561  0.94806872  1.0
  O  O217  1  0.48857052  0.89226391  0.94161988  1.0
  O  O218  1  0.57254890  0.81340082  0.02164999  1.0
  O  O219  1  0.53772947  0.02830379  0.08441532  1.0
  O  O220  1  0.53133942  0.87056985  0.08081946  1.0
  O  O221  1  0.59050044  0.08349201  0.02884349  1.0
  O  O222  1  0.31779585  0.08226860  0.02605533  1.0
  O  O223  1  0.37923354  0.02000404  0.08303925  1.0
  O  O224  1  0.28639197  0.52455689  0.41452663  1.0
  O  O225  1  0.79069346  0.54206133  0.66566525  1.0
  O  O226  1  0.04032067  0.27770746  0.65342619  1.0
  O  O227  1  0.77279779  0.77249028  0.39898098  1.0
  O  O228  1  0.70440139  0.46454608  0.09277595  1.0
  O  O229  1  0.09955583  0.08608620  0.22367824  1.0
  O  O230  1  0.46522701  0.47764936  0.85236701  1.0
  O  O231  1  0.97013849  0.71006999  0.84257086  1.0
