# generated using pymatgen
data_CdH14C12N4O5
_symmetry_space_group_name_H-M   'P 1'
_cell_length_a   12.04209636
_cell_length_b   16.13784869
_cell_length_c   16.13803465
_cell_angle_alpha   114.05434279
_cell_angle_beta   104.38953327
_cell_angle_gamma   104.38882917
_symmetry_Int_Tables_number   1
_chemical_formula_structural   CdH14C12N4O5
_chemical_formula_sum   'Cd6 H84 C72 N24 O30'
_cell_volume   2547.83864987
_cell_formula_units_Z   6
loop_
 _symmetry_equiv_pos_site_id
 _symmetry_equiv_pos_as_xyz
  1  'x, y, z'
loop_
 _atom_site_type_symbol
 _atom_site_label
 _atom_site_symmetry_multiplicity
 _atom_site_fract_x
 _atom_site_fract_y
 _atom_site_fract_z
 _atom_site_occupancy
  Cd  Cd0  1  0.75000156  0.25365968  0.74633311  1.0
  Cd  Cd1  1  0.49645492  0.49286525  0.74639282  1.0
  Cd  Cd2  1  0.00354397  0.25360794  0.50713718  1.0
  Cd  Cd3  1  0.24999664  0.74633554  0.25366557  1.0
  Cd  Cd4  1  0.50354772  0.50713884  0.25361154  1.0
  Cd  Cd5  1  0.99645805  0.74639319  0.49286524  1.0
  H  H6  1  0.72443335  0.39619999  0.67705711  1.0
  H  H7  1  0.32842546  0.28101037  0.60381911  1.0
  H  H8  1  0.04725679  0.32293615  0.71904563  1.0
  H  H9  1  0.45273850  0.28095421  0.67706286  1.0
  H  H10  1  0.77556573  0.32293985  0.60379742  1.0
  H  H11  1  0.17156846  0.39617939  0.71898940  1.0
  H  H12  1  0.50062715  0.14332645  0.54434132  1.0
  H  H13  1  0.48609990  0.04675878  0.35011536  1.0
  H  H14  1  0.68323213  0.86928341  0.35054458  1.0
  H  H15  1  0.65769312  0.85311927  0.23162402  1.0
  H  H16  1  0.64763261  0.01829252  0.28413718  1.0
  H  H17  1  0.79038911  0.02917184  0.36103793  1.0
  H  H18  1  0.35760986  0.40127897  0.85663351  1.0
  H  H19  1  0.43970088  0.30389250  0.95339683  1.0
  H  H20  1  0.81449465  0.48147450  0.13104910  1.0
  H  H21  1  0.80468931  0.37836728  0.14662348  1.0
  H  H22  1  0.62948395  0.26626338  0.98163219  1.0
  H  H23  1  0.76138457  0.33221527  0.97071102  1.0
  H  H24  1  0.95619415  0.45579323  0.59875527  1.0
  H  H25  1  0.13596588  0.64988183  0.69633557  1.0
  H  H26  1  0.33268207  0.64933020  0.51874036  1.0
  H  H27  1  0.42613576  0.76816769  0.62163164  1.0
  H  H28  1  0.36324208  0.71559847  0.73411108  1.0
  H  H29  1  0.42933119  0.63877478  0.66817310  1.0
  H  H30  1  0.54381284  0.40124796  0.54421203  1.0
  H  H31  1  0.36404315  0.30367125  0.35012240  1.0
  H  H32  1  0.16731959  0.48125944  0.35066587  1.0
  H  H33  1  0.07386481  0.37836470  0.23183097  1.0
  H  H34  1  0.13676002  0.26588765  0.28440581  1.0
  H  H35  1  0.07067357  0.33183196  0.36122981  1.0
  H  H36  1  0.99937006  0.45565631  0.85666567  1.0
  H  H37  1  0.01390106  0.64988742  0.95324928  1.0
  H  H38  1  0.81676893  0.64945631  0.13071966  1.0
  H  H39  1  0.84230464  0.76837597  0.14688022  1.0
  H  H40  1  0.85236676  0.71586233  0.98171098  1.0
  H  H41  1  0.70961281  0.63896362  0.97083245  1.0
  H  H42  1  0.14239214  0.14336382  0.59872185  1.0
  H  H43  1  0.06029948  0.04660097  0.69610697  1.0
  H  H44  1  0.68550565  0.86894826  0.51852151  1.0
  H  H45  1  0.69530626  0.85337495  0.62162840  1.0
  H  H46  1  0.87051795  0.01836426  0.73373173  1.0
  H  H47  1  0.73861766  0.02928973  0.66778221  1.0
  H  H48  1  0.49936982  0.85666286  0.45564667  1.0
  H  H49  1  0.51391645  0.95324530  0.64988039  1.0
  H  H50  1  0.31677356  0.13071994  0.64945384  1.0
  H  H51  1  0.34231024  0.14688113  0.76837215  1.0
  H  H52  1  0.35237530  0.98171009  0.71585887  1.0
  H  H53  1  0.20961927  0.97083003  0.63895792  1.0
  H  H54  1  0.64238084  0.59870295  0.14335279  1.0
  H  H55  1  0.56029634  0.69609903  0.04659707  1.0
  H  H56  1  0.18550382  0.51852811  0.86895388  1.0
  H  H57  1  0.19531039  0.62163606  0.85337941  1.0
  H  H58  1  0.37051979  0.73373775  0.01837117  1.0
  H  H59  1  0.23861684  0.66778808  0.02929157  1.0
  H  H60  1  0.04380174  0.54420421  0.40124265  1.0
  H  H61  1  0.86402952  0.35011634  0.30366627  1.0
  H  H62  1  0.66731282  0.35066354  0.48126083  1.0
  H  H63  1  0.57385963  0.23183049  0.37836587  1.0
  H  H64  1  0.63675443  0.28440192  0.26589188  1.0
  H  H65  1  0.57066643  0.36122783  0.33183221  1.0
  H  H66  1  0.45618845  0.59875687  0.45579300  1.0
  H  H67  1  0.63595924  0.69633063  0.64988101  1.0
  H  H68  1  0.83268243  0.51874169  0.64933221  1.0
  H  H69  1  0.92613819  0.62163495  0.76816793  1.0
  H  H70  1  0.86324114  0.73411348  0.71559583  1.0
  H  H71  1  0.92932661  0.66817065  0.63877101  1.0
  H  H72  1  0.00062496  0.54434113  0.14333705  1.0
  H  H73  1  0.98609728  0.35011150  0.04675342  1.0
  H  H74  1  0.18323505  0.35054704  0.86928465  1.0
  H  H75  1  0.15769763  0.23162738  0.85312315  1.0
  H  H76  1  0.14763600  0.28414028  0.01829280  1.0
  H  H77  1  0.29038970  0.36104194  0.02917249  1.0
  H  H78  1  0.85761232  0.85663362  0.40127704  1.0
  H  H79  1  0.93970437  0.95339868  0.30389209  1.0
  H  H80  1  0.31449306  0.13105139  0.48147845  1.0
  H  H81  1  0.30469270  0.14662692  0.37837314  1.0
  H  H82  1  0.12948517  0.98163392  0.26626721  1.0
  H  H83  1  0.26138816  0.97071214  0.33221874  1.0
  H  H84  1  0.27556633  0.60379819  0.32294305  1.0
  H  H85  1  0.67156909  0.71899298  0.39618097  1.0
  H  H86  1  0.95274009  0.67706498  0.28095645  1.0
  H  H87  1  0.54725667  0.71905210  0.32293791  1.0
  H  H88  1  0.22443150  0.67705685  0.39620106  1.0
  H  H89  1  0.82842842  0.60382175  0.28101206  1.0
  C  C90  1  0.73023505  0.08351568  0.52277944  1.0
  C  C91  1  0.56305938  0.11408849  0.51592372  1.0
  C  C92  1  0.55634151  0.07014291  0.42090199  1.0
  C  C93  1  0.63673729  0.88790868  0.29700771  1.0
  C  C94  1  0.49560311  0.84094139  0.26571501  1.0
  C  C95  1  0.68900324  0.99953293  0.33911095  1.0
  C  C96  1  0.64703186  0.43971872  0.91653868  1.0
  C  C97  1  0.44927522  0.40216966  0.88590572  1.0
  C  C98  1  0.48658006  0.35127599  0.93000304  1.0
  C  C99  1  0.74918079  0.40930246  0.11216587  1.0
  C  C100  1  0.65498888  0.42489500  0.15915754  1.0
  C  C101  1  0.68973823  0.33999583  0.00047671  1.0
  C  C102  1  0.20742985  0.47695511  0.56066714  1.0
  C  C103  1  0.04707085  0.48404857  0.59798725  1.0
  C  C104  1  0.13538338  0.57901500  0.64901134  1.0
  C  C105  1  0.33974781  0.70284328  0.59093941  1.0
  C  C106  1  0.23002571  0.73429185  0.57533936  1.0
  C  C107  1  0.34981881  0.66066253  0.66038345  1.0
  C  C108  1  0.29257449  0.43933520  0.52304739  1.0
  C  C109  1  0.45293567  0.40201670  0.51595667  1.0
  C  C110  1  0.36462425  0.35099402  0.42099050  1.0
  C  C111  1  0.16025097  0.40905737  0.29715518  1.0
  C  C112  1  0.26997539  0.42465481  0.26570542  1.0
  C  C113  1  0.15018745  0.33961970  0.33933899  1.0
  C  C114  1  0.76976615  0.47721749  0.91648106  1.0
  C  C115  1  0.93694026  0.48407660  0.88590816  1.0
  C  C116  1  0.94366086  0.57909600  0.92986033  1.0
  C  C117  1  0.86326268  0.70299146  0.11209321  1.0
  C  C118  1  0.00439545  0.73428717  0.15906413  1.0
  C  C119  1  0.81099811  0.66088848  0.00046935  1.0
  C  C120  1  0.85297005  0.08345919  0.56027725  1.0
  C  C121  1  0.05072422  0.11409099  0.59782878  1.0
  C  C122  1  0.01341990  0.06999297  0.64872035  1.0
  C  C123  1  0.75081861  0.88783280  0.59069532  1.0
  C  C124  1  0.84501080  0.84083932  0.57510444  1.0
  C  C125  1  0.81026049  0.99952022  0.65999960  1.0
  C  C126  1  0.26977089  0.91648471  0.47721845  1.0
  C  C127  1  0.43694214  0.88590821  0.48406812  1.0
  C  C128  1  0.44366713  0.92986118  0.57909171  1.0
  C  C129  1  0.36326718  0.11209393  0.70298957  1.0
  C  C130  1  0.50440113  0.15906417  0.73428342  1.0
  C  C131  1  0.31100723  0.00046968  0.66088559  1.0
  C  C132  1  0.35296268  0.56027946  0.08346176  1.0
  C  C133  1  0.55071452  0.59781891  0.11408683  1.0
  C  C134  1  0.51341570  0.64871776  0.06999211  1.0
  C  C135  1  0.25081828  0.59069793  0.88783570  1.0
  C  C136  1  0.34500983  0.57510465  0.84084428  1.0
  C  C137  1  0.31026330  0.66000604  0.99952530  1.0
  C  C138  1  0.79257033  0.52304750  0.43933616  1.0
  C  C139  1  0.95292492  0.51595034  0.40201125  1.0
  C  C140  1  0.86461362  0.42098466  0.35099079  1.0
  C  C141  1  0.66024599  0.29715342  0.40906153  1.0
  C  C142  1  0.76996784  0.26570263  0.42465692  1.0
  C  C143  1  0.65017818  0.33933713  0.33962116  1.0
  C  C144  1  0.70742607  0.56066815  0.47695628  1.0
  C  C145  1  0.54706611  0.59798738  0.48404939  1.0
  C  C146  1  0.63537642  0.64900785  0.57901507  1.0
  C  C147  1  0.83975068  0.59094302  0.70284439  1.0
  C  C148  1  0.73002797  0.57534558  0.73429571  1.0
  C  C149  1  0.84981579  0.66038217  0.66066148  1.0
  C  C150  1  0.23022987  0.52278364  0.08351963  1.0
  C  C151  1  0.06305465  0.51592231  0.11409390  1.0
  C  C152  1  0.05633662  0.42090292  0.07014158  1.0
  C  C153  1  0.13674007  0.29701115  0.88790995  1.0
  C  C154  1  0.99560633  0.26571692  0.84094007  1.0
  C  C155  1  0.18900330  0.33911487  0.99953448  1.0
  C  C156  1  0.14703625  0.91654194  0.43972349  1.0
  C  C157  1  0.94927681  0.88590645  0.40217010  1.0
  C  C158  1  0.98658199  0.93000447  0.35127683  1.0
  C  C159  1  0.24918046  0.11216760  0.40930377  1.0
  C  C160  1  0.15498557  0.15915738  0.42489389  1.0
  C  C161  1  0.18974079  0.00047944  0.33999898  1.0
  N  N162  1  0.67094519  0.12197657  0.57883381  1.0
  N  N163  1  0.66236904  0.05090423  0.42559849  1.0
  N  N164  1  0.54925088  0.45716634  0.87796440  1.0
  N  N165  1  0.61185649  0.37529475  0.94931148  1.0
  N  N166  1  0.09207049  0.42101128  0.54305829  1.0
  N  N167  1  0.23673211  0.57417741  0.62515630  1.0
  N  N168  1  0.40793403  0.45694302  0.57899094  1.0
  N  N169  1  0.26327407  0.37484782  0.42582678  1.0
  N  N170  1  0.82905431  0.42116153  0.87801670  1.0
  N  N171  1  0.83762972  0.57440062  0.94909867  1.0
  N  N172  1  0.95074962  0.12203277  0.54283223  1.0
  N  N173  1  0.88814253  0.05068441  0.62470063  1.0
  N  N174  1  0.32905841  0.87802087  0.42116182  1.0
  N  N175  1  0.33764303  0.94909986  0.57439956  1.0
  N  N176  1  0.45074219  0.54282888  0.12203148  1.0
  N  N177  1  0.38814185  0.62470416  0.05068750  1.0
  N  N178  1  0.90792539  0.57898616  0.45693962  1.0
  N  N179  1  0.76326697  0.42582298  0.37484713  1.0
  N  N180  1  0.59206664  0.54305885  0.42100905  1.0
  N  N181  1  0.73672623  0.62515331  0.57417595  1.0
  N  N182  1  0.17094146  0.57883739  0.12198303  1.0
  N  N183  1  0.16236753  0.42560126  0.05090317  1.0
  N  N184  1  0.04925546  0.87796763  0.45716798  1.0
  N  N185  1  0.11186095  0.94931451  0.37529868  1.0
  O  O186  1  0.42369375  0.87155285  0.22742434  1.0
  O  O187  1  0.45671782  0.76950621  0.28242552  1.0
  O  O188  1  0.55262288  0.35585288  0.12859836  1.0
  O  O189  1  0.68724948  0.51308939  0.23046068  1.0
  O  O190  1  0.19666324  0.77294972  0.64435643  1.0
  O  O191  1  0.17420962  0.71729556  0.48710545  1.0
  O  O192  1  0.30333328  0.35563674  0.22705104  1.0
  O  O193  1  0.32578872  0.51288970  0.28269960  1.0
  O  O194  1  0.07630856  0.77257801  0.12845682  1.0
  O  O195  1  0.04327814  0.71757708  0.23049955  1.0
  O  O196  1  0.94737828  0.87140066  0.64414781  1.0
  O  O197  1  0.81275085  0.76953534  0.48691240  1.0
  O  O198  1  0.74999417  0.33939626  0.66059553  1.0
  O  O199  1  0.41103191  0.32130396  0.66030843  1.0
  O  O200  1  0.08895750  0.33969709  0.67869567  1.0
  O  O201  1  0.57631342  0.12845346  0.77257246  1.0
  O  O202  1  0.54328372  0.23050083  0.71757550  1.0
  O  O203  1  0.44737668  0.64414678  0.87140239  1.0
  O  O204  1  0.31274923  0.48691026  0.76954238  1.0
  O  O205  1  0.80332394  0.22704403  0.35563651  1.0
  O  O206  1  0.82578540  0.28269670  0.51288896  1.0
  O  O207  1  0.69666959  0.64436439  0.77295030  1.0
  O  O208  1  0.67421330  0.48711143  0.71730158  1.0
  O  O209  1  0.92369444  0.22742682  0.87154977  1.0
  O  O210  1  0.95672461  0.28242553  0.76950423  1.0
  O  O211  1  0.05261784  0.12859382  0.35585081  1.0
  O  O212  1  0.18724589  0.23046210  0.51308568  1.0
  O  O213  1  0.25000134  0.66060044  0.33940264  1.0
  O  O214  1  0.58895947  0.67870161  0.33969320  1.0
  O  O215  1  0.91103828  0.66030700  0.32130617  1.0
