# generated using pymatgen
data_Cd3H50C64N4O19
_symmetry_space_group_name_H-M   'P 1'
_cell_length_a   16.59591154
_cell_length_b   18.07307738
_cell_length_c   18.07305024
_cell_angle_alpha   67.62344291
_cell_angle_beta   72.14497214
_cell_angle_gamma   72.14493351
_symmetry_Int_Tables_number   1
_chemical_formula_structural   Cd3H50C64N4O19
_chemical_formula_sum   'Cd6 H100 C128 N8 O38'
_cell_volume   4658.84916890
_cell_formula_units_Z   2
loop_
 _symmetry_equiv_pos_site_id
 _symmetry_equiv_pos_as_xyz
  1  'x, y, z'
loop_
 _atom_site_type_symbol
 _atom_site_label
 _atom_site_symmetry_multiplicity
 _atom_site_fract_x
 _atom_site_fract_y
 _atom_site_fract_z
 _atom_site_occupancy
  Cd  Cd0  1  0.49999980  0.49999822  0.99999889  1.0
  Cd  Cd1  1  0.00000569  0.00000308  0.49999792  1.0
  Cd  Cd2  1  0.55972372  0.64003610  0.81064099  1.0
  Cd  Cd3  1  0.94027395  0.18935756  0.35996445  1.0
  Cd  Cd4  1  0.44027528  0.35996517  0.18935663  1.0
  Cd  Cd5  1  0.05972152  0.81064246  0.64003794  1.0
  H  H6  1  0.84255833  0.89798758  0.10967564  1.0
  H  H7  1  0.65744185  0.89032529  0.10201266  1.0
  H  H8  1  0.15744256  0.10201367  0.89032368  1.0
  H  H9  1  0.34255981  0.10967534  0.89798724  1.0
  H  H10  1  0.81618797  0.85124611  0.05090736  1.0
  H  H11  1  0.68381016  0.94909458  0.14875412  1.0
  H  H12  1  0.18380975  0.14875512  0.94909450  1.0
  H  H13  1  0.31618792  0.05090790  0.85124552  1.0
  H  H14  1  0.92380935  0.63529847  0.15590093  1.0
  H  H15  1  0.57619036  0.84410216  0.36470168  1.0
  H  H16  1  0.07619231  0.36470215  0.84409952  1.0
  H  H17  1  0.42380850  0.15589970  0.63529853  1.0
  H  H18  1  0.81150565  0.68696844  0.16840459  1.0
  H  H19  1  0.68849401  0.83159513  0.31303149  1.0
  H  H20  1  0.18849489  0.31303159  0.83159529  1.0
  H  H21  1  0.31150541  0.16840429  0.68696781  1.0
  H  H22  1  0.97516155  0.79595327  0.00990624  1.0
  H  H23  1  0.52483734  0.99009419  0.20404741  1.0
  H  H24  1  0.02483913  0.20404614  0.99009328  1.0
  H  H25  1  0.47516229  0.00990705  0.79595226  1.0
  H  H26  1  0.99863512  0.83912536  0.07371324  1.0
  H  H27  1  0.50136323  0.92628829  0.16087515  1.0
  H  H28  1  0.00136169  0.16087712  0.92628619  1.0
  H  H29  1  0.49863563  0.07371357  0.83912451  1.0
  H  H30  1  0.84804466  0.73932378  0.26528827  1.0
  H  H31  1  0.65195386  0.73471290  0.26067780  1.0
  H  H32  1  0.15195370  0.26067747  0.73471175  1.0
  H  H33  1  0.34804640  0.26528835  0.73932114  1.0
  H  H34  1  0.96114755  0.69480829  0.23698002  1.0
  H  H35  1  0.53885096  0.76302135  0.30519146  1.0
  H  H36  1  0.03885143  0.30519295  0.76302039  1.0
  H  H37  1  0.46114881  0.23697929  0.69480729  1.0
  H  H38  1  0.78457937  0.58938083  0.15008830  1.0
  H  H39  1  0.71542231  0.84991110  0.41061800  1.0
  H  H40  1  0.21542003  0.41061858  0.84991267  1.0
  H  H41  1  0.28457929  0.15008710  0.58938005  1.0
  H  H42  1  0.68862624  0.54325666  0.10272214  1.0
  H  H43  1  0.81137571  0.89727727  0.45674276  1.0
  H  H44  1  0.31137316  0.45674274  0.89727884  1.0
  H  H45  1  0.18862561  0.10272214  0.54325658  1.0
  H  H46  1  0.77320700  0.69045552  0.85539944  1.0
  H  H47  1  0.72679298  0.14460011  0.30954568  1.0
  H  H48  1  0.22679318  0.30954327  0.14460099  1.0
  H  H49  1  0.27320516  0.85539930  0.69045509  1.0
  H  H50  1  0.86573063  0.74227403  0.90185153  1.0
  H  H51  1  0.63426923  0.09814865  0.25772657  1.0
  H  H52  1  0.13426829  0.25772477  0.09814925  1.0
  H  H53  1  0.36573109  0.90184954  0.74227405  1.0
  H  H54  1  0.09956473  0.82667088  0.94457204  1.0
  H  H55  1  0.40043410  0.05542864  0.17333054  1.0
  H  H56  1  0.90043539  0.17333098  0.05542837  1.0
  H  H57  1  0.59956552  0.94457260  0.82667025  1.0
  H  H58  1  0.24848516  0.81084198  0.85910842  1.0
  H  H59  1  0.25151364  0.14089178  0.18915891  1.0
  H  H60  1  0.75151398  0.18915866  0.14089162  1.0
  H  H61  1  0.74848648  0.85911008  0.81084040  1.0
  H  H62  1  0.33047443  0.58886397  0.04653221  1.0
  H  H63  1  0.16952519  0.95346864  0.41113590  1.0
  H  H64  1  0.66952498  0.41113545  0.95346709  1.0
  H  H65  1  0.83047430  0.04653322  0.58886358  1.0
  H  H66  1  0.18082664  0.60111761  0.13008931  1.0
  H  H67  1  0.31917142  0.86991140  0.39888362  1.0
  H  H68  1  0.81917221  0.39888425  0.86991090  1.0
  H  H69  1  0.68082744  0.13009046  0.60111604  1.0
  H  H70  1  0.99722647  0.92661109  0.22791719  1.0
  H  H71  1  0.50277324  0.77208216  0.07338917  1.0
  H  H72  1  0.00277407  0.07338894  0.77208213  1.0
  H  H73  1  0.49722554  0.22791725  0.92661086  1.0
  H  H74  1  0.04396222  0.92445577  0.34795003  1.0
  H  H75  1  0.45603804  0.65204956  0.07554434  1.0
  H  H76  1  0.95603923  0.07554303  0.65204950  1.0
  H  H77  1  0.54396101  0.34794863  0.92445608  1.0
  H  H78  1  0.96182863  0.69821403  0.49001011  1.0
  H  H79  1  0.53817244  0.50999024  0.30178651  1.0
  H  H80  1  0.03817219  0.30178478  0.50998904  1.0
  H  H81  1  0.46182774  0.49000856  0.69821392  1.0
  H  H82  1  0.91626126  0.69849741  0.37106261  1.0
  H  H83  1  0.58373877  0.62893822  0.30150228  1.0
  H  H84  1  0.08373725  0.30150323  0.62893649  1.0
  H  H85  1  0.41626114  0.37106181  0.69849722  1.0
  H  H86  1  0.48259788  0.79815340  0.67180882  1.0
  H  H87  1  0.01740597  0.32819090  0.20184693  1.0
  H  H88  1  0.51740617  0.20184783  0.32819240  1.0
  H  H89  1  0.98259484  0.67180789  0.79815444  1.0
  H  H90  1  0.70598111  0.89881261  0.59474593  1.0
  H  H91  1  0.79402097  0.40525336  0.10118675  1.0
  H  H92  1  0.29402568  0.10118496  0.40525258  1.0
  H  H93  1  0.20597703  0.59474665  0.89881494  1.0
  H  H94  1  0.73025712  0.75008538  0.71911780  1.0
  H  H95  1  0.76974281  0.28088272  0.24991389  1.0
  H  H96  1  0.26974573  0.24991279  0.28088379  1.0
  H  H97  1  0.23025561  0.71911547  0.75008726  1.0
  H  H98  1  0.47983678  0.85955726  0.53244412  1.0
  H  H99  1  0.02016263  0.46755608  0.14044263  1.0
  H  H100  1  0.52016509  0.14043969  0.46755709  1.0
  H  H101  1  0.97983677  0.53244332  0.85955946  1.0
  H  H102  1  0.59575894  0.02383771  0.56772440  1.0
  H  H103  1  0.90424212  0.43227675  0.97616112  1.0
  H  H104  1  0.40424391  0.97616046  0.43227663  1.0
  H  H105  1  0.09575679  0.56772204  0.02384133  1.0
  C  C106  1  0.89936079  0.76728563  0.13409901  1.0
  C  C107  1  0.60063823  0.86590271  0.23271437  1.0
  C  C108  1  0.10063771  0.23271501  0.86590120  1.0
  C  C109  1  0.39936140  0.13409854  0.76728474  1.0
  C  C110  1  0.82599191  0.84237404  0.11177805  1.0
  C  C111  1  0.67400720  0.88822342  0.15762659  1.0
  C  C112  1  0.17400820  0.15762782  0.88822237  1.0
  C  C113  1  0.32599278  0.11177904  0.84237363  1.0
  C  C114  1  0.87723095  0.69172328  0.13159425  1.0
  C  C115  1  0.62276885  0.86840654  0.30827692  1.0
  C  C116  1  0.12276910  0.30827614  0.86840544  1.0
  C  C117  1  0.37723042  0.13159348  0.69172386  1.0
  C  C118  1  0.98297880  0.78500895  0.07173879  1.0
  C  C119  1  0.51702049  0.92826200  0.21499157  1.0
  C  C120  1  0.01701969  0.21499169  0.92826142  1.0
  C  C121  1  0.48297913  0.07173924  0.78500866  1.0
  C  C122  1  0.90943217  0.74960772  0.22111473  1.0
  C  C123  1  0.59056785  0.77888572  0.25039346  1.0
  C  C124  1  0.09056682  0.25039353  0.77888567  1.0
  C  C125  1  0.40943269  0.22111430  0.74960587  1.0
  C  C126  1  0.83030579  0.66992089  0.02871990  1.0
  C  C127  1  0.66969606  0.97128047  0.33007743  1.0
  C  C128  1  0.16969530  0.33007668  0.97128129  1.0
  C  C129  1  0.33030462  0.02871895  0.66992097  1.0
  C  C130  1  0.78201463  0.61259900  0.08553741  1.0
  C  C131  1  0.71798715  0.91446218  0.38739991  1.0
  C  C132  1  0.21798604  0.38740041  0.91446322  1.0
  C  C133  1  0.28201304  0.08553663  0.61259886  1.0
  C  C134  1  0.72911621  0.58543958  0.05884919  1.0
  C  C135  1  0.77088184  0.94115114  0.41456292  1.0
  C  C136  1  0.27088074  0.41456228  0.94115211  1.0
  C  C137  1  0.22911694  0.05884828  0.58543767  1.0
  C  C138  1  0.72541320  0.61298692  0.97616735  1.0
  C  C139  1  0.77458765  0.02383053  0.38701278  1.0
  C  C140  1  0.27458586  0.38701128  0.02383251  1.0
  C  C141  1  0.22541127  0.97616827  0.61298856  1.0
  C  C142  1  0.77622205  0.66876815  0.91976584  1.0
  C  C143  1  0.72377783  0.08023437  0.33123291  1.0
  C  C144  1  0.22377701  0.33123003  0.08023569  1.0
  C  C145  1  0.27622017  0.91976565  0.66876822  1.0
  C  C146  1  0.82799612  0.69743770  0.94534603  1.0
  C  C147  1  0.67200433  0.05465476  0.30256206  1.0
  C  C148  1  0.17200357  0.30256048  0.05465588  1.0
  C  C149  1  0.32799572  0.94534466  0.69743762  1.0
  C  C150  1  0.66513263  0.58798161  0.94757287  1.0
  C  C151  1  0.83486653  0.05242576  0.41201862  1.0
  C  C152  1  0.33486453  0.41201658  0.05242808  1.0
  C  C153  1  0.16513133  0.94757487  0.58798344  1.0
  C  C154  1  0.13079970  0.71375491  0.04259803  1.0
  C  C155  1  0.36919919  0.95740212  0.28624585  1.0
  C  C156  1  0.86920013  0.28624817  0.95740201  1.0
  C  C157  1  0.63080092  0.04259974  0.71375346  1.0
  C  C158  1  0.14951239  0.77397840  0.96678964  1.0
  C  C159  1  0.35048600  0.03321036  0.22602295  1.0
  C  C160  1  0.85048710  0.22602347  0.03320873  1.0
  C  C161  1  0.64951398  0.96679211  0.77397727  1.0
  C  C162  1  0.23338044  0.76535823  0.91885640  1.0
  C  C163  1  0.26661784  0.08114369  0.23464234  1.0
  C  C164  1  0.76662010  0.23464179  0.08114292  1.0
  C  C165  1  0.73338101  0.91885817  0.76535732  1.0
  C  C166  1  0.29946161  0.69885770  0.94615015  1.0
  C  C167  1  0.20053698  0.05384966  0.30114342  1.0
  C  C168  1  0.70053703  0.30114233  0.05384914  1.0
  C  C169  1  0.79946327  0.94615158  0.69885719  1.0
  C  C170  1  0.28001834  0.64014800  0.02320630  1.0
  C  C171  1  0.21998094  0.97679304  0.35985349  1.0
  C  C172  1  0.71998016  0.35985265  0.97679280  1.0
  C  C173  1  0.78001946  0.02320760  0.64014564  1.0
  C  C174  1  0.19637590  0.64671397  0.07052150  1.0
  C  C175  1  0.30362338  0.92947854  0.35328793  1.0
  C  C176  1  0.80362309  0.35328728  0.92947835  1.0
  C  C177  1  0.69637687  0.07052271  0.64671157  1.0
  C  C178  1  0.38819673  0.69048125  0.89344887  1.0
  C  C179  1  0.11180243  0.10655164  0.30951781  1.0
  C  C180  1  0.61180169  0.30951694  0.10655117  1.0
  C  C181  1  0.88819642  0.89345022  0.69048240  1.0
  C  C182  1  0.95468603  0.81295151  0.29178390  1.0
  C  C183  1  0.54531426  0.70821737  0.18704773  1.0
  C  C184  1  0.04531324  0.18704852  0.70821577  1.0
  C  C185  1  0.45468501  0.29178266  0.81295139  1.0
  C  C186  1  0.99017895  0.87679546  0.28568730  1.0
  C  C187  1  0.50982091  0.71431247  0.12320458  1.0
  C  C188  1  0.00982173  0.12320396  0.71431166  1.0
  C  C189  1  0.49017801  0.28568633  0.87679565  1.0
  C  C190  1  0.01601687  0.87531763  0.35230538  1.0
  C  C191  1  0.48398298  0.64769462  0.12468225  1.0
  C  C192  1  0.98398459  0.12468118  0.64769359  1.0
  C  C193  1  0.51601657  0.35230418  0.87531835  1.0
  C  C194  1  0.00620847  0.81060614  0.42639191  1.0
  C  C195  1  0.49379201  0.57360807  0.18939343  1.0
  C  C196  1  0.99379312  0.18939205  0.57360725  1.0
  C  C197  1  0.50620818  0.42639073  0.81060589  1.0
  C  C198  1  0.96982227  0.74772972  0.43210540  1.0
  C  C199  1  0.53017897  0.56789423  0.25226977  1.0
  C  C200  1  0.03017919  0.25226909  0.56789245  1.0
  C  C201  1  0.46982122  0.43210457  0.74772955  1.0
  C  C202  1  0.94417314  0.74813695  0.36536249  1.0
  C  C203  1  0.55582738  0.63463784  0.25186283  1.0
  C  C204  1  0.05582677  0.25186308  0.63463645  1.0
  C  C205  1  0.44417252  0.36536219  0.74813667  1.0
  C  C206  1  0.03259499  0.80980264  0.49792290  1.0
  C  C207  1  0.46740595  0.50207657  0.19019832  1.0
  C  C208  1  0.96740533  0.19019555  0.50207717  1.0
  C  C209  1  0.53259500  0.49792162  0.80980213  1.0
  C  C210  1  0.54788006  0.80285921  0.66626830  1.0
  C  C211  1  0.95212173  0.33373114  0.19713972  1.0
  C  C212  1  0.45212454  0.19713957  0.33373257  1.0
  C  C213  1  0.04787690  0.66626889  0.80286068  1.0
  C  C214  1  0.66444912  0.85540660  0.62886755  1.0
  C  C215  1  0.83555259  0.37113161  0.14459095  1.0
  C  C216  1  0.33555606  0.14458975  0.37113131  1.0
  C  C217  1  0.16444681  0.62886780  0.85541058  1.0
  C  C218  1  0.67557645  0.78167488  0.68996273  1.0
  C  C219  1  0.82442368  0.31003698  0.21832683  1.0
  C  C220  1  0.32442634  0.21832636  0.31003774  1.0
  C  C221  1  0.17557587  0.68996182  0.78167433  1.0
  C  C222  1  0.54208286  0.93496429  0.55579915  1.0
  C  C223  1  0.95791947  0.44420025  0.06503509  1.0
  C  C224  1  0.45792352  0.06503512  0.44419823  1.0
  C  C225  1  0.04207902  0.55580037  0.93496679  1.0
  C  C226  1  0.48773149  0.92140356  0.51865058  1.0
  C  C227  1  0.01227012  0.48134899  0.07859685  1.0
  C  C228  1  0.51227453  0.07859462  0.48134846  1.0
  C  C229  1  0.98772774  0.51865163  0.92140576  1.0
  C  C230  1  0.55473186  0.01344125  0.53733187  1.0
  C  C231  1  0.94526877  0.46266845  0.98655911  1.0
  C  C232  1  0.44527247  0.98655876  0.46266751  1.0
  C  C233  1  0.05472825  0.53733034  0.01344275  1.0
  N  N234  1  0.60245484  0.74994435  0.71246532  1.0
  N  N235  1  0.89754890  0.28753428  0.25005343  1.0
  N  N236  1  0.39754885  0.25005565  0.28753590  1.0
  N  N237  1  0.10245241  0.71246513  0.74994590  1.0
  N  N238  1  0.58321861  0.86784968  0.61403000  1.0
  N  N239  1  0.91678438  0.38596832  0.13214980  1.0
  N  N240  1  0.41678804  0.13214850  0.38596887  1.0
  N  N241  1  0.08321502  0.61403108  0.86785284  1.0
  O  O242  1  0.74999958  0.82699266  0.17300886  1.0
  O  O243  1  0.25000074  0.17301101  0.82699359  1.0
  O  O244  1  0.88140858  0.70374063  0.04775009  1.0
  O  O245  1  0.61859299  0.95225028  0.29625772  1.0
  O  O246  1  0.11859146  0.29625879  0.95225016  1.0
  O  O247  1  0.38140832  0.04774915  0.70374051  1.0
  O  O248  1  0.05065256  0.71466279  0.09351186  1.0
  O  O249  1  0.44934605  0.90648947  0.28533823  1.0
  O  O250  1  0.94934804  0.28533966  0.90648986  1.0
  O  O251  1  0.55065280  0.09351238  0.71466254  1.0
  O  O252  1  0.93213188  0.81913075  0.22265868  1.0
  O  O253  1  0.56786918  0.77734115  0.18086917  1.0
  O  O254  1  0.06786775  0.18087051  0.77734043  1.0
  O  O255  1  0.43213073  0.22265889  0.81912977  1.0
  O  O256  1  0.66723166  0.61791718  0.87070709  1.0
  O  O257  1  0.83276722  0.12929163  0.38208271  1.0
  O  O258  1  0.33276599  0.38208162  0.12929348  1.0
  O  O259  1  0.16722847  0.87071022  0.61791894  1.0
  O  O260  1  0.61692301  0.54065021  0.00116952  1.0
  O  O261  1  0.88307731  0.99882982  0.45934760  1.0
  O  O262  1  0.38307351  0.45934798  0.99883160  1.0
  O  O263  1  0.11692231  0.00117143  0.54065263  1.0
  O  O264  1  0.40259565  0.73380514  0.81923147  1.0
  O  O265  1  0.09740315  0.18076820  0.26619485  1.0
  O  O266  1  0.59740503  0.26619427  0.18076860  1.0
  O  O267  1  0.90259585  0.81923306  0.73380333  1.0
  O  O268  1  0.45080039  0.63686001  0.92670031  1.0
  O  O269  1  0.04919886  0.07329776  0.36313733  1.0
  O  O270  1  0.54919748  0.36313514  0.07329825  1.0
  O  O271  1  0.95080013  0.92670350  0.63686196  1.0
  O  O272  1  0.06494068  0.86921667  0.49117429  1.0
  O  O273  1  0.43506032  0.50882446  0.13078441  1.0
  O  O274  1  0.93505965  0.13078153  0.50882522  1.0
  O  O275  1  0.56494205  0.49117312  0.86921476  1.0
  O  O276  1  0.02366246  0.75093266  0.56495405  1.0
  O  O277  1  0.47633945  0.43504641  0.24906778  1.0
  O  O278  1  0.97633850  0.24906553  0.43504585  1.0
  O  O279  1  0.52366150  0.56495178  0.75093267  1.0
