# generated using pymatgen
data_Cu3H12C21N7O3
_symmetry_space_group_name_H-M   'P 1'
_cell_length_a   19.63305308
_cell_length_b   26.74677244
_cell_length_c   26.82238582
_cell_angle_alpha   98.44582660
_cell_angle_beta   101.55468130
_cell_angle_gamma   105.66065365
_symmetry_Int_Tables_number   1
_chemical_formula_structural   Cu3H12C21N7O3
_chemical_formula_sum   'Cu12 H48 C84 N28 O12'
_cell_volume   12982.33394153
_cell_formula_units_Z   4
loop_
 _symmetry_equiv_pos_site_id
 _symmetry_equiv_pos_as_xyz
  1  'x, y, z'
loop_
 _atom_site_type_symbol
 _atom_site_label
 _atom_site_symmetry_multiplicity
 _atom_site_fract_x
 _atom_site_fract_y
 _atom_site_fract_z
 _atom_site_occupancy
  Cu  Cu0  1  0.64835159  0.54526295  0.41472571  1.0
  Cu  Cu1  1  0.63527410  0.65170837  0.38668158  1.0
  Cu  Cu2  1  0.58060153  0.54974485  0.29725159  1.0
  Cu  Cu3  1  0.15496733  0.40101325  0.08048648  1.0
  Cu  Cu4  1  0.07612650  0.30502141  0.12732647  1.0
  Cu  Cu5  1  0.06156593  0.41478635  0.16610648  1.0
  Cu  Cu6  1  0.74347277  0.09482641  0.56360953  1.0
  Cu  Cu7  1  0.89250361  0.18960604  0.60046549  1.0
  Cu  Cu8  1  0.85492653  0.09695784  0.66492875  1.0
  Cu  Cu9  1  0.40827468  0.96704404  0.95404749  1.0
  Cu  Cu10  1  0.50849569  0.89186064  0.94296030  1.0
  Cu  Cu11  1  0.48422173  0.96237190  0.86085560  1.0
  H  H12  1  0.65227362  0.56922993  0.53662460  1.0
  H  H13  1  0.65945201  0.72220874  0.49835556  1.0
  H  H14  1  0.59816793  0.44505452  0.23692121  1.0
  H  H15  1  0.70048364  0.44327081  0.39534650  1.0
  H  H16  1  0.60994489  0.73811529  0.32257122  1.0
  H  H17  1  0.48747393  0.59307847  0.20802491  1.0
  H  H18  1  0.20599121  0.33628856  0.99070863  1.0
  H  H19  1  0.10695866  0.21042376  0.06308862  1.0
  H  H20  1  0.10447303  0.53714433  0.19647217  1.0
  H  H21  1  0.23676947  0.52358718  0.08681487  1.0
  H  H22  1  0.99053703  0.23561055  0.19521027  1.0
  H  H23  1  0.95269197  0.38607638  0.24144389  1.0
  H  H24  1  0.66171126  0.13001326  0.46855518  1.0
  H  H25  1  0.87108757  0.25304749  0.50783763  1.0
  H  H26  1  0.78384214  0.98200606  0.68675213  1.0
  H  H27  1  0.63233946  0.97831124  0.54332810  1.0
  H  H28  1  0.05054960  0.25782389  0.66985763  1.0
  H  H29  1  0.99480251  0.13654792  0.75866820  1.0
  H  H30  1  0.32280497  0.91694757  0.03177910  1.0
  H  H31  1  0.46318592  0.81773358  0.02056380  1.0
  H  H32  1  0.43435549  0.04650572  0.80449459  1.0
  H  H33  1  0.33949282  0.06127566  0.93652439  1.0
  H  H34  1  0.62029514  0.83949046  0.90190156  1.0
  H  H35  1  0.56284012  0.91946448  0.77800423  1.0
  H  H36  1  0.16249887  0.14337703  0.00521521  1.0
  H  H37  1  0.20510823  0.10814870  0.91872748  1.0
  H  H38  1  0.62619132  0.61287716  0.63565919  1.0
  H  H39  1  0.62324865  0.69419744  0.70978500  1.0
  H  H40  1  0.23475103  0.83579330  0.07010271  1.0
  H  H41  1  0.21979094  0.76157370  0.13099447  1.0
  H  H42  1  0.60734377  0.19484457  0.40870960  1.0
  H  H43  1  0.61739478  0.24276955  0.32531070  1.0
  H  H44  1  0.36031290  0.11151750  0.76317159  1.0
  H  H45  1  0.28284893  0.18274118  0.76485878  1.0
  H  H46  1  0.64193132  0.35700575  0.20328510  1.0
  H  H47  1  0.70712767  0.27926702  0.21553581  1.0
  H  H48  1  0.56069693  0.87118703  0.54155253  1.0
  H  H49  1  0.54049784  0.77815029  0.57651928  1.0
  H  H50  1  0.17828580  0.64115517  0.22873609  1.0
  H  H51  1  0.27413007  0.73681314  0.22730710  1.0
  H  H52  1  0.18103623  0.30855765  0.75654150  1.0
  H  H53  1  0.28977461  0.30232764  0.83567953  1.0
  H  H54  1  0.59586311  0.78657347  0.22773760  1.0
  H  H55  1  0.48623352  0.81352982  0.16764455  1.0
  H  H56  1  0.91993319  0.19769342  0.26890158  1.0
  H  H57  1  0.81256003  0.19059317  0.32152249  1.0
  H  H58  1  0.73981379  0.82995739  0.85175357  1.0
  H  H59  1  0.76844130  0.78856998  0.76094074  1.0
  C  C60  1  0.65391214  0.60318771  0.51867624  1.0
  C  C61  1  0.65561130  0.65479340  0.54029985  1.0
  C  C62  1  0.65794581  0.68146918  0.49896469  1.0
  C  C63  1  0.61965640  0.45195151  0.27872134  1.0
  C  C64  1  0.65811971  0.42417133  0.30796698  1.0
  C  C65  1  0.67199796  0.45114866  0.35977449  1.0
  C  C66  1  0.58584028  0.69769123  0.29996054  1.0
  C  C67  1  0.53703291  0.67898422  0.25039205  1.0
  C  C68  1  0.52242557  0.62353654  0.24151025  1.0
  C  C69  1  0.17911049  0.31177337  0.01425386  1.0
  C  C70  1  0.16479240  0.25690326  0.01175219  1.0
  C  C71  1  0.12879883  0.24737017  0.05132936  1.0
  C  C72  1  0.13151551  0.52461287  0.16763164  1.0
  C  C73  1  0.18473536  0.55520244  0.14698040  1.0
  C  C74  1  0.19908065  0.51758738  0.11152808  1.0
  C  C75  1  0.98903381  0.27625484  0.20150468  1.0
  C  C76  1  0.95268224  0.30083606  0.23277733  1.0
  C  C77  1  0.96933083  0.35317481  0.22492392  1.0
  C  C78  1  0.71671053  0.15678482  0.48566168  1.0
  C  C79  1  0.75536173  0.20112075  0.46931714  1.0
  C  C80  1  0.82400054  0.21945985  0.50544746  1.0
  C  C81  1  0.75332880  0.99001108  0.65203287  1.0
  C  C82  1  0.69117524  0.95630052  0.61411106  1.0
  C  C83  1  0.67567564  0.98803959  0.57869698  1.0
  C  C84  1  0.02538119  0.22454329  0.68574494  1.0
  C  C85  1  0.05291016  0.20759635  0.73052696  1.0
  C  C86  1  0.99678229  0.16221877  0.73087347  1.0
  C  C87  1  0.36266162  0.89776612  0.02358170  1.0
  C  C88  1  0.37726995  0.85323356  0.03977979  1.0
  C  C89  1  0.43482232  0.84727338  0.01809652  1.0
  C  C90  1  0.41569953  0.04359449  0.83969490  1.0
  C  C91  1  0.37381802  0.07108944  0.86218761  1.0
  C  C92  1  0.36737359  0.05120199  0.90729308  1.0
  C  C93  1  0.60015902  0.86345950  0.87683187  1.0
  C  C94  1  0.60999194  0.86959908  0.82738542  1.0
  C  C95  1  0.57000864  0.90387231  0.81315038  1.0
  C  C96  1  0.18236663  0.21807998  0.97778072  1.0
  C  C97  1  0.17911203  0.16598625  0.97686539  1.0
  C  C98  1  0.20147541  0.14734818  0.93200128  1.0
  C  C99  1  0.21799498  0.18966420  0.90849389  1.0
  C  C100  1  0.65200341  0.67566447  0.59186053  1.0
  C  C101  1  0.63658515  0.65433517  0.63340274  1.0
  C  C102  1  0.63425224  0.69635509  0.67204102  1.0
  C  C103  1  0.64949857  0.74113926  0.65180242  1.0
  C  C104  1  0.33879669  0.82047601  0.06959727  1.0
  C  C105  1  0.27316788  0.81472179  0.08222805  1.0
  C  C106  1  0.26475645  0.77585659  0.11374408  1.0
  C  C107  1  0.32584602  0.75965287  0.11785597  1.0
  C  C108  1  0.72692301  0.22119409  0.42535193  1.0
  C  C109  1  0.65680640  0.21506191  0.39850126  1.0
  C  C110  1  0.66156946  0.24007440  0.35528277  1.0
  C  C111  1  0.73465406  0.26078650  0.35892555  1.0
  C  C112  1  0.34351521  0.10906867  0.84124125  1.0
  C  C113  1  0.33839852  0.12520264  0.79477479  1.0
  C  C114  1  0.29781712  0.16219927  0.79519031  1.0
  C  C115  1  0.28105010  0.16668171  0.84258899  1.0
  C  C116  1  0.67954486  0.37925092  0.28863529  1.0
  C  C117  1  0.67021427  0.35026572  0.23957271  1.0
  C  C118  1  0.70389073  0.30970870  0.24567243  1.0
  C  C119  1  0.73246436  0.31675833  0.29805622  1.0
  C  C120  1  0.65334599  0.90134953  0.61075416  1.0
  C  C121  1  0.59355779  0.86433258  0.57598086  1.0
  C  C122  1  0.58260643  0.81580647  0.59399124  1.0
  C  C123  1  0.63718228  0.82596964  0.63835439  1.0
  C  C124  1  0.21815848  0.61186019  0.16277636  1.0
  C  C125  1  0.21290880  0.64895407  0.20211359  1.0
  C  C126  1  0.26260942  0.69862049  0.20157057  1.0
  C  C127  1  0.29470072  0.68917873  0.16192593  1.0
  C  C128  1  0.12346630  0.22957264  0.76696014  1.0
  C  C129  1  0.18023985  0.27605622  0.77652931  1.0
  C  C130  1  0.23671238  0.27314644  0.81780199  1.0
  C  C131  1  0.21140638  0.22539668  0.83095894  1.0
  C  C132  1  0.50954599  0.71191359  0.21868193  1.0
  C  C133  1  0.53921702  0.76233670  0.21204079  1.0
  C  C134  1  0.48236395  0.77668285  0.18068725  1.0
  C  C135  1  0.42109315  0.73349810  0.16999886  1.0
  C  C136  1  0.90752237  0.27602816  0.26393453  1.0
  C  C137  1  0.89355627  0.22751862  0.27774992  1.0
  C  C138  1  0.83748027  0.22345080  0.30509559  1.0
  C  C139  1  0.82145142  0.27036581  0.30680251  1.0
  C  C140  1  0.65086747  0.84491936  0.79832739  1.0
  C  C141  1  0.70987046  0.82700151  0.81222447  1.0
  C  C142  1  0.72547179  0.80592430  0.76524774  1.0
  C  C143  1  0.67420925  0.81149455  0.72541295  1.0
  N  N144  1  0.65716009  0.64794762  0.45588973  1.0
  N  N145  1  0.65466840  0.59952211  0.46809281  1.0
  N  N146  1  0.64385914  0.49196686  0.36103327  1.0
  N  N147  1  0.61145592  0.49250368  0.31080504  1.0
  N  N148  1  0.56012030  0.61050783  0.28290578  1.0
  N  N149  1  0.59946404  0.65658955  0.31911976  1.0
  N  N150  1  0.12251603  0.29312745  0.07556353  1.0
  N  N151  1  0.15350332  0.33310371  0.05263465  1.0
  N  N152  1  0.15757914  0.46822044  0.11150738  1.0
  N  N153  1  0.11578374  0.47274031  0.14632211  1.0
  N  N154  1  0.01242165  0.35896743  0.19136468  1.0
  N  N155  1  0.02464297  0.31141073  0.17702774  1.0
  N  N156  1  0.82558482  0.18820106  0.54067250  1.0
  N  N157  1  0.75903612  0.14945164  0.52835374  1.0
  N  N158  1  0.72525756  0.03687727  0.59436397  1.0
  N  N159  1  0.77327202  0.03812049  0.63973700  1.0
  N  N160  1  0.94016499  0.15296017  0.68927774  1.0
  N  N161  1  0.95783399  0.19148712  0.66124286  1.0
  N  N162  1  0.45256643  0.88530704  0.99071966  1.0
  N  N163  1  0.40773818  0.91649221  0.99407446  1.0
  N  N164  1  0.40271080  0.01441185  0.91100444  1.0
  N  N165  1  0.43243948  0.00976466  0.86910588  1.0
  N  N166  1  0.53888645  0.91711235  0.85152942  1.0
  N  N167  1  0.55746136  0.89203945  0.89094064  1.0
  N  N168  1  0.24347598  0.19796287  0.86446427  1.0
  N  N169  1  0.65770420  0.79418918  0.67155704  1.0
  N  N170  1  0.34776060  0.72244599  0.14328267  1.0
  N  N171  1  0.77158493  0.28988865  0.32775778  1.0
  O  O172  1  0.20741566  0.23334919  0.93577307  1.0
  O  O173  1  0.66123374  0.72986371  0.60349777  1.0
  O  O174  1  0.37158449  0.78576640  0.09116211  1.0
  O  O175  1  0.77593831  0.25052815  0.40160447  1.0
  O  O176  1  0.30786300  0.13506104  0.87140722  1.0
  O  O177  1  0.71885906  0.35920132  0.32510543  1.0
  O  O178  1  0.68133658  0.87770866  0.64929897  1.0
  O  O179  1  0.26795457  0.63618843  0.13739404  1.0
  O  O180  1  0.14201220  0.19796402  0.80011154  1.0
  O  O181  1  0.43599269  0.69329794  0.19170493  1.0
  O  O182  1  0.86386648  0.30340271  0.28288623  1.0
  O  O183  1  0.62786876  0.83503786  0.74449773  1.0
