# generated using pymatgen
data_AlH15C21(N2O3)2
_symmetry_space_group_name_H-M   'P 1'
_cell_length_a   4.11387435
_cell_length_b   23.36968084
_cell_length_c   23.36949606
_cell_angle_alpha   59.99935328
_cell_angle_beta   89.99929249
_cell_angle_gamma   89.99951472
_symmetry_Int_Tables_number   1
_chemical_formula_structural   AlH15C21(N2O3)2
_chemical_formula_sum   'Al3 H45 C63 N12 O18'
_cell_volume   1945.72273298
_cell_formula_units_Z   3
loop_
 _symmetry_equiv_pos_site_id
 _symmetry_equiv_pos_as_xyz
  1  'x, y, z'
loop_
 _atom_site_type_symbol
 _atom_site_label
 _atom_site_symmetry_multiplicity
 _atom_site_fract_x
 _atom_site_fract_y
 _atom_site_fract_z
 _atom_site_occupancy
  Al  Al0  1  0.00114135  0.50016443  0.50017406  1.0
  Al  Al1  1  0.00117766  0.83351551  0.83298072  1.0
  Al  Al2  1  0.00121348  0.16633594  0.16684533  1.0
  H  H3  1  0.80410504  0.08151120  0.05105964  1.0
  H  H4  1  0.80336007  0.07876043  0.94675562  1.0
  H  H5  1  0.20605106  0.25308868  0.85714847  1.0
  H  H6  1  0.20607203  0.05642952  0.91977535  1.0
  H  H7  1  0.80404044  0.03412501  0.74816908  1.0
  H  H8  1  0.80332333  0.14117132  0.74543236  1.0
  H  H9  1  0.20597848  0.19047125  0.72312113  1.0
  H  H10  1  0.80405903  0.38437976  0.70078418  1.0
  H  H11  1  0.80334798  0.28007142  0.80784024  1.0
  H  H12  1  0.19398203  0.63289320  0.94911807  1.0
  H  H13  1  0.19507965  0.52578580  0.05335279  1.0
  H  H14  1  0.79298532  0.61029956  0.14306905  1.0
  H  H15  1  0.79298100  0.47642167  0.07996621  1.0
  H  H16  1  0.19405029  0.28246217  0.25134148  1.0
  H  H17  1  0.19514400  0.38669561  0.25421339  1.0
  H  H18  1  0.79301693  0.41331961  0.27694500  1.0
  H  H19  1  0.19395632  0.58466645  0.29954861  1.0
  H  H20  1  0.19505386  0.58754594  0.19243605  1.0
  H  H21  1  0.19349528  0.91779114  0.63297469  1.0
  H  H22  1  0.19526858  0.92079080  0.52578010  1.0
  H  H23  1  0.79333374  0.74657448  0.61032808  1.0
  H  H24  1  0.79335318  0.94365009  0.47642941  1.0
  H  H25  1  0.19354772  0.96631829  0.28255353  1.0
  H  H26  1  0.19529923  0.85912180  0.38674477  1.0
  H  H27  1  0.79338289  0.80974957  0.41324603  1.0
  H  H28  1  0.19342153  0.61589287  0.58444737  1.0
  H  H29  1  0.19520558  0.72008230  0.58744923  1.0
  H  H30  1  0.03353211  0.24966485  0.00723074  1.0
  H  H31  1  0.99427798  0.29068119  0.92532581  1.0
  H  H32  1  0.03349768  0.90978551  0.91632410  1.0
  H  H33  1  0.99425140  0.95066092  0.95735401  1.0
  H  H34  1  0.03346869  0.34055029  0.57645873  1.0
  H  H35  1  0.99421319  0.25864572  0.61735077  1.0
  H  H36  1  0.96468167  0.75712454  0.99297231  1.0
  H  H37  1  0.00484006  0.71619202  0.07486192  1.0
  H  H38  1  0.96472768  0.32632664  0.08323626  1.0
  H  H39  1  0.00484125  0.40821891  0.04227553  1.0
  H  H40  1  0.96469659  0.41657671  0.42377714  1.0
  H  H41  1  0.00486900  0.37562656  0.38283765  1.0
  H  H42  1  0.96028062  0.74915263  0.75783519  1.0
  H  H43  1  0.00613868  0.70921590  0.71601222  1.0
  H  H44  1  0.96032259  0.09116522  0.32635367  1.0
  H  H45  1  0.00616422  0.04933115  0.40811482  1.0
  H  H46  1  0.96029959  0.65967440  0.41581396  1.0
  H  H47  1  0.00618142  0.74143293  0.37588837  1.0
  C  C48  1  0.50240397  0.58861378  0.49936600  1.0
  C  C49  1  0.49826688  0.41166045  0.58825008  1.0
  C  C50  1  0.50286030  0.49944074  0.41201421  1.0
  C  C51  1  0.49829573  0.92158336  0.83342178  1.0
  C  C52  1  0.50244545  0.83270576  0.74533849  1.0
  C  C53  1  0.50289348  0.74535529  0.92186835  1.0
  C  C54  1  0.49835134  0.16677334  0.07833742  1.0
  C  C55  1  0.50247960  0.07868426  0.25529270  1.0
  C  C56  1  0.50292092  0.25522095  0.16611336  1.0
  C  C57  1  0.66566680  0.11831143  0.00879998  1.0
  C  C58  1  0.67018045  0.11712657  0.94995874  1.0
  C  C59  1  0.50740036  0.16649549  0.89420246  1.0
  C  C60  1  0.33746430  0.21534692  0.89975501  1.0
  C  C61  1  0.32183217  0.21595655  0.95938387  1.0
  C  C62  1  0.49429657  0.16690761  0.01441972  1.0
  C  C63  1  0.33744841  0.05157276  0.88202202  1.0
  C  C64  1  0.32177505  0.99134070  0.88262112  1.0
  C  C65  1  0.49422748  0.98536621  0.83356258  1.0
  C  C66  1  0.66561233  0.03957793  0.78497571  1.0
  C  C67  1  0.67014438  0.09960107  0.78379283  1.0
  C  C68  1  0.50738109  0.10597944  0.83317498  1.0
  C  C69  1  0.33740849  0.23307765  0.71825668  1.0
  C  C70  1  0.32176699  0.29270507  0.65801763  1.0
  C  C71  1  0.49421646  0.34773932  0.65203587  1.0
  C  C72  1  0.66561371  0.34211874  0.70624502  1.0
  C  C73  1  0.67015375  0.28328099  0.76627062  1.0
  C  C74  1  0.50737642  0.22752150  0.77265705  1.0
  C  C75  1  0.33266746  0.62740303  0.99136265  1.0
  C  C76  1  0.32834001  0.56734118  0.05015991  1.0
  C  C77  1  0.49172678  0.56081659  0.10591633  1.0
  C  C78  1  0.66152425  0.61520316  0.10044944  1.0
  C  C79  1  0.67700422  0.67547529  0.04085419  1.0
  C  C80  1  0.50458217  0.68154776  0.98577865  1.0
  C  C81  1  0.66153283  0.43379521  0.11768681  1.0
  C  C82  1  0.67702089  0.37420456  0.11700937  1.0
  C  C83  1  0.50461367  0.31913120  0.16601304  1.0
  C  C84  1  0.33272034  0.32470808  0.21457796  1.0
  C  C85  1  0.32837263  0.38350792  0.21584340  1.0
  C  C86  1  0.49173727  0.43926157  0.16660798  1.0
  C  C87  1  0.66154125  0.45103054  0.28185477  1.0
  C  C88  1  0.67699418  0.45034904  0.34212743  1.0
  C  C89  1  0.50455681  0.49934812  0.34820027  1.0
  C  C90  1  0.33263688  0.54790985  0.29405924  1.0
  C  C91  1  0.32832672  0.54917822  0.23399410  1.0
  C  C92  1  0.49172154  0.49995225  0.22746619  1.0
  C  C93  1  0.33237274  0.88109219  0.62743591  1.0
  C  C94  1  0.32841261  0.88242035  0.56734704  1.0
  C  C95  1  0.49217691  0.83323419  0.56081567  1.0
  C  C96  1  0.66170007  0.78428142  0.61521759  1.0
  C  C97  1  0.67641889  0.78349447  0.67553769  1.0
  C  C98  1  0.50402284  0.83249613  0.68158484  1.0
  C  C99  1  0.66171465  0.94854289  0.43383054  1.0
  C  C100  1  0.67644449  0.00886926  0.37429831  1.0
  C  C101  1  0.50406376  0.01492854  0.31924402  1.0
  C  C102  1  0.33243005  0.96077305  0.32479614  1.0
  C  C103  1  0.32846722  0.90068201  0.38355337  1.0
  C  C104  1  0.49220645  0.89414446  0.43927323  1.0
  C  C105  1  0.66171595  0.76715594  0.45095231  1.0
  C  C106  1  0.67642859  0.70762145  0.45016170  1.0
  C  C107  1  0.50402379  0.65257190  0.49915797  1.0
  C  C108  1  0.33234924  0.65812563  0.54775549  1.0
  C  C109  1  0.32840504  0.71688541  0.54908566  1.0
  C  C110  1  0.49219021  0.77260215  0.49990608  1.0
  N  N111  1  0.51360832  0.16666571  0.83334427  1.0
  N  N112  1  0.48611582  0.50001136  0.16665531  1.0
  N  N113  1  0.48698199  0.83332749  0.50000584  1.0
  N  N114  1  0.15137839  0.26527939  0.96337998  1.0
  N  N115  1  0.15134401  0.93801774  0.93194347  1.0
  N  N116  1  0.15131630  0.29670020  0.60469965  1.0
  N  N117  1  0.84735588  0.72881623  0.03686665  1.0
  N  N118  1  0.84738037  0.37021861  0.06765287  1.0
  N  N119  1  0.84738275  0.40099192  0.39546554  1.0
  N  N120  1  0.84604419  0.73396658  0.72889556  1.0
  N  N121  1  0.84607177  0.06222194  0.37047728  1.0
  N  N122  1  0.84606612  0.70379966  0.40063178  1.0
  O  O123  1  0.26560636  0.47081952  0.45178139  1.0
  O  O124  1  0.26580832  0.57755539  0.47055048  1.0
  O  O125  1  0.26459463  0.45187175  0.57676475  1.0
  O  O126  1  0.73822373  0.52797937  0.42327643  1.0
  O  O127  1  0.73649356  0.42247423  0.54879136  1.0
  O  O128  1  0.73716315  0.54876542  0.52816909  1.0
  O  O129  1  0.73824209  0.75661909  0.88206672  1.0
  O  O130  1  0.73654553  0.88212935  0.86205833  1.0
  O  O131  1  0.73721333  0.86150868  0.75637936  1.0
  O  O132  1  0.26563725  0.78512249  0.91072120  1.0
  O  O133  1  0.26584539  0.80389233  0.78521537  1.0
  O  O134  1  0.26463164  0.91010213  0.80469025  1.0
  O  O135  1  0.73826593  0.21542076  0.19465407  1.0
  O  O136  1  0.73655639  0.19541506  0.08915297  1.0
  O  O137  1  0.73726185  0.08973805  0.21544809  1.0
  O  O138  1  0.26565194  0.24407627  0.13749351  1.0
  O  O139  1  0.26589913  0.11856212  0.24423746  1.0
  O  O140  1  0.26468038  0.13804764  0.11854633  1.0
