# generated using pymatgen
data_ZnH18C18N4O4F
_symmetry_space_group_name_H-M   'P 1'
_cell_length_a   11.13090797
_cell_length_b   14.04764319
_cell_length_c   15.35034743
_cell_angle_alpha   89.09013970
_cell_angle_beta   88.28449197
_cell_angle_gamma   89.78465575
_symmetry_Int_Tables_number   1
_chemical_formula_structural   ZnH18C18N4O4F
_chemical_formula_sum   'Zn2 H36 C36 N8 O8 F2'
_cell_volume   2398.83549913
_cell_formula_units_Z   2
loop_
 _symmetry_equiv_pos_site_id
 _symmetry_equiv_pos_as_xyz
  1  'x, y, z'
loop_
 _atom_site_type_symbol
 _atom_site_label
 _atom_site_symmetry_multiplicity
 _atom_site_fract_x
 _atom_site_fract_y
 _atom_site_fract_z
 _atom_site_occupancy
  Zn  Zn0  1  0.49080786  0.60050233  0.49949315  1.0
  Zn  Zn1  1  0.48760696  0.39387703  0.50899102  1.0
  H  H2  1  0.88200079  0.35802717  0.51747657  1.0
  H  H3  1  0.10411047  0.35823835  0.48056165  1.0
  H  H4  1  0.62724764  0.75663821  0.57624899  1.0
  H  H5  1  0.34696410  0.74794670  0.40630277  1.0
  H  H6  1  0.89841266  0.56955262  0.46293406  1.0
  H  H7  1  0.08502023  0.56921156  0.52992075  1.0
  H  H8  1  0.39677043  0.61797890  0.95710549  1.0
  H  H9  1  0.61334828  0.61491041  0.05443945  1.0
  H  H10  1  0.60482331  0.38445019  0.76774529  1.0
  H  H11  1  0.40636422  0.36416731  0.23105536  1.0
  H  H12  1  0.62587274  0.93586616  0.57553861  1.0
  H  H13  1  0.33839489  0.92625244  0.39331305  1.0
  H  H14  1  0.30297792  0.67274196  0.83642660  1.0
  H  H15  1  0.47471007  0.77891236  0.81582730  1.0
  H  H16  1  0.36731396  0.79169322  0.73157577  1.0
  H  H17  1  0.49984780  0.72299061  0.71264629  1.0
  H  H18  1  0.70616612  0.65637093  0.18088671  1.0
  H  H19  1  0.53520883  0.76509097  0.19058719  1.0
  H  H20  1  0.63154532  0.77298565  0.28184556  1.0
  H  H21  1  0.49652666  0.70576628  0.29173007  1.0
  H  H22  1  0.26411456  0.09587593  0.62645270  1.0
  H  H23  1  0.19546250  0.94096753  0.52432119  1.0
  H  H24  1  0.20060879  0.04673390  0.45809967  1.0
  H  H25  1  0.11021244  0.04275315  0.55515958  1.0
  H  H26  1  0.64915552  0.98035197  0.39434568  1.0
  H  H27  1  0.83676717  0.98708575  0.43712278  1.0
  H  H28  1  0.80520323  0.09747000  0.48884658  1.0
  H  H29  1  0.85259891  0.09647923  0.37730425  1.0
  H  H30  1  0.24991883  0.24841126  0.59034303  1.0
  H  H31  1  0.30693896  0.30744765  0.72819556  1.0
  H  H32  1  0.45681466  0.27428355  0.70456000  1.0
  H  H33  1  0.34780350  0.18352721  0.72884482  1.0
  H  H34  1  0.68908549  0.31880928  0.44782457  1.0
  H  H35  1  0.70730237  0.17717700  0.30449351  1.0
  H  H36  1  0.80374658  0.27723952  0.31624398  1.0
  H  H37  1  0.64896667  0.29546592  0.29282232  1.0
  C  C38  1  0.49546016  0.51546479  0.67254979  1.0
  C  C39  1  0.49953525  0.49480429  0.33306657  1.0
  C  C40  1  0.50390659  0.49101779  0.95428972  1.0
  C  C41  1  0.51009103  0.48670845  0.05043766  1.0
  C  C42  1  0.39296744  0.10233899  0.53373240  1.0
  C  C43  1  0.58179011  0.09946045  0.44770631  1.0
  C  C44  1  0.41324787  0.19939169  0.54765145  1.0
  C  C45  1  0.59034773  0.20021457  0.45818545  1.0
  C  C46  1  0.48136837  0.05196586  0.48455072  1.0
  C  C47  1  0.56338331  0.89671154  0.53630467  1.0
  C  C48  1  0.40259142  0.89191391  0.43584409  1.0
  C  C49  1  0.56436098  0.79790754  0.53754138  1.0
  C  C50  1  0.40762417  0.79300498  0.44182280  1.0
  C  C51  1  0.48064656  0.94614480  0.48478064  1.0
  C  C52  1  0.25893625  0.50089952  0.50440230  1.0
  C  C53  1  0.72573181  0.50261283  0.49494036  1.0
  C  C54  1  0.92728167  0.42501445  0.50033862  1.0
  C  C55  1  0.05761577  0.42501331  0.49553322  1.0
  C  C56  1  0.85832782  0.50219858  0.48460301  1.0
  C  C57  1  0.12583946  0.50184197  0.51036955  1.0
  C  C58  1  0.44300150  0.56690718  0.91479144  1.0
  C  C59  1  0.56750146  0.55992335  0.09388271  1.0
  C  C60  1  0.43827742  0.58024904  0.82419009  1.0
  C  C61  1  0.56845193  0.56597389  0.18488770  1.0
  C  C62  1  0.49859355  0.51323819  0.77038410  1.0
  C  C63  1  0.50681353  0.49507128  0.23506013  1.0
  C  C64  1  0.55942241  0.43663132  0.80894080  1.0
  C  C65  1  0.45163143  0.41998487  0.19268743  1.0
  C  C66  1  0.56151864  0.42642098  0.89879885  1.0
  C  C67  1  0.45394076  0.41658394  0.10241584  1.0
  C  C68  1  0.43124405  0.74234236  0.76172739  1.0
  C  C69  1  0.57110149  0.72577864  0.24734631  1.0
  C  C70  1  0.19630171  0.01920718  0.52569899  1.0
  C  C71  1  0.79826084  0.05857995  0.42775489  1.0
  C  C72  1  0.36327503  0.25342193  0.69603302  1.0
  C  C73  1  0.71235500  0.25007206  0.32851221  1.0
  N  N74  1  0.50733588  0.24597107  0.50850994  1.0
  N  N75  1  0.48713985  0.74702099  0.49139086  1.0
  N  N76  1  0.36727625  0.65561333  0.79057764  1.0
  N  N77  1  0.63689416  0.63895017  0.22304234  1.0
  N  N78  1  0.29589793  0.05526191  0.57664950  1.0
  N  N79  1  0.67239628  0.04919579  0.40317416  1.0
  N  N80  1  0.33871076  0.25487489  0.60276882  1.0
  N  N81  1  0.68489762  0.25166286  0.42235605  1.0
  O  O82  1  0.51482191  0.59402113  0.63255289  1.0
  O  O83  1  0.47247156  0.57328376  0.36919705  1.0
  O  O84  1  0.47481965  0.43613719  0.63720630  1.0
  O  O85  1  0.51847340  0.41593864  0.37198136  1.0
  O  O86  1  0.30975666  0.58025452  0.51913628  1.0
  O  O87  1  0.67416246  0.58258539  0.48276129  1.0
  O  O88  1  0.31167283  0.42282061  0.48595306  1.0
  O  O89  1  0.67283578  0.42429629  0.51563603  1.0
  F  F90  1  0.62396167  0.35174362  0.93378822  1.0
  F  F91  1  0.39603859  0.34371058  0.06335976  1.0
