# generated using pymatgen
data_Al2H19C34ClO12
_symmetry_space_group_name_H-M   'P 1'
_cell_length_a   6.65704820
_cell_length_b   20.63207855
_cell_length_c   22.28086722
_cell_angle_alpha   90.00008595
_cell_angle_beta   90.00352556
_cell_angle_gamma   87.13406521
_symmetry_Int_Tables_number   1
_chemical_formula_structural   Al2H19C34ClO12
_chemical_formula_sum   'Al4 H38 C68 Cl2 O24'
_cell_volume   3056.42148981
_cell_formula_units_Z   2
loop_
 _symmetry_equiv_pos_site_id
 _symmetry_equiv_pos_as_xyz
  1  'x, y, z'
loop_
 _atom_site_type_symbol
 _atom_site_label
 _atom_site_symmetry_multiplicity
 _atom_site_fract_x
 _atom_site_fract_y
 _atom_site_fract_z
 _atom_site_occupancy
  Al  Al0  1  0.98436207  0.31586010  0.50318084  1.0
  Al  Al1  1  0.01560408  0.68413730  0.00317830  1.0
  Al  Al2  1  0.48366766  0.31863102  0.50201534  1.0
  Al  Al3  1  0.51629616  0.68136008  0.00201938  1.0
  H  H4  1  0.45674469  0.19317753  0.35565623  1.0
  H  H5  1  0.54321026  0.80681821  0.85566784  1.0
  H  H6  1  0.01735262  0.86479392  0.09069178  1.0
  H  H7  1  0.98263730  0.13520501  0.59069601  1.0
  H  H8  1  0.42970545  0.80635223  0.14146244  1.0
  H  H9  1  0.57028753  0.19365860  0.64147525  1.0
  H  H10  1  0.49702310  0.00828440  0.23951037  1.0
  H  H11  1  0.50299310  0.99172111  0.73953370  1.0
  H  H12  1  0.08270460  0.05201792  0.34057846  1.0
  H  H13  1  0.91725898  0.94797304  0.84055244  1.0
  H  H14  1  0.06166187  0.14446722  0.41296030  1.0
  H  H15  1  0.93827986  0.85552145  0.91293068  1.0
  H  H16  1  0.95486597  0.99522805  0.25873517  1.0
  H  H17  1  0.04513787  0.00477495  0.75872346  1.0
  H  H18  1  0.48009587  0.10459789  0.27995407  1.0
  H  H19  1  0.51989354  0.89540016  0.77996880  1.0
  H  H20  1  0.38890422  0.90203694  0.20923573  1.0
  H  H21  1  0.61111212  0.09798182  0.70926222  1.0
  H  H22  1  0.68163517  0.53043439  0.44992509  1.0
  H  H23  1  0.31813695  0.46954147  0.94992351  1.0
  H  H24  1  0.68907296  0.66001945  0.27704023  1.0
  H  H25  1  0.31082122  0.33998684  0.77702470  1.0
  H  H26  1  0.67685937  0.62108411  0.37529256  1.0
  H  H27  1  0.32295454  0.37890666  0.87527999  1.0
  H  H28  1  0.88193794  0.38121807  0.21377641  1.0
  H  H29  1  0.11826919  0.61880846  0.71374722  1.0
  H  H30  1  0.92502477  0.37016489  0.10563724  1.0
  H  H31  1  0.07522721  0.62985585  0.60560576  1.0
  H  H32  1  0.71792576  0.64437170  0.16786151  1.0
  H  H33  1  0.28199163  0.35564045  0.66785151  1.0
  H  H34  1  0.91876005  0.40998503  0.00775372  1.0
  H  H35  1  0.08137376  0.59003373  0.50773074  1.0
  H  H36  1  0.93957327  0.02966745  0.15611376  1.0
  H  H37  1  0.06047821  0.97033118  0.65611499  1.0
  H  H38  1  0.22379807  0.35080290  0.43273103  1.0
  H  H39  1  0.77612747  0.64918956  0.93273112  1.0
  H  H40  1  0.72947425  0.34945725  0.57411149  1.0
  H  H41  1  0.27049482  0.65054030  0.07411377  1.0
  C  C42  1  0.25006434  0.22933388  0.57369052  1.0
  C  C43  1  0.74992684  0.77066562  0.07368603  1.0
  C  C44  1  0.21943187  0.40914523  0.57138368  1.0
  C  C45  1  0.78055822  0.59085719  0.07139519  1.0
  C  C46  1  0.72213952  0.40273958  0.42722900  1.0
  C  C47  1  0.27780171  0.59724854  0.92723223  1.0
  C  C48  1  0.74719040  0.22853599  0.43237905  1.0
  C  C49  1  0.25276485  0.77145793  0.93237262  1.0
  C  C50  1  0.75751710  0.17371568  0.38888880  1.0
  C  C51  1  0.24244032  0.82627456  0.88888062  1.0
  C  C52  1  0.59281249  0.16177167  0.35182862  1.0
  C  C53  1  0.40715246  0.83822069  0.85182878  1.0
  C  C54  1  0.60616646  0.11171359  0.31013815  1.0
  C  C55  1  0.39381195  0.88828285  0.81014099  1.0
  C  C56  1  0.78222580  0.07090968  0.30555856  1.0
  C  C57  1  0.21775698  0.92908921  0.80555532  1.0
  C  C58  1  0.94586998  0.08337231  0.34337409  1.0
  C  C59  1  0.05409519  0.91662300  0.84335803  1.0
  C  C60  1  0.93478335  0.13442463  0.38408122  1.0
  C  C61  1  0.06516944  0.86556757  0.88406155  1.0
  C  C62  1  0.85589981  0.92819319  0.15297018  1.0
  C  C63  1  0.14413082  0.07180837  0.65297380  1.0
  C  C64  1  0.88156435  0.87201199  0.11778311  1.0
  C  C65  1  0.11843934  0.12798488  0.61778434  1.0
  C  C66  1  0.55007966  0.83986553  0.14652318  1.0
  C  C67  1  0.44991855  0.16013993  0.64653530  1.0
  C  C68  1  0.52725650  0.89361387  0.18363209  1.0
  C  C69  1  0.47275416  0.10639628  0.68365107  1.0
  C  C70  1  0.67994749  0.93816686  0.18879851  1.0
  C  C71  1  0.32008346  0.06183792  0.68881324  1.0
  C  C72  1  0.80262152  0.01730998  0.26316080  1.0
  C  C73  1  0.19738759  0.98269591  0.76316195  1.0
  C  C74  1  0.65289824  0.99123172  0.23140359  1.0
  C  C75  1  0.34712106  0.00877820  0.73141849  1.0
  C  C76  1  0.72971784  0.82796771  0.11426744  1.0
  C  C77  1  0.27028007  0.17203112  0.61427156  1.0
  C  C78  1  0.69865556  0.57069434  0.36084075  1.0
  C  C79  1  0.30119358  0.42929554  0.86083480  1.0
  C  C80  1  0.72145772  0.45665939  0.38186190  1.0
  C  C81  1  0.27846683  0.54332700  0.88186184  1.0
  C  C82  1  0.84694286  0.47070830  0.08595455  1.0
  C  C83  1  0.15313977  0.52930426  0.58593316  1.0
  C  C84  1  0.87872946  0.41732416  0.12473592  1.0
  C  C85  1  0.12143473  0.58268629  0.62471340  1.0
  C  C86  1  0.85224698  0.42356725  0.18592369  1.0
  C  C87  1  0.14788461  0.57645164  0.68590462  1.0
  C  C88  1  0.78996592  0.48368595  0.21254893  1.0
  C  C89  1  0.21007416  0.51633085  0.71253897  1.0
  C  C90  1  0.77051614  0.53924321  0.17347770  1.0
  C  C91  1  0.22948467  0.46076407  0.67346468  1.0
  C  C92  1  0.75355345  0.49253844  0.27676750  1.0
  C  C93  1  0.24643071  0.50746835  0.77676155  1.0
  C  C94  1  0.72377537  0.55782571  0.29902148  1.0
  C  C95  1  0.27614364  0.44217563  0.79901122  1.0
  C  C96  1  0.71410482  0.61144083  0.25823898  1.0
  C  C97  1  0.28581048  0.38856070  0.75822508  1.0
  C  C98  1  0.73105484  0.60278628  0.19798872  1.0
  C  C99  1  0.26888376  0.39721990  0.69797779  1.0
  C  C100  1  0.74271313  0.44270214  0.32098870  1.0
  C  C101  1  0.25727750  0.55729280  0.82098528  1.0
  C  C102  1  0.70025573  0.52098320  0.40209043  1.0
  C  C103  1  0.29958560  0.47900406  0.90208909  1.0
  C  C104  1  0.79726250  0.53159036  0.11077069  1.0
  C  C105  1  0.20276620  0.46841673  0.61075153  1.0
  C  C106  1  0.86728096  0.46054693  0.02082075  1.0
  C  C107  1  0.13280066  0.53946351  0.52079510  1.0
  C  C108  1  0.00032049  0.97971961  0.14514978  1.0
  C  C109  1  0.99973895  0.02027617  0.64515836  1.0
  Cl  Cl110  1  0.74038144  0.36004396  0.30448248  1.0
  Cl  Cl111  1  0.25965512  0.63995495  0.80449145  1.0
  O  O112  1  0.39540573  0.38809549  0.55711464  1.0
  O  O113  1  0.60457121  0.61189874  0.05712360  1.0
  O  O114  1  0.07414187  0.24888558  0.55750922  1.0
  O  O115  1  0.92584122  0.75112758  0.05749157  1.0
  O  O116  1  0.91429188  0.24824619  0.45088971  1.0
  O  O117  1  0.08565864  0.75174328  0.95087489  1.0
  O  O118  1  0.05443474  0.38336326  0.55951056  1.0
  O  O119  1  0.94554291  0.61664989  0.05952238  1.0
  O  O120  1  0.89419166  0.38100392  0.44440844  1.0
  O  O121  1  0.10574289  0.61898023  0.94441187  1.0
  O  O122  1  0.41284408  0.25468998  0.55840804  1.0
  O  O123  1  0.58715508  0.74529892  0.05841494  1.0
  O  O124  1  0.23273305  0.32016813  0.46589357  1.0
  O  O125  1  0.76720634  0.67982272  0.96589543  1.0
  O  O126  1  0.55226580  0.38492882  0.44479322  1.0
  O  O127  1  0.44767777  0.61506552  0.94479545  1.0
  O  O128  1  0.57396918  0.25202139  0.44739449  1.0
  O  O129  1  0.42599050  0.74798023  0.94740044  1.0
  O  O130  1  0.73308340  0.32087028  0.53949971  1.0
  O  O131  1  0.26688238  0.67912598  0.03950068  1.0
  O  O132  1  0.83090012  0.50191488  0.98228675  1.0
  O  O133  1  0.16910053  0.49809726  0.48226804  1.0
  O  O134  1  0.17219000  0.97105606  0.12554072  1.0
  O  O135  1  0.82780334  0.02894368  0.62555081  1.0
