# generated using pymatgen
data_ScH4C8O5
_symmetry_space_group_name_H-M   'P 1'
_cell_length_a   12.51292489
_cell_length_b   15.46498240
_cell_length_c   25.23684616
_cell_angle_alpha   107.84836727
_cell_angle_beta   104.34896296
_cell_angle_gamma   89.99787732
_symmetry_Int_Tables_number   1
_chemical_formula_structural   ScH4C8O5
_chemical_formula_sum   'Sc12 H48 C96 O60'
_cell_volume   4488.28741055
_cell_formula_units_Z   12
loop_
 _symmetry_equiv_pos_site_id
 _symmetry_equiv_pos_as_xyz
  1  'x, y, z'
loop_
 _atom_site_type_symbol
 _atom_site_label
 _atom_site_symmetry_multiplicity
 _atom_site_fract_x
 _atom_site_fract_y
 _atom_site_fract_z
 _atom_site_occupancy
  Sc  Sc0  1  0.51969066  0.82823397  0.78922569  1.0
  Sc  Sc1  1  0.31395595  0.87233144  0.87780776  1.0
  Sc  Sc2  1  0.39715846  0.33851526  0.54433044  1.0
  Sc  Sc3  1  0.76943413  0.96095946  0.78919104  1.0
  Sc  Sc4  1  0.06384398  0.00543895  0.87779511  1.0
  Sc  Sc5  1  0.64721028  0.20574613  0.54432673  1.0
  Sc  Sc6  1  0.73055368  0.67173091  0.21079085  1.0
  Sc  Sc7  1  0.43616465  0.62763593  0.12219364  1.0
  Sc  Sc8  1  0.85280700  0.16146640  0.45568325  1.0
  Sc  Sc9  1  0.98031372  0.53901292  0.21082042  1.0
  Sc  Sc10  1  0.18601607  0.49453759  0.12220446  1.0
  Sc  Sc11  1  0.10285232  0.29422669  0.45568086  1.0
  H  H12  1  0.42460386  0.97658952  0.83885673  1.0
  H  H13  1  0.07496566  0.68745968  0.75003702  1.0
  H  H14  1  0.90362038  0.72959450  0.70804823  1.0
  H  H15  1  0.58633736  0.58335704  0.66659810  1.0
  H  H16  1  0.86260697  0.43761960  0.62539938  1.0
  H  H17  1  0.99172157  0.47949792  0.58310234  1.0
  H  H18  1  0.33014186  0.58349519  0.66666667  1.0
  H  H19  1  0.75790583  0.76971292  0.91632266  1.0
  H  H20  1  0.92957429  0.85505973  0.95901242  1.0
  H  H21  1  0.91421533  0.86231257  0.83885267  1.0
  H  H22  1  0.17494300  0.06255221  0.75006304  1.0
  H  H23  1  0.30431855  0.97848949  0.70801944  1.0
  H  H24  1  0.58025822  0.08324009  0.66661710  1.0
  H  H25  1  0.26289173  0.18789576  0.62542189  1.0
  H  H26  1  0.09152444  0.10364430  0.58316627  1.0
  H  H27  1  0.83647438  0.08321196  0.66661539  1.0
  H  H28  1  0.65845035  0.14659411  0.91626594  1.0
  H  H29  1  0.52948746  0.10405724  0.95900743  1.0
  H  H30  1  0.58579412  0.52340576  0.16115686  1.0
  H  H31  1  0.32504068  0.81247023  0.24989227  1.0
  H  H32  1  0.19573086  0.77046448  0.29199839  1.0
  H  H33  1  0.91975899  0.91654647  0.33333333  1.0
  H  H34  1  0.23714105  0.06246636  0.37460709  1.0
  H  H35  1  0.40849732  0.02039376  0.41685037  1.0
  H  H36  1  0.66352407  0.91650404  0.33333333  1.0
  H  H37  1  0.84149860  0.73027624  0.08367907  1.0
  H  H38  1  0.97056291  0.64503642  0.04098900  1.0
  H  H39  1  0.07537540  0.63769624  0.16116377  1.0
  H  H40  1  0.42499498  0.43742908  0.24994058  1.0
  H  H41  1  0.59634784  0.52156333  0.29198182  1.0
  H  H42  1  0.91365409  0.41672120  0.33333333  1.0
  H  H43  1  0.63743792  0.31217248  0.37458382  1.0
  H  H44  1  0.50828782  0.39634286  0.41684766  1.0
  H  H45  1  0.16986617  0.41680705  0.33333333  1.0
  H  H46  1  0.74207025  0.35331964  0.08367397  1.0
  H  H47  1  0.57042809  0.39603649  0.04103130  1.0
  H  H48  1  0.14768768  0.89767576  0.79537747  1.0
  H  H49  1  0.35231922  0.60234165  0.20463415  1.0
  H  H50  1  0.68611269  0.93609044  0.87222029  1.0
  H  H51  1  0.81393360  0.56388126  0.12778816  1.0
  H  H52  1  0.48080642  0.23077803  0.46158818  1.0
  H  H53  1  0.01921176  0.26922139  0.53842586  1.0
  H  H54  1  0.25001652  0.19232226  0.50000215  1.0
  H  H55  1  0.75000968  0.30768190  0.50001108  1.0
  H  H56  1  0.50297010  0.75004610  0.99998415  1.0
  H  H57  1  0.24683752  0.75001901  0.99999682  1.0
  H  H58  1  0.99698519  0.25002703  0.00000231  1.0
  H  H59  1  0.25316737  0.24999145  0.00000436  1.0
  C  C60  1  0.29187566  0.71223173  0.75985549  1.0
  C  C61  1  0.20943364  0.64403298  0.71216442  1.0
  C  C62  1  0.09783758  0.64236112  0.71266126  1.0
  C  C63  1  0.01730109  0.58356754  0.66653518  1.0
  C  C64  1  0.89903041  0.58362185  0.66654414  1.0
  C  C65  1  0.85330264  0.66471103  0.69028452  1.0
  C  C66  1  0.74202899  0.66450939  0.69148388  1.0
  C  C67  1  0.69785639  0.75068237  0.72100898  1.0
  C  C68  1  0.67331483  0.58347532  0.66654257  1.0
  C  C69  1  0.71725775  0.50250702  0.64164874  1.0
  C  C70  1  0.64385947  0.41610026  0.61245607  1.0
  C  C71  1  0.82973775  0.50247035  0.64288164  1.0
  C  C72  1  0.05187098  0.52474559  0.62045033  1.0
  C  C73  1  0.16400975  0.52316578  0.62098728  1.0
  C  C74  1  0.24310396  0.58359613  0.66660216  1.0
  C  C75  1  0.19895823  0.45516560  0.57325794  1.0
  C  C76  1  0.54063237  0.78368748  0.90626809  1.0
  C  C77  1  0.62347370  0.76417984  0.95422594  1.0
  C  C78  1  0.73510094  0.76223005  0.95376605  1.0
  C  C79  1  0.97981875  0.80759416  0.97644036  1.0
  C  C80  1  0.09110039  0.80629145  0.97525750  1.0
  C  C81  1  0.13516321  0.86354001  0.94606773  1.0
  C  C82  1  0.96788346  0.04758037  0.75984515  1.0
  C  C83  1  0.00262597  0.06818910  0.71218597  1.0
  C  C84  1  0.11475249  0.07034612  0.71270241  1.0
  C  C85  1  0.14926293  0.08306373  0.66661304  1.0
  C  C86  1  0.26753421  0.08305436  0.66659653  1.0
  C  C87  1  0.33692367  0.02561542  0.69028102  1.0
  C  C88  1  0.44937964  0.02698296  0.69147962  1.0
  C  C89  1  0.52300993  0.97030782  0.72100097  1.0
  C  C90  1  0.49323578  0.08310205  0.66658019  1.0
  C  C91  1  0.42445541  0.13920377  0.64169760  1.0
  C  C92  1  0.46863448  0.19628738  0.61243601  1.0
  C  C93  1  0.31320106  0.14052562  0.64292446  1.0
  C  C94  1  0.06867967  0.09572996  0.62050031  1.0
  C  C95  1  0.95706998  0.09779488  0.62099368  1.0
  C  C96  1  0.92348338  0.08305076  0.66660672  1.0
  C  C97  1  0.87445569  0.11804618  0.57323312  1.0
  C  C98  1  0.86564922  0.12259374  0.90621160  1.0
  C  C99  1  0.83078689  0.19003287  0.95419200  1.0
  C  C100  1  0.71867263  0.19151860  0.95372279  1.0
  C  C101  1  0.49665392  0.16893526  0.97645203  1.0
  C  C102  1  0.38419615  0.16899578  0.97526319  1.0
  C  C103  1  0.31093688  0.08254402  0.94606920  1.0
  C  C104  1  0.53215045  0.78770568  0.24015337  1.0
  C  C105  1  0.49737353  0.85594648  0.28781304  1.0
  C  C106  1  0.38523732  0.85758492  0.28727632  1.0
  C  C107  1  0.35074886  0.91633363  0.33333333  1.0
  C  C108  1  0.23249000  0.91644690  0.33342506  1.0
  C  C109  1  0.16311499  0.83533018  0.30972968  1.0
  C  C110  1  0.05065098  0.83549363  0.30852811  1.0
  C  C111  1  0.97693064  0.74932408  0.27899993  1.0
  C  C112  1  0.00680543  0.91651168  0.33344996  1.0
  C  C113  1  0.07555516  0.99751440  0.35833625  1.0
  C  C114  1  0.03136066  0.08390256  0.38754926  1.0
  C  C115  1  0.18681596  0.99759607  0.35709335  1.0
  C  C116  1  0.43135546  0.97516500  0.37950631  1.0
  C  C117  1  0.54295017  0.97679868  0.37899460  1.0
  C  C118  1  0.57651859  0.91635560  0.33333333  1.0
  C  C119  1  0.62565194  0.04478133  0.42673516  1.0
  C  C120  1  0.63436290  0.71636643  0.09377286  1.0
  C  C121  1  0.66918795  0.73585314  0.04579349  1.0
  C  C122  1  0.78127814  0.73776274  0.04622927  1.0
  C  C123  1  0.00338307  0.69249771  0.02356009  1.0
  C  C124  1  0.11583728  0.69376506  0.02475035  1.0
  C  C125  1  0.18904195  0.63648194  0.05394162  1.0
  C  C126  1  0.20811939  0.45229656  0.24011406  1.0
  C  C127  1  0.29054500  0.43176717  0.28779765  1.0
  C  C128  1  0.40215078  0.42966061  0.28730805  1.0
  C  C129  1  0.48268072  0.41698893  0.33342668  1.0
  C  C130  1  0.60096167  0.41703478  0.33344116  1.0
  C  C131  1  0.64666745  0.47443378  0.30972977  1.0
  C  C132  1  0.75793403  0.47301922  0.30852780  1.0
  C  C133  1  0.80207249  0.52964957  0.27899775  1.0
  C  C134  1  0.82666413  0.41689296  0.33342418  1.0
  C  C135  1  0.78273961  0.36082431  0.35832114  1.0
  C  C136  1  0.85610329  0.30369701  0.38757551  1.0
  C  C137  1  0.67027437  0.35955424  0.35710247  1.0
  C  C138  1  0.44812443  0.40428291  0.37951776  1.0
  C  C139  1  0.33600183  0.40219814  0.37901142  1.0
  C  C140  1  0.25689548  0.41691143  0.33333333  1.0
  C  C141  1  0.30113483  0.38194773  0.42677285  1.0
  C  C142  1  0.95933887  0.37739294  0.09374113  1.0
  C  C143  1  0.87649127  0.30994339  0.04576943  1.0
  C  C144  1  0.76486800  0.30840447  0.04622016  1.0
  C  C145  1  0.52017850  0.33113688  0.02357599  1.0
  C  C146  1  0.40889355  0.33102044  0.02476501  1.0
  C  C147  1  0.36483075  0.41748086  0.05393484  1.0
  C  C148  1  0.58999177  0.75003392  0.00001020  1.0
  C  C149  1  0.81574533  0.75000730  0.00000489  1.0
  C  C150  1  0.93402310  0.75003816  0.00000071  1.0
  C  C151  1  0.15983169  0.75002207  0.99999717  1.0
  C  C152  1  0.90997388  0.25000239  0.99998487  1.0
  C  C153  1  0.68422654  0.24997584  0.99996787  1.0
  C  C154  1  0.56597612  0.25003701  0.99999627  1.0
  C  C155  1  0.34018160  0.24999794  0.00001674  1.0
  O  O156  1  0.26367794  0.75200332  0.80600098  1.0
  O  O157  1  0.38459619  0.72817309  0.75088020  1.0
  O  O158  1  0.30081729  0.43969950  0.58219586  1.0
  O  O159  1  0.12462377  0.41526729  0.52715412  1.0
  O  O160  1  0.68962822  0.34136488  0.60126585  1.0
  O  O161  1  0.53978846  0.42272534  0.59928354  1.0
  O  O162  1  0.60781285  0.74351511  0.73486801  1.0
  O  O163  1  0.75389769  0.82570881  0.73185777  1.0
  O  O164  1  0.44749973  0.80772310  0.91508311  1.0
  O  O165  1  0.56897372  0.77723648  0.86016145  1.0
  O  O166  1  0.07743194  0.92647910  0.93450421  1.0
  O  O167  1  0.22645220  0.84434208  0.93323381  1.0
  O  O168  1  0.41836765  0.91210047  0.83445988  1.0
  O  O169  1  0.04226017  0.05373347  0.80593338  1.0
  O  O170  1  0.86617387  0.02277028  0.75089626  1.0
  O  O171  1  0.78156244  0.14255348  0.58216850  1.0
  O  O172  1  0.90268951  0.11174924  0.52711292  1.0
  O  O173  1  0.41166176  0.25981465  0.60123054  1.0
  O  O174  1  0.55945656  0.17639082  0.59920038  1.0
  O  O175  1  0.62692284  0.99130323  0.73486601  1.0
  O  O176  1  0.47777796  0.90617126  0.73186592  1.0
  O  O177  1  0.96763410  0.10748961  0.91497698  1.0
  O  O178  1  0.79114839  0.08284606  0.86015768  1.0
  O  O179  1  0.35709396  0.00803432  0.93453115  1.0
  O  O180  1  0.20681602  0.08893049  0.93319878  1.0
  O  O181  1  0.91604227  0.92236077  0.83439296  1.0
  O  O182  1  0.45780981  0.74784485  0.19403879  1.0
  O  O183  1  0.63385746  0.77182307  0.24912870  1.0
  O  O184  1  0.71856170  0.06027961  0.41779095  1.0
  O  O185  1  0.59743576  0.08463267  0.47285929  1.0
  O  O186  1  0.08834494  0.15862967  0.39876174  1.0
  O  O187  1  0.94048203  0.07728206  0.40073916  1.0
  O  O188  1  0.87302900  0.75650550  0.26514080  1.0
  O  O189  1  0.02210787  0.67428812  0.26815682  1.0
  O  O190  1  0.53241665  0.69234023  0.08496999  1.0
  O  O191  1  0.70882789  0.72279827  0.13986227  1.0
  O  O192  1  0.14283114  0.57355388  0.06550048  1.0
  O  O193  1  0.29316760  0.65563772  0.06678652  1.0
  O  O194  1  0.58400617  0.58788891  0.16553087  1.0
  O  O195  1  0.23635938  0.44601189  0.19399256  1.0
  O  O196  1  0.11538380  0.47717672  0.24907543  1.0
  O  O197  1  0.19929464  0.35750642  0.41784793  1.0
  O  O198  1  0.37548916  0.38818803  0.47287888  1.0
  O  O199  1  0.81030760  0.24015619  0.39875194  1.0
  O  O200  1  0.96016276  0.32360596  0.40085496  1.0
  O  O201  1  0.89213467  0.50865021  0.26514831  1.0
  O  O202  1  0.74597916  0.59379435  0.26813382  1.0
  O  O203  1  0.05253193  0.39251565  0.08495942  1.0
  O  O204  1  0.93092019  0.41713320  0.13981521  1.0
  O  O205  1  0.42255302  0.49197069  0.06547653  1.0
  O  O206  1  0.27354336  0.41112633  0.06677611  1.0
  O  O207  1  0.08170884  0.57765531  0.16563237  1.0
  O  O208  1  0.16852541  0.91845103  0.83719700  1.0
  O  O209  1  0.33137348  0.58145937  0.16281377  1.0
  O  O210  1  0.66516338  0.91520542  0.83040014  1.0
  O  O211  1  0.83486791  0.58478945  0.16960844  1.0
  O  O212  1  0.50165437  0.25157306  0.50341108  1.0
  O  O213  1  0.99824410  0.24837313  0.49660342  1.0
  O  O214  1  0.25000968  0.25504259  0.49999256  1.0
  O  O215  1  0.75001872  0.24495886  0.50001647  1.0
