# generated using pymatgen
data_Cu2H15(C5N)4
_symmetry_space_group_name_H-M   'P 1'
_cell_length_a   31.39932874
_cell_length_b   32.98705541
_cell_length_c   34.74088390
_cell_angle_alpha   89.44521257
_cell_angle_beta   86.79462536
_cell_angle_gamma   88.20153075
_symmetry_Int_Tables_number   1
_chemical_formula_structural   Cu2H15(C5N)4
_chemical_formula_sum   'Cu12 H90 C120 N24'
_cell_volume   35908.48734984
_cell_formula_units_Z   6
loop_
 _symmetry_equiv_pos_site_id
 _symmetry_equiv_pos_as_xyz
  1  'x, y, z'
loop_
 _atom_site_type_symbol
 _atom_site_label
 _atom_site_symmetry_multiplicity
 _atom_site_fract_x
 _atom_site_fract_y
 _atom_site_fract_z
 _atom_site_occupancy
  Cu  Cu0  1  0.76439601  0.18488890  0.14021817  1.0
  Cu  Cu1  1  0.81912679  0.21082728  0.20846369  1.0
  Cu  Cu2  1  0.77594921  0.12408131  0.21008586  1.0
  Cu  Cu3  1  0.82934969  0.78364749  0.83286150  1.0
  Cu  Cu4  1  0.91703162  0.79998685  0.78657475  1.0
  Cu  Cu5  1  0.83407035  0.85071243  0.76732966  1.0
  Cu  Cu6  1  0.19925949  0.21014996  0.86580906  1.0
  Cu  Cu7  1  0.13974625  0.20525727  0.79545034  1.0
  Cu  Cu8  1  0.21761422  0.14217263  0.80285573  1.0
  Cu  Cu9  1  0.20417853  0.78181765  0.16556460  1.0
  Cu  Cu10  1  0.12042616  0.79972399  0.21901728  1.0
  Cu  Cu11  1  0.19788905  0.85863952  0.21983557  1.0
  H  H12  1  0.79730710  0.24591075  0.07518397  1.0
  H  H13  1  0.86566356  0.28681160  0.17177057  1.0
  H  H14  1  0.73503458  0.04527774  0.17575989  1.0
  H  H15  1  0.70561440  0.13523963  0.08875601  1.0
  H  H16  1  0.87373558  0.20288115  0.28140328  1.0
  H  H17  1  0.81488029  0.08580480  0.28483478  1.0
  H  H18  1  0.85746889  0.71318350  0.88933876  1.0
  H  H19  1  0.97985294  0.74717629  0.83713293  1.0
  H  H20  1  0.75734697  0.90904075  0.79616451  1.0
  H  H21  1  0.74665530  0.81270233  0.88141266  1.0
  H  H22  1  0.98537387  0.84447462  0.73114104  1.0
  H  H23  1  0.86804464  0.90190851  0.69494167  1.0
  H  H24  1  0.15260159  0.28072930  0.91405889  1.0
  H  H25  1  0.06072150  0.26014112  0.82844769  1.0
  H  H26  1  0.28702572  0.08719059  0.84277803  1.0
  H  H27  1  0.25749707  0.17678092  0.93140785  1.0
  H  H28  1  0.10264105  0.17615207  0.71793591  1.0
  H  H29  1  0.20084109  0.08334597  0.73410972  1.0
  H  H30  1  0.17782023  0.70264765  0.12279445  1.0
  H  H31  1  0.06067676  0.73255497  0.18971336  1.0
  H  H32  1  0.27015438  0.91187288  0.18036502  1.0
  H  H33  1  0.28191164  0.80519603  0.10830584  1.0
  H  H34  1  0.05142876  0.85038604  0.27099034  1.0
  H  H35  1  0.16351002  0.92143121  0.28339127  1.0
  H  H36  1  0.06338919  0.01651243  0.46505914  1.0
  H  H37  1  0.94842134  0.09129940  0.46943908  1.0
  H  H38  1  0.04983044  0.09980553  0.52007803  1.0
  H  H39  1  0.96189487  0.00255935  0.51758607  1.0
  H  H40  1  0.00585662  0.05252576  0.35986390  1.0
  H  H41  1  0.01339404  0.03575314  0.62481987  1.0
  H  H42  1  0.04618837  0.47325962  0.98346735  1.0
  H  H43  1  0.94827408  0.47304279  0.07504801  1.0
  H  H44  1  0.95222430  0.52630210  0.98322932  1.0
  H  H45  1  0.03827666  0.52913918  0.07522090  1.0
  H  H46  1  0.99185275  0.36051783  0.02192870  1.0
  H  H47  1  0.99079776  0.64094394  0.02573962  1.0
  H  H48  1  0.53598846  0.90640613  0.96154660  1.0
  H  H49  1  0.52866311  0.02174124  0.01861710  1.0
  H  H50  1  0.47220793  0.92887389  0.04288216  1.0
  H  H51  1  0.47775450  0.00271860  0.94018408  1.0
  H  H52  1  0.65141157  0.96554265  0.98751552  1.0
  H  H53  1  0.35634180  0.98069851  0.99944123  1.0
  H  H54  1  0.88732816  0.34684974  0.12600468  1.0
  H  H55  1  0.92064073  0.34586143  0.03996979  1.0
  H  H56  1  0.86583429  0.29666172  0.05570556  1.0
  H  H57  1  0.92919681  0.40668948  0.10555533  1.0
  H  H58  1  0.90144333  0.65377010  0.92002280  1.0
  H  H59  1  0.98793420  0.65411318  0.95957144  1.0
  H  H60  1  0.98365068  0.70173768  0.90640936  1.0
  H  H61  1  0.91553385  0.59311677  0.96309980  1.0
  H  H62  1  0.10505833  0.34643889  0.92653872  1.0
  H  H63  1  0.00897077  0.34788822  0.95402681  1.0
  H  H64  1  0.02849715  0.30002002  0.89988161  1.0
  H  H65  1  0.08232684  0.40551771  0.96579890  1.0
  H  H66  1  0.02512713  0.69631875  0.13729279  1.0
  H  H67  1  0.99302330  0.65918330  0.08725271  1.0
  H  H68  1  0.10913905  0.65554617  0.10592676  1.0
  H  H69  1  0.06655981  0.59643215  0.09445494  1.0
  H  H70  1  0.65108176  0.08461966  0.06904472  1.0
  H  H71  1  0.66005976  0.99198381  0.05277252  1.0
  H  H72  1  0.70197189  0.01465074  0.10626373  1.0
  H  H73  1  0.59606723  0.05864189  0.02810649  1.0
  H  H74  1  0.30101643  0.94789120  0.12036696  1.0
  H  H75  1  0.33750597  0.97835171  0.06370869  1.0
  H  H76  1  0.33636812  0.86794809  0.08482813  1.0
  H  H77  1  0.40134232  0.90639412  0.06955237  1.0
  H  H78  1  0.67683016  0.85176772  0.90602269  1.0
  H  H79  1  0.66031610  0.94437054  0.91846051  1.0
  H  H80  1  0.70727726  0.92885370  0.86341511  1.0
  H  H81  1  0.61235432  0.87075907  0.95169375  1.0
  H  H82  1  0.34850374  0.06408308  0.88680603  1.0
  H  H83  1  0.34638345  0.04862456  0.97541894  1.0
  H  H84  1  0.30044726  0.10550134  0.95625539  1.0
  H  H85  1  0.40844497  0.01979246  0.90881510  1.0
  H  H86  1  0.93450243  0.16352507  0.31422022  1.0
  H  H87  1  0.98637760  0.12084775  0.34825958  1.0
  H  H88  1  0.87454623  0.09568286  0.34067737  1.0
  H  H89  1  0.91015505  0.10220865  0.40423367  1.0
  H  H90  1  0.09974359  0.14265602  0.64917774  1.0
  H  H91  1  0.08428535  0.05146518  0.63507257  1.0
  H  H92  1  0.13520353  0.06308742  0.68392008  1.0
  H  H93  1  0.06303081  0.12831972  0.58801340  1.0
  H  H94  1  0.11927887  0.95331380  0.34190807  1.0
  H  H95  1  0.02432097  0.98352279  0.34990039  1.0
  H  H96  1  0.03618606  0.92595755  0.30828731  1.0
  H  H97  1  0.10076223  0.00057681  0.39848158  1.0
  H  H98  1  0.91529386  0.92958826  0.63772085  1.0
  H  H99  1  0.00471844  0.96775172  0.63576937  1.0
  H  H100  1  0.99603136  0.91297207  0.68258240  1.0
  H  H101  1  0.93101125  0.97521802  0.58100944  1.0
  C  C102  1  0.81025229  0.25139118  0.10292015  1.0
  C  C103  1  0.84116339  0.27902291  0.11242825  1.0
  C  C104  1  0.84469842  0.27284003  0.15231761  1.0
  C  C105  1  0.73111273  0.07222648  0.15797098  1.0
  C  C106  1  0.71104049  0.07688869  0.12288559  1.0
  C  C107  1  0.71534389  0.11830889  0.11388656  1.0
  C  C108  1  0.85544415  0.17610482  0.27699088  1.0
  C  C109  1  0.85588904  0.13865836  0.29676991  1.0
  C  C110  1  0.82494659  0.11654033  0.27895112  1.0
  C  C111  1  0.88397909  0.72504831  0.87176992  1.0
  C  C112  1  0.92818353  0.71851203  0.87498885  1.0
  C  C113  1  0.94643425  0.74308300  0.84552046  1.0
  C  C114  1  0.75993543  0.88156641  0.81343829  1.0
  C  C115  1  0.73719106  0.87105718  0.84796093  1.0
  C  C116  1  0.75394538  0.83216601  0.85671633  1.0
  C  C117  1  0.95272985  0.85445423  0.72668092  1.0
  C  C118  1  0.93748305  0.88397461  0.70088734  1.0
  C  C119  1  0.89283194  0.88334282  0.70762499  1.0
  C  C120  1  0.13547665  0.27221172  0.88924366  1.0
  C  C121  1  0.09329166  0.28233733  0.88019379  1.0
  C  C122  1  0.08822540  0.26095345  0.84598732  1.0
  C  C123  1  0.27624500  0.11315770  0.86004164  1.0
  C  C124  1  0.28406440  0.12216685  0.89851095  1.0
  C  C125  1  0.26054467  0.15861483  0.90545700  1.0
  C  C126  1  0.12967289  0.15753221  0.72648195  1.0
  C  C127  1  0.14549609  0.12004359  0.71172150  1.0
  C  C128  1  0.17929866  0.10975596  0.73526319  1.0
  C  C129  1  0.15271417  0.71491079  0.14250000  1.0
  C  C130  1  0.10970797  0.70413369  0.14718553  1.0
  C  C131  1  0.09268778  0.73043220  0.17625015  1.0
  C  C132  1  0.26781468  0.88268354  0.16661169  1.0
  C  C133  1  0.28956257  0.86736685  0.13301482  1.0
  C  C134  1  0.27412754  0.82797745  0.13013810  1.0
  C  C135  1  0.08289934  0.86319567  0.27007077  1.0
  C  C136  1  0.09651355  0.89811305  0.28818654  1.0
  C  C137  1  0.14026389  0.89914121  0.27701548  1.0
  C  C138  1  0.03875906  0.03337240  0.45002684  1.0
  C  C139  1  0.00604522  0.05405990  0.47161395  1.0
  C  C140  1  0.97368444  0.07482872  0.45266092  1.0
  C  C141  1  0.97436695  0.07596942  0.41208244  1.0
  C  C142  1  0.00631503  0.05335294  0.39120481  1.0
  C  C143  1  0.03830461  0.03126142  0.40965123  1.0
  C  C144  1  0.00609860  0.05132395  0.51441389  1.0
  C  C145  1  0.03185045  0.07607979  0.53514074  1.0
  C  C146  1  0.03548239  0.07018353  0.57505423  1.0
  C  C147  1  0.01242680  0.03912621  0.59362657  1.0
  C  C148  1  0.98558773  0.01449461  0.57360200  1.0
  C  C149  1  0.98229481  0.02149278  0.53384025  1.0
  C  C150  1  0.02376287  0.45664558  0.00233469  1.0
  C  C151  1  0.99676928  0.47791866  0.02898040  1.0
  C  C152  1  0.96888964  0.45649978  0.05384223  1.0
  C  C153  1  0.96589695  0.41413729  0.05103207  1.0
  C  C154  1  0.99233938  0.39353389  0.02315621  1.0
  C  C155  1  0.02174499  0.41424227  0.99885942  1.0
  C  C156  1  0.99566085  0.52307976  0.02913084  1.0
  C  C157  1  0.97018556  0.54372073  0.00301511  1.0
  C  C158  1  0.96887737  0.58635992  0.00078743  1.0
  C  C159  1  0.99200666  0.60788069  0.02681706  1.0
  C  C160  1  0.01640444  0.58794534  0.05436382  1.0
  C  C161  1  0.01889734  0.54518821  0.05445465  1.0
  C  C162  1  0.55183187  0.93168074  0.97414704  1.0
  C  C163  1  0.52740810  0.96403100  0.99030277  1.0
  C  C164  1  0.54792500  0.99680192  0.00562238  1.0
  C  C165  1  0.59262157  0.99689573  0.00672085  1.0
  C  C166  1  0.61663232  0.96516975  0.98850295  1.0
  C  C167  1  0.59670896  0.93294617  0.97135287  1.0
  C  C168  1  0.47991620  0.96563122  0.99145954  1.0
  C  C169  1  0.45591251  0.94713684  0.02148229  1.0
  C  C170  1  0.41123028  0.95306444  0.02535220  1.0
  C  C171  1  0.39107365  0.97736373  0.99783887  1.0
  C  C172  1  0.41441501  0.99534068  0.96689615  1.0
  C  C173  1  0.45900204  0.98875438  0.96387967  1.0
  C  C174  1  0.86547323  0.30479979  0.08620453  1.0
  C  C175  1  0.88867647  0.33682053  0.09598469  1.0
  C  C176  1  0.91605514  0.35844277  0.06902942  1.0
  C  C177  1  0.93617248  0.39285542  0.07726940  1.0
  C  C178  1  0.95043709  0.69410945  0.90267254  1.0
  C  C179  1  0.93391309  0.66330229  0.92439545  1.0
  C  C180  1  0.95716458  0.64181908  0.95306105  1.0
  C  C181  1  0.94468962  0.60732348  0.97141008  1.0
  C  C182  1  0.06207402  0.30716524  0.90223590  1.0
  C  C183  1  0.07175966  0.33760136  0.92596470  1.0
  C  C184  1  0.04137146  0.35934183  0.95112855  1.0
  C  C185  1  0.05068213  0.39279251  0.97106400  1.0
  C  C186  1  0.08842463  0.67549599  0.12426232  1.0
  C  C187  1  0.04555700  0.67402702  0.12134210  1.0
  C  C188  1  0.02410936  0.64772246  0.09615891  1.0
  C  C189  1  0.03811732  0.61086465  0.08278516  1.0
  C  C190  1  0.69195283  0.04614779  0.10062451  1.0
  C  C191  1  0.66312374  0.05348394  0.07345979  1.0
  C  C192  1  0.64585508  0.02261215  0.05052881  1.0
  C  C193  1  0.61214314  0.02867389  0.02813857  1.0
  C  C194  1  0.31832311  0.88746485  0.10561284  1.0
  C  C195  1  0.32198359  0.92824346  0.10191426  1.0
  C  C196  1  0.34907772  0.94840057  0.07313548  1.0
  C  C197  1  0.38692854  0.93392051  0.05728935  1.0
  C  C198  1  0.70693346  0.89638705  0.87032535  1.0
  C  C199  1  0.67960307  0.88414996  0.89951929  1.0
  C  C200  1  0.65373959  0.91217122  0.92285920  1.0
  C  C201  1  0.62173856  0.90238664  0.94877279  1.0
  C  C202  1  0.30817761  0.09897494  0.92576874  1.0
  C  C203  1  0.33861732  0.06983765  0.91705128  1.0
  C  C204  1  0.35928870  0.04566848  0.94558253  1.0
  C  C205  1  0.39372471  0.02054021  0.93814661  1.0
  C  C206  1  0.88405754  0.12345761  0.32549215  1.0
  C  C207  1  0.92285758  0.13817288  0.33199247  1.0
  C  C208  1  0.95254899  0.11945402  0.35770835  1.0
  C  C209  1  0.94280295  0.09994820  0.39143219  1.0
  C  C210  1  0.12878073  0.09583908  0.68191460  1.0
  C  C211  1  0.10466775  0.10988763  0.65308472  1.0
  C  C212  1  0.08334912  0.08389305  0.62792928  1.0
  C  C213  1  0.06157823  0.09647178  0.59710471  1.0
  C  C214  1  0.07066419  0.92650555  0.31148201  1.0
  C  C215  1  0.08520123  0.95337100  0.33668561  1.0
  C  C216  1  0.05755672  0.98163483  0.35799939  1.0
  C  C217  1  0.06857897  0.00428982  0.38805908  1.0
  C  C218  1  0.96255475  0.91038941  0.67588986  1.0
  C  C219  1  0.94810746  0.93293483  0.64608735  1.0
  C  C220  1  0.97334113  0.96208430  0.62500099  1.0
  C  C221  1  0.96111501  0.98279623  0.59330422  1.0
  N  N222  1  0.81822631  0.24369990  0.16521809  1.0
  N  N223  1  0.79654821  0.23056571  0.13454690  1.0
  N  N224  1  0.73635936  0.13658662  0.14131701  1.0
  N  N225  1  0.74589220  0.10803548  0.16893905  1.0
  N  N226  1  0.80818019  0.13868107  0.25035327  1.0
  N  N227  1  0.82701302  0.17584638  0.24933507  1.0
  N  N228  1  0.91561329  0.76245796  0.82631582  1.0
  N  N229  1  0.87674039  0.75143116  0.84282153  1.0
  N  N230  1  0.78436330  0.82077757  0.82972017  1.0
  N  N231  1  0.78791068  0.85141936  0.80262359  1.0
  N  N232  1  0.88261731  0.85589499  0.73533080  1.0
  N  N233  1  0.91987255  0.83770251  0.74700608  1.0
  N  N234  1  0.12458233  0.24009720  0.83548328  1.0
  N  N235  1  0.15382234  0.24675050  0.86264988  1.0
  N  N236  1  0.24054403  0.17035443  0.87368716  1.0
  N  N237  1  0.25003268  0.14186562  0.84555896  1.0
  N  N238  1  0.18328426  0.13882987  0.76170375  1.0
  N  N239  1  0.15211409  0.16834569  0.75648740  1.0
  N  N240  1  0.12301132  0.75513566  0.18730029  1.0
  N  N241  1  0.16039754  0.74561424  0.16625585  1.0
  N  N242  1  0.24511007  0.82072622  0.15928593  1.0
  N  N243  1  0.24136693  0.85473564  0.18203149  1.0
  N  N244  1  0.15153022  0.86746773  0.25404643  1.0
  N  N245  1  0.11593094  0.84491746  0.24995794  1.0
