# generated using pymatgen
data_ZnH22C26N3O4
_symmetry_space_group_name_H-M   'P 1'
_cell_length_a   16.25613232
_cell_length_b   17.39096847
_cell_length_c   19.40334452
_cell_angle_alpha   85.87947419
_cell_angle_beta   85.38781062
_cell_angle_gamma   86.21420831
_symmetry_Int_Tables_number   1
_chemical_formula_structural   ZnH22C26N3O4
_chemical_formula_sum   'Zn2 H44 C52 N6 O8'
_cell_volume   5443.59714144
_cell_formula_units_Z   2
loop_
 _symmetry_equiv_pos_site_id
 _symmetry_equiv_pos_as_xyz
  1  'x, y, z'
loop_
 _atom_site_type_symbol
 _atom_site_label
 _atom_site_symmetry_multiplicity
 _atom_site_fract_x
 _atom_site_fract_y
 _atom_site_fract_z
 _atom_site_occupancy
  Zn  Zn0  1  0.58582107  0.50029401  0.49448859  1.0
  Zn  Zn1  1  0.41418044  0.49969252  0.50550876  1.0
  H  H2  1  0.62774744  0.51567786  0.71415576  1.0
  H  H3  1  0.37226018  0.48430893  0.28584740  1.0
  H  H4  1  0.27815701  0.58029417  0.43282626  1.0
  H  H5  1  0.72184114  0.41969751  0.56717371  1.0
  H  H6  1  0.71084781  0.59303347  0.41046471  1.0
  H  H7  1  0.28915272  0.40695988  0.58953557  1.0
  H  H8  1  0.13508092  0.39752433  0.59828753  1.0
  H  H9  1  0.86491761  0.60248244  0.40172429  1.0
  H  H10  1  0.62138903  0.51593747  0.84372060  1.0
  H  H11  1  0.37860493  0.48407614  0.15627992  1.0
  H  H12  1  0.39525251  0.25784092  0.56951263  1.0
  H  H13  1  0.60475437  0.74213468  0.43049714  1.0
  H  H14  1  0.64534600  0.10513821  0.48020224  1.0
  H  H15  1  0.35466030  0.89485110  0.51979576  1.0
  H  H16  1  0.60272882  0.88645784  0.42400024  1.0
  H  H17  1  0.39728670  0.11351756  0.57601107  1.0
  H  H18  1  0.99705841  0.55819897  0.43642068  1.0
  H  H19  1  0.00293721  0.44181569  0.56359672  1.0
  H  H20  1  0.87509677  0.42111985  0.56640152  1.0
  H  H21  1  0.12489915  0.57888985  0.43360984  1.0
  H  H22  1  0.25759670  0.55894810  0.79307200  1.0
  H  H23  1  0.25529123  0.45793327  0.78556802  1.0
  H  H24  1  0.20074282  0.50120050  0.85692016  1.0
  H  H25  1  0.33134851  0.43172623  0.89380144  1.0
  H  H26  1  0.32785686  0.52966522  0.90659501  1.0
  H  H27  1  0.74468645  0.54214971  0.21441778  1.0
  H  H28  1  0.74242184  0.44113043  0.20692281  1.0
  H  H29  1  0.79925091  0.49889420  0.14306892  1.0
  H  H30  1  0.67215160  0.47038147  0.09339322  1.0
  H  H31  1  0.66861710  0.56832557  0.10619129  1.0
  H  H32  1  0.36696396  0.49318098  0.72530593  1.0
  H  H33  1  0.63303768  0.50682882  0.27468549  1.0
  H  H34  1  0.35604505  0.75062335  0.52284753  1.0
  H  H35  1  0.64395628  0.24936730  0.47714764  1.0
  H  H36  1  0.46456159  0.95988950  0.33203381  1.0
  H  H37  1  0.36466782  0.95738323  0.37517169  1.0
  H  H38  1  0.39033200  0.03784460  0.31764555  1.0
  H  H39  1  0.39158218  0.07347724  0.43945916  1.0
  H  H40  1  0.48933929  0.07882281  0.39578654  1.0
  H  H41  1  0.63533004  0.04260140  0.62483162  1.0
  H  H42  1  0.53543404  0.04009137  0.66796358  1.0
  H  H43  1  0.60966400  0.96214005  0.68235839  1.0
  H  H44  1  0.51066623  0.92115799  0.60420870  1.0
  H  H45  1  0.60842803  0.92650726  0.56054237  1.0
  C  C46  1  0.51551036  0.34860461  0.51560541  1.0
  C  C47  1  0.48449367  0.65138072  0.48439235  1.0
  C  C48  1  0.51923207  0.26216463  0.52257008  1.0
  C  C49  1  0.48076627  0.73782368  0.47742741  1.0
  C  C50  1  0.45005380  0.22363846  0.55087133  1.0
  C  C51  1  0.54995249  0.77633801  0.44913123  1.0
  C  C52  1  0.45133016  0.14339206  0.55402464  1.0
  C  C53  1  0.54868572  0.85659000  0.44597818  1.0
  C  C54  1  0.52095354  0.09966560  0.52757734  1.0
  C  C55  1  0.47905613  0.90031786  0.47242169  1.0
  C  C56  1  0.59079457  0.13854803  0.50081537  1.0
  C  C57  1  0.40920923  0.86144188  0.49918328  1.0
  C  C58  1  0.59027062  0.21888834  0.49876780  1.0
  C  C59  1  0.40973526  0.78109761  0.50122827  1.0
  C  C60  1  0.51848508  0.01439845  0.52588073  1.0
  C  C61  1  0.48152600  0.98558227  0.47411417  1.0
  C  C62  1  0.24321176  0.54071840  0.46824408  1.0
  C  C63  1  0.75678669  0.45927958  0.53175669  1.0
  C  C64  1  0.15799548  0.53917860  0.46919958  1.0
  C  C65  1  0.84200129  0.46082652  0.53081085  1.0
  C  C66  1  0.11597008  0.48716538  0.51631699  1.0
  C  C67  1  0.88402596  0.51284205  0.48369341  1.0
  C  C68  1  0.49806219  0.50393105  0.63537644  1.0
  C  C69  1  0.50195562  0.49606272  0.36462071  1.0
  C  C70  1  0.16426006  0.43889961  0.56068949  1.0
  C  C71  1  0.83573849  0.56110728  0.43931923  1.0
  C  C72  1  0.24950519  0.44366557  0.55639880  1.0
  C  C73  1  0.75049338  0.55632940  0.44360516  1.0
  C  C74  1  0.02668338  0.48112320  0.52122861  1.0
  C  C75  1  0.97331310  0.51888695  0.47878580  1.0
  C  C76  1  0.56956679  0.50999160  0.74553357  1.0
  C  C77  1  0.43044017  0.49000924  0.25446400  1.0
  C  C78  1  0.56577718  0.50979728  0.81727140  1.0
  C  C79  1  0.43421797  0.49021752  0.18272746  1.0
  C  C80  1  0.49064073  0.50150409  0.85783915  1.0
  C  C81  1  0.50934790  0.49853119  0.14215427  1.0
  C  C82  1  0.41633919  0.49486477  0.82532749  1.0
  C  C83  1  0.58365866  0.50515961  0.17466109  1.0
  C  C84  1  0.42205262  0.49659089  0.75299883  1.0
  C  C85  1  0.57794841  0.50341823  0.24699574  1.0
  C  C86  1  0.49698431  0.50334071  0.71289399  1.0
  C  C87  1  0.50302020  0.49666029  0.28710064  1.0
  C  C88  1  0.50570854  0.49913430  0.06654155  1.0
  C  C89  1  0.49426840  0.50092539  0.93345125  1.0
  C  C90  1  0.33288747  0.48877531  0.86545998  1.0
  C  C91  1  0.25781521  0.50256025  0.82258256  1.0
  C  C92  1  0.66710373  0.51127101  0.13452983  1.0
  C  C93  1  0.74218118  0.49751830  0.17740586  1.0
  C  C94  1  0.44364055  0.03739513  0.41661223  1.0
  C  C95  1  0.41424580  0.99568807  0.35720740  1.0
  C  C96  1  0.55636431  0.96258613  0.58338613  1.0
  C  C97  1  0.58575218  0.00429437  0.64279288  1.0
  N  N98  1  0.44120397  0.45864541  0.97571802  1.0
  N  N99  1  0.55876449  0.54142298  0.02427656  1.0
  N  N100  1  0.44700141  0.45778062  0.04309621  1.0
  N  N101  1  0.55296378  0.54229193  0.95689637  1.0
  N  N102  1  0.28826244  0.49376000  0.51103747  1.0
  N  N103  1  0.71173763  0.50623057  0.48896036  1.0
  O  O104  1  0.58368603  0.38149541  0.50615004  1.0
  O  O105  1  0.41630299  0.61849273  0.49385576  1.0
  O  O106  1  0.44357703  0.38281875  0.51885855  1.0
  O  O107  1  0.55641160  0.61716697  0.48113549  1.0
  O  O108  1  0.56839640  0.50380009  0.60123558  1.0
  O  O109  1  0.43161132  0.49619783  0.39876257  1.0
  O  O110  1  0.42827060  0.50443815  0.60982736  1.0
  O  O111  1  0.57174048  0.49554259  0.39016703  1.0
