# generated using pymatgen
data_Zn4H43C80N20Cl5O16
_symmetry_space_group_name_H-M   'P 1'
_cell_length_a   19.18056640
_cell_length_b   19.94238118
_cell_length_c   20.87114998
_cell_angle_alpha   107.10125023
_cell_angle_beta   102.81797880
_cell_angle_gamma   115.60815464
_symmetry_Int_Tables_number   1
_chemical_formula_structural   Zn4H43C80N20Cl5O16
_chemical_formula_sum   'Zn4 H43 C80 N20 Cl5 O16'
_cell_volume   6291.69193869
_cell_formula_units_Z   1
loop_
 _symmetry_equiv_pos_site_id
 _symmetry_equiv_pos_as_xyz
  1  'x, y, z'
loop_
 _atom_site_type_symbol
 _atom_site_label
 _atom_site_symmetry_multiplicity
 _atom_site_fract_x
 _atom_site_fract_y
 _atom_site_fract_z
 _atom_site_occupancy
  Zn  Zn0  1  0.87444638  0.90523637  0.50150686  1.0
  Zn  Zn1  1  0.15224171  0.13143184  0.51074060  1.0
  Zn  Zn2  1  0.10656172  0.99659335  0.59104367  1.0
  Zn  Zn3  1  0.93239349  0.03693796  0.42216180  1.0
  H  H4  1  0.83932219  0.90264203  0.63526371  1.0
  H  H5  1  0.22748596  0.14754159  0.76517143  1.0
  H  H6  1  0.75390241  0.05989962  0.40148487  1.0
  H  H7  1  0.18812358  0.28552198  0.65139888  1.0
  H  H8  1  0.92093750  0.18126947  0.52106671  1.0
  H  H9  1  0.11104083  0.02455230  0.74187768  1.0
  H  H10  1  0.77981693  0.73653935  0.36544842  1.0
  H  H11  1  0.29384138  0.07907949  0.46503466  1.0
  H  H12  1  0.91540093  0.93217188  0.26312369  1.0
  H  H13  1  0.18855649  0.06744463  0.36299444  1.0
  H  H14  1  0.75963855  0.89759791  0.27126179  1.0
  H  H15  1  0.09152831  0.85644091  0.45123606  1.0
  H  H16  1  0.48060903  0.00958681  0.36452199  1.0
  H  H17  1  0.62631989  0.04258077  0.39982898  1.0
  H  H18  1  0.53685736  0.78602782  0.34692217  1.0
  H  H19  1  0.39083859  0.75343337  0.31233385  1.0
  H  H20  1  0.33121568  0.79741993  0.40004634  1.0
  H  H21  1  0.23441075  0.82686876  0.44569935  1.0
  H  H22  1  0.23765965  0.96861982  0.32448931  1.0
  H  H23  1  0.33603171  0.94059640  0.27997060  1.0
  H  H24  1  0.11884795  0.41773005  0.51757641  1.0
  H  H25  1  0.97150256  0.32631644  0.63488155  1.0
  H  H26  1  0.94212237  0.43832003  0.65421172  1.0
  H  H27  1  0.89125313  0.59129970  0.46665770  1.0
  H  H28  1  0.03283813  0.74453547  0.69924844  1.0
  H  H29  1  0.05493833  0.63471552  0.71091581  1.0
  H  H30  1  0.54900804  0.51056476  0.12416203  1.0
  H  H31  1  0.68330332  0.62458200  0.23217368  1.0
  H  H32  1  0.35562948  0.39599002  0.79485709  1.0
  H  H33  1  0.42010869  0.50889372  0.92206326  1.0
  H  H34  1  0.60089884  0.79374949  0.22613601  1.0
  H  H35  1  0.92678293  0.79654836  0.03326231  1.0
  H  H36  1  0.18012721  0.04712342  0.24525504  1.0
  H  H37  1  0.17871092  0.00798099  0.12021464  1.0
  H  H38  1  0.07995055  0.92125424  0.77895965  1.0
  H  H39  1  0.21292426  0.86828288  0.67862533  1.0
  H  H40  1  0.72081896  0.58761154  0.50118598  1.0
  H  H41  1  0.15704966  0.56938703  0.46977267  1.0
  H  H42  1  0.83560295  0.40400836  0.35873534  1.0
  H  H43  1  0.06369024  0.12512181  0.82662245  1.0
  H  H44  1  0.80606826  0.71063862  0.11093999  1.0
  H  H45  1  0.73460700  0.77628892  0.86899787  1.0
  H  H46  1  0.73707691  0.76924229  0.48331346  1.0
  C  C47  1  0.90724632  0.93565739  0.65223778  1.0
  C  C48  1  0.11500429  0.27884125  0.53443823  1.0
  C  C49  1  0.21326402  0.16951257  0.72521459  1.0
  C  C50  1  0.75276275  0.01486133  0.42120782  1.0
  C  C51  1  0.19340063  0.24031112  0.66727994  1.0
  C  C52  1  0.72047893  0.90950812  0.44880202  1.0
  C  C53  1  0.98466097  0.20565294  0.52345490  1.0
  C  C54  1  0.04590251  0.99717079  0.70573468  1.0
  C  C55  1  0.97129825  0.95320465  0.71480981  1.0
  C  C56  1  0.04973579  0.28787209  0.54794739  1.0
  C  C57  1  0.21722804  0.24446490  0.73729791  1.0
  C  C58  1  0.68227315  0.94287221  0.41232791  1.0
  C  C59  1  0.78867512  0.78654200  0.35057049  1.0
  C  C60  1  0.23977505  0.03308704  0.46887926  1.0
  C  C61  1  0.03003763  0.82034753  0.57955981  1.0
  C  C62  1  0.98225111  0.97338419  0.29814999  1.0
  C  C63  1  0.12172500  0.04280428  0.34906586  1.0
  C  C64  1  0.89067724  0.74271918  0.52536835  1.0
  C  C65  1  0.77755961  0.86960422  0.30395287  1.0
  C  C66  1  0.13742947  0.91887198  0.46176817  1.0
  C  C67  1  0.73490536  0.78653028  0.29266649  1.0
  C  C68  1  0.20153925  0.94632666  0.43653038  1.0
  C  C69  1  0.96126066  0.74402615  0.56653152  1.0
  C  C70  1  0.05214652  0.98089716  0.28231963  1.0
  C  C71  1  0.49249862  0.95977988  0.35863161  1.0
  C  C72  1  0.57503841  0.97836043  0.37885563  1.0
  C  C73  1  0.59369191  0.91734507  0.37900342  1.0
  C  C74  1  0.52496270  0.83528993  0.35054214  1.0
  C  C75  1  0.44233170  0.81710452  0.33132567  1.0
  C  C76  1  0.42481124  0.87975062  0.33860949  1.0
  C  C77  1  0.30916653  0.83346901  0.38187049  1.0
  C  C78  1  0.25469809  0.85029478  0.40782237  1.0
  C  C79  1  0.23401937  0.90512546  0.39276200  1.0
  C  C80  1  0.25912777  0.93182101  0.34183479  1.0
  C  C81  1  0.31395905  0.91564338  0.31646568  1.0
  C  C82  1  0.34511176  0.87136306  0.34068119  1.0
  C  C83  1  0.06773163  0.48760801  0.56206157  1.0
  C  C84  1  0.08110122  0.42226716  0.54863429  1.0
  C  C85  1  0.04450487  0.36165070  0.57207562  1.0
  C  C86  1  0.99800971  0.37106464  0.61369028  1.0
  C  C87  1  0.98285970  0.43517145  0.62589226  1.0
  C  C88  1  0.01422622  0.49224372  0.59789392  1.0
  C  C89  1  0.93562871  0.53723576  0.52713963  1.0
  C  C90  1  0.92657230  0.60090146  0.52054257  1.0
  C  C91  1  0.96378934  0.67722768  0.58124961  1.0
  C  C92  1  0.00573962  0.68676013  0.65058575  1.0
  C  C93  1  0.01690067  0.62414116  0.65743987  1.0
  C  C94  1  0.98635914  0.55072158  0.59594425  1.0
  C  C95  1  0.65301921  0.71796449  0.23526513  1.0
  C  C96  1  0.59036469  0.73173886  0.20452168  1.0
  C  C97  1  0.51315354  0.66680702  0.14706781  1.0
  C  C98  1  0.49862568  0.58610737  0.11628676  1.0
  C  C99  1  0.56123246  0.57299746  0.14922889  1.0
  C  C100  1  0.63565261  0.63637486  0.20852560  1.0
  C  C101  1  0.23920672  0.37114847  0.92473526  1.0
  C  C102  1  0.20413648  0.30652022  0.85443769  1.0
  C  C103  1  0.31926969  0.44252660  0.95011293  1.0
  C  C104  1  0.24739728  0.31419935  0.80793143  1.0
  C  C105  1  0.32329093  0.38922435  0.83152866  1.0
  C  C106  1  0.35926584  0.45182919  0.90189247  1.0
  C  C107  1  0.96745985  0.92457078  0.77144629  1.0
  C  C108  1  0.03234033  0.91270064  0.80144333  1.0
  C  C109  1  0.03768050  0.88932393  0.85784646  1.0
  C  C110  1  0.97587352  0.87589800  0.88720409  1.0
  C  C111  1  0.90644182  0.87977390  0.85313888  1.0
  C  C112  1  0.90266352  0.90479758  0.79729813  1.0
  C  C113  1  0.98206105  0.85130699  0.08016297  1.0
  C  C114  1  0.98456004  0.86894616  0.15082277  1.0
  C  C115  1  0.05044689  0.90385877  0.06880457  1.0
  C  C116  1  0.05406680  0.94443762  0.21168620  1.0
  C  C117  1  0.12537992  0.99039410  0.19944027  1.0
  C  C118  1  0.12484185  0.96980444  0.12980000  1.0
  C  C119  1  0.12026784  0.86841361  0.62424380  1.0
  C  C120  1  0.80059230  0.68420191  0.50094966  1.0
  C  C121  1  0.11133436  0.55225330  0.53873633  1.0
  C  C122  1  0.88979459  0.45548369  0.46173626  1.0
  C  C123  1  0.11851620  0.22962194  0.82612241  1.0
  C  C124  1  0.91683826  0.80501287  0.16134742  1.0
  C  C125  1  0.83944012  0.86349285  0.88323165  1.0
  C  C126  1  0.68714566  0.83143588  0.45492972  1.0
  N  N127  1  0.94194733  0.96423513  0.60908129  1.0
  N  N128  1  0.09126471  0.19900701  0.50469129  1.0
  N  N129  1  0.18929932  0.12427332  0.65342772  1.0
  N  N130  1  0.82617275  0.02407280  0.45931502  1.0
  N  N131  1  0.17598648  0.16785271  0.61746463  1.0
  N  N132  1  0.80627488  0.96069383  0.47721083  1.0
  N  N133  1  0.00972744  0.15332698  0.49741798  1.0
  N  N134  1  0.02752388  0.00269810  0.64223283  1.0
  N  N135  1  0.85736632  0.86421842  0.39409125  1.0
  N  N136  1  0.20209694  0.05594835  0.50996184  1.0
  N  N137  1  0.00110560  0.85827689  0.54598149  1.0
  N  N138  1  0.00846605  0.02723111  0.36766134  1.0
  N  N139  1  0.09503059  0.06936344  0.39956437  1.0
  N  N140  1  0.91771163  0.81277804  0.51392479  1.0
  N  N141  1  0.84993674  0.91442290  0.36389826  1.0
  N  N142  1  0.13771912  0.98481288  0.50510766  1.0
  N  N143  1  0.43693449  0.51940102  0.04880833  1.0
  N  N144  1  0.36235705  0.50405484  0.02426146  1.0
  N  N145  1  0.97600652  0.86403164  0.95044686  1.0
  N  N146  1  0.04947640  0.90263203  0.00102242  1.0
  Cl  Cl147  1  0.21584036  0.35402382  0.55416937  1.0
  Cl  Cl148  1  0.18698890  0.36061113  0.98215944  1.0
  Cl  Cl149  1  0.44012168  0.68924312  0.11211742  1.0
  Cl  Cl150  1  0.81808773  0.91373364  0.76254039  1.0
  Cl  Cl151  1  0.11726955  0.87171434  0.88584995  1.0
  O  O152  1  0.16626726  0.94350343  0.64033255  1.0
  O  O153  1  0.15210150  0.82870759  0.64929911  1.0
  O  O154  1  0.74217538  0.68894771  0.46714213  1.0
  O  O155  1  0.78257619  0.62061299  0.51892607  1.0
  O  O156  1  0.13460947  0.62539721  0.56896699  1.0
  O  O157  1  0.12587714  0.52162879  0.47863699  1.0
  O  O158  1  0.86992168  0.38869588  0.46240730  1.0
  O  O159  1  0.86767452  0.46116532  0.39723652  1.0
  O  O160  1  0.05341322  0.21773532  0.78591395  1.0
  O  O161  1  0.12185814  0.17352704  0.84920809  1.0
  O  O162  1  0.92392158  0.79599708  0.21740693  1.0
  O  O163  1  0.84372661  0.75226965  0.09886428  1.0
  O  O164  1  0.84007546  0.91616193  0.93143035  1.0
  O  O165  1  0.77626288  0.78205319  0.84751966  1.0
  O  O166  1  0.61465798  0.77243399  0.42742090  1.0
  O  O167  1  0.75268206  0.82848328  0.49673482  1.0
