# generated using pymatgen
data_Zn2H18C33S2(N3O2)3
_symmetry_space_group_name_H-M   'P 1'
_cell_length_a   19.58889813
_cell_length_b   19.59915557
_cell_length_c   19.88592621
_cell_angle_alpha   111.75401881
_cell_angle_beta   105.05805162
_cell_angle_gamma   110.85499410
_symmetry_Int_Tables_number   1
_chemical_formula_structural   Zn2H18C33S2(N3O2)3
_chemical_formula_sum   'Zn4 H36 C66 S4 N18 O12'
_cell_volume   5913.08157345
_cell_formula_units_Z   2
loop_
 _symmetry_equiv_pos_site_id
 _symmetry_equiv_pos_as_xyz
  1  'x, y, z'
loop_
 _atom_site_type_symbol
 _atom_site_label
 _atom_site_symmetry_multiplicity
 _atom_site_fract_x
 _atom_site_fract_y
 _atom_site_fract_z
 _atom_site_occupancy
  Zn  Zn0  1  0.11447960  0.11812364  0.51419690  1.0
  Zn  Zn1  1  0.90619951  0.91181395  0.50018343  1.0
  Zn  Zn2  1  0.00512510  0.89672079  0.39041489  1.0
  Zn  Zn3  1  0.00325670  0.12431911  0.61686976  1.0
  H  H4  1  0.20792789  0.17049225  0.39372184  1.0
  H  H5  1  0.49062042  0.72282893  0.12412452  1.0
  H  H6  1  0.63475454  0.69761207  0.99526759  1.0
  H  H7  1  0.36613095  0.59596810  0.00168980  1.0
  H  H8  1  0.19386386  0.15182220  0.13332501  1.0
  H  H9  1  0.10171178  0.87214172  0.89747963  1.0
  H  H10  1  0.18062580  0.13952803  0.00146324  1.0
  H  H11  1  0.11763275  0.88548667  0.03060850  1.0
  H  H12  1  0.74388752  0.86180831  0.53197080  1.0
  H  H13  1  0.25798548  0.13438555  0.64964335  1.0
  H  H14  1  0.87853805  0.87759173  0.23076453  1.0
  H  H15  1  0.02580752  0.87284607  0.61338097  1.0
  H  H16  1  0.13399965  0.32198713  0.77352827  1.0
  H  H17  1  0.86303450  0.13159655  0.50343757  1.0
  H  H18  1  0.95037094  0.69087940  0.32066251  1.0
  H  H19  1  0.74881683  0.89246788  0.37752668  1.0
  H  H20  1  0.28396989  0.30474800  0.64900323  1.0
  H  H21  1  0.85695343  0.13590910  0.67427706  1.0
  H  H22  1  0.13258177  0.86069967  0.49011451  1.0
  H  H23  1  0.78366382  0.25627928  0.22095885  1.0
  H  H24  1  0.92644062  0.48995674  0.50451711  1.0
  H  H25  1  0.93231498  0.32710678  0.17746138  1.0
  H  H26  1  0.71101980  0.33454974  0.30397531  1.0
  H  H27  1  0.77855140  0.42337540  0.54672696  1.0
  H  H28  1  0.00552346  0.18800081  0.34402397  1.0
  H  H29  1  0.07220860  0.15590208  0.37496334  1.0
  H  H30  1  0.84861770  0.76683290  0.54620266  1.0
  H  H31  1  0.81634307  0.66189916  0.49437883  1.0
  H  H32  1  0.97705038  0.84574020  0.11868206  1.0
  H  H33  1  0.07522957  0.08941956  0.86841347  1.0
  H  H34  1  0.99915328  0.41119761  0.42136620  1.0
  H  H35  1  0.49750320  0.84785114  0.58228253  1.0
  H  H36  1  0.51303240  0.12659069  0.72150266  1.0
  H  H37  1  0.37323183  0.85232544  0.58503690  1.0
  H  H38  1  0.63727242  0.12208516  0.71861864  1.0
  H  H39  1  0.51017571  0.57089064  0.87277729  1.0
  C  C40  1  0.16697107  0.10341791  0.36918337  1.0
  C  C41  1  0.93519519  0.39476752  0.39602055  1.0
  C  C42  1  0.81524918  0.30785771  0.28414524  1.0
  C  C43  1  0.89512144  0.43779926  0.44161871  1.0
  C  C44  1  0.88818842  0.19410707  0.38995495  1.0
  C  C45  1  0.86532675  0.58702664  0.38159189  1.0
  C  C46  1  0.81935406  0.34896389  0.40555723  1.0
  C  C47  1  0.89091360  0.39713663  0.32014943  1.0
  C  C48  1  0.86006601  0.30329482  0.35998386  1.0
  C  C49  1  0.85058799  0.44288964  0.36628483  1.0
  C  C50  1  0.86906709  0.23672481  0.36570600  1.0
  C  C51  1  0.03896467  0.93810130  0.64374179  1.0
  C  C52  1  0.85168572  0.51719339  0.37140440  1.0
  C  C53  1  0.43135683  0.91128221  0.61484747  1.0
  C  C54  1  0.57939879  0.06316932  0.69002870  1.0
  C  C55  1  0.78300556  0.93044567  0.56398753  1.0
  C  C56  1  0.21603983  0.06786331  0.60315213  1.0
  C  C57  1  0.43384246  0.98975676  0.65186551  1.0
  C  C58  1  0.57576120  0.98471502  0.64868407  1.0
  C  C59  1  0.51000516  0.06566438  0.69169546  1.0
  C  C60  1  0.50081561  0.90879176  0.61321528  1.0
  C  C61  1  0.36085244  0.99243588  0.64214772  1.0
  C  C62  1  0.77037316  0.99460374  0.61086436  1.0
  C  C63  1  0.64457876  0.98385615  0.63934009  1.0
  C  C64  1  0.70315802  0.98687635  0.62688627  1.0
  C  C65  1  0.29785318  0.99546227  0.62346730  1.0
  C  C66  1  0.57561698  0.67556796  0.99609970  1.0
  C  C67  1  0.42501677  0.61888947  0.00041035  1.0
  C  C68  1  0.57168382  0.71852361  0.06864472  1.0
  C  C69  1  0.42964020  0.57396014  0.92900858  1.0
  C  C70  1  0.49454142  0.68977111  0.06876183  1.0
  C  C71  1  0.50617069  0.60477968  0.92783238  1.0
  C  C72  1  0.64437636  0.78365575  0.14057430  1.0
  C  C73  1  0.22627352  0.99691962  0.58914927  1.0
  C  C74  1  0.36053166  0.49808869  0.86123194  1.0
  C  C75  1  0.30267161  0.42998781  0.80383599  1.0
  C  C76  1  0.70855705  0.83081177  0.20326808  1.0
  C  C77  1  0.16606468  0.08370604  0.00766034  1.0
  C  C78  1  0.13058027  0.94061836  0.02350340  1.0
  C  C79  1  0.85943324  0.88688318  0.27842738  1.0
  C  C80  1  0.15891917  0.30445018  0.73147838  1.0
  C  C81  1  0.13786929  0.00423291  0.93947153  1.0
  C  C82  1  0.15498731  0.01909778  0.09055342  1.0
  C  C83  1  0.12198126  0.93323903  0.94927200  1.0
  C  C84  1  0.78197420  0.87209348  0.27382699  1.0
  C  C85  1  0.17402382  0.09086017  0.08160746  1.0
  C  C86  1  0.12173453  0.99682829  0.86273670  1.0
  C  C87  1  0.15668614  0.02535132  0.16409806  1.0
  C  C88  1  0.15379183  0.03128465  0.22650707  1.0
  C  C89  1  0.10339378  0.99240211  0.79686331  1.0
  C  C90  1  0.90712658  0.13097289  0.47990304  1.0
  C  C91  1  0.92733475  0.71262796  0.36351897  1.0
  C  C92  1  0.79271641  0.89398357  0.35337409  1.0
  C  C93  1  0.23585725  0.29528635  0.66803923  1.0
  C  C94  1  0.98473125  0.14043037  0.41558348  1.0
  C  C95  1  0.23737615  0.35015056  0.73911114  1.0
  C  C96  1  0.87045395  0.72742633  0.44763591  1.0
  C  C97  1  0.84075825  0.07065372  0.63624926  1.0
  C  C98  1  0.15168546  0.92778345  0.52161513  1.0
  C  C99  1  0.09121148  0.96383473  0.29744537  1.0
  C  C100  1  0.07629178  0.07065717  0.72890411  1.0
  C  C101  1  0.14116543  0.03351958  0.29325986  1.0
  C  C102  1  0.07761241  0.99828678  0.72747320  1.0
  C  C103  1  0.91946643  0.15347236  0.42275989  1.0
  C  C104  1  0.88440288  0.66813176  0.39454297  1.0
  C  C105  1  0.77513455  0.35152996  0.32963230  1.0
  S  S106  1  0.93813076  0.43419966  0.26719587  1.0
  S  S107  1  0.77242167  0.31423383  0.45971884  1.0
  S  S108  1  0.03848784  0.85458305  0.22999865  1.0
  S  S109  1  0.09901279  0.16373475  0.81267899  1.0
  N  N110  1  0.13348116  0.07588394  0.41222357  1.0
  N  N111  1  0.16256346  0.22336698  0.62235531  1.0
  N  N112  1  0.00895928  0.11341640  0.46559197  1.0
  N  N113  1  0.90251535  0.80036168  0.44729666  1.0
  N  N114  1  0.89027482  0.05290425  0.60666842  1.0
  N  N115  1  0.10318030  0.95640924  0.49702413  1.0
  N  N116  1  0.08649146  0.99015252  0.36767808  1.0
  N  N117  1  0.04090611  0.05420797  0.65321378  1.0
  N  N118  1  0.01649297  0.15039482  0.36386022  1.0
  N  N119  1  0.82762904  0.71522466  0.49146152  1.0
  N  N120  1  0.01694619  0.97287243  0.60085899  1.0
  N  N121  1  0.85471020  0.96586676  0.56194500  1.0
  N  N122  1  0.14239799  0.04238763  0.54681242  1.0
  N  N123  1  0.91069399  0.91338375  0.35406180  1.0
  N  N124  1  0.11480844  0.22894435  0.66188273  1.0
  N  N125  1  0.96074673  0.10797085  0.50542812  1.0
  N  N126  1  0.93829858  0.79098120  0.39520512  1.0
  N  N127  1  0.86974759  0.91770579  0.40007238  1.0
  O  O128  1  0.87714716  0.42041456  0.19686084  1.0
  O  O129  1  0.18546696  0.21512058  0.86503335  1.0
  O  O130  1  0.05334734  0.19871989  0.78311848  1.0
  O  O131  1  0.05316413  0.12417270  0.85633614  1.0
  O  O132  1  0.01036773  0.51561605  0.32485596  1.0
  O  O133  1  0.96954927  0.36726229  0.23528589  1.0
  O  O134  1  0.70028440  0.23249637  0.40356454  1.0
  O  O135  1  0.83370391  0.33041055  0.53148247  1.0
  O  O136  1  0.74097192  0.38180514  0.48925661  1.0
  O  O137  1  0.08670973  0.82889966  0.19502536  1.0
  O  O138  1  0.00267803  0.81543022  0.27069910  1.0
  O  O139  1  0.96076170  0.83799850  0.15914156  1.0
