# generated using pymatgen
data_ZnH6C11(NO2)2
_symmetry_space_group_name_H-M   'P 1'
_cell_length_a   7.41008652
_cell_length_b   9.16043705
_cell_length_c   17.32983430
_cell_angle_alpha   83.74024203
_cell_angle_beta   81.39846523
_cell_angle_gamma   80.01219819
_symmetry_Int_Tables_number   1
_chemical_formula_structural   ZnH6C11(NO2)2
_chemical_formula_sum   'Zn2 H12 C22 N4 O8'
_cell_volume   1141.30603214
_cell_formula_units_Z   2
loop_
 _symmetry_equiv_pos_site_id
 _symmetry_equiv_pos_as_xyz
  1  'x, y, z'
loop_
 _atom_site_type_symbol
 _atom_site_label
 _atom_site_symmetry_multiplicity
 _atom_site_fract_x
 _atom_site_fract_y
 _atom_site_fract_z
 _atom_site_occupancy
  Zn  Zn0  1  0.31143040  0.55157493  0.50012639  1.0
  Zn  Zn1  1  0.68982929  0.44287352  0.48902369  1.0
  H  H2  1  0.73486380  0.31342985  0.72847838  1.0
  H  H3  1  0.29174186  0.04039142  0.49393002  1.0
  H  H4  1  0.08344488  0.35087958  0.48849635  1.0
  H  H5  1  0.91810627  0.64406643  0.50036861  1.0
  H  H6  1  0.23931192  0.56256150  0.25816461  1.0
  H  H7  1  0.82011264  0.39154837  0.24464490  1.0
  H  H8  1  0.15678205  0.49736701  0.75364739  1.0
  H  H9  1  0.13856724  0.45306076  0.89793438  1.0
  H  H10  1  0.83053534  0.34740616  0.10523752  1.0
  H  H11  1  0.24512771  0.51802149  0.11886976  1.0
  H  H12  1  0.72045414  0.26707001  0.87312702  1.0
  H  H13  1  0.71203470  0.95176539  0.49501676  1.0
  C  C14  1  0.53241986  0.78185671  0.49729020  1.0
  C  C15  1  0.36715620  0.51375222  0.22423755  1.0
  C  C16  1  0.59756871  0.32029392  0.84735597  1.0
  C  C17  1  0.37075260  0.48746817  0.14645260  1.0
  C  C18  1  0.43091258  0.36400751  0.89557478  1.0
  C  C19  1  0.53771769  0.42778709  0.10273255  1.0
  C  C20  1  0.27008167  0.42213868  0.86134882  1.0
  C  C21  1  0.70020539  0.39422287  0.13844426  1.0
  C  C22  1  0.27963475  0.44750732  0.78033765  1.0
  C  C23  1  0.69512238  0.41897390  0.21650350  1.0
  C  C24  1  0.42241651  0.35987202  0.98170305  1.0
  C  C25  1  0.47219188  0.20962034  0.49179947  1.0
  C  C26  1  0.54888617  0.41136118  0.01807188  1.0
  C  C27  1  0.70285056  0.46634740  0.97172818  1.0
  C  C28  1  0.26789867  0.30475692  0.02723100  1.0
  C  C29  1  0.56903150  0.93659321  0.49558252  1.0
  C  C30  1  0.43481371  0.05500825  0.49361709  1.0
  C  C31  1  0.46311266  0.44929259  0.64573119  1.0
  C  C32  1  0.52386351  0.50625742  0.34393184  1.0
  C  C33  1  0.44855341  0.41273642  0.73244487  1.0
  C  C34  1  0.52911808  0.48014839  0.25981543  1.0
  C  C35  1  0.60593471  0.34492582  0.76643982  1.0
  N  N36  1  0.97184495  0.43943236  0.49074354  1.0
  N  N37  1  0.02976534  0.55552220  0.49833075  1.0
  N  N38  1  0.82903488  0.51750861  0.93783876  1.0
  N  N39  1  0.14097924  0.25488075  0.06137196  1.0
  O  O40  1  0.36589246  0.76032517  0.50226792  1.0
  O  O41  1  0.63850815  0.22999008  0.48893890  1.0
  O  O42  1  0.67436138  0.67944651  0.49315380  1.0
  O  O43  1  0.33083232  0.31265893  0.49367371  1.0
  O  O44  1  0.31440398  0.50159126  0.61663876  1.0
  O  O45  1  0.67576342  0.47296367  0.37297356  1.0
  O  O46  1  0.62458911  0.42676170  0.60705396  1.0
  O  O47  1  0.36774477  0.55726759  0.38109459  1.0
