# generated using pymatgen
data_AlH3C12(SO2)3
_symmetry_space_group_name_H-M   'P 1'
_cell_length_a   3.96315607
_cell_length_b   20.14404121
_cell_length_c   20.14402608
_cell_angle_alpha   59.99985485
_cell_angle_beta   89.99988289
_cell_angle_gamma   89.99992450
_symmetry_Int_Tables_number   1
_chemical_formula_structural   AlH3C12(SO2)3
_chemical_formula_sum   'Al2 H6 C24 S6 O12'
_cell_volume   1392.72075609
_cell_formula_units_Z   2
loop_
 _symmetry_equiv_pos_site_id
 _symmetry_equiv_pos_as_xyz
  1  'x, y, z'
loop_
 _atom_site_type_symbol
 _atom_site_label
 _atom_site_symmetry_multiplicity
 _atom_site_fract_x
 _atom_site_fract_y
 _atom_site_fract_z
 _atom_site_occupancy
  Al  Al0  1  0.00182935  0.99999856  0.49999988  1.0
  Al  Al1  1  0.00183432  0.66666577  0.16666740  1.0
  H  H2  1  0.47854840  0.22888999  0.28069340  1.0
  H  H3  1  0.47851452  0.43777485  0.38597889  1.0
  H  H4  1  0.47854600  0.78068830  0.49041885  1.0
  H  H5  1  0.47851451  0.88597428  0.17624707  1.0
  H  H6  1  0.47854677  0.99041501  0.72889126  1.0
  H  H7  1  0.47851626  0.67624415  0.93777706  1.0
  C  C8  1  0.50154176  0.94121439  0.61777248  1.0
  C  C9  1  0.50153966  0.11777115  0.44101156  1.0
  C  C10  1  0.50154517  0.94101062  0.44121504  1.0
  C  C11  1  0.50154971  0.54889368  0.22565725  1.0
  C  C12  1  0.50154924  0.72565479  0.22545050  1.0
  C  C13  1  0.50155013  0.72544815  0.04889499  1.0
  C  C14  1  0.48822477  0.25022697  0.32069201  1.0
  C  C15  1  0.48820655  0.41643844  0.34598098  1.0
  C  C16  1  0.49876408  0.20252843  0.39915108  1.0
  C  C17  1  0.49876911  0.46413640  0.26752071  1.0
  C  C18  1  0.50549843  0.33857075  0.36539350  1.0
  C  C19  1  0.50551644  0.32809350  0.30128056  1.0
  C  C20  1  0.48823040  0.82068728  0.42908348  1.0
  C  C21  1  0.48820607  0.84597646  0.23758285  1.0
  C  C22  1  0.49876741  0.89914713  0.39832147  1.0
  C  C23  1  0.49876589  0.76751661  0.26834535  1.0
  C  C24  1  0.50550002  0.86538853  0.29603744  1.0
  C  C25  1  0.50551748  0.80127578  0.37062810  1.0
  C  C26  1  0.48822345  0.92907962  0.75022822  1.0
  C  C27  1  0.48820798  0.73757954  0.91644009  1.0
  C  C28  1  0.49876083  0.89831888  0.70252988  1.0
  C  C29  1  0.49877247  0.76834143  0.96413786  1.0
  C  C30  1  0.50549999  0.79603344  0.83857284  1.0
  C  C31  1  0.50551499  0.87062400  0.82809484  1.0
  S  S32  1  0.52136942  0.25172342  0.44944222  1.0
  S  S33  1  0.52140801  0.41494026  0.21723212  1.0
  S  S34  1  0.52137602  0.94943723  0.29883520  1.0
  S  S35  1  0.52140909  0.71722707  0.36783083  1.0
  S  S36  1  0.52136404  0.79883263  0.75172507  1.0
  S  S37  1  0.52141098  0.86782710  0.91494046  1.0
  O  O38  1  0.73681469  0.98995808  0.42576919  1.0
  O  O39  1  0.73681405  0.92576838  0.58427182  1.0
  O  O40  1  0.73681159  0.08426907  0.48995874  1.0
  O  O41  1  0.26864472  0.92542006  0.49061975  1.0
  O  O42  1  0.26864211  0.08395739  0.42542056  1.0
  O  O43  1  0.26864408  0.99061934  0.58395761  1.0
  O  O44  1  0.73682201  0.74089470  0.08239578  1.0
  O  O45  1  0.73682447  0.58239343  0.17671014  1.0
  O  O46  1  0.73682138  0.67670787  0.24089698  1.0
  O  O47  1  0.26865490  0.67604381  0.08270965  1.0
  O  O48  1  0.26864921  0.74124481  0.17604566  1.0
  O  O49  1  0.26865434  0.58270863  0.24124676  1.0
