# generated using pymatgen
data_Zn4H5C24S4Cl3O13
_symmetry_space_group_name_H-M   'P 1'
_cell_length_a   19.66575437
_cell_length_b   19.73279982
_cell_length_c   33.36536515
_cell_angle_alpha   78.95739420
_cell_angle_beta   79.16043864
_cell_angle_gamma   63.94726666
_symmetry_Int_Tables_number   1
_chemical_formula_structural   Zn4H5C24S4Cl3O13
_chemical_formula_sum   'Zn16 H20 C96 S16 Cl12 O52'
_cell_volume   11337.19553080
_cell_formula_units_Z   4
loop_
 _symmetry_equiv_pos_site_id
 _symmetry_equiv_pos_as_xyz
  1  'x, y, z'
loop_
 _atom_site_type_symbol
 _atom_site_label
 _atom_site_symmetry_multiplicity
 _atom_site_fract_x
 _atom_site_fract_y
 _atom_site_fract_z
 _atom_site_occupancy
  Zn  Zn0  1  0.05520813  0.39982196  0.47787116  1.0
  Zn  Zn1  1  0.98607030  0.48393422  0.56064878  1.0
  Zn  Zn2  1  0.05799245  0.56110932  0.48205354  1.0
  Zn  Zn3  1  0.90054195  0.55451104  0.48009688  1.0
  Zn  Zn4  1  0.69430867  0.34900919  0.27145013  1.0
  Zn  Zn5  1  0.68860577  0.18974506  0.26601007  1.0
  Zn  Zn6  1  0.76984424  0.26568511  0.19037891  1.0
  Zn  Zn7  1  0.84779469  0.19470901  0.27294174  1.0
  Zn  Zn8  1  0.26681434  0.76664553  0.68989006  1.0
  Zn  Zn9  1  0.34902997  0.69728750  0.77230825  1.0
  Zn  Zn10  1  0.19222106  0.84782350  0.77145051  1.0
  Zn  Zn11  1  0.19150764  0.68727518  0.76691120  1.0
  Zn  Zn12  1  0.56031380  0.05979719  0.98333413  1.0
  Zn  Zn13  1  0.40146614  0.05480333  0.97818502  1.0
  Zn  Zn14  1  0.55517866  0.90107178  0.97839095  1.0
  Zn  Zn15  1  0.48376206  0.98263890  0.06059326  1.0
  H  H16  1  0.95526108  0.24907640  0.35194167  1.0
  H  H17  1  0.74729301  0.45309168  0.34924848  1.0
  H  H18  1  0.99896286  0.30111817  0.39996876  1.0
  H  H19  1  0.09685422  0.59651769  0.69948767  1.0
  H  H20  1  0.20276958  0.70159171  0.59843474  1.0
  H  H21  1  0.05081416  0.55145443  0.64914033  1.0
  H  H22  1  0.46287555  0.23970014  0.34100210  1.0
  H  H23  1  0.47948902  0.70263970  0.60109003  1.0
  H  H24  1  0.20336559  0.97903615  0.60099930  1.0
  H  H25  1  0.94813205  0.97020457  0.34817611  1.0
  H  H26  1  0.55031722  0.05022052  0.15394883  1.0
  H  H27  1  0.65082258  0.15158826  0.04832550  1.0
  H  H28  1  0.60072859  0.10025135  0.19957902  1.0
  H  H29  1  0.54757682  0.76999578  0.14892892  1.0
  H  H30  1  0.16234335  0.14154452  0.04033594  1.0
  H  H31  1  0.50120279  0.79489025  0.89819362  1.0
  H  H32  1  0.29736247  0.00304815  0.90002437  1.0
  H  H33  1  0.44848683  0.75193905  0.85017869  1.0
  H  H34  1  0.30042341  0.28011579  0.90193910  1.0
  H  H35  1  0.78730485  0.01011569  0.90870495  1.0
  C  C36  1  0.06192257  0.31626337  0.56179834  1.0
  C  C37  1  0.06986864  0.57075538  0.56850891  1.0
  C  C38  1  0.18315757  0.43927295  0.43837506  1.0
  C  C39  1  0.93650976  0.68387279  0.43853866  1.0
  C  C40  1  0.93001051  0.43079417  0.43100243  1.0
  C  C41  1  0.81726827  0.56113995  0.56281413  1.0
  C  C42  1  0.56554141  0.31083439  0.31118808  1.0
  C  C43  1  0.68154184  0.18062352  0.18041778  1.0
  C  C44  1  0.68991449  0.43312004  0.18834755  1.0
  C  C45  1  0.93564035  0.18779709  0.18989063  1.0
  C  C46  1  0.82003695  0.31864719  0.31937286  1.0
  C  C47  1  0.81094759  0.06599746  0.31153404  1.0
  C  C48  1  0.43343746  0.68973833  0.68819955  1.0
  C  C49  1  0.31791075  0.82069307  0.81932603  1.0
  C  C50  1  0.18858730  0.93303143  0.68798688  1.0
  C  C51  1  0.06544468  0.80921424  0.81113167  1.0
  C  C52  1  0.18114791  0.67975890  0.68096113  1.0
  C  C53  1  0.31331945  0.56606620  0.81167594  1.0
  C  C54  1  0.43782462  0.18368233  0.93860741  1.0
  C  C55  1  0.43160702  0.92971246  0.93066316  1.0
  C  C56  1  0.68400593  0.93954018  0.93885286  1.0
  C  C57  1  0.56126831  0.81595931  0.06194625  1.0
  C  C58  1  0.56889226  0.06869507  0.06995184  1.0
  C  C59  1  0.31578034  0.06130491  0.06090586  1.0
  C  C60  1  0.89862992  0.40557920  0.40188205  1.0
  C  C61  1  0.84834222  0.34812492  0.34777784  1.0
  C  C62  1  0.82689868  0.44875231  0.38710145  1.0
  C  C63  1  0.91974354  0.30478104  0.36193319  1.0
  C  C64  1  0.80261489  0.41965413  0.36037155  1.0
  C  C65  1  0.94377961  0.33371645  0.38851869  1.0
  C  C66  1  0.10033671  0.60057227  0.59573875  1.0
  C  C67  1  0.15267460  0.65184761  0.65185800  1.0
  C  C68  1  0.14384402  0.64345605  0.58150553  1.0
  C  C69  1  0.10970902  0.60938192  0.66648024  1.0
  C  C70  1  0.16937972  0.66860915  0.60958403  1.0
  C  C71  1  0.08430069  0.58452112  0.63855458  1.0
  C  C72  1  0.30466803  0.45421152  0.40095267  1.0
  C  C73  1  0.44594049  0.29629444  0.34896088  1.0
  C  C74  1  0.25830354  0.41534792  0.41383891  1.0
  C  C75  1  0.49089891  0.33606982  0.33638910  1.0
  C  C76  1  0.37789689  0.33922547  0.37260987  1.0
  C  C77  1  0.37284737  0.41076776  0.37742012  1.0
  C  C78  1  0.72585067  0.57559536  0.63077781  1.0
  C  C79  1  0.52410578  0.67361288  0.62122381  1.0
  C  C80  1  0.74301454  0.58501738  0.58819504  1.0
  C  C81  1  0.50863687  0.66382897  0.66363845  1.0
  C  C82  1  0.60348182  0.64142256  0.60908122  1.0
  C  C83  1  0.64629358  0.60783111  0.64269648  1.0
  C  C84  1  0.07659463  0.22484719  0.62987630  1.0
  C  C85  1  0.17435285  0.02357865  0.62095799  1.0
  C  C86  1  0.08614838  0.24197580  0.58724586  1.0
  C  C87  1  0.16392995  0.00815965  0.66335194  1.0
  C  C88  1  0.14248098  0.10275027  0.60859790  1.0
  C  C89  1  0.10871687  0.14547018  0.64202855  1.0
  C  C90  1  0.84179010  0.80110564  0.39689694  1.0
  C  C91  1  0.90375827  0.94982135  0.35261874  1.0
  C  C92  1  0.91040428  0.75843928  0.41351529  1.0
  C  C93  1  0.83518712  0.99109561  0.33636540  1.0
  C  C94  1  0.90643430  0.88026774  0.37469358  1.0
  C  C95  1  0.83957310  0.87055723  0.37470108  1.0
  C  C96  1  0.65393385  0.15375886  0.15022843  1.0
  C  C97  1  0.59778035  0.09784926  0.09825386  1.0
  C  C98  1  0.66785684  0.16826958  0.10694904  1.0
  C  C99  1  0.58326379  0.08317561  0.14105622  1.0
  C  C100  1  0.63981958  0.14023262  0.08155857  1.0
  C  C101  1  0.61121080  0.11098214  0.16624557  1.0
  C  C102  1  0.67406067  0.52409837  0.12017514  1.0
  C  C103  1  0.57635345  0.72542319  0.12897834  1.0
  C  C104  1  0.66500157  0.50722884  0.16282842  1.0
  C  C105  1  0.58623188  0.74082717  0.08656477  1.0
  C  C106  1  0.60831008  0.64626745  0.14136856  1.0
  C  C107  1  0.64170287  0.60344862  0.10794766  1.0
  C  C108  1  0.08319869  0.12319651  0.17833545  1.0
  C  C109  1  0.17013579  0.12487242  0.07273063  1.0
  C  C110  1  0.01084981  0.16229823  0.16550011  1.0
  C  C111  1  0.24139253  0.08602870  0.08625436  1.0
  C  C112  1  0.11214641  0.13860445  0.10630725  1.0
  C  C113  1  0.14098904  0.10970266  0.14457356  1.0
  C  C114  1  0.34386963  0.85221917  0.84798683  1.0
  C  C115  1  0.40216840  0.90180222  0.90203686  1.0
  C  C116  1  0.30112067  0.92394266  0.86235760  1.0
  C  C117  1  0.44533585  0.83060519  0.88808207  1.0
  C  C118  1  0.33057064  0.94783529  0.88910916  1.0
  C  C119  1  0.41600416  0.80694923  0.86149373  1.0
  C  C120  1  0.40798859  0.44821302  0.85311003  1.0
  C  C121  1  0.34504192  0.30016695  0.89749106  1.0
  C  C122  1  0.33944762  0.49119046  0.83647181  1.0
  C  C123  1  0.41360322  0.25855711  0.91372952  1.0
  C  C124  1  0.34278689  0.36951898  0.87528627  1.0
  C  C125  1  0.40988498  0.37881316  0.87526216  1.0
  C  C126  1  0.94424321  0.79454589  0.84939517  1.0
  C  C127  1  0.80391254  0.95340620  0.90100663  1.0
  C  C128  1  0.99075291  0.83310279  0.83608653  1.0
  C  C129  1  0.75870066  0.91395468  0.91382334  1.0
  C  C130  1  0.87176967  0.90996447  0.87741289  1.0
  C  C131  1  0.87636867  0.83840890  0.87295148  1.0
  S  S132  1  0.29857683  0.32585406  0.39717455  1.0
  S  S133  1  0.45132182  0.42538596  0.35307177  1.0
  S  S134  1  0.66161198  0.63302151  0.56295639  1.0
  S  S135  1  0.58959188  0.61569465  0.68904602  1.0
  S  S136  1  0.13429589  0.16074714  0.56233656  1.0
  S  S137  1  0.11585624  0.08890112  0.68850238  1.0
  S  S138  1  0.97177315  0.80357234  0.40192385  1.0
  S  S139  1  0.77367482  0.94631009  0.34762587  1.0
  S  S140  1  0.61685076  0.58849756  0.18768872  1.0
  S  S141  1  0.63399687  0.65999092  0.06144022  1.0
  S  S142  1  0.01394889  0.18226599  0.11217720  1.0
  S  S143  1  0.23883108  0.06590164  0.13947799  1.0
  S  S144  1  0.27777110  0.44638115  0.84797239  1.0
  S  S145  1  0.47559210  0.30284301  0.90233638  1.0
  S  S146  1  0.95116897  0.92279009  0.85247207  1.0
  S  S147  1  0.79777440  0.82435389  0.89753430  1.0
  Cl  Cl148  1  0.76408005  0.53820745  0.39961407  1.0
  Cl  Cl149  1  0.16952208  0.66811540  0.53023969  1.0
  Cl  Cl150  1  0.71833791  0.22010487  0.08170261  1.0
  Cl  Cl151  1  0.21198828  0.98734616  0.84904931  1.0
  Cl  Cl152  1  0.28585430  0.54281656  0.41100059  1.0
  Cl  Cl153  1  0.78952799  0.53128020  0.66602690  1.0
  Cl  Cl154  1  0.03218558  0.28813840  0.66503412  1.0
  Cl  Cl155  1  0.76740550  0.77649431  0.40128937  1.0
  Cl  Cl156  1  0.71766586  0.46055124  0.08514066  1.0
  Cl  Cl157  1  0.10403241  0.09339534  0.22785239  1.0
  Cl  Cl158  1  0.48279525  0.47224305  0.84856085  1.0
  Cl  Cl159  1  0.96279495  0.70577304  0.83975044  1.0
  O  O160  1  0.00084153  0.49805753  0.50016790  1.0
  O  O161  1  0.07712844  0.31459948  0.52279606  1.0
  O  O162  1  0.03392949  0.53064917  0.58658446  1.0
  O  O163  1  0.15429621  0.50535524  0.44968919  1.0
  O  O164  1  0.02841769  0.37502466  0.58056356  1.0
  O  O165  1  0.15358751  0.39108489  0.44600589  1.0
  O  O166  1  0.08150406  0.58737947  0.52989628  1.0
  O  O167  1  0.00379885  0.65791780  0.44899672  1.0
  O  O168  1  0.88822391  0.49454050  0.44400343  1.0
  O  O169  1  0.89088085  0.65175962  0.44768281  1.0
  O  O170  1  0.99667408  0.38567913  0.44062833  1.0
  O  O171  1  0.87686403  0.52734130  0.58121090  1.0
  O  O172  1  0.81471742  0.57714977  0.52384648  1.0
  O  O173  1  0.74946746  0.24966238  0.25064506  1.0
  O  O174  1  0.59674193  0.35757509  0.30343635  1.0
  O  O175  1  0.66208854  0.16419809  0.21856448  1.0
  O  O176  1  0.72632656  0.37417836  0.16986675  1.0
  O  O177  1  0.59218811  0.24516209  0.29937415  1.0
  O  O178  1  0.67251737  0.43490098  0.22728903  1.0
  O  O179  1  0.72195670  0.21725540  0.16611318  1.0
  O  O180  1  0.87843415  0.22302838  0.16922109  1.0
  O  O181  1  0.86372933  0.25264036  0.30914712  1.0
  O  O182  1  0.93347393  0.17310037  0.22886145  1.0
  O  O183  1  0.75463236  0.36190537  0.30781824  1.0
  O  O184  1  0.74504672  0.09321493  0.29926977  1.0
  O  O185  1  0.85778834  0.09685204  0.30451998  1.0
  O  O186  1  0.25019800  0.74918754  0.75015033  1.0
  O  O187  1  0.37536735  0.72424157  0.66842978  1.0
  O  O188  1  0.36465303  0.75559218  0.80856882  1.0
  O  O189  1  0.17194061  0.93282061  0.72697789  1.0
  O  O190  1  0.43335237  0.67529837  0.72728392  1.0
  O  O191  1  0.22406066  0.87517058  0.66842565  1.0
  O  O192  1  0.25209194  0.86026246  0.80795744  1.0
  O  O193  1  0.09444677  0.85790487  0.80335477  1.0
  O  O194  1  0.16541610  0.66209248  0.71928627  1.0
  O  O195  1  0.09466964  0.74335022  0.79950990  1.0
  O  O196  1  0.21877451  0.71895544  0.66490154  1.0
  O  O197  1  0.35779859  0.59946198  0.80398414  1.0
  O  O198  1  0.24699004  0.59090973  0.80008057  1.0
  O  O199  1  0.50009065  0.99948755  0.00020385  1.0
  O  O200  1  0.50410116  0.15638485  0.95044888  1.0
  O  O201  1  0.38839837  0.99520053  0.94173674  1.0
  O  O202  1  0.65271334  0.89289842  0.94668376  1.0
  O  O203  1  0.39100512  0.15275727  0.94612742  1.0
  O  O204  1  0.65727854  0.00541500  0.95044401  1.0
  O  O205  1  0.49736122  0.88579949  0.94158150  1.0
  O  O206  1  0.57689329  0.81611722  0.02291301  1.0
  O  O207  1  0.53072397  0.03028874  0.08663750  1.0
  O  O208  1  0.52653649  0.87385247  0.08152870  1.0
  O  O209  1  0.58491625  0.08471787  0.03146716  1.0
  O  O210  1  0.31527523  0.07695998  0.02198093  1.0
  O  O211  1  0.37431891  0.02617747  0.08045320  1.0
