# generated using pymatgen
data_ZnH13C14N3O4
_symmetry_space_group_name_H-M   'P 1'
_cell_length_a   9.92459322
_cell_length_b   11.00402582
_cell_length_c   13.90880749
_cell_angle_alpha   88.58706408
_cell_angle_beta   78.84095206
_cell_angle_gamma   84.75462876
_symmetry_Int_Tables_number   1
_chemical_formula_structural   ZnH13C14N3O4
_chemical_formula_sum   'Zn2 H26 C28 N6 O8'
_cell_volume   1483.99067303
_cell_formula_units_Z   2
loop_
 _symmetry_equiv_pos_site_id
 _symmetry_equiv_pos_as_xyz
  1  'x, y, z'
loop_
 _atom_site_type_symbol
 _atom_site_label
 _atom_site_symmetry_multiplicity
 _atom_site_fract_x
 _atom_site_fract_y
 _atom_site_fract_z
 _atom_site_occupancy
  Zn  Zn0  1  0.36955775  0.51833566  0.50973809  1.0
  Zn  Zn1  1  0.66832556  0.49220472  0.48933610  1.0
  H  H2  1  0.04800216  0.62580692  0.71090044  1.0
  H  H3  1  0.06223612  0.74702316  0.62188218  1.0
  H  H4  1  0.73520381  0.87529071  0.43056654  1.0
  H  H5  1  0.73331026  0.10150508  0.42589776  1.0
  H  H6  1  0.26352926  0.13237621  0.68321439  1.0
  H  H7  1  0.18791712  0.14741700  0.57607155  1.0
  H  H8  1  0.18792933  0.92196913  0.56839831  1.0
  H  H9  1  0.35580267  0.53607664  0.03416890  1.0
  H  H10  1  0.22147706  0.39696464  0.38080681  1.0
  H  H11  1  0.79550899  0.52189968  0.73555392  1.0
  H  H12  1  0.67458351  0.65610406  0.85947383  1.0
  H  H13  1  0.69855100  0.78096795  0.77670221  1.0
  H  H14  1  0.84172706  0.71134098  0.82440741  1.0
  H  H15  1  0.81983156  0.73318867  0.60272172  1.0
  H  H16  1  0.67167639  0.40658675  0.88445877  1.0
  H  H17  1  0.88145625  0.32742677  0.93411382  1.0
  H  H18  1  0.81275578  0.37791468  0.05587973  1.0
  H  H19  1  0.87063237  0.48599780  0.96291373  1.0
  H  H20  1  0.28572675  0.80121869  0.69681567  1.0
  H  H21  1  0.12147133  0.86026935  0.83691543  1.0
  H  H22  1  0.03462543  0.88985613  0.73619967  1.0
  H  H23  1  0.10296220  0.01059970  0.78896298  1.0
  H  H24  1  0.08297370  0.32234256  0.30800526  1.0
  H  H25  1  0.91214278  0.26367653  0.24162898  1.0
  H  H26  1  0.84192292  0.41933874  0.25978019  1.0
  H  H27  1  0.78628332  0.30541756  0.34790505  1.0
  C  C28  1  0.52409883  0.73772813  0.50477612  1.0
  C  C29  1  0.45740206  0.49032537  0.79281890  1.0
  C  C30  1  0.40988140  0.94926066  0.54890389  1.0
  C  C31  1  0.52454224  0.87308943  0.50650253  1.0
  C  C32  1  0.64237720  0.93170871  0.46351018  1.0
  C  C33  1  0.64123058  0.05871899  0.46084015  1.0
  C  C34  1  0.52341791  0.13514793  0.50233300  1.0
  C  C35  1  0.40953907  0.07587727  0.54820677  1.0
  C  C36  1  0.26607818  0.09507423  0.61024048  1.0
  C  C37  1  0.26472867  0.95086503  0.60984831  1.0
  C  C38  1  0.92234944  0.55465239  0.55003910  1.0
  C  C39  1  0.46908006  0.49310137  0.68838392  1.0
  C  C40  1  0.99614322  0.42779163  0.42027110  1.0
  C  C41  1  0.13473093  0.44215655  0.43160435  1.0
  C  C42  1  0.05628496  0.56667895  0.55933906  1.0
  C  C43  1  0.02296675  0.65751958  0.64038868  1.0
  C  C44  1  0.86420291  0.64784572  0.63179950  1.0
  C  C45  1  0.52174689  0.27047733  0.49682299  1.0
  C  C46  1  0.54455090  0.51179836  0.30842520  1.0
  C  C47  1  0.56108339  0.49848258  0.20331027  1.0
  C  C48  1  0.56663277  0.46478048  0.01585363  1.0
  C  C49  1  0.44654996  0.50165140  0.98166413  1.0
  C  C50  1  0.44467044  0.49660102  0.88214902  1.0
  C  C51  1  0.56906048  0.48117650  0.11607672  1.0
  C  C52  1  0.74674389  0.69303446  0.79818086  1.0
  C  C53  1  0.81862573  0.40109946  0.97805528  1.0
  C  C54  1  0.12230771  0.91353241  0.76902629  1.0
  C  C55  1  0.87519800  0.33533082  0.29624060  1.0
  N  N56  1  0.88474830  0.48631033  0.48141598  1.0
  N  N57  1  0.16600641  0.51145716  0.49943396  1.0
  N  N58  1  0.76966963  0.60951667  0.71594599  1.0
  N  N59  1  0.68146451  0.41232504  0.95569096  1.0
  N  N60  1  0.25692399  0.89249652  0.70526664  1.0
  N  N61  1  0.98855356  0.35321854  0.34550551  1.0
  O  O62  1  0.41046743  0.69688802  0.49738058  1.0
  O  O63  1  0.63675062  0.67495914  0.51030462  1.0
  O  O64  1  0.35996682  0.53328898  0.65688644  1.0
  O  O65  1  0.58523456  0.45588394  0.63635853  1.0
  O  O66  1  0.40509437  0.33116587  0.51988536  1.0
  O  O67  1  0.63738280  0.31555777  0.46813391  1.0
  O  O68  1  0.42442896  0.49757794  0.35688343  1.0
  O  O69  1  0.64979843  0.53409156  0.34211512  1.0
