# generated using pymatgen
data_Cd3H30(C21O8)2
_symmetry_space_group_name_H-M   'P 1'
_cell_length_a   7.12419043
_cell_length_b   21.36207289
_cell_length_c   21.41182249
_cell_angle_alpha   119.90679644
_cell_angle_beta   95.80588632
_cell_angle_gamma   90.09943767
_symmetry_Int_Tables_number   1
_chemical_formula_structural   Cd3H30(C21O8)2
_chemical_formula_sum   'Cd6 H60 C84 O32'
_cell_volume   2805.04978120
_cell_formula_units_Z   2
loop_
 _symmetry_equiv_pos_site_id
 _symmetry_equiv_pos_as_xyz
  1  'x, y, z'
loop_
 _atom_site_type_symbol
 _atom_site_label
 _atom_site_symmetry_multiplicity
 _atom_site_fract_x
 _atom_site_fract_y
 _atom_site_fract_z
 _atom_site_occupancy
  Cd  Cd0  1  0.84433746  0.30668150  0.55128928  1.0
  Cd  Cd1  1  0.34837392  0.24901141  0.55483121  1.0
  Cd  Cd2  1  0.74285579  0.08159088  0.00160608  1.0
  Cd  Cd3  1  0.15567064  0.69331812  0.44870747  1.0
  Cd  Cd4  1  0.65163925  0.75098081  0.44515199  1.0
  Cd  Cd5  1  0.25713046  0.91840621  0.99839233  1.0
  H  H6  1  0.08463972  0.08678846  0.91771523  1.0
  H  H7  1  0.83076134  0.09405159  0.83400505  1.0
  H  H8  1  0.25235540  0.14632374  0.73302904  1.0
  H  H9  1  0.50444932  0.14032451  0.81852680  1.0
  H  H10  1  0.00758038  0.21354369  0.72592426  1.0
  H  H11  1  0.51121729  0.11607844  0.57161802  1.0
  H  H12  1  0.70501780  0.03170306  0.71107946  1.0
  H  H13  1  0.58826163  0.93227224  0.61721919  1.0
  H  H14  1  0.32138915  0.84200269  0.57347942  1.0
  H  H15  1  0.95314774  0.98850581  0.54680851  1.0
  H  H16  1  0.22041049  0.07981180  0.59037752  1.0
  H  H17  1  0.53916144  0.44191780  0.45207108  1.0
  H  H18  1  0.27049263  0.48884768  0.40819478  1.0
  H  H19  1  0.90424513  0.31465154  0.38309046  1.0
  H  H20  1  0.17301713  0.26805591  0.42586970  1.0
  H  H21  1  0.99399805  0.54331583  0.42401200  1.0
  H  H22  1  0.47726030  0.49040331  0.28052062  1.0
  H  H23  1  0.77701568  0.32147511  0.29190493  1.0
  H  H24  1  0.65180150  0.26190857  0.17240336  1.0
  H  H25  1  0.22900947  0.41576474  0.26892188  1.0
  H  H26  1  0.97855992  0.32182034  0.18709379  1.0
  H  H27  1  0.40054890  0.16945277  0.09083902  1.0
  H  H28  1  0.77356184  0.07599799  0.13502097  1.0
  H  H29  1  0.66413888  0.00040115  0.07415513  1.0
  H  H30  1  0.79745446  0.92834937  0.92971465  1.0
  H  H31  1  0.59332654  0.94360686  0.90250869  1.0
  H  H32  1  0.16448388  0.25063748  0.66327461  1.0
  H  H33  1  0.34528583  0.20562109  0.66139478  1.0
  H  H34  1  0.66625088  0.40406074  0.66510176  1.0
  H  H35  1  0.85797863  0.38791742  0.69724313  1.0
  H  H36  1  0.91533538  0.91320976  0.08228419  1.0
  H  H37  1  0.16921739  0.90595843  0.16599725  1.0
  H  H38  1  0.74765105  0.85369342  0.26698243  1.0
  H  H39  1  0.49554065  0.85968908  0.18148746  1.0
  H  H40  1  0.99240322  0.78646200  0.27407668  1.0
  H  H41  1  0.48879221  0.88391070  0.42836826  1.0
  H  H42  1  0.29497634  0.96830877  0.28893040  1.0
  H  H43  1  0.41173582  0.06773120  0.38277939  1.0
  H  H44  1  0.67861653  0.15799553  0.42650723  1.0
  H  H45  1  0.04685499  0.01149426  0.45318544  1.0
  H  H46  1  0.77957427  0.92019523  0.40963111  1.0
  H  H47  1  0.46084787  0.55809122  0.54793623  1.0
  H  H48  1  0.72950552  0.51116783  0.59182959  1.0
  H  H49  1  0.09578988  0.68534105  0.61690550  1.0
  H  H50  1  0.82703249  0.73193517  0.57411494  1.0
  H  H51  1  0.00599319  0.45668379  0.57598313  1.0
  H  H52  1  0.52272770  0.50958904  0.71947937  1.0
  H  H53  1  0.22297550  0.67852178  0.70810340  1.0
  H  H54  1  0.34818841  0.73809061  0.82760974  1.0
  H  H55  1  0.77095391  0.58422228  0.73109096  1.0
  H  H56  1  0.02142831  0.67816337  0.81291805  1.0
  H  H57  1  0.59945189  0.83053851  0.90917735  1.0
  H  H58  1  0.22643437  0.92399270  0.86497811  1.0
  H  H59  1  0.33584951  0.99959216  0.92584206  1.0
  H  H60  1  0.20253976  0.07164561  0.07028496  1.0
  H  H61  1  0.40666018  0.05638720  0.09749439  1.0
  H  H62  1  0.83550290  0.74935635  0.33670640  1.0
  H  H63  1  0.65471464  0.79438165  0.33859892  1.0
  H  H64  1  0.33374528  0.59593512  0.33489274  1.0
  H  H65  1  0.14201720  0.61208614  0.30275872  1.0
  C  C66  1  0.46266286  0.10340287  0.91956043  1.0
  C  C67  1  0.31003173  0.11109546  0.87186017  1.0
  C  C68  1  0.11968953  0.09825945  0.87588345  1.0
  C  C69  1  0.97792784  0.10204007  0.82838731  1.0
  C  C70  1  0.02371300  0.11923023  0.77617699  1.0
  C  C71  1  0.21471291  0.13387831  0.77386169  1.0
  C  C72  1  0.35645148  0.12989746  0.82097414  1.0
  C  C73  1  0.87649474  0.12091203  0.72339764  1.0
  C  C74  1  0.89255218  0.17180085  0.70094262  1.0
  C  C75  1  0.76002656  0.17108265  0.64772602  1.0
  C  C76  1  0.60733611  0.11909508  0.61625400  1.0
  C  C77  1  0.58471047  0.06875794  0.63949719  1.0
  C  C78  1  0.72037968  0.07077952  0.69306241  1.0
  C  C79  1  0.42447140  0.01375683  0.60908666  1.0
  C  C80  1  0.44853477  0.94593585  0.60371040  1.0
  C  C81  1  0.29844212  0.89456308  0.57837199  1.0
  C  C82  1  0.11891967  0.90927493  0.55710513  1.0
  C  C83  1  0.09305539  0.97675032  0.56239600  1.0
  C  C84  1  0.24409037  0.02798445  0.58740181  1.0
  C  C85  1  0.96139019  0.85235599  0.52607909  1.0
  C  C86  1  0.79018572  0.22505103  0.62416801  1.0
  C  C87  1  0.53241700  0.32612592  0.47233942  1.0
  C  C88  1  0.37432840  0.35198182  0.44192104  1.0
  C  C89  1  0.39930290  0.41437742  0.43675679  1.0
  C  C90  1  0.24776258  0.44037764  0.41193728  1.0
  C  C91  1  0.06739446  0.40423151  0.39062395  1.0
  C  C92  1  0.04402433  0.34179459  0.39611288  1.0
  C  C93  1  0.19480711  0.31579123  0.42095443  1.0
  C  C94  1  0.90663824  0.42913985  0.36099076  1.0
  C  C95  1  0.88981024  0.50252267  0.38286475  1.0
  C  C96  1  0.73515685  0.52400720  0.35367143  1.0
  C  C97  1  0.59544993  0.47273647  0.30306084  1.0
  C  C98  1  0.60842404  0.39931966  0.28051973  1.0
  C  C99  1  0.76543467  0.37864682  0.30955856  1.0
  C  C100  1  0.71147558  0.60165987  0.37792474  1.0
  C  C101  1  0.45889595  0.34496797  0.22889233  1.0
  C  C102  1  0.50456237  0.27503747  0.17804607  1.0
  C  C103  1  0.26781493  0.36169380  0.23042286  1.0
  C  C104  1  0.12657690  0.30914436  0.18493737  1.0
  C  C105  1  0.17277958  0.23862984  0.13606347  1.0
  C  C106  1  0.36351831  0.22265656  0.13187004  1.0
  C  C107  1  0.01982418  0.18262714  0.09000089  1.0
  C  C108  1  0.53731557  0.89659684  0.08043608  1.0
  C  C109  1  0.68996629  0.88890668  0.12814670  1.0
  C  C110  1  0.88031225  0.90174571  0.12411892  1.0
  C  C111  1  0.02206895  0.89796829  0.17161496  1.0
  C  C112  1  0.97627144  0.88077975  0.22382459  1.0
  C  C113  1  0.78528862  0.86613510  0.22614829  1.0
  C  C114  1  0.64354648  0.87011341  0.17903917  1.0
  C  C115  1  0.12349585  0.87909369  0.27660453  1.0
  C  C116  1  0.10744625  0.82820105  0.29905762  1.0
  C  C117  1  0.23997704  0.82891595  0.35227147  1.0
  C  C118  1  0.39267699  0.88090133  0.38374286  1.0
  C  C119  1  0.41529015  0.93124313  0.36050976  1.0
  C  C120  1  0.27961603  0.92922411  0.30694133  1.0
  C  C121  1  0.57552440  0.98624675  0.39091566  1.0
  C  C122  1  0.55145707  0.05406759  0.39628749  1.0
  C  C123  1  0.70155923  0.10543639  0.42161974  1.0
  C  C124  1  0.88108771  0.09072609  0.44288571  1.0
  C  C125  1  0.90693487  0.02325143  0.43759915  1.0
  C  C126  1  0.75589682  0.97201863  0.41260086  1.0
  C  C127  1  0.03862054  0.14763899  0.47390671  1.0
  C  C128  1  0.20981579  0.77494202  0.37582259  1.0
  C  C129  1  0.46762967  0.67388264  0.52765799  1.0
  C  C130  1  0.62570112  0.64802691  0.55807948  1.0
  C  C131  1  0.60071261  0.58563425  0.56325061  1.0
  C  C132  1  0.75224537  0.55963374  0.58807621  1.0
  C  C133  1  0.93262235  0.59577270  0.60938327  1.0
  C  C134  1  0.95600775  0.65820558  0.60388652  1.0
  C  C135  1  0.80523231  0.68420876  0.57904052  1.0
  C  C136  1  0.09337220  0.57086123  0.63901752  1.0
  C  C137  1  0.11018096  0.49747876  0.61713637  1.0
  C  C138  1  0.26483096  0.47599039  0.64632635  1.0
  C  C139  1  0.40453307  0.52725909  0.69693905  1.0
  C  C140  1  0.39155647  0.60067928  0.71948539  1.0
  C  C141  1  0.23456169  0.62135426  0.69044869  1.0
  C  C142  1  0.28852920  0.39833707  0.62207108  1.0
  C  C143  1  0.54108170  0.65502408  0.77111317  1.0
  C  C144  1  0.49542525  0.72495628  0.82196344  1.0
  C  C145  1  0.73216911  0.63829623  0.76958663  1.0
  C  C146  1  0.87341243  0.69084407  0.81507252  1.0
  C  C147  1  0.82721724  0.76136012  0.86394511  1.0
  C  C148  1  0.63648412  0.77733399  0.86814092  1.0
  C  C149  1  0.98016629  0.81736243  0.90999603  1.0
  O  O150  1  0.41858477  0.07832863  0.96079251  1.0
  O  O151  1  0.63330272  0.11974493  0.91913778  1.0
  O  O152  1  0.94198826  0.26553711  0.64792898  1.0
  O  O153  1  0.66623563  0.22892940  0.57861277  1.0
  O  O154  1  0.98958592  0.79086653  0.52142781  1.0
  O  O155  1  0.80052141  0.86519280  0.50378177  1.0
  O  O156  1  0.69298598  0.36170259  0.49463734  1.0
  O  O157  1  0.50632091  0.26878419  0.47665939  1.0
  O  O158  1  0.84204490  0.64997399  0.42039213  1.0
  O  O159  1  0.55749960  0.62146945  0.35915607  1.0
  O  O160  1  0.84865116  0.19921167  0.09214497  1.0
  O  O161  1  0.06070523  0.11623521  0.04736203  1.0
  O  O162  1  0.67692791  0.05499302  0.09337581  1.0
  O  O163  1  0.72695346  0.96144510  0.91571493  1.0
  O  O164  1  0.30554969  0.25030489  0.66384174  1.0
  O  O165  1  0.80743738  0.40687014  0.66630501  1.0
  O  O166  1  0.58142267  0.92166662  0.03920077  1.0
  O  O167  1  0.36667611  0.88025119  0.08086267  1.0
  O  O168  1  0.05801196  0.73445825  0.35206685  1.0
  O  O169  1  0.33377394  0.77106089  0.42137592  1.0
  O  O170  1  0.01043079  0.20913299  0.47856692  1.0
  O  O171  1  0.19949994  0.13479481  0.49619213  1.0
  O  O172  1  0.30705979  0.63830628  0.50535363  1.0
  O  O173  1  0.49373609  0.73123122  0.52335241  1.0
  O  O174  1  0.15796568  0.35002285  0.57960155  1.0
  O  O175  1  0.44250873  0.37853004  0.64083689  1.0
  O  O176  1  0.15133839  0.80078060  0.90785271  1.0
  O  O177  1  0.93928989  0.88375471  0.95263010  1.0
  O  O178  1  0.32306024  0.94500043  0.90662517  1.0
  O  O179  1  0.27303384  0.03855101  0.08428586  1.0
  O  O180  1  0.69443610  0.74968989  0.33613593  1.0
  O  O181  1  0.19256299  0.59312631  0.33369182  1.0
