# generated using pymatgen
data_ZnSiH20C24(N4F3)2
_symmetry_space_group_name_H-M   'P 1'
_cell_length_a   7.76452135
_cell_length_b   10.84687842
_cell_length_c   12.16392736
_cell_angle_alpha   85.64137375
_cell_angle_beta   77.66371582
_cell_angle_gamma   69.02312548
_symmetry_Int_Tables_number   1
_chemical_formula_structural   ZnSiH20C24(N4F3)2
_chemical_formula_sum   'Zn1 Si1 H20 C24 N8 F6'
_cell_volume   934.47344762
_cell_formula_units_Z   1
loop_
 _symmetry_equiv_pos_site_id
 _symmetry_equiv_pos_as_xyz
  1  'x, y, z'
loop_
 _atom_site_type_symbol
 _atom_site_label
 _atom_site_symmetry_multiplicity
 _atom_site_fract_x
 _atom_site_fract_y
 _atom_site_fract_z
 _atom_site_occupancy
  Zn  Zn0  1  0.49999898  0.99999939  0.50000056  1.0
  Si  Si1  1  0.00000011  0.99999882  0.50000017  1.0
  H  H2  1  0.75807829  0.11192467  0.32205457  1.0
  H  H3  1  0.12988293  0.11201900  0.67809250  1.0
  H  H4  1  0.24192368  0.88807675  0.67794596  1.0
  H  H5  1  0.87011508  0.88798243  0.32190776  1.0
  H  H6  1  0.72543888  0.27504933  0.16441777  1.0
  H  H7  1  0.99987885  0.27532583  0.83574478  1.0
  H  H8  1  0.27456590  0.72494914  0.83558258  1.0
  H  H9  1  0.00011767  0.72467856  0.16425220  1.0
  H  H10  1  0.12142341  0.38520329  0.26944549  1.0
  H  H11  1  0.49337965  0.38565650  0.72977072  1.0
  H  H12  1  0.87858135  0.61479517  0.73055158  1.0
  H  H13  1  0.50662017  0.61434394  0.27022772  1.0
  H  H14  1  0.24373777  0.50594706  0.11114357  1.0
  H  H15  1  0.25025459  0.50638017  0.88887730  1.0
  H  H16  1  0.75626124  0.49405239  0.88885751  1.0
  H  H17  1  0.74974243  0.49362323  0.11111968  1.0
  H  H18  1  0.17717839  0.20796808  0.41497801  1.0
  H  H19  1  0.61439046  0.20827192  0.58429046  1.0
  H  H20  1  0.82282276  0.79203236  0.58502188  1.0
  H  H21  1  0.38561085  0.79172556  0.41571044  1.0
  C  C22  1  0.61959621  0.17191912  0.30559614  1.0
  C  C23  1  0.20839952  0.17210148  0.69433924  1.0
  C  C24  1  0.38040675  0.82808033  0.69440440  1.0
  C  C25  1  0.79159718  0.82789994  0.30566120  1.0
  C  C26  1  0.60109892  0.26449125  0.21961422  1.0
  C  C27  1  0.13458679  0.26475248  0.78033578  1.0
  C  C28  1  0.39890404  0.73550820  0.78038549  1.0
  C  C29  1  0.86541073  0.73524994  0.21966448  1.0
  C  C30  1  0.26480096  0.32539669  0.27736545  1.0
  C  C31  1  0.40972601  0.32583246  0.72208071  1.0
  C  C32  1  0.73520249  0.67460177  0.72263344  1.0
  C  C33  1  0.59027465  0.67416897  0.27792001  1.0
  C  C34  1  0.38868357  0.44170101  0.11481267  1.0
  C  C35  1  0.16974448  0.44203021  0.88507825  1.0
  C  C36  1  0.61132597  0.55829843  0.88518367  1.0
  C  C37  1  0.83025435  0.55797220  0.11491936  1.0
  C  C38  1  0.41990094  0.34366255  0.20411257  1.0
  C  C39  1  0.23657983  0.34403981  0.79562327  1.0
  C  C40  1  0.58010168  0.65633492  0.79588486  1.0
  C  C41  1  0.76341900  0.65596260  0.20437434  1.0
  C  C42  1  0.29484821  0.22779845  0.35949141  1.0
  C  C43  1  0.47704349  0.22814834  0.63994441  1.0
  C  C44  1  0.70515343  0.77220100  0.64050767  1.0
  C  C45  1  0.52295551  0.77185111  0.36005667  1.0
  N  N46  1  0.46924916  0.15232742  0.37330359  1.0
  N  N47  1  0.37817804  0.15253238  0.62639337  1.0
  N  N48  1  0.53075413  0.84767401  0.62669594  1.0
  N  N49  1  0.62182278  0.84746608  0.37360753  1.0
  N  N50  1  0.52890788  0.45088697  0.03913310  1.0
  N  N51  1  0.02037464  0.45094852  0.96075974  1.0
  N  N52  1  0.47108799  0.54911347  0.96086753  1.0
  N  N53  1  0.97962288  0.54905389  0.03923888  1.0
  F  F54  1  0.22806391  0.99989786  0.49574157  1.0
  F  F55  1  0.77193295  0.00010060  0.50425987  1.0
  F  F56  1  0.08394279  0.83164008  0.50032021  1.0
  F  F57  1  0.91605244  0.16835641  0.49968324  1.0
  F  F58  1  0.95939764  0.00044748  0.64328192  1.0
  F  F59  1  0.04060022  0.99954901  0.35672198  1.0
