# generated using pymatgen
data_MgH6C9NO4
_symmetry_space_group_name_H-M   'P 1'
_cell_length_a   6.85419336
_cell_length_b   31.19470768
_cell_length_c   31.20396009
_cell_angle_alpha   119.44486983
_cell_angle_beta   94.21984646
_cell_angle_gamma   94.19510438
_symmetry_Int_Tables_number   1
_chemical_formula_structural   MgH6C9NO4
_chemical_formula_sum   'Mg6 H36 C54 N6 O24'
_cell_volume   5748.20659394
_cell_formula_units_Z   6
loop_
 _symmetry_equiv_pos_site_id
 _symmetry_equiv_pos_as_xyz
  1  'x, y, z'
loop_
 _atom_site_type_symbol
 _atom_site_label
 _atom_site_symmetry_multiplicity
 _atom_site_fract_x
 _atom_site_fract_y
 _atom_site_fract_z
 _atom_site_occupancy
  Mg  Mg0  1  0.64488453  0.36999061  0.67357492  1.0
  Mg  Mg1  1  0.09593237  0.69335283  0.32235280  1.0
  Mg  Mg2  1  0.27485257  0.30359538  0.63013461  1.0
  Mg  Mg3  1  0.40251382  0.62901436  0.30666216  1.0
  Mg  Mg4  1  0.97145207  0.32652466  0.69650498  1.0
  Mg  Mg5  1  0.77360689  0.67763439  0.37097530  1.0
  H  H6  1  0.27031781  0.48096853  0.09998171  1.0
  H  H7  1  0.33940880  0.58000581  0.18441576  1.0
  H  H8  1  0.61416205  0.54166289  0.16630310  1.0
  H  H9  1  0.79388450  0.49581004  0.09324737  1.0
  H  H10  1  0.18859662  0.57978252  0.07357006  1.0
  H  H11  1  0.95123957  0.54581974  0.05647974  1.0
  H  H12  1  0.23494057  0.52259031  0.97903689  1.0
  H  H13  1  0.08140942  0.57051873  0.99417931  1.0
  H  H14  1  0.08690053  0.47306451  0.90431015  1.0
  H  H15  1  0.01911897  0.42972520  0.81985873  1.0
  H  H16  1  0.32685800  0.38810176  0.83557638  1.0
  H  H17  1  0.56552453  0.43880572  0.91238051  1.0
  H  H18  1  0.79009038  0.61904647  0.51918418  1.0
  H  H19  1  0.75999608  0.60452451  0.42004624  1.0
  H  H20  1  0.07303005  0.62449553  0.45835891  1.0
  H  H21  1  0.29923763  0.59743085  0.50427818  1.0
  H  H22  1  0.60985987  0.49391359  0.42034773  1.0
  H  H23  1  0.40615066  0.51070998  0.45415339  1.0
  H  H24  1  0.71260301  0.45643530  0.47752047  1.0
  H  H25  1  0.51148975  0.42372735  0.42949962  1.0
  H  H26  1  0.61331964  0.43104583  0.52684465  1.0
  H  H27  1  0.58859415  0.38991505  0.57015689  1.0
  H  H28  1  0.93818395  0.44738501  0.61171622  1.0
  H  H29  1  0.12618264  0.47345484  0.56100291  1.0
  H  H30  1  0.17125004  0.90004647  0.38094286  1.0
  H  H31  1  0.15535660  0.81553673  0.39549560  1.0
  H  H32  1  0.44834106  0.83378080  0.37524708  1.0
  H  H33  1  0.70146929  0.90682656  0.40245876  1.0
  H  H34  1  0.11541014  0.92636992  0.50606305  1.0
  H  H35  1  0.89541321  0.94356268  0.48917931  1.0
  H  H36  1  0.25669914  0.02100067  0.54339957  1.0
  H  H37  1  0.08829793  0.00578190  0.57617690  1.0
  H  H38  1  0.18272274  0.09585131  0.56897388  1.0
  H  H39  1  0.19899277  0.18026801  0.61013021  1.0
  H  H40  1  0.49099946  0.16441761  0.55266281  1.0
  H  H41  1  0.65300611  0.08763331  0.52654234  1.0
  C  C42  1  0.19427787  0.50342130  0.05109679  1.0
  C  C43  1  0.07953431  0.53428356  0.13504334  1.0
  C  C44  1  0.17983157  0.57154332  0.18010362  1.0
  C  C45  1  0.08068942  0.59948480  0.22129400  1.0
  C  C46  1  0.87163867  0.58695706  0.21610296  1.0
  C  C47  1  0.77330989  0.55025419  0.16936728  1.0
  C  C48  1  0.87255675  0.52439302  0.12886745  1.0
  C  C49  1  0.75648439  0.60837174  0.25827162  1.0
  C  C50  1  0.10207331  0.54406735  0.04638367  1.0
  C  C51  1  0.09696840  0.53548245  0.99389556  1.0
  C  C52  1  0.91723333  0.49921059  0.96075016  1.0
  C  C53  1  0.80674139  0.43863729  0.87101495  1.0
  C  C54  1  0.86678446  0.42098593  0.82390892  1.0
  C  C55  1  0.73405291  0.39307839  0.78030157  1.0
  C  C56  1  0.53277318  0.38204820  0.78522525  1.0
  C  C57  1  0.47948524  0.39833069  0.83310148  1.0
  C  C58  1  0.61049191  0.42620323  0.87584864  1.0
  C  C59  1  0.37722368  0.35547339  0.74289441  1.0
  C  C60  1  0.69131019  0.54772036  0.49673640  1.0
  C  C61  1  0.54607595  0.60080100  0.46577492  1.0
  C  C62  1  0.60885778  0.60861542  0.42850688  1.0
  C  C63  1  0.48148225  0.62181073  0.40053415  1.0
  C  C64  1  0.28490480  0.62906987  0.41303903  1.0
  C  C65  1  0.22359107  0.61904447  0.44977076  1.0
  C  C66  1  0.34899159  0.60446106  0.47566311  1.0
  C  C67  1  0.14820166  0.64983910  0.39162977  1.0
  C  C68  1  0.55873690  0.50238786  0.45601042  1.0
  C  C69  1  0.56188679  0.45844039  0.46455994  1.0
  C  C70  1  0.41804970  0.46150738  0.50072129  1.0
  C  C71  1  0.36743871  0.43219885  0.56119960  1.0
  C  C72  1  0.44505036  0.40273934  0.57887965  1.0
  C  C73  1  0.34041289  0.38712330  0.60686688  1.0
  C  C74  1  0.15015197  0.40307629  0.61785675  1.0
  C  C75  1  0.08053802  0.43465090  0.60150541  1.0
  C  C76  1  0.18366832  0.44948975  0.57359904  1.0
  C  C77  1  0.02143128  0.38738612  0.64452677  1.0
  C  C78  1  0.14390840  0.94893337  0.45222991  1.0
  C  C79  1  0.94507861  0.86497089  0.39914316  1.0
  C  C80  1  0.00011528  0.81988294  0.39132730  1.0
  C  C81  1  0.85963712  0.77870443  0.37810535  1.0
  C  C82  1  0.65578007  0.78392537  0.37075899  1.0
  C  C83  1  0.60440342  0.83067781  0.38075620  1.0
  C  C84  1  0.74429855  0.87117382  0.39540288  1.0
  C  C85  1  0.49828556  0.74175991  0.35005343  1.0
  C  C86  1  0.05638343  0.95360923  0.49754491  1.0
  C  C87  1  0.10390302  0.00609808  0.54144186  1.0
  C  C88  1  0.95707349  0.03924025  0.53836352  1.0
  C  C89  1  0.93558152  0.12904527  0.56780936  1.0
  C  C90  1  0.04257552  0.17617610  0.59732336  1.0
  C  C91  1  0.95345354  0.21977727  0.61297660  1.0
  C  C92  1  0.74719142  0.21481615  0.59700523  1.0
  C  C93  1  0.64608538  0.16691181  0.56541245  1.0
  C  C94  1  0.73446903  0.12417335  0.55052304  1.0
  C  C95  1  0.63406514  0.25716989  0.61272494  1.0
  N  N96  1  0.18916707  0.50505744  0.09595297  1.0
  N  N97  1  0.94729536  0.46936633  0.91206940  1.0
  N  N98  1  0.68512646  0.59091665  0.49499239  1.0
  N  N99  1  0.47748529  0.44253879  0.53050788  1.0
  N  N100  1  0.09403758  0.90405930  0.40903294  1.0
  N  N101  1  0.03539580  0.08801259  0.55743213  1.0
  O  O102  1  0.20199829  0.34459615  0.74881284  1.0
  O  O103  1  0.42148055  0.34439372  0.69922921  1.0
  O  O104  1  0.80113125  0.37900333  0.73651564  1.0
  O  O105  1  0.57652127  0.59172187  0.25407306  1.0
  O  O106  1  0.84303884  0.64441645  0.30040070  1.0
  O  O107  1  0.18780640  0.63576858  0.26296122  1.0
  O  O108  1  0.27913256  0.47216934  0.01850445  1.0
  O  O109  1  0.75808123  0.49876160  0.97663264  1.0
  O  O110  1  0.85716392  0.40422659  0.65543816  1.0
  O  O111  1  0.07691725  0.35483657  0.65568079  1.0
  O  O112  1  0.42176197  0.35749686  0.62106895  1.0
  O  O113  1  0.98491532  0.66229582  0.40828099  1.0
  O  O114  1  0.19863269  0.65595987  0.35559484  1.0
  O  O115  1  0.55211824  0.62720631  0.36424170  1.0
  O  O116  1  0.80676649  0.54636570  0.52811028  1.0
  O  O117  1  0.25948449  0.47790329  0.50112204  1.0
  O  O118  1  0.45287015  0.25124668  0.59593073  1.0
  O  O119  1  0.72215989  0.30084920  0.64526437  1.0
  O  O120  1  0.06443909  0.26357464  0.64264550  1.0
  O  O121  1  0.32246715  0.74596452  0.33762046  1.0
  O  O122  1  0.54266179  0.69962253  0.34400422  1.0
  O  O123  1  0.92493274  0.73702583  0.37276309  1.0
  O  O124  1  0.26136591  0.98155362  0.45358583  1.0
  O  O125  1  0.78219505  0.02325319  0.52185227  1.0
