# generated using pymatgen
data_Zn4H32C65(N6O)3
_symmetry_space_group_name_H-M   'P 1'
_cell_length_a   19.16219620
_cell_length_b   19.98513794
_cell_length_c   20.09151955
_cell_angle_alpha   104.14195146
_cell_angle_beta   109.61390295
_cell_angle_gamma   112.31034469
_symmetry_Int_Tables_number   1
_chemical_formula_structural   Zn4H32C65(N6O)3
_chemical_formula_sum   'Zn4 H32 C65 N18 O3'
_cell_volume   6064.50215775
_cell_formula_units_Z   1
loop_
 _symmetry_equiv_pos_site_id
 _symmetry_equiv_pos_as_xyz
  1  'x, y, z'
loop_
 _atom_site_type_symbol
 _atom_site_label
 _atom_site_symmetry_multiplicity
 _atom_site_fract_x
 _atom_site_fract_y
 _atom_site_fract_z
 _atom_site_occupancy
  Zn  Zn0  1  0.88465251  0.88208132  0.49877687  1.0
  Zn  Zn1  1  0.10610203  0.11537754  0.49571568  1.0
  Zn  Zn2  1  0.10870641  0.00928266  0.60782254  1.0
  Zn  Zn3  1  0.88118251  0.98727610  0.39031065  1.0
  H  H4  1  0.86012153  0.88695124  0.65078142  1.0
  H  H5  1  0.25792108  0.08504613  0.45944809  1.0
  H  H6  1  0.14027681  0.89935777  0.48819593  1.0
  H  H7  1  0.89127829  0.86103558  0.26680659  1.0
  H  H8  1  0.13719597  0.06268106  0.33761677  1.0
  H  H9  1  0.90023122  0.71359256  0.45001981  1.0
  H  H10  1  0.72754515  0.83647961  0.20835398  1.0
  H  H11  1  0.31037422  0.03260864  0.66198455  1.0
  H  H12  1  0.12752005  0.47270960  0.42878880  1.0
  H  H13  1  0.15643898  0.60677475  0.43542086  1.0
  H  H14  1  0.85575513  0.38781345  0.32620210  1.0
  H  H15  1  0.61807655  0.46862361  0.11943152  1.0
  H  H16  1  0.49907875  0.34295629  0.00291952  1.0
  H  H17  1  0.51948984  0.46655433  0.85579797  1.0
  H  H18  1  0.63748865  0.59202049  0.97222158  1.0
  H  H19  1  0.85175350  0.78686301  0.86835062  1.0
  H  H20  1  0.86164327  0.78785137  0.99489863  1.0
  H  H21  1  0.12573844  0.94527897  0.98216276  1.0
  H  H22  1  0.18942830  0.14405077  0.76781865  1.0
  H  H23  1  0.82630433  0.09509507  0.47838882  1.0
  H  H24  1  0.73573723  0.90429560  0.54875116  1.0
  H  H25  1  0.13354449  0.97574981  0.77024809  1.0
  H  H26  1  0.81050348  0.71746715  0.34383461  1.0
  H  H27  1  0.12050043  0.33655455  0.61209401  1.0
  H  H28  1  0.10460857  0.38064470  0.54400426  1.0
  H  H29  1  0.20793564  0.39153518  0.59680691  1.0
  H  H30  1  0.39104940  0.27024199  0.66808532  1.0
  H  H31  1  0.40178425  0.36367946  0.71969897  1.0
  H  H32  1  0.38668754  0.33592629  0.62158575  1.0
  H  H33  1  0.79760612  0.19201735  0.28991473  1.0
  H  H34  1  0.79236964  0.20022346  0.37888405  1.0
  H  H35  1  0.70579315  0.11764102  0.28776987  1.0
  C  C36  1  0.92815180  0.91156567  0.66897427  1.0
  C  C37  1  0.96358973  0.22578109  0.41575972  1.0
  C  C38  1  0.26832846  0.23122597  0.73381822  1.0
  C  C39  1  0.75867419  0.01224218  0.52291589  1.0
  C  C40  1  0.79668873  0.75889612  0.32379054  1.0
  C  C41  1  0.25749039  0.07206835  0.50875915  1.0
  C  C42  1  0.07836220  0.86423944  0.48386778  1.0
  C  C43  1  0.95121095  0.91740143  0.29642745  1.0
  C  C44  1  0.07744984  0.02059302  0.33260870  1.0
  C  C45  1  0.95518735  0.76942637  0.46469917  1.0
  C  C46  1  0.75309393  0.81884975  0.25359939  1.0
  C  C47  1  0.03529184  0.22330842  0.46505696  1.0
  C  C48  1  0.28486219  0.04528816  0.61262119  1.0
  C  C49  1  0.75187948  0.74629835  0.24588270  1.0
  C  C50  1  0.31841985  0.06157659  0.56203012  1.0
  C  C51  1  0.02740287  0.78063371  0.45416549  1.0
  C  C52  1  0.01385076  0.94354885  0.27242344  1.0
  C  C53  1  0.70317452  0.03516564  0.53832993  1.0
  C  C54  1  0.64891496  0.04873745  0.54797897  1.0
  C  C55  1  0.58657853  0.05949617  0.55547930  1.0
  C  C56  1  0.52577818  0.06465805  0.55980672  1.0
  C  C57  1  0.45765621  0.06671586  0.56242344  1.0
  C  C58  1  0.19634151  0.16538706  0.72429209  1.0
  C  C59  1  0.39312899  0.06525988  0.56319239  1.0
  C  C60  1  0.09073516  0.55865731  0.41115554  1.0
  C  C61  1  0.02351439  0.57530391  0.38734439  1.0
  C  C62  1  0.93762838  0.51073136  0.35325570  1.0
  C  C63  1  0.92158253  0.43536195  0.34994329  1.0
  C  C64  1  0.98999699  0.42160205  0.38005684  1.0
  C  C65  1  0.07454898  0.48386020  0.40775322  1.0
  C  C66  1  0.03745844  0.65323919  0.40353657  1.0
  C  C67  1  0.97606841  0.34967509  0.38707359  1.0
  C  C68  1  0.96668790  0.29071745  0.39953552  1.0
  C  C69  1  0.81358299  0.04426184  0.49270049  1.0
  C  C70  1  0.03975869  0.71710143  0.42518337  1.0
  C  C71  1  0.52936933  0.39762184  0.99636282  1.0
  C  C72  1  0.49720296  0.39718981  0.92175675  1.0
  C  C73  1  0.54088555  0.46727239  0.91369654  1.0
  C  C74  1  0.60682491  0.53738364  0.97868792  1.0
  C  C75  1  0.63173713  0.54013431  0.05438735  1.0
  C  C76  1  0.59565375  0.46775135  0.06149037  1.0
  C  C77  1  0.41938687  0.33227619  0.85717508  1.0
  C  C78  1  0.68347392  0.61426186  0.12121940  1.0
  C  C79  1  0.71573974  0.67673336  0.17822265  1.0
  C  C80  1  0.24020315  0.22995633  0.65813422  1.0
  C  C81  1  0.34836331  0.28469998  0.80076244  1.0
  C  C82  1  0.91938756  0.82204256  0.99183338  1.0
  C  C83  1  0.99834269  0.86957615  0.06172484  1.0
  C  C84  1  0.07368682  0.91141560  0.05612665  1.0
  C  C85  1  0.06786424  0.91065888  0.98476486  1.0
  C  C86  1  0.98764511  0.86862078  0.91679174  1.0
  C  C87  1  0.91388188  0.82165162  0.92110291  1.0
  C  C88  1  0.00315686  0.88310934  0.13569858  1.0
  C  C89  1  0.98339767  0.87883263  0.84866905  1.0
  C  C90  1  0.98608453  0.89776668  0.79579194  1.0
  C  C91  1  0.76686127  0.94606669  0.52822054  1.0
  C  C92  1  0.00880759  0.90750612  0.20036856  1.0
  C  C93  1  0.89625122  0.14499754  0.38121250  1.0
  C  C94  1  0.06807914  0.95703371  0.73027622  1.0
  C  C95  1  0.99289359  0.92038396  0.73641664  1.0
  C  C96  1  0.86795971  0.52511618  0.32678618  1.0
  C  C97  1  0.13839927  0.35187272  0.56899694  1.0
  C  C98  1  0.15547119  0.95793417  0.12464312  1.0
  C  C99  1  0.37055534  0.31388442  0.66223700  1.0
  C  C100  1  0.77532812  0.15833526  0.32136384  1.0
  N  N101  1  0.96189232  0.93947893  0.62610112  1.0
  N  N102  1  0.19409188  0.06317883  0.52651394  1.0
  N  N103  1  0.03952090  0.89965710  0.51047301  1.0
  N  N104  1  0.97434447  0.97492530  0.36420595  1.0
  N  N105  1  0.05250615  0.03822294  0.38598264  1.0
  N  N106  1  0.96373076  0.84049284  0.49840636  1.0
  N  N107  1  0.79525425  0.86974100  0.32983552  1.0
  N  N108  1  0.21128049  0.04675805  0.59064503  1.0
  N  N109  1  0.01288255  0.14966601  0.45973482  1.0
  N  N110  1  0.13152999  0.12747715  0.64993431  1.0
  N  N111  1  0.84993414  0.99988107  0.48004548  1.0
  N  N112  1  0.15950328  0.16937933  0.61021412  1.0
  N  N113  1  0.82059950  0.93954253  0.50192605  1.0
  N  N114  1  0.92654497  0.10043987  0.40632281  1.0
  N  N115  1  0.04819899  0.96726140  0.66418155  1.0
  N  N116  1  0.82244754  0.83248326  0.37326341  1.0
  N  N117  1  0.81123178  0.53749090  0.30594246  1.0
  N  N118  1  0.22280781  0.99641829  0.18037633  1.0
  O  O119  1  0.11908245  0.28077406  0.50837490  1.0
  O  O120  1  0.27829255  0.27620700  0.62775495  1.0
  O  O121  1  0.81210734  0.10798388  0.32996630  1.0
