# generated using pymatgen
data_GdH18C30(N2O5)4
_symmetry_space_group_name_H-M   'P 1'
_cell_length_a   14.59747071
_cell_length_b   19.26296715
_cell_length_c   19.26299204
_cell_angle_alpha   101.35634526
_cell_angle_beta   93.32608554
_cell_angle_gamma   93.32614737
_symmetry_Int_Tables_number   1
_chemical_formula_structural   GdH18C30(N2O5)4
_chemical_formula_sum   'Gd4 H72 C120 N32 O80'
_cell_volume   5288.21751433
_cell_formula_units_Z   4
loop_
 _symmetry_equiv_pos_site_id
 _symmetry_equiv_pos_as_xyz
  1  'x, y, z'
loop_
 _atom_site_type_symbol
 _atom_site_label
 _atom_site_symmetry_multiplicity
 _atom_site_fract_x
 _atom_site_fract_y
 _atom_site_fract_z
 _atom_site_occupancy
  Gd  Gd0  1  0.36651898  0.45245727  0.98055564  1.0
  Gd  Gd1  1  0.13348026  0.01944300  0.54754222  1.0
  Gd  Gd2  1  0.63348312  0.54754355  0.01944336  1.0
  Gd  Gd3  1  0.86652046  0.98055781  0.45245621  1.0
  H  H4  1  0.43727869  0.30630033  0.12393433  1.0
  H  H5  1  0.70507427  0.41575846  0.16803990  1.0
  H  H6  1  0.75458862  0.05096570  0.23289395  1.0
  H  H7  1  0.67662094  0.17572605  0.42817076  1.0
  H  H8  1  0.69383218  0.43976092  0.86188557  1.0
  H  H9  1  0.50853555  0.25338076  0.84578091  1.0
  H  H10  1  0.25270405  0.47874417  0.81460127  1.0
  H  H11  1  0.10994047  0.34847367  0.87662256  1.0
  H  H12  1  0.05266458  0.32180546  0.78980342  1.0
  H  H13  1  0.00871970  0.39008915  0.85319404  1.0
  H  H14  1  0.13957489  0.49235683  0.74092475  1.0
  H  H15  1  0.02625186  0.47382681  0.76524091  1.0
  H  H16  1  0.07719936  0.40919659  0.70278264  1.0
  H  H17  1  0.14163172  0.47812168  0.99772018  1.0
  H  H18  1  0.01252113  0.55901865  0.98859156  1.0
  H  H19  1  0.21826864  0.72380125  0.97301403  1.0
  H  H20  1  0.33761638  0.63719755  0.98292758  1.0
  H  H21  1  0.05552296  0.75096420  0.97027167  1.0
  H  H22  1  0.06272174  0.87606618  0.69369978  1.0
  H  H23  1  0.79492592  0.83196098  0.58424184  1.0
  H  H24  1  0.74540939  0.76710749  0.94903485  1.0
  H  H25  1  0.82337836  0.57182934  0.82427526  1.0
  H  H26  1  0.80616570  0.13811567  0.56023819  1.0
  H  H27  1  0.99146302  0.15421951  0.74661742  1.0
  H  H28  1  0.24729610  0.18539792  0.52125504  1.0
  H  H29  1  0.39005981  0.12337628  0.65152518  1.0
  H  H30  1  0.44733707  0.21019667  0.67819214  1.0
  H  H31  1  0.49128099  0.14680603  0.60990850  1.0
  H  H32  1  0.36042540  0.25907462  0.50764166  1.0
  H  H33  1  0.47374848  0.23475798  0.52617005  1.0
  H  H34  1  0.42280165  0.29721581  0.59079994  1.0
  H  H35  1  0.35836928  0.00227960  0.52187768  1.0
  H  H36  1  0.48748008  0.01140694  0.44098017  1.0
  H  H37  1  0.28173103  0.02698659  0.27619821  1.0
  H  H38  1  0.16238285  0.01707368  0.36280291  1.0
  H  H39  1  0.44448071  0.02972812  0.24903474  1.0
  H  H40  1  0.56272140  0.69370101  0.87606625  1.0
  H  H41  1  0.29492764  0.58423972  0.83196273  1.0
  H  H42  1  0.24541078  0.94903564  0.76710661  1.0
  H  H43  1  0.32337764  0.82427369  0.57182737  1.0
  H  H44  1  0.30616601  0.56023404  0.13811421  1.0
  H  H45  1  0.49146203  0.74661526  0.15421645  1.0
  H  H46  1  0.74729325  0.52125663  0.18539909  1.0
  H  H47  1  0.89005876  0.65152555  0.12337757  1.0
  H  H48  1  0.94733470  0.67819429  0.21019734  1.0
  H  H49  1  0.99127945  0.60990901  0.14680692  1.0
  H  H50  1  0.86042086  0.50764183  0.25907461  1.0
  H  H51  1  0.97374444  0.52617026  0.23475712  1.0
  H  H52  1  0.92280115  0.59080157  0.29721629  1.0
  H  H53  1  0.85836952  0.52187702  0.00227837  1.0
  H  H54  1  0.98748010  0.44098004  0.01140647  1.0
  H  H55  1  0.78172994  0.27619849  0.02698514  1.0
  H  H56  1  0.66238302  0.36280379  0.01707194  1.0
  H  H57  1  0.94447613  0.24903342  0.02972658  1.0
  H  H58  1  0.93728105  0.12393465  0.30630029  1.0
  H  H59  1  0.20507565  0.16804144  0.41576057  1.0
  H  H60  1  0.25459084  0.23289544  0.05096605  1.0
  H  H61  1  0.17661700  0.42817304  0.17572326  1.0
  H  H62  1  0.19383440  0.86188567  0.43976291  1.0
  H  H63  1  0.00853981  0.84578184  0.25338223  1.0
  H  H64  1  0.75270781  0.81459973  0.47874601  1.0
  H  H65  1  0.60994342  0.87662137  0.34847688  1.0
  H  H66  1  0.55266765  0.78980257  0.32180718  1.0
  H  H67  1  0.50872155  0.85319161  0.39009197  1.0
  H  H68  1  0.63957993  0.74092357  0.49235903  1.0
  H  H69  1  0.52625542  0.76523967  0.47382996  1.0
  H  H70  1  0.57720156  0.70278183  0.40919901  1.0
  H  H71  1  0.64163129  0.99771910  0.47812500  1.0
  H  H72  1  0.51252127  0.98859282  0.55902275  1.0
  H  H73  1  0.71827049  0.97301530  0.72380357  1.0
  H  H74  1  0.83761931  0.98292768  0.63719880  1.0
  H  H75  1  0.55552648  0.97027592  0.75096821  1.0
  C  C76  1  0.53890654  0.42253309  0.10034495  1.0
  C  C77  1  0.56656252  0.36921320  0.14392088  1.0
  C  C78  1  0.50633878  0.31221650  0.14976970  1.0
  C  C79  1  0.53510240  0.26240867  0.18829996  1.0
  C  C80  1  0.62443153  0.26567119  0.22123490  1.0
  C  C81  1  0.68442353  0.32246312  0.21121476  1.0
  C  C82  1  0.65607778  0.37339231  0.17456967  1.0
  C  C83  1  0.65568927  0.21065740  0.26019018  1.0
  C  C84  1  0.69321340  0.14858506  0.22553182  1.0
  C  C85  1  0.72593957  0.09823621  0.26171726  1.0
  C  C86  1  0.72320284  0.10920913  0.33515367  1.0
  C  C87  1  0.68237292  0.16816816  0.37113944  1.0
  C  C88  1  0.64848815  0.21696209  0.33382337  1.0
  C  C89  1  0.76307331  0.05759248  0.37499924  1.0
  C  C90  1  0.52684992  0.39242453  0.90357614  1.0
  C  C91  1  0.59281004  0.35133987  0.85780108  1.0
  C  C92  1  0.67522873  0.38332406  0.84197164  1.0
  C  C93  1  0.73412391  0.34226959  0.79955104  1.0
  C  C94  1  0.71748800  0.26856860  0.77505834  1.0
  C  C95  1  0.63540477  0.23855544  0.79495768  1.0
  C  C96  1  0.57234842  0.27872784  0.83318072  1.0
  C  C97  1  0.21409698  0.43953381  0.83850573  1.0
  C  C98  1  0.07178297  0.36686659  0.83391799  1.0
  C  C99  1  0.09113568  0.45048926  0.75110406  1.0
  C  C100  1  0.15503584  0.53276366  0.99147167  1.0
  C  C101  1  0.08427046  0.57720490  0.98688601  1.0
  C  C102  1  0.10595254  0.64707648  0.97992794  1.0
  C  C103  1  0.19835443  0.66960346  0.97795975  1.0
  C  C104  1  0.26476822  0.62139281  0.98326335  1.0
  C  C105  1  0.03210288  0.69672072  0.97655906  1.0
  C  C106  1  0.96109180  0.89965481  0.57746689  1.0
  C  C107  1  0.93343725  0.85607828  0.63078755  1.0
  C  C108  1  0.99366137  0.85023076  0.68778527  1.0
  C  C109  1  0.96489770  0.81170090  0.73759323  1.0
  C  C110  1  0.87556813  0.77876594  0.73432990  1.0
  C  C111  1  0.81557496  0.78878426  0.67753774  1.0
  C  C112  1  0.84392078  0.82542890  0.62660810  1.0
  C  C113  1  0.84431257  0.73981110  0.78934437  1.0
  C  C114  1  0.80678533  0.77446760  0.85141480  1.0
  C  C115  1  0.77405645  0.73828404  0.90176366  1.0
  C  C116  1  0.77679652  0.66484725  0.89079160  1.0
  C  C117  1  0.81762562  0.62886125  0.83183230  1.0
  C  C118  1  0.85151257  0.66617806  0.78303862  1.0
  C  C119  1  0.73692844  0.62500192  0.94240789  1.0
  C  C120  1  0.97314725  0.09642467  0.60757298  1.0
  C  C121  1  0.90718673  0.14219844  0.64865804  1.0
  C  C122  1  0.82477189  0.15802867  0.61667495  1.0
  C  C123  1  0.76587357  0.20044928  0.65772990  1.0
  C  C124  1  0.78251278  0.22494060  0.73143106  1.0
  C  C125  1  0.86459421  0.20504059  0.76144366  1.0
  C  C126  1  0.92764979  0.16681862  0.72126820  1.0
  C  C127  1  0.28590250  0.16149229  0.56046570  1.0
  C  C128  1  0.42821849  0.16608110  0.63313163  1.0
  C  C129  1  0.40886436  0.24889584  0.54950899  1.0
  C  C130  1  0.34496466  0.00852876  0.46723619  1.0
  C  C131  1  0.41573018  0.01311339  0.42279450  1.0
  C  C132  1  0.39404738  0.02007232  0.35292247  1.0
  C  C133  1  0.30164500  0.02204132  0.33039649  1.0
  C  C134  1  0.23523137  0.01673829  0.37860723  1.0
  C  C135  1  0.46789530  0.02344170  0.30327961  1.0
  C  C136  1  0.46109360  0.57746879  0.89965574  1.0
  C  C137  1  0.43343955  0.63078709  0.85607958  1.0
  C  C138  1  0.49366131  0.68778484  0.85023088  1.0
  C  C139  1  0.46489774  0.73759321  0.81170021  1.0
  C  C140  1  0.37556774  0.73432856  0.77876430  1.0
  C  C141  1  0.31557780  0.67753663  0.78878505  1.0
  C  C142  1  0.34392360  0.62660798  0.82543076  1.0
  C  C143  1  0.34430846  0.78934022  0.73980958  1.0
  C  C144  1  0.30678372  0.85141361  0.77446656  1.0
  C  C145  1  0.27405832  0.90176353  0.73828136  1.0
  C  C146  1  0.27679642  0.89079062  0.66484449  1.0
  C  C147  1  0.31762553  0.83182999  0.62885993  1.0
  C  C148  1  0.35150971  0.78303712  0.66617671  1.0
  C  C149  1  0.23692802  0.94240728  0.62500057  1.0
  C  C150  1  0.47314707  0.60757255  0.09642244  1.0
  C  C151  1  0.40718610  0.64865509  0.14219861  1.0
  C  C152  1  0.32476955  0.61667197  0.15802887  1.0
  C  C153  1  0.26587304  0.65772697  0.20044952  1.0
  C  C154  1  0.28251316  0.73142904  0.22494103  1.0
  C  C155  1  0.36459479  0.76143954  0.20504059  1.0
  C  C156  1  0.42765032  0.72126554  0.16681772  1.0
  C  C157  1  0.78590097  0.56046646  0.16149456  1.0
  C  C158  1  0.92821631  0.63313316  0.16608225  1.0
  C  C159  1  0.90886145  0.54950942  0.24889588  1.0
  C  C160  1  0.84496480  0.46723609  0.00852759  1.0
  C  C161  1  0.91573012  0.42279432  0.01311158  1.0
  C  C162  1  0.89404736  0.35292274  0.02007014  1.0
  C  C163  1  0.80164556  0.33039682  0.02203854  1.0
  C  C164  1  0.73523109  0.37860746  0.01673543  1.0
  C  C165  1  0.96789132  0.30327582  0.02344035  1.0
  C  C166  1  0.03890755  0.10034600  0.42253200  1.0
  C  C167  1  0.06656358  0.14392360  0.36921316  1.0
  C  C168  1  0.00634023  0.14977219  0.31221620  1.0
  C  C169  1  0.03510395  0.18830257  0.26240835  1.0
  C  C170  1  0.12443292  0.22123859  0.26567134  1.0
  C  C171  1  0.18442403  0.21122026  0.32246446  1.0
  C  C172  1  0.15607941  0.17457350  0.37339321  1.0
  C  C173  1  0.15569037  0.26019132  0.21065706  1.0
  C  C174  1  0.19321686  0.22553429  0.14858493  1.0
  C  C175  1  0.22594119  0.26172100  0.09823599  1.0
  C  C176  1  0.22320108  0.33515726  0.10920795  1.0
  C  C177  1  0.18237185  0.37114167  0.16816745  1.0
  C  C178  1  0.14848485  0.33382432  0.21695946  1.0
  C  C179  1  0.26307104  0.37500048  0.05759184  1.0
  C  C180  1  0.02685416  0.90357614  0.39242495  1.0
  C  C181  1  0.09281519  0.85780026  0.35134105  1.0
  C  C182  1  0.17523009  0.84197056  0.38332581  1.0
  C  C183  1  0.23412837  0.79954942  0.34227076  1.0
  C  C184  1  0.21748906  0.77505704  0.26856886  1.0
  C  C185  1  0.13540765  0.79495705  0.23855730  1.0
  C  C186  1  0.07235219  0.83318061  0.27873152  1.0
  C  C187  1  0.71410269  0.83850430  0.43953467  1.0
  C  C188  1  0.57178348  0.83391813  0.36686861  1.0
  C  C189  1  0.59113900  0.75110340  0.45049183  1.0
  C  C190  1  0.65503668  0.99147100  0.53276569  1.0
  C  C191  1  0.58427198  0.98688797  0.57720824  1.0
  C  C192  1  0.60595492  0.97993063  0.64708007  1.0
  C  C193  1  0.69835780  0.97795951  0.66960410  1.0
  C  C194  1  0.76477143  0.98326254  0.62139336  1.0
  C  C195  1  0.53210766  0.97656072  0.69672597  1.0
  N  N196  1  0.46703231  0.20391649  0.19227299  1.0
  N  N197  1  0.78208945  0.32913580  0.23737475  1.0
  N  N198  1  0.70075172  0.13427060  0.14787362  1.0
  N  N199  1  0.60391418  0.27697637  0.37458605  1.0
  N  N200  1  0.81864482  0.37906791  0.78211254  1.0
  N  N201  1  0.61419552  0.16117581  0.77751913  1.0
  N  N202  1  0.12929623  0.42002405  0.80904934  1.0
  N  N203  1  0.24429251  0.55396517  0.98921903  1.0
  N  N204  1  0.03296794  0.80772874  0.79608630  1.0
  N  N205  1  0.71790886  0.76262307  0.67086480  1.0
  N  N206  1  0.79924411  0.85212633  0.86572837  1.0
  N  N207  1  0.89608557  0.62541604  0.72302547  1.0
  N  N208  1  0.68135217  0.21788719  0.62093281  1.0
  N  N209  1  0.88580284  0.22248045  0.83882271  1.0
  N  N210  1  0.37070370  0.19094920  0.57997408  1.0
  N  N211  1  0.25570813  0.01078232  0.44603458  1.0
  N  N212  1  0.53296798  0.79608698  0.80773010  1.0
  N  N213  1  0.21791112  0.67086290  0.76262637  1.0
  N  N214  1  0.29924476  0.86572860  0.85212536  1.0
  N  N215  1  0.39608307  0.72302390  0.62541369  1.0
  N  N216  1  0.18135441  0.62093131  0.21788811  1.0
  N  N217  1  0.38580133  0.83881967  0.22247810  1.0
  N  N218  1  0.87070163  0.57997516  0.19095073  1.0
  N  N219  1  0.75570680  0.44603510  0.01078027  1.0
  N  N220  1  0.96703477  0.19227102  0.20391356  1.0
  N  N221  1  0.28208959  0.23738304  0.32913925  1.0
  N  N222  1  0.20075464  0.14787553  0.13426966  1.0
  N  N223  1  0.10391263  0.37458742  0.27697441  1.0
  N  N224  1  0.31864698  0.78211096  0.37906763  1.0
  N  N225  1  0.11420123  0.77751932  0.16117720  1.0
  N  N226  1  0.62930021  0.80904845  0.42002593  1.0
  N  N227  1  0.74429335  0.98921903  0.55396710  1.0
  O  O228  1  0.46261048  0.40867430  0.06440000  1.0
  O  O229  1  0.59645017  0.47518842  0.10190137  1.0
  O  O230  1  0.76711519  0.07307779  0.44333508  1.0
  O  O231  1  0.79404152  0.00175049  0.34118441  1.0
  O  O232  1  0.40306345  0.19029896  0.14552174  1.0
  O  O233  1  0.47721408  0.17216220  0.24205837  1.0
  O  O234  1  0.83331523  0.37429142  0.21792578  1.0
  O  O235  1  0.80828940  0.28947080  0.27691022  1.0
  O  O236  1  0.70169431  0.18573151  0.11757236  1.0
  O  O237  1  0.70596207  0.07203707  0.11789451  1.0
  O  O238  1  0.58727119  0.32737646  0.34533631  1.0
  O  O239  1  0.58559093  0.27402613  0.43593817  1.0
  O  O240  1  0.55815118  0.44922085  0.94613345  1.0
  O  O241  1  0.44402476  0.36815700  0.89902179  1.0
  O  O242  1  0.84958656  0.43341911  0.82467116  1.0
  O  O243  1  0.85389535  0.35328542  0.72655857  1.0
  O  O244  1  0.67975465  0.12285111  0.76824411  1.0
  O  O245  1  0.53244953  0.13894352  0.77419570  1.0
  O  O246  1  0.24915750  0.41617363  0.88946420  1.0
  O  O247  1  0.95083025  0.67959409  0.98049298  1.0
  O  O248  1  0.03738903  0.93559890  0.59132441  1.0
  O  O249  1  0.90354986  0.89809870  0.52481159  1.0
  O  O250  1  0.73288742  0.55666562  0.92692509  1.0
  O  O251  1  0.70595953  0.65881696  0.99824985  1.0
  O  O252  1  0.09693854  0.85447887  0.80970384  1.0
  O  O253  1  0.02278784  0.75794328  0.82784045  1.0
  O  O254  1  0.66666667  0.78207354  0.62570990  1.0
  O  O255  1  0.69170848  0.72308598  0.71052764  1.0
  O  O256  1  0.79830202  0.88242766  0.81426746  1.0
  O  O257  1  0.79403096  0.88210607  0.92796209  1.0
  O  O258  1  0.91272880  0.65466670  0.67262492  1.0
  O  O259  1  0.91440812  0.56406265  0.72597509  1.0
  O  O260  1  0.94184658  0.05386678  0.55077630  1.0
  O  O261  1  0.05597211  0.10097757  0.63184201  1.0
  O  O262  1  0.65041124  0.17532869  0.56658148  1.0
  O  O263  1  0.64609987  0.27344116  0.64671664  1.0
  O  O264  1  0.82024522  0.23175675  0.87715089  1.0
  O  O265  1  0.96754854  0.22580269  0.86105401  1.0
  O  O266  1  0.25084194  0.11053391  0.58382473  1.0
  O  O267  1  0.54916824  0.01950646  0.32040646  1.0
  O  O268  1  0.53738756  0.59132704  0.93560101  1.0
  O  O269  1  0.40355112  0.52481081  0.89809832  1.0
  O  O270  1  0.23288832  0.92692357  0.55666408  1.0
  O  O271  1  0.20595839  0.99824873  0.65881523  1.0
  O  O272  1  0.59693938  0.80970240  0.85447843  1.0
  O  O273  1  0.52278384  0.82784550  0.75794804  1.0
  O  O274  1  0.16668232  0.62571204  0.78207875  1.0
  O  O275  1  0.19171230  0.71052525  0.72308731  1.0
  O  O276  1  0.29830284  0.81426769  0.88242457  1.0
  O  O277  1  0.29403443  0.92796266  0.88210250  1.0
  O  O278  1  0.41272465  0.67262326  0.65466275  1.0
  O  O279  1  0.41440636  0.72597466  0.56406064  1.0
  O  O280  1  0.44184452  0.55077728  0.05386580  1.0
  O  O281  1  0.55597172  0.63184220  0.10097667  1.0
  O  O282  1  0.15040791  0.56658061  0.17532888  1.0
  O  O283  1  0.14610527  0.64671380  0.27344370  1.0
  O  O284  1  0.32024085  0.87714490  0.23175057  1.0
  O  O285  1  0.46754677  0.86105356  0.22580286  1.0
  O  O286  1  0.75084182  0.58382665  0.11053666  1.0
  O  O287  1  0.04917159  0.32040355  0.01950590  1.0
  O  O288  1  0.96261284  0.06439927  0.40867302  1.0
  O  O289  1  0.09645021  0.10190264  0.47518639  1.0
  O  O290  1  0.26711410  0.44333627  0.07307617  1.0
  O  O291  1  0.29403984  0.34118385  0.00175112  1.0
  O  O292  1  0.90306163  0.14552301  0.19030100  1.0
  O  O293  1  0.97722124  0.24205120  0.17215291  1.0
  O  O294  1  0.33333333  0.21792886  0.37428980  1.0
  O  O295  1  0.30828561  0.27692541  0.28947883  1.0
  O  O296  1  0.20169549  0.11757579  0.18573083  1.0
  O  O297  1  0.20596375  0.11789684  0.07203599  1.0
  O  O298  1  0.08727064  0.34533517  0.32737419  1.0
  O  O299  1  0.08559141  0.43594028  0.27402474  1.0
  O  O300  1  0.05815615  0.94613351  0.44922055  1.0
  O  O301  1  0.94402858  0.89902271  0.36815787  1.0
  O  O302  1  0.34958672  0.82467159  0.43342037  1.0
  O  O303  1  0.35390008  0.72655806  0.35328715  1.0
  O  O304  1  0.17975779  0.76824674  0.12284919  1.0
  O  O305  1  0.03245318  0.77419336  0.13894560  1.0
  O  O306  1  0.74916261  0.88946321  0.41617520  1.0
  O  O307  1  0.45083259  0.98049489  0.67960039  1.0
