# generated using pymatgen
data_AlH15C27(SO5)3
_symmetry_space_group_name_H-M   'P 1'
_cell_length_a   4.22119836
_cell_length_b   15.76488004
_cell_length_c   15.80878115
_cell_angle_alpha   60.12169384
_cell_angle_beta   84.44223624
_cell_angle_gamma   88.45384489
_symmetry_Int_Tables_number   1
_chemical_formula_structural   AlH15C27(SO5)3
_chemical_formula_sum   'Al1 H15 C27 S3 O15'
_cell_volume   907.62913949
_cell_formula_units_Z   1
loop_
 _symmetry_equiv_pos_site_id
 _symmetry_equiv_pos_as_xyz
  1  'x, y, z'
loop_
 _atom_site_type_symbol
 _atom_site_label
 _atom_site_symmetry_multiplicity
 _atom_site_fract_x
 _atom_site_fract_y
 _atom_site_fract_z
 _atom_site_occupancy
  Al  Al0  1  0.86206716  0.49989239  0.00211085  1.0
  H  H1  1  0.56693170  0.93389417  0.15038283  1.0
  H  H2  1  0.51820356  0.65418475  0.41548786  1.0
  H  H3  1  0.62898544  0.91748606  0.42776464  1.0
  H  H4  1  0.60161584  0.25430897  0.01027344  1.0
  H  H5  1  0.73181162  0.08001992  0.08759475  1.0
  H  H6  1  0.36783859  0.04253766  0.36977148  1.0
  H  H7  1  0.36725027  0.87047653  0.08943707  1.0
  H  H8  1  0.52245935  0.51368111  0.23424737  1.0
  H  H9  1  0.64081986  0.59379605  0.32706885  1.0
  H  H10  1  0.80876891  0.59731752  0.54600046  1.0
  H  H11  1  0.22788356  0.72565838  0.74417803  1.0
  H  H12  1  0.29467214  0.82912284  0.56374254  1.0
  H  H13  1  0.66029783  0.29187484  0.31040394  1.0
  H  H14  1  0.72648601  0.80939232  0.90059130  1.0
  H  H15  1  0.32936886  0.39985624  0.79551615  1.0
  C  C16  1  0.34153599  0.59339584  0.05325334  1.0
  C  C17  1  0.41324811  0.54971171  0.85722310  1.0
  C  C18  1  0.35423581  0.35552239  0.09484313  1.0
  C  C19  1  0.55569584  0.78779302  0.27492282  1.0
  C  C20  1  0.57511134  0.89026503  0.22935831  1.0
  C  C21  1  0.59024450  0.93849221  0.28317123  1.0
  C  C22  1  0.60291380  0.88179604  0.38482448  1.0
  C  C23  1  0.58017793  0.77951083  0.43265168  1.0
  C  C24  1  0.55505912  0.73335336  0.37721384  1.0
  C  C25  1  0.55351087  0.20748958  0.08941476  1.0
  C  C26  1  0.62577350  0.10862171  0.13372118  1.0
  C  C27  1  0.56053414  0.04606611  0.23535926  1.0
  C  C28  1  0.43362727  0.08760480  0.29139837  1.0
  C  C29  1  0.36905517  0.18686599  0.24732836  1.0
  C  C30  1  0.42008458  0.24807589  0.14547598  1.0
  C  C31  1  0.41300903  0.79265659  0.12255655  1.0
  C  C32  1  0.35904834  0.74726185  0.06880976  1.0
  C  C33  1  0.38904021  0.64597791  0.10855160  1.0
  C  C34  1  0.49013728  0.59218928  0.20265466  1.0
  C  C35  1  0.55483918  0.63807925  0.25513014  1.0
  C  C36  1  0.51172369  0.73907525  0.21714930  1.0
  C  C37  1  0.68236487  0.62702323  0.58844457  1.0
  C  C38  1  0.64979539  0.56939222  0.69041540  1.0
  C  C39  1  0.48194020  0.60454311  0.74810131  1.0
  C  C40  1  0.36019296  0.69905899  0.69970527  1.0
  C  C41  1  0.39968171  0.75699419  0.59838498  1.0
  C  C42  1  0.55848237  0.72134099  0.54069563  1.0
  S  S43  1  0.18078210  0.22781986  0.32581910  1.0
  S  S44  1  0.23014826  0.82430113  0.95051058  1.0
  S  S45  1  0.82579596  0.45086645  0.73323696  1.0
  O  O46  1  0.11432914  0.38407235  0.04595215  1.0
  O  O47  1  0.08532680  0.54373893  0.07455186  1.0
  O  O48  1  0.15021177  0.56982977  0.88945088  1.0
  O  O49  1  0.55724864  0.40885234  0.10303552  1.0
  O  O50  1  0.61794427  0.49070870  0.90889943  1.0
  O  O51  1  0.57492201  0.60057923  0.99238880  1.0
  O  O52  1  0.43457056  0.27578570  0.35263609  1.0
  O  O53  1  0.03262965  0.14534099  0.41251379  1.0
  O  O54  1  0.96815577  0.30633950  0.26469161  1.0
  O  O55  1  0.52286567  0.85206458  0.87513039  1.0
  O  O56  1  0.09639158  0.91073013  0.94675782  1.0
  O  O57  1  0.01782105  0.76278484  0.93309445  1.0
  O  O58  1  0.04707324  0.43666362  0.80583989  1.0
  O  O59  1  0.96877795  0.44696162  0.64895894  1.0
  O  O60  1  0.56246718  0.37260906  0.78897438  1.0
