# generated using pymatgen
data_Al4H22C47O26
_symmetry_space_group_name_H-M   'P 1'
_cell_length_a   6.69633211
_cell_length_b   20.52524993
_cell_length_c   22.79893390
_cell_angle_alpha   93.02113902
_cell_angle_beta   90.56428058
_cell_angle_gamma   90.69411469
_symmetry_Int_Tables_number   1
_chemical_formula_structural   Al4H22C47O26
_chemical_formula_sum   'Al4 H22 C47 O26'
_cell_volume   3128.81680486
_cell_formula_units_Z   1
loop_
 _symmetry_equiv_pos_site_id
 _symmetry_equiv_pos_as_xyz
  1  'x, y, z'
loop_
 _atom_site_type_symbol
 _atom_site_label
 _atom_site_symmetry_multiplicity
 _atom_site_fract_x
 _atom_site_fract_y
 _atom_site_fract_z
 _atom_site_occupancy
  Al  Al0  1  0.85731060  0.51179912  0.50892991  1.0
  Al  Al1  1  0.35745874  0.51175619  0.51015562  1.0
  Al  Al2  1  0.35969109  0.98039185  0.98567939  1.0
  Al  Al3  1  0.85861300  0.97972750  0.98434550  1.0
  H  H4  1  0.90864221  0.25410399  0.67974217  1.0
  H  H5  1  0.31283614  0.17882329  0.22400399  1.0
  H  H6  1  0.93004160  0.22719833  0.18792506  1.0
  H  H7  1  0.38306100  0.85606700  0.19591209  1.0
  H  H8  1  0.07418711  0.30290941  0.26940005  1.0
  H  H9  1  0.50716858  0.78877682  0.31057922  1.0
  H  H10  1  0.83603066  0.59969785  0.26081682  1.0
  H  H11  1  0.72114251  0.65555149  0.31086434  1.0
  H  H12  1  0.64937274  0.65251058  0.23557461  1.0
  H  H13  1  0.61473379  0.73836939  0.18228980  1.0
  H  H14  1  0.77562659  0.76925002  0.12879141  1.0
  H  H15  1  0.75957366  0.68402101  0.13793557  1.0
  H  H16  1  0.31580295  0.35956519  0.70982098  1.0
  H  H17  1  0.20433422  0.27200423  0.81257156  1.0
  H  H18  1  0.00810459  0.15084263  0.79653273  1.0
  H  H19  1  0.88929717  0.10310189  0.73944196  1.0
  H  H20  1  0.06567702  0.16456431  0.72209301  1.0
  H  H21  1  0.30273629  0.30430271  0.33847654  1.0
  H  H22  1  0.60894143  0.59352311  0.49376371  1.0
  H  H23  1  0.10383744  0.42563871  0.50774434  1.0
  H  H24  1  0.60288285  0.89948475  0.95797048  1.0
  H  H25  1  0.11138110  0.05968920  0.96447141  1.0
  C  C26  1  0.60547079  0.43385210  0.58523532  1.0
  C  C27  1  0.60278096  0.43104370  0.42795084  1.0
  C  C28  1  0.11124702  0.58805245  0.43237899  1.0
  C  C29  1  0.10937210  0.59096147  0.59169129  1.0
  C  C30  1  0.11163054  0.63758657  0.64124708  1.0
  C  C31  1  0.11117650  0.67849043  0.68244881  1.0
  C  C32  1  0.11029085  0.72345161  0.72730189  1.0
  C  C33  1  0.10883694  0.76506434  0.76836979  1.0
  C  C34  1  0.10699148  0.81013634  0.81312514  1.0
  C  C35  1  0.10490016  0.85124427  0.85416760  1.0
  C  C36  1  0.25862265  0.75031369  0.28573083  1.0
  C  C37  1  0.10194021  0.70546261  0.29439550  1.0
  C  C38  1  0.93619755  0.69928523  0.25449578  1.0
  C  C39  1  0.92854373  0.73816975  0.20598432  1.0
  C  C40  1  0.08660355  0.78377905  0.19789200  1.0
  C  C41  1  0.24947432  0.78948636  0.23751187  1.0
  C  C42  1  0.11073031  0.66579995  0.34302330  1.0
  C  C43  1  0.09001251  0.82532030  0.15052399  1.0
  C  C44  1  0.10456500  0.86285001  0.11089216  1.0
  C  C45  1  0.11135823  0.63042700  0.38434223  1.0
  C  C46  1  0.45486069  0.24159814  0.78445802  1.0
  C  C47  1  0.61382848  0.19740895  0.78793382  1.0
  C  C48  1  0.77991933  0.20127524  0.74936844  1.0
  C  C49  1  0.78271731  0.24969283  0.70921874  1.0
  C  C50  1  0.62287870  0.29371766  0.70480941  1.0
  C  C51  1  0.45809320  0.28879970  0.74220527  1.0
  C  C52  1  0.60737113  0.14941057  0.82989509  1.0
  C  C53  1  0.62087031  0.34267697  0.66373708  1.0
  C  C54  1  0.60974216  0.38583306  0.62900945  1.0
  C  C55  1  0.60737125  0.10743157  0.86577767  1.0
  C  C56  1  0.44565486  0.20889391  0.23306572  1.0
  C  C57  1  0.62276268  0.19753936  0.20134945  1.0
  C  C58  1  0.79554066  0.23598812  0.21350081  1.0
  C  C59  1  0.79155957  0.28650981  0.25686489  1.0
  C  C60  1  0.61517244  0.29828245  0.28941211  1.0
  C  C61  1  0.44472214  0.25861596  0.27659200  1.0
  C  C62  1  0.62437336  0.14787939  0.15583227  1.0
  C  C63  1  0.60908229  0.34599501  0.33589300  1.0
  C  C64  1  0.59898143  0.38546994  0.37771935  1.0
  C  C65  1  0.62217266  0.10591983  0.11603067  1.0
  C  C66  1  0.61762492  0.05850391  0.06713951  1.0
  C  C67  1  0.60771644  0.05981600  0.90972755  1.0
  C  C68  1  0.10392439  0.89841346  0.90319420  1.0
  C  C69  1  0.10959101  0.90525943  0.06258050  1.0
  C  C70  1  0.77658774  0.64944795  0.26572586  1.0
  C  C71  1  0.76092847  0.73221910  0.16147454  1.0
  C  C72  1  0.94487578  0.15259406  0.75201364  1.0
  O  O73  1  0.43487767  0.44568770  0.45076554  1.0
  O  O74  1  0.77364144  0.44955857  0.56419517  1.0
  O  O75  1  0.93791328  0.57113579  0.57348969  1.0
  O  O76  1  0.77546570  0.45125970  0.44499992  1.0
  O  O77  1  0.94119503  0.57289146  0.45300955  1.0
  O  O78  1  0.43477295  0.45510584  0.57097714  1.0
  O  O79  1  0.60874062  0.55066837  0.50977322  1.0
  O  O80  1  0.28115379  0.56947963  0.45056390  1.0
  O  O81  1  0.27849627  0.57514105  0.57079234  1.0
  O  O82  1  0.10596767  0.47282973  0.50855175  1.0
  O  O83  1  0.77859514  0.04163816  0.92764235  1.0
  O  O84  1  0.44578045  0.04151989  0.04699208  1.0
  O  O85  1  0.28086675  0.92396332  0.04597740  1.0
  O  O86  1  0.43727550  0.04082061  0.92729228  1.0
  O  O87  1  0.27442987  0.91540971  0.92463355  1.0
  O  O88  1  0.78543079  0.03876926  0.04800461  1.0
  O  O89  1  0.60718816  0.94029828  0.98147642  1.0
  O  O90  1  0.93326303  0.91774465  0.92056364  1.0
  O  O91  1  0.94105377  0.91929202  0.04060013  1.0
  O  O92  1  0.11026569  0.01881997  0.98402864  1.0
  O  O93  1  0.40451829  0.83262545  0.23182334  1.0
  O  O94  1  0.94783177  0.32724921  0.26972713  1.0
  O  O95  1  0.41535568  0.75551889  0.32421637  1.0
  O  O96  1  0.29630283  0.32862126  0.74065164  1.0
  O  O97  1  0.29985106  0.23838442  0.82223288  1.0
  O  O98  1  0.27404397  0.26925731  0.30823151  1.0
