# generated using pymatgen
data_Mg2H9C18N4O6F
_symmetry_space_group_name_H-M   'P 1'
_cell_length_a   6.73424387
_cell_length_b   28.59693075
_cell_length_c   28.60093381
_cell_angle_alpha   119.38663313
_cell_angle_beta   94.52812742
_cell_angle_gamma   94.47124187
_symmetry_Int_Tables_number   1
_chemical_formula_structural   Mg2H9C18N4O6F
_chemical_formula_sum   'Mg6 H27 C54 N12 O18 F3'
_cell_volume   4740.86119513
_cell_formula_units_Z   3
loop_
 _symmetry_equiv_pos_site_id
 _symmetry_equiv_pos_as_xyz
  1  'x, y, z'
loop_
 _atom_site_type_symbol
 _atom_site_label
 _atom_site_symmetry_multiplicity
 _atom_site_fract_x
 _atom_site_fract_y
 _atom_site_fract_z
 _atom_site_occupancy
  Mg  Mg0  1  0.98973620  0.37560573  0.69555796  1.0
  Mg  Mg1  1  0.55835902  0.69900052  0.37365922  1.0
  Mg  Mg2  1  0.29458036  0.30447675  0.68007277  1.0
  Mg  Mg3  1  0.18493581  0.62631895  0.32531984  1.0
  Mg  Mg4  1  0.61431042  0.31991926  0.62442778  1.0
  Mg  Mg5  1  0.85933924  0.67465449  0.30099830  1.0
  H  H6  1  0.70493775  0.49058129  0.56003530  1.0
  H  H7  1  0.68737273  0.43656679  0.59752790  1.0
  H  H8  1  0.31127130  0.36810979  0.52419427  1.0
  H  H9  1  0.14035298  0.42537805  0.49476338  1.0
  H  H10  1  0.33410815  0.48292562  0.44687343  1.0
  H  H11  1  0.21941305  0.60033740  0.43220534  1.0
  H  H12  1  0.84835366  0.52365884  0.37186964  1.0
  H  H13  1  0.62399627  0.48343303  0.41150510  1.0
  H  H14  1  0.85034728  0.63028900  0.52821080  1.0
  H  H15  1  0.14468772  0.43990021  0.93032444  1.0
  H  H16  1  0.09013246  0.40245911  0.83889251  1.0
  H  H17  1  0.78734633  0.47596559  0.84410506  1.0
  H  H18  1  0.64561102  0.50529259  0.93069414  1.0
  H  H19  1  0.88645456  0.55316719  0.03608366  1.0
  H  H20  1  0.78688571  0.56785318  0.16817583  1.0
  H  H21  1  0.47587800  0.62812997  0.15175413  1.0
  H  H22  1  0.21146800  0.58858588  0.07194570  1.0
  H  H23  1  0.32153849  0.47177944  0.10196275  1.0
  H  H24  1  0.21441148  0.06969282  0.50951465  1.0
  H  H25  1  0.25150697  0.16109018  0.56351435  1.0
  H  H26  1  0.94380212  0.15583190  0.63175392  1.0
  H  H27  1  0.71544458  0.06923335  0.57449147  1.0
  H  H28  1  0.85073573  0.96393330  0.51708648  1.0
  H  H29  1  0.61834540  0.83186492  0.39977043  1.0
  H  H30  1  0.32409801  0.84809221  0.47629737  1.0
  H  H31  1  0.13988526  0.92800253  0.51656540  1.0
  H  H32  1  0.21977750  0.89793481  0.36972945  1.0
  C  C33  1  0.82342809  0.55825402  0.53433667  1.0
  C  C34  1  0.90403759  0.50976144  0.52132566  1.0
  C  C35  1  0.90925001  0.43741325  0.54665232  1.0
  C  C36  1  0.82433864  0.42161781  0.58083856  1.0
  C  C37  1  0.91682756  0.38863334  0.59724336  1.0
  C  C38  1  0.10257957  0.37121594  0.57790959  1.0
  C  C39  1  0.17384517  0.38365990  0.53982623  1.0
  C  C40  1  0.08064824  0.41550387  0.52337065  1.0
  C  C41  1  0.23186430  0.34486002  0.59886541  1.0
  C  C42  1  0.13243888  0.53379368  0.47866088  1.0
  C  C43  1  0.40816762  0.54049016  0.42599839  1.0
  C  C44  1  0.35652677  0.58322866  0.41911954  1.0
  C  C45  1  0.47744411  0.60440783  0.39414116  1.0
  C  C46  1  0.66323287  0.58376873  0.37859523  1.0
  C  C47  1  0.70872115  0.53965511  0.38489427  1.0
  C  C48  1  0.58449262  0.51753620  0.40715101  1.0
  C  C49  1  0.80830886  0.60575541  0.35629269  1.0
  C  C50  1  0.90955304  0.59248535  0.51841216  1.0
  C  C51  1  0.28853240  0.46565757  0.02381136  1.0
  C  C52  1  0.38220180  0.47868004  0.98836532  1.0
  C  C53  1  0.36275472  0.45332901  0.89072352  1.0
  C  C54  1  0.24387092  0.41915172  0.84070809  1.0
  C  C55  1  0.32006057  0.40279023  0.79138727  1.0
  C  C56  1  0.52513804  0.42215590  0.79336434  1.0
  C  C57  1  0.63436661  0.46024409  0.84393777  1.0
  C  C58  1  0.55750569  0.47664536  0.89218899  1.0
  C  C59  1  0.63338328  0.40122291  0.74607316  1.0
  C  C60  1  0.65304294  0.52142967  0.05515787  1.0
  C  C61  1  0.98142613  0.57413162  0.11453962  1.0
  C  C62  1  0.93693039  0.58098007  0.16414957  1.0
  C  C63  1  0.08303058  0.60592744  0.21027527  1.0
  C  C64  1  0.28427275  0.62147352  0.20517109  1.0
  C  C65  1  0.32325216  0.61517377  0.15475600  1.0
  C  C66  1  0.17654296  0.59297315  0.11041497  1.0
  C  C67  1  0.45180587  0.64373874  0.24945127  1.0
  C  C68  1  0.39052976  0.48160939  0.07399244  1.0
  C  C69  1  0.26465857  0.97612438  0.44174708  1.0
  C  C70  1  0.39380349  0.01159600  0.49022567  1.0
  C  C71  1  0.47235153  0.10922000  0.56251920  1.0
  C  C72  1  0.40349114  0.15925174  0.57837016  1.0
  C  C73  1  0.52902798  0.20858624  0.61133627  1.0
  C  C74  1  0.73227260  0.20658480  0.62869558  1.0
  C  C75  1  0.79089203  0.15600174  0.61619361  1.0
  C  C76  1  0.66574406  0.10775059  0.58435087  1.0
  C  C77  1  0.88774590  0.25390119  0.65511440  1.0
  C  C78  1  0.59808019  0.94484548  0.46625270  1.0
  C  C79  1  0.86695770  0.88543746  0.45958861  1.0
  C  C80  1  0.77253040  0.83585328  0.41687364  1.0
  C  C81  1  0.87238092  0.78968055  0.39566240  1.0
  C  C82  1  0.07876807  0.79473702  0.41629631  1.0
  C  C83  1  0.16837786  0.84514720  0.46038106  1.0
  C  C84  1  0.06628770  0.88953588  0.48252048  1.0
  C  C85  1  0.20212887  0.75049391  0.39427595  1.0
  C  C86  1  0.31661877  0.92594253  0.40754651  1.0
  N  N87  1  0.82142768  0.47629900  0.53876071  1.0
  N  N88  1  0.05790357  0.49775186  0.49269416  1.0
  N  N89  1  0.29271514  0.51754774  0.44981416  1.0
  N  N90  1  0.06747416  0.58096156  0.49038309  1.0
  N  N91  1  0.28246291  0.46120406  0.93742988  1.0
  N  N92  1  0.56455472  0.50736296  0.00505659  1.0
  N  N93  1  0.84210166  0.55029692  0.06777911  1.0
  N  N94  1  0.57636705  0.50969409  0.09057240  1.0
  N  N95  1  0.34512785  0.06254686  0.52369204  1.0
  N  N96  1  0.55957752  0.99493586  0.50225079  1.0
  N  N97  1  0.77455167  0.93223388  0.48252749  1.0
  N  N98  1  0.48601010  0.90940485  0.41909545  1.0
  O  O99  1  0.39403870  0.32940287  0.57954620  1.0
  O  O100  1  0.18274994  0.34019163  0.63952096  1.0
  O  O101  1  0.83224000  0.37651991  0.63159208  1.0
  O  O102  1  0.97089241  0.58566775  0.34272493  1.0
  O  O103  1  0.77105302  0.64721527  0.35139107  1.0
  O  O104  1  0.40843257  0.64264183  0.38544466  1.0
  O  O105  1  0.81487535  0.42058273  0.74996466  1.0
  O  O106  1  0.54368412  0.36053974  0.70074076  1.0
  O  O107  1  0.20116817  0.36846087  0.74490536  1.0
  O  O108  1  0.62785737  0.65731286  0.24292428  1.0
  O  O109  1  0.41970701  0.64858718  0.29579742  1.0
  O  O110  1  0.02298107  0.61457832  0.25719133  1.0
  O  O111  1  0.06544003  0.25000596  0.67055628  1.0
  O  O112  1  0.84309235  0.29925881  0.65986754  1.0
  O  O113  1  0.45648925  0.25506553  0.62351993  1.0
  O  O114  1  0.38485531  0.75705301  0.41436829  1.0
  O  O115  1  0.12375137  0.70414742  0.35278275  1.0
  O  O116  1  0.76534106  0.74277878  0.35736641  1.0
  F  F117  1  0.66289462  0.57016871  0.56304837  1.0
  F  F118  1  0.09934007  0.43688938  0.00693774  1.0
  F  F119  1  0.09226542  0.99295707  0.42980377  1.0
