# generated using pymatgen
data_ZnH12C22S3NO14
_symmetry_space_group_name_H-M   'P 1'
_cell_length_a   13.95474084
_cell_length_b   15.12770979
_cell_length_c   15.31888768
_cell_angle_alpha   90.76399217
_cell_angle_beta   89.98990195
_cell_angle_gamma   89.99541582
_symmetry_Int_Tables_number   1
_chemical_formula_structural   ZnH12C22S3NO14
_chemical_formula_sum   'Zn2 H24 C44 S6 N2 O28'
_cell_volume   3233.57972797
_cell_formula_units_Z   2
loop_
 _symmetry_equiv_pos_site_id
 _symmetry_equiv_pos_as_xyz
  1  'x, y, z'
loop_
 _atom_site_type_symbol
 _atom_site_label
 _atom_site_symmetry_multiplicity
 _atom_site_fract_x
 _atom_site_fract_y
 _atom_site_fract_z
 _atom_site_occupancy
  Zn  Zn0  1  0.60458448  0.50003425  0.49998108  1.0
  Zn  Zn1  1  0.39649821  0.49999032  0.49998082  1.0
  H  H2  1  0.50958174  0.36257991  0.77433594  1.0
  H  H3  1  0.50906918  0.63740463  0.22561643  1.0
  H  H4  1  0.51638163  0.64631542  0.78309279  1.0
  H  H5  1  0.51702413  0.35367995  0.21685011  1.0
  H  H6  1  0.62949275  0.94117058  0.57151552  1.0
  H  H7  1  0.36582739  0.06264417  0.57566178  1.0
  H  H8  1  0.62952880  0.05884724  0.42853968  1.0
  H  H9  1  0.36575977  0.93744433  0.42453631  1.0
  H  H10  1  0.06788382  0.50822118  0.35920665  1.0
  H  H11  1  0.93225101  0.40034355  0.60011861  1.0
  H  H12  1  0.06787286  0.49182380  0.64083330  1.0
  H  H13  1  0.93226585  0.59969728  0.39994331  1.0
  H  H14  1  0.24652960  0.50827768  0.36507583  1.0
  H  H15  1  0.75343936  0.40317030  0.59454545  1.0
  H  H16  1  0.24651929  0.49174130  0.63491906  1.0
  H  H17  1  0.75345352  0.59687514  0.40552028  1.0
  H  H18  1  0.46360741  0.79982632  0.94631957  1.0
  H  H19  1  0.46502034  0.19998635  0.05383913  1.0
  H  H20  1  0.66951799  0.81845014  0.04430248  1.0
  H  H21  1  0.67077194  0.18211485  0.95577679  1.0
  H  H22  1  0.61452971  0.64066363  0.64510010  1.0
  H  H23  1  0.39385358  0.36613909  0.65412027  1.0
  H  H24  1  0.61476646  0.35934991  0.35500684  1.0
  H  H25  1  0.39373893  0.63391830  0.34610305  1.0
  C  C26  1  0.50164642  0.66488435  0.49540805  1.0
  C  C27  1  0.50168998  0.33516853  0.50464259  1.0
  C  C28  1  0.53064911  0.66185265  0.04938591  1.0
  C  C29  1  0.53138491  0.33820597  0.95053325  1.0
  C  C30  1  0.57249856  0.90538186  0.53778145  1.0
  C  C31  1  0.42370890  0.09672113  0.54228675  1.0
  C  C32  1  0.57253234  0.09464890  0.46228581  1.0
  C  C33  1  0.42365540  0.90335965  0.45788343  1.0
  C  C34  1  0.57444016  0.81327199  0.53673248  1.0
  C  C35  1  0.42623451  0.18892404  0.54478774  1.0
  C  C36  1  0.57449980  0.18675908  0.46337480  1.0
  C  C37  1  0.42616392  0.81115408  0.45536095  1.0
  C  C38  1  0.50109787  0.76408895  0.49545958  1.0
  C  C39  1  0.50116506  0.23596630  0.50466170  1.0
  C  C40  1  0.49692046  0.95110073  0.49912257  1.0
  C  C41  1  0.49693385  0.04896809  0.50097302  1.0
  C  C42  1  0.10451640  0.50531050  0.42186409  1.0
  C  C43  1  0.89562846  0.44551536  0.55653416  1.0
  C  C44  1  0.10451216  0.49472403  0.57816724  1.0
  C  C45  1  0.89564089  0.55453593  0.44353701  1.0
  C  C46  1  0.20380372  0.50481905  0.42445544  1.0
  C  C47  1  0.79633533  0.44661570  0.55406754  1.0
  C  C48  1  0.20379463  0.49521609  0.57555017  1.0
  C  C49  1  0.79634703  0.55342821  0.44600254  1.0
  C  C50  1  0.05277631  0.50002251  0.50002042  1.0
  C  C51  1  0.94717271  0.50002637  0.50003580  1.0
  C  C52  1  0.50259522  0.49489105  0.32679505  1.0
  C  C53  1  0.50249759  0.50510182  0.67315896  1.0
  C  C54  1  0.51390118  0.42334321  0.81283291  1.0
  C  C55  1  0.51361339  0.57666129  0.18710945  1.0
  C  C56  1  0.50966067  0.50432313  0.77073138  1.0
  C  C57  1  0.50973408  0.49565741  0.22921174  1.0
  C  C58  1  0.51548602  0.58391030  0.81744585  1.0
  C  C59  1  0.51586381  0.41608168  0.18248943  1.0
  C  C60  1  0.52086141  0.58393025  0.90904880  1.0
  C  C61  1  0.52124032  0.41609500  0.09088614  1.0
  C  C62  1  0.52370176  0.50109392  0.95354591  1.0
  C  C63  1  0.52372719  0.49895397  0.04639902  1.0
  C  C64  1  0.52422152  0.42013688  0.90390101  1.0
  C  C65  1  0.52387889  0.57991825  0.09603672  1.0
  C  C66  1  0.52445339  0.66545152  0.95977657  1.0
  C  C67  1  0.52523286  0.33457248  0.04014376  1.0
  C  C68  1  0.51429249  0.75282064  0.91425319  1.0
  C  C69  1  0.51561410  0.24719588  0.08570138  1.0
  S  S70  1  0.55246880  0.76055180  0.11392628  1.0
  S  S71  1  0.55376381  0.23968560  0.88588595  1.0
  S  S72  1  0.67416105  0.76637027  0.59635273  1.0
  S  S73  1  0.33109790  0.23980119  0.60875305  1.0
  S  S74  1  0.67430896  0.23364236  0.40386175  1.0
  S  S75  1  0.33098241  0.76029733  0.39148257  1.0
  N  N76  1  0.25263670  0.50000994  0.49999706  1.0
  N  N77  1  0.74785837  0.50001766  0.50003543  1.0
  O  O78  1  0.57543662  0.62591927  0.46535892  1.0
  O  O79  1  0.42776917  0.37258842  0.47391746  1.0
  O  O80  1  0.57542814  0.37417698  0.53469445  1.0
  O  O81  1  0.42770852  0.62741002  0.52604226  1.0
  O  O82  1  0.57261524  0.46147402  0.36850492  1.0
  O  O83  1  0.42847611  0.47147817  0.63673938  1.0
  O  O84  1  0.57248303  0.53857392  0.63144496  1.0
  O  O85  1  0.42856235  0.52848406  0.36324143  1.0
  O  O86  1  0.55315119  0.77066966  0.84540709  1.0
  O  O87  1  0.55484355  0.22948242  0.15439188  1.0
  O  O88  1  0.46272663  0.79952516  0.13810083  1.0
  O  O89  1  0.62563708  0.74064464  0.17702653  1.0
  O  O90  1  0.59992060  0.82717412  0.04431920  1.0
  O  O91  1  0.46424436  0.20050565  0.86137101  1.0
  O  O92  1  0.62712345  0.25997016  0.82305938  1.0
  O  O93  1  0.60122097  0.17307708  0.95548600  1.0
  O  O94  1  0.73466758  0.71477944  0.53900738  1.0
  O  O95  1  0.71448507  0.83751777  0.64710146  1.0
  O  O96  1  0.62159231  0.70433719  0.66370253  1.0
  O  O97  1  0.26878274  0.29210697  0.55509157  1.0
  O  O98  1  0.29215903  0.17101930  0.66164157  1.0
  O  O99  1  0.38982229  0.30296076  0.67331440  1.0
  O  O100  1  0.73468535  0.28525003  0.46128911  1.0
  O  O101  1  0.71475031  0.16250023  0.35318395  1.0
  O  O102  1  0.62185819  0.29566960  0.33644383  1.0
  O  O103  1  0.26865318  0.70807394  0.44520032  1.0
  O  O104  1  0.29207318  0.82908011  0.33856592  1.0
  O  O105  1  0.38967548  0.69708388  0.32690453  1.0
