# generated using pymatgen
data_CuSiH24C24(N2F)6
_symmetry_space_group_name_H-M   'P 1'
_cell_length_a   8.07066669
_cell_length_b   13.63791001
_cell_length_c   13.63807734
_cell_angle_alpha   89.99859142
_cell_angle_beta   89.99923852
_cell_angle_gamma   89.99951263
_symmetry_Int_Tables_number   1
_chemical_formula_structural   CuSiH24C24(N2F)6
_chemical_formula_sum   'Cu1 Si1 H24 C24 N12 F6'
_cell_volume   1501.10261306
_cell_formula_units_Z   1
loop_
 _symmetry_equiv_pos_site_id
 _symmetry_equiv_pos_as_xyz
  1  'x, y, z'
loop_
 _atom_site_type_symbol
 _atom_site_label
 _atom_site_symmetry_multiplicity
 _atom_site_fract_x
 _atom_site_fract_y
 _atom_site_fract_z
 _atom_site_occupancy
  Cu  Cu0  1  0.49997395  0.49999388  0.49998843  1.0
  Si  Si1  1  0.00002558  0.50003584  0.49999962  1.0
  H  H2  1  0.74792809  0.65252519  0.45783006  1.0
  H  H3  1  0.25203257  0.65253938  0.54221198  1.0
  H  H4  1  0.74789582  0.34744955  0.54219834  1.0
  H  H5  1  0.25206535  0.34743648  0.45772581  1.0
  H  H6  1  0.74790463  0.45782956  0.34744372  1.0
  H  H7  1  0.25205654  0.54221769  0.34743295  1.0
  H  H8  1  0.74788954  0.54217305  0.65252968  1.0
  H  H9  1  0.25207111  0.45772445  0.65254591  1.0
  H  H10  1  0.21335586  0.91676884  0.56466220  1.0
  H  H11  1  0.11378610  0.80598372  0.57100430  1.0
  H  H12  1  0.78663087  0.91673741  0.43538141  1.0
  H  H13  1  0.88618358  0.80595192  0.42906843  1.0
  H  H14  1  0.21337917  0.08321016  0.43530010  1.0
  H  H15  1  0.11381545  0.19398700  0.42895440  1.0
  H  H16  1  0.78664885  0.08324227  0.56468114  1.0
  H  H17  1  0.88617758  0.19402797  0.57097352  1.0
  H  H18  1  0.21336732  0.56463869  0.08321523  1.0
  H  H19  1  0.11379064  0.57098974  0.19400756  1.0
  H  H20  1  0.78662197  0.43536299  0.08324018  1.0
  H  H21  1  0.88617762  0.42905688  0.19402600  1.0
  H  H22  1  0.21338630  0.43528971  0.91676173  1.0
  H  H23  1  0.11382206  0.42894139  0.80597973  1.0
  H  H24  1  0.78660695  0.56464895  0.91673438  1.0
  H  H25  1  0.88617115  0.57095234  0.80594629  1.0
  C  C26  1  0.63948920  0.69619176  0.47661853  1.0
  C  C27  1  0.64651145  0.79882256  0.47737101  1.0
  C  C28  1  0.49998266  0.85198697  0.50001857  1.0
  C  C29  1  0.35345090  0.79882937  0.52267183  1.0
  C  C30  1  0.36047333  0.69620438  0.52344370  1.0
  C  C31  1  0.49999682  0.95502328  0.49999164  1.0
  C  C32  1  0.50000312  0.04494689  0.50001016  1.0
  C  C33  1  0.49998135  0.14798247  0.49997956  1.0
  C  C34  1  0.64652253  0.20115271  0.52264280  1.0
  C  C35  1  0.63949141  0.30378795  0.52338508  1.0
  C  C36  1  0.36048523  0.30377239  0.47651669  1.0
  C  C37  1  0.35345925  0.20114524  0.47730401  1.0
  C  C38  1  0.63949263  0.47661112  0.30378235  1.0
  C  C39  1  0.64651300  0.47736394  0.20114834  1.0
  C  C40  1  0.49998402  0.50002168  0.14800333  1.0
  C  C41  1  0.35345882  0.52267297  0.20114823  1.0
  C  C42  1  0.36046207  0.52344747  0.30377776  1.0
  C  C43  1  0.49997028  0.49999141  0.04495142  1.0
  C  C44  1  0.49998134  0.49999122  0.95502838  1.0
  C  C45  1  0.49997256  0.49997563  0.85197133  1.0
  C  C46  1  0.64649248  0.52263333  0.79882514  1.0
  C  C47  1  0.63948055  0.52338472  0.69619119  1.0
  C  C48  1  0.36047543  0.47651170  0.69620242  1.0
  C  C49  1  0.35346124  0.47729137  0.79882908  1.0
  N  N50  1  0.49997292  0.64835386  0.50003720  1.0
  N  N51  1  0.49997870  0.35162291  0.49994553  1.0
  N  N52  1  0.49997310  0.50003750  0.35161781  1.0
  N  N53  1  0.49997604  0.49994587  0.64836052  1.0
  N  N54  1  0.20583060  0.84652452  0.54043314  1.0
  N  N55  1  0.79414224  0.84650492  0.45962613  1.0
  N  N56  1  0.20584992  0.15344718  0.45952189  1.0
  N  N57  1  0.79413748  0.15347178  0.54040263  1.0
  N  N58  1  0.20584441  0.54043253  0.15345200  1.0
  N  N59  1  0.79411979  0.45960629  0.15346383  1.0
  N  N60  1  0.20585965  0.45950472  0.84653236  1.0
  N  N61  1  0.79411904  0.54039974  0.84651361  1.0
  F  F62  1  0.78740621  0.50002833  0.49997921  1.0
  F  F63  1  0.21260736  0.50003203  0.49997859  1.0
  F  F64  1  0.00000291  0.58930722  0.58946861  1.0
  F  F65  1  0.00001355  0.41067281  0.41056509  1.0
  F  F66  1  0.00000364  0.58944140  0.41064575  1.0
  F  F67  1  0.00002274  0.41052103  0.58929337  1.0
