# generated using pymatgen
data_Zn3H22C38(NO3)4
_symmetry_space_group_name_H-M   'P 1'
_cell_length_a   15.04958525
_cell_length_b   15.04965028
_cell_length_c   21.33505041
_cell_angle_alpha   90.00000974
_cell_angle_beta   89.99997904
_cell_angle_gamma   89.99993301
_symmetry_Int_Tables_number   1
_chemical_formula_structural   Zn3H22C38(NO3)4
_chemical_formula_sum   'Zn12 H88 C152 N16 O48'
_cell_volume   4832.19679299
_cell_formula_units_Z   4
loop_
 _symmetry_equiv_pos_site_id
 _symmetry_equiv_pos_as_xyz
  1  'x, y, z'
loop_
 _atom_site_type_symbol
 _atom_site_label
 _atom_site_symmetry_multiplicity
 _atom_site_fract_x
 _atom_site_fract_y
 _atom_site_fract_z
 _atom_site_occupancy
  Zn  Zn0  1  0.76663863  0.15690613  0.15508475  1.0
  Zn  Zn1  1  0.23336363  0.84308988  0.65507901  1.0
  Zn  Zn2  1  0.34308854  0.26663127  0.90508540  1.0
  Zn  Zn3  1  0.65690831  0.73336280  0.40508609  1.0
  Zn  Zn4  1  0.26663396  0.34308688  0.59491788  1.0
  Zn  Zn5  1  0.73336235  0.65691045  0.09491526  1.0
  Zn  Zn6  1  0.84308840  0.23336574  0.84491766  1.0
  Zn  Zn7  1  0.15691113  0.76663496  0.34491664  1.0
  Zn  Zn8  1  0.78887844  0.21112131  0.00000192  1.0
  Zn  Zn9  1  0.21111989  0.78887932  0.49999759  1.0
  Zn  Zn10  1  0.28887843  0.28888097  0.75000211  1.0
  Zn  Zn11  1  0.71112247  0.71111905  0.25000419  1.0
  H  H12  1  0.06490361  0.25548624  0.18685935  1.0
  H  H13  1  0.93509465  0.74451642  0.68685524  1.0
  H  H14  1  0.24452352  0.56490869  0.93686506  1.0
  H  H15  1  0.75547066  0.43508074  0.43686287  1.0
  H  H16  1  0.56491533  0.24452228  0.56313820  1.0
  H  H17  1  0.43509760  0.75548367  0.06314224  1.0
  H  H18  1  0.74452049  0.93509971  0.81314278  1.0
  H  H19  1  0.25547905  0.06490763  0.31313883  1.0
  H  H20  1  0.19989466  0.34256061  0.15546311  1.0
  H  H21  1  0.80010295  0.65743939  0.65546466  1.0
  H  H22  1  0.15744663  0.69989859  0.90546699  1.0
  H  H23  1  0.84254823  0.30009349  0.40545819  1.0
  H  H24  1  0.69990780  0.15744377  0.59453252  1.0
  H  H25  1  0.30010246  0.84255688  0.09453709  1.0
  H  H26  1  0.65745106  0.80010128  0.84453104  1.0
  H  H27  1  0.34255047  0.19990141  0.34453458  1.0
  H  H28  1  0.19403200  0.44001270  0.06089994  1.0
  H  H29  1  0.80596830  0.55997997  0.56090570  1.0
  H  H30  1  0.05999014  0.69403272  0.81090711  1.0
  H  H31  1  0.94000608  0.30596598  0.31090063  1.0
  H  H32  1  0.69403725  0.05998504  0.68909193  1.0
  H  H33  1  0.30597032  0.94001098  0.18909886  1.0
  H  H34  1  0.55998921  0.80596129  0.93908954  1.0
  H  H35  1  0.44000829  0.19403346  0.43909539  1.0
  H  H36  1  0.05260153  0.45619654  0.00173535  1.0
  H  H37  1  0.94739681  0.54380010  0.50174013  1.0
  H  H38  1  0.04381238  0.55260352  0.75173921  1.0
  H  H39  1  0.95618918  0.44740181  0.25174212  1.0
  H  H40  1  0.55260677  0.04380602  0.74825376  1.0
  H  H41  1  0.44739878  0.95619068  0.24826298  1.0
  H  H42  1  0.54380196  0.94738519  0.99825744  1.0
  H  H43  1  0.45618821  0.05260492  0.49825811  1.0
  H  H44  1  0.91863142  0.36917740  0.03444570  1.0
  H  H45  1  0.08136690  0.63082655  0.53444092  1.0
  H  H46  1  0.13083346  0.41863491  0.78445156  1.0
  H  H47  1  0.86916477  0.58136511  0.28445638  1.0
  H  H48  1  0.41863692  0.13082871  0.71554751  1.0
  H  H49  1  0.58137130  0.86916864  0.21555808  1.0
  H  H50  1  0.63081617  0.08136302  0.96555626  1.0
  H  H51  1  0.36917136  0.91863174  0.46555097  1.0
  H  H52  1  0.52210210  0.26296531  0.97443651  1.0
  H  H53  1  0.47789472  0.73702347  0.47443960  1.0
  H  H54  1  0.23705656  0.02210536  0.72442166  1.0
  H  H55  1  0.76295830  0.97789398  0.22443828  1.0
  H  H56  1  0.02210233  0.23705135  0.77557087  1.0
  H  H57  1  0.97790122  0.76296196  0.27557006  1.0
  H  H58  1  0.73703566  0.47789565  0.02556692  1.0
  H  H59  1  0.26297463  0.52210565  0.52556301  1.0
  H  H60  1  0.32220716  0.08600374  0.10729913  1.0
  H  H61  1  0.67779113  0.91399891  0.60729607  1.0
  H  H62  1  0.41400314  0.82220227  0.85729224  1.0
  H  H63  1  0.58600038  0.17780242  0.35729616  1.0
  H  H64  1  0.82219673  0.41400116  0.64270254  1.0
  H  H65  1  0.17779558  0.58599684  0.14270337  1.0
  H  H66  1  0.91399241  0.67779198  0.89270102  1.0
  H  H67  1  0.08600711  0.32220342  0.39270278  1.0
  H  H68  1  0.48480566  0.08888544  0.13236350  1.0
  H  H69  1  0.51519263  0.91111987  0.63235861  1.0
  H  H70  1  0.41112057  0.98480007  0.88235617  1.0
  H  H71  1  0.58887563  0.01520529  0.38236148  1.0
  H  H72  1  0.98479523  0.41112458  0.61764235  1.0
  H  H73  1  0.01519442  0.58888205  0.11764416  1.0
  H  H74  1  0.91111469  0.51519352  0.86763849  1.0
  H  H75  1  0.08888882  0.48480187  0.36763934  1.0
  H  H76  1  0.18539009  0.11549619  0.09115436  1.0
  H  H77  1  0.81460090  0.88450644  0.59115641  1.0
  H  H78  1  0.38450938  0.68538981  0.84114838  1.0
  H  H79  1  0.61549812  0.31460957  0.34115231  1.0
  H  H80  1  0.68538035  0.38450288  0.65884876  1.0
  H  H81  1  0.31460730  0.61548582  0.15884580  1.0
  H  H82  1  0.88449783  0.81460515  0.90884395  1.0
  H  H83  1  0.11550434  0.18540155  0.40884193  1.0
  H  H84  1  0.13680248  0.23789650  0.88006651  1.0
  H  H85  1  0.86320568  0.76210687  0.38007088  1.0
  H  H86  1  0.26210940  0.63679803  0.63006007  1.0
  H  H87  1  0.73788623  0.36319798  0.13006210  1.0
  H  H88  1  0.63680229  0.26211072  0.86994037  1.0
  H  H89  1  0.36320853  0.73789065  0.36993131  1.0
  H  H90  1  0.76210654  0.86319961  0.11993278  1.0
  H  H91  1  0.23789242  0.13679240  0.61993117  1.0
  H  H92  1  0.03018183  0.12500016  0.04968179  1.0
  H  H93  1  0.96980985  0.87502241  0.54968613  1.0
  H  H94  1  0.37501088  0.53018088  0.79967624  1.0
  H  H95  1  0.62498933  0.46981715  0.29967878  1.0
  H  H96  1  0.53017407  0.37500907  0.70032748  1.0
  H  H97  1  0.46981688  0.62497432  0.20031650  1.0
  H  H98  1  0.87500909  0.96981342  0.95031750  1.0
  H  H99  1  0.12499040  0.03019063  0.45031077  1.0
  C  C100  1  0.98427844  0.30678722  0.11215912  1.0
  C  C101  1  0.01571521  0.69321675  0.61215671  1.0
  C  C102  1  0.19321984  0.48428159  0.86216311  1.0
  C  C103  1  0.80677636  0.51571114  0.36216466  1.0
  C  C104  1  0.48428987  0.19321948  0.63783501  1.0
  C  C105  1  0.51571838  0.80678051  0.13784232  1.0
  C  C106  1  0.69321329  0.01571958  0.88784000  1.0
  C  C107  1  0.30678157  0.98428379  0.38783568  1.0
  C  C108  1  0.06332681  0.30041220  0.14677836  1.0
  C  C109  1  0.93667280  0.69959178  0.64677940  1.0
  C  C110  1  0.19959737  0.56333127  0.89678314  1.0
  C  C111  1  0.80039882  0.43665815  0.39678234  1.0
  C  C112  1  0.56333591  0.19959832  0.60321591  1.0
  C  C113  1  0.43667302  0.80040499  0.10322090  1.0
  C  C114  1  0.69959433  0.93667453  0.85321909  1.0
  C  C115  1  0.30040321  0.06332950  0.35321653  1.0
  C  C116  1  0.13817004  0.34893421  0.12896025  1.0
  C  C117  1  0.86183157  0.65106578  0.62896131  1.0
  C  C118  1  0.15107374  0.63817423  0.87896365  1.0
  C  C119  1  0.84892246  0.36181784  0.37895814  1.0
  C  C120  1  0.63817852  0.15107024  0.62103727  1.0
  C  C121  1  0.36183239  0.84892975  0.12104182  1.0
  C  C122  1  0.65107144  0.86183096  0.87103625  1.0
  C  C123  1  0.34892676  0.13817240  0.37103791  1.0
  C  C124  1  0.13469949  0.40445377  0.07638199  1.0
  C  C125  1  0.86530413  0.59553890  0.57638257  1.0
  C  C126  1  0.09555262  0.63470242  0.82638680  1.0
  C  C127  1  0.90444294  0.36529563  0.32638408  1.0
  C  C128  1  0.63470403  0.09554736  0.67361366  1.0
  C  C129  1  0.36530288  0.90445197  0.17362056  1.0
  C  C130  1  0.59554631  0.86529686  0.92361312  1.0
  C  C131  1  0.40445054  0.13469854  0.42361663  1.0
  C  C132  1  0.05536309  0.41283540  0.04269330  1.0
  C  C133  1  0.94463324  0.58715992  0.54269340  1.0
  C  C134  1  0.08717503  0.55536503  0.79269810  1.0
  C  C135  1  0.91282319  0.44463700  0.29269773  1.0
  C  C136  1  0.55537095  0.08716516  0.70730143  1.0
  C  C137  1  0.44463595  0.91283153  0.20730971  1.0
  C  C138  1  0.58715998  0.94462695  0.95730417  1.0
  C  C139  1  0.41283220  0.05536780  0.45730392  1.0
  C  C140  1  0.98046236  0.36436995  0.06058109  1.0
  C  C141  1  0.01953263  0.63563003  0.56057914  1.0
  C  C142  1  0.13563953  0.48046625  0.81058649  1.0
  C  C143  1  0.86435670  0.51953312  0.31058896  1.0
  C  C144  1  0.48047318  0.13563476  0.68941257  1.0
  C  C145  1  0.51953306  0.86436391  0.18942129  1.0
  C  C146  1  0.63562564  0.01952901  0.93941757  1.0
  C  C147  1  0.36436588  0.98046839  0.43941464  1.0
  C  C148  1  0.61382180  0.17908413  0.06731981  1.0
  C  C149  1  0.38617917  0.82092116  0.56732246  1.0
  C  C150  1  0.32092724  0.11381908  0.81731808  1.0
  C  C151  1  0.67907496  0.88618095  0.31732769  1.0
  C  C152  1  0.11381845  0.32092965  0.68268053  1.0
  C  C153  1  0.88617982  0.67907899  0.18268301  1.0
  C  C154  1  0.82091227  0.38617862  0.93268264  1.0
  C  C155  1  0.17908258  0.61381679  0.43267456  1.0
  C  C156  1  0.51541843  0.17691204  0.05583685  1.0
  C  C157  1  0.48457856  0.82308394  0.55583665  1.0
  C  C158  1  0.32310278  0.01541613  0.80582525  1.0
  C  C159  1  0.67690674  0.98458523  0.30583768  1.0
  C  C160  1  0.01541307  0.32310185  0.69417056  1.0
  C  C161  1  0.98458452  0.67690613  0.19417067  1.0
  C  C162  1  0.82308835  0.48458024  0.94416656  1.0
  C  C163  1  0.17691979  0.51541782  0.44416082  1.0
  C  C164  1  0.47966061  0.22389189  0.00527967  1.0
  C  C165  1  0.52033905  0.77610342  0.50528274  1.0
  C  C166  1  0.27612684  0.97966115  0.75526814  1.0
  C  C167  1  0.72388469  0.02033887  0.25528278  1.0
  C  C168  1  0.97965694  0.27612412  0.74472383  1.0
  C  C169  1  0.02034396  0.72388653  0.24472519  1.0
  C  C170  1  0.77610961  0.52033925  0.99472235  1.0
  C  C171  1  0.22389651  0.47966083  0.49471799  1.0
  C  C172  1  0.33655171  0.17435195  0.02766164  1.0
  C  C173  1  0.66344861  0.82564469  0.52766279  1.0
  C  C174  1  0.32565453  0.83654683  0.77765194  1.0
  C  C175  1  0.67435300  0.16345253  0.27766053  1.0
  C  C176  1  0.83654334  0.32564961  0.72234191  1.0
  C  C177  1  0.16345491  0.67435240  0.22234134  1.0
  C  C178  1  0.82564578  0.66344819  0.97233759  1.0
  C  C179  1  0.17435702  0.33654922  0.47233932  1.0
  C  C180  1  0.36755590  0.12604185  0.07935263  1.0
  C  C181  1  0.63244307  0.87395747  0.57934958  1.0
  C  C182  1  0.37396746  0.86755617  0.82934340  1.0
  C  C183  1  0.62604005  0.13244719  0.32935059  1.0
  C  C184  1  0.86755082  0.37396300  0.67065232  1.0
  C  C185  1  0.13244214  0.62603899  0.17065222  1.0
  C  C186  1  0.87395545  0.63244478  0.92064893  1.0
  C  C187  1  0.12604871  0.36755395  0.42064974  1.0
  C  C188  1  0.45782218  0.12715876  0.09336992  1.0
  C  C189  1  0.54217613  0.87284454  0.59336878  1.0
  C  C190  1  0.37285442  0.95782073  0.84336212  1.0
  C  C191  1  0.62714910  0.04218263  0.34337118  1.0
  C  C192  1  0.95781710  0.37285528  0.65663265  1.0
  C  C193  1  0.04217586  0.62715203  0.15663493  1.0
  C  C194  1  0.87284251  0.54217690  0.90663161  1.0
  C  C195  1  0.12716165  0.45782183  0.40662869  1.0
  C  C196  1  0.24247470  0.17426097  0.00740110  1.0
  C  C197  1  0.75752430  0.82573833  0.50740363  1.0
  C  C198  1  0.32574230  0.74247023  0.75739373  1.0
  C  C199  1  0.67426125  0.25752846  0.25739904  1.0
  C  C200  1  0.74246699  0.32574003  0.74260388  1.0
  C  C201  1  0.25753059  0.67425733  0.24259860  1.0
  C  C202  1  0.82573543  0.75752480  0.99259768  1.0
  C  C203  1  0.17426471  0.24247594  0.49259987  1.0
  C  C204  1  0.17292396  0.14139181  0.04432767  1.0
  C  C205  1  0.82707037  0.85861347  0.54433111  1.0
  C  C206  1  0.35861433  0.67292707  0.79432168  1.0
  C  C207  1  0.64138987  0.32707362  0.29432654  1.0
  C  C208  1  0.67291622  0.35861060  0.70567828  1.0
  C  C209  1  0.32707539  0.64138077  0.20567156  1.0
  C  C210  1  0.85860806  0.82707257  0.95567019  1.0
  C  C211  1  0.14139475  0.17293148  0.45566957  1.0
  C  C212  1  0.14454024  0.20996562  0.92686977  1.0
  C  C213  1  0.85546192  0.79003975  0.42687321  1.0
  C  C214  1  0.29003840  0.64453839  0.67686380  1.0
  C  C215  1  0.70995987  0.35545895  0.17686630  1.0
  C  C216  1  0.64454071  0.29003960  0.82313664  1.0
  C  C217  1  0.35546548  0.70995711  0.32312711  1.0
  C  C218  1  0.79003822  0.85545988  0.07312951  1.0
  C  C219  1  0.20996142  0.14453744  0.57312744  1.0
  C  C220  1  0.07156881  0.17982011  0.96119498  1.0
  C  C221  1  0.92843201  0.82019523  0.46119935  1.0
  C  C222  1  0.32018943  0.57156592  0.71118853  1.0
  C  C223  1  0.67981148  0.42843342  0.21119058  1.0
  C  C224  1  0.57156526  0.32018918  0.78881332  1.0
  C  C225  1  0.42843894  0.67980221  0.28880236  1.0
  C  C226  1  0.82018984  0.92842966  0.03880571  1.0
  C  C227  1  0.17981180  0.07156632  0.53880036  1.0
  C  C228  1  0.08667175  0.14591024  0.02134391  1.0
  C  C229  1  0.91332392  0.85410501  0.52134686  1.0
  C  C230  1  0.35409799  0.58667257  0.77133790  1.0
  C  C231  1  0.64590290  0.41332679  0.27133996  1.0
  C  C232  1  0.58666799  0.35409693  0.72866441  1.0
  C  C233  1  0.41332893  0.64589179  0.22865532  1.0
  C  C234  1  0.85409692  0.91332308  0.97865444  1.0
  C  C235  1  0.14590389  0.08667699  0.47865193  1.0
  C  C236  1  0.97825891  0.19096801  0.93744378  1.0
  C  C237  1  0.02173660  0.80904999  0.43744047  1.0
  C  C238  1  0.30904566  0.47825944  0.68743512  1.0
  C  C239  1  0.69095327  0.52173459  0.18743015  1.0
  C  C240  1  0.47825970  0.30904745  0.81257189  1.0
  C  C241  1  0.52173785  0.69094926  0.31256371  1.0
  C  C242  1  0.80904986  0.02173817  0.06255812  1.0
  C  C243  1  0.19095310  0.97826181  0.56255616  1.0
  C  C244  1  0.90653347  0.25023578  0.13002035  1.0
  C  C245  1  0.09346216  0.74976952  0.63001886  1.0
  C  C246  1  0.24977161  0.40653690  0.88003228  1.0
  C  C247  1  0.75022260  0.59345651  0.38003480  1.0
  C  C248  1  0.40654152  0.24977034  0.61997005  1.0
  C  C249  1  0.59346541  0.75023031  0.11997686  1.0
  C  C250  1  0.74976232  0.09346820  0.86998346  1.0
  C  C251  1  0.25023056  0.90653716  0.36997071  1.0
  N  N252  1  0.39302548  0.22232789  0.99173810  1.0
  N  N253  1  0.60697267  0.77766221  0.49173881  1.0
  N  N254  1  0.27768375  0.89302658  0.74172891  1.0
  N  N255  1  0.72232845  0.10697145  0.24173841  1.0
  N  N256  1  0.89302266  0.27767903  0.75826494  1.0
  N  N257  1  0.10697758  0.72232697  0.25826346  1.0
  N  N258  1  0.77766993  0.60697503  0.00826441  1.0
  N  N259  1  0.22233572  0.39302559  0.50826377  1.0
  N  N260  1  0.22695646  0.20884661  0.95012538  1.0
  N  N261  1  0.77304303  0.79115013  0.45012932  1.0
  N  N262  1  0.29115399  0.72695493  0.70011896  1.0
  N  N263  1  0.70884759  0.27303976  0.20012286  1.0
  N  N264  1  0.72695361  0.29115386  0.79987865  1.0
  N  N265  1  0.27304660  0.70884617  0.29987243  1.0
  N  N266  1  0.79114926  0.77304268  0.04987341  1.0
  N  N267  1  0.20884839  0.22695729  0.54987463  1.0
  O  O268  1  0.83628768  0.24921254  0.09459133  1.0
  O  O269  1  0.16371261  0.75078744  0.59458842  1.0
  O  O270  1  0.25079494  0.33628941  0.84459529  1.0
  O  O271  1  0.74920459  0.66370863  0.34460203  1.0
  O  O272  1  0.33629439  0.25079433  0.65540659  1.0
  O  O273  1  0.66371452  0.74921098  0.15541103  1.0
  O  O274  1  0.75078555  0.16371037  0.90541436  1.0
  O  O275  1  0.24920931  0.83628969  0.40540442  1.0
  O  O276  1  0.65928084  0.22325522  0.02804734  1.0
  O  O277  1  0.34071416  0.77673943  0.52804672  1.0
  O  O278  1  0.27674328  0.15928262  0.77804422  1.0
  O  O279  1  0.72325429  0.84071740  0.27805147  1.0
  O  O280  1  0.15927952  0.27674720  0.72195579  1.0
  O  O281  1  0.84071873  0.72325281  0.22196486  1.0
  O  O282  1  0.77673565  0.34072178  0.97195230  1.0
  O  O283  1  0.22326051  0.65928427  0.47194937  1.0
  O  O284  1  0.64192358  0.13656087  0.11466959  1.0
  O  O285  1  0.35808002  0.86343911  0.61466615  1.0
  O  O286  1  0.36344001  0.14191739  0.86466739  1.0
  O  O287  1  0.63655951  0.85808199  0.36467467  1.0
  O  O288  1  0.14191821  0.36344424  0.63533262  1.0
  O  O289  1  0.85808008  0.63657170  0.13533230  1.0
  O  O290  1  0.86343506  0.35807827  0.88533191  1.0
  O  O291  1  0.13656579  0.64191713  0.38532948  1.0
  O  O292  1  0.92165534  0.20143740  0.98048517  1.0
  O  O293  1  0.07834946  0.79858394  0.48049121  1.0
  O  O294  1  0.29857962  0.42165016  0.73048681  1.0
  O  O295  1  0.70141863  0.57835185  0.23048513  1.0
  O  O296  1  0.42164686  0.29858344  0.76952161  1.0
  O  O297  1  0.57835470  0.70141126  0.26951295  1.0
  O  O298  1  0.79859639  0.07834613  0.01951581  1.0
  O  O299  1  0.20141323  0.92165051  0.51950728  1.0
  O  O300  1  0.96511769  0.19078994  0.87851212  1.0
  O  O301  1  0.03488116  0.80921543  0.37851865  1.0
  O  O302  1  0.30922243  0.46511295  0.62851330  1.0
  O  O303  1  0.69078516  0.53487907  0.12851349  1.0
  O  O304  1  0.46511780  0.30921624  0.87149371  1.0
  O  O305  1  0.53488039  0.69078248  0.37148412  1.0
  O  O306  1  0.80921530  0.03487801  0.12148838  1.0
  O  O307  1  0.19078765  0.96511998  0.62147986  1.0
  O  O308  1  0.90865447  0.20456230  0.17967432  1.0
  O  O309  1  0.09134180  0.79544434  0.67966721  1.0
  O  O310  1  0.29542800  0.40865320  0.92968437  1.0
  O  O311  1  0.70455754  0.59133489  0.42968409  1.0
  O  O312  1  0.40865651  0.29542787  0.57031749  1.0
  O  O313  1  0.59134645  0.70456546  0.07032711  1.0
  O  O314  1  0.79543003  0.09135317  0.82032667  1.0
  O  O315  1  0.20456486  0.90865484  0.32032050  1.0
