# generated using pymatgen
data_Zr3H25C44O21F
_symmetry_space_group_name_H-M   'P 1'
_cell_length_a   19.00984870
_cell_length_b   19.13388934
_cell_length_c   19.13445225
_cell_angle_alpha   90.33088402
_cell_angle_beta   119.76109037
_cell_angle_gamma   119.75940923
_symmetry_Int_Tables_number   1
_chemical_formula_structural   Zr3H25C44O21F
_chemical_formula_sum   'Zr6 H50 C88 O42 F2'
_cell_volume   4942.70146162
_cell_formula_units_Z   2
loop_
 _symmetry_equiv_pos_site_id
 _symmetry_equiv_pos_as_xyz
  1  'x, y, z'
loop_
 _atom_site_type_symbol
 _atom_site_label
 _atom_site_symmetry_multiplicity
 _atom_site_fract_x
 _atom_site_fract_y
 _atom_site_fract_z
 _atom_site_occupancy
  Zr  Zr0  1  0.49992221  0.90765092  0.90770498  1.0
  Zr  Zr1  1  0.50061203  0.09227091  0.09237033  1.0
  Zr  Zr2  1  0.68615615  0.09201272  0.09192777  1.0
  Zr  Zr3  1  0.31435509  0.90804923  0.90793942  1.0
  Zr  Zr4  1  0.50020474  0.90826770  0.09172419  1.0
  Zr  Zr5  1  0.50020179  0.09174370  0.90823690  1.0
  H  H6  1  0.64582326  0.92663996  0.07200625  1.0
  H  H7  1  0.35465553  0.92796269  0.07333808  1.0
  H  H8  1  0.64606144  0.21777876  0.07284585  1.0
  H  H9  1  0.35441450  0.92718581  0.78215582  1.0
  H  H10  1  0.50043915  0.45074884  0.11345261  1.0
  H  H11  1  0.50063387  0.54950199  0.88705719  1.0
  H  H12  1  0.49768337  0.67796970  0.11045437  1.0
  H  H13  1  0.50026869  0.55115143  0.11362805  1.0
  H  H14  1  0.49791056  0.31967562  0.88726925  1.0
  H  H15  1  0.50052498  0.44905279  0.88674831  1.0
  H  H16  1  0.49932986  0.11286713  0.45026399  1.0
  H  H17  1  0.49951907  0.88647182  0.54896691  1.0
  H  H18  1  0.50222887  0.11266760  0.68026631  1.0
  H  H19  1  0.49938183  0.11317146  0.55075997  1.0
  H  H20  1  0.50240427  0.88945626  0.32197569  1.0
  H  H21  1  0.49964956  0.88626366  0.44869710  1.0
  H  H22  1  0.83644342  0.44980274  0.88716888  1.0
  H  H23  1  0.16372139  0.55092863  0.11336214  1.0
  H  H24  1  0.06656753  0.67685194  0.88706112  1.0
  H  H25  1  0.93642547  0.55004969  0.88646016  1.0
  H  H26  1  0.93374774  0.32105465  0.11062906  1.0
  H  H27  1  0.06381433  0.45072068  0.11402678  1.0
  H  H28  1  0.83644747  0.88671038  0.44927167  1.0
  H  H29  1  0.16370410  0.11295169  0.55039024  1.0
  H  H30  1  0.06657954  0.88941024  0.67910364  1.0
  H  H31  1  0.93644111  0.88604120  0.54952356  1.0
  H  H32  1  0.93376461  0.11295469  0.32330049  1.0
  H  H33  1  0.06386017  0.11360103  0.45020662  1.0
  H  H34  1  0.29131242  0.11424218  0.11193322  1.0
  H  H35  1  0.24256937  0.17892311  0.17917560  1.0
  H  H36  1  0.06855220  0.88996815  0.88753620  1.0
  H  H37  1  0.70943931  0.88800969  0.88571790  1.0
  H  H38  1  0.75825734  0.82086467  0.82103364  1.0
  H  H39  1  0.93224294  0.11239878  0.11008052  1.0
  H  H40  1  0.06410464  0.45026695  0.44979237  1.0
  H  H41  1  0.93616576  0.55026872  0.54979682  1.0
  H  H42  1  0.29073920  0.67724415  0.67949454  1.0
  H  H43  1  0.16483378  0.55067441  0.55030940  1.0
  H  H44  1  0.70946858  0.32045092  0.32268569  1.0
  H  H45  1  0.83532898  0.44963904  0.44926365  1.0
  H  H46  1  0.49650964  0.26702159  0.11555160  1.0
  H  H47  1  0.49659204  0.72922842  0.88083593  1.0
  H  H48  1  0.50354775  0.11905656  0.27060658  1.0
  H  H49  1  0.50370770  0.88438269  0.73279956  1.0
  H  H50  1  0.65055642  0.26596390  0.88079035  1.0
  H  H51  1  0.34971718  0.73068327  0.11577313  1.0
  H  H52  1  0.65055178  0.88432297  0.26940343  1.0
  H  H53  1  0.34968420  0.11929323  0.73410508  1.0
  H  H54  1  0.88723690  0.26694431  0.27029801  1.0
  H  H55  1  0.11317500  0.72978964  0.73314548  1.0
  C  C56  1  0.49608155  0.76177210  0.99897747  1.0
  C  C57  1  0.50415503  0.00093823  0.23816428  1.0
  C  C58  1  0.49597388  0.23402590  0.99694626  1.0
  C  C59  1  0.50440959  0.00307722  0.76593426  1.0
  C  C60  1  0.73506178  0.00058988  0.99645018  1.0
  C  C61  1  0.26471911  0.76182865  0.76568464  1.0
  C  C62  1  0.26561324  0.00361364  0.99934242  1.0
  C  C63  1  0.73568480  0.23430808  0.23816078  1.0
  C  C64  1  0.73768325  0.00296154  0.23782054  1.0
  C  C65  1  0.73774859  0.23378886  0.99880518  1.0
  C  C66  1  0.26261159  0.00118457  0.76620513  1.0
  C  C67  1  0.26269611  0.76221310  0.99705114  1.0
  C  C68  1  0.49729317  0.31128721  0.99887095  1.0
  C  C69  1  0.49745255  0.68585184  0.99842133  1.0
  C  C70  1  0.49830021  0.35014311  0.06320619  1.0
  C  C71  1  0.49990932  0.42407645  0.06269583  1.0
  C  C72  1  0.49866751  0.64808001  0.93520161  1.0
  C  C73  1  0.50012872  0.57567484  0.93728625  1.0
  C  C74  1  0.49834570  0.64873988  0.06195369  1.0
  C  C75  1  0.49981827  0.57731702  0.06327136  1.0
  C  C76  1  0.49840743  0.34943554  0.93636726  1.0
  C  C77  1  0.49992033  0.42233754  0.93656957  1.0
  C  C78  1  0.50035730  0.46129052  0.00011107  1.0
  C  C79  1  0.50038649  0.53884828  0.00023971  1.0
  C  C80  1  0.50268979  0.00150579  0.31403103  1.0
  C  C81  1  0.50291460  0.00109366  0.68859550  1.0
  C  C82  1  0.50138424  0.06470317  0.35173527  1.0
  C  C83  1  0.49985675  0.06263225  0.42411368  1.0
  C  C84  1  0.50180768  0.93672787  0.64966148  1.0
  C  C85  1  0.50013369  0.93725231  0.57570947  1.0
  C  C86  1  0.50171339  0.06358613  0.65044937  1.0
  C  C87  1  0.50006089  0.06336447  0.57748173  1.0
  C  C88  1  0.50170444  0.93796029  0.35114928  1.0
  C  C89  1  0.50016279  0.93664296  0.42252991  1.0
  C  C90  1  0.49957759  0.99968574  0.46096456  1.0
  C  C91  1  0.49962276  0.99983328  0.53851306  1.0
  C  C92  1  0.81283380  0.31140778  0.99840217  1.0
  C  C93  1  0.18749176  0.68607195  0.99888581  1.0
  C  C94  1  0.78660645  0.34969240  0.93522765  1.0
  C  C95  1  0.86103216  0.42362935  0.93733403  1.0
  C  C96  1  0.21362242  0.64894272  0.06324064  1.0
  C  C97  1  0.13914614  0.57656229  0.06264967  1.0
  C  C98  1  0.08619879  0.64817998  0.93625868  1.0
  C  C99  1  0.01346294  0.57678157  0.93640003  1.0
  C  C100  1  0.91411433  0.35037583  0.06207537  1.0
  C  C101  1  0.98678914  0.42334563  0.06347179  1.0
  C  C102  1  0.96145584  0.46153257  0.00029940  1.0
  C  C103  1  0.03871921  0.53904886  0.00004046  1.0
  C  C104  1  0.81281546  0.00115149  0.31404738  1.0
  C  C105  1  0.18745372  0.00166381  0.68871289  1.0
  C  C106  1  0.78662825  0.93683586  0.35121314  1.0
  C  C107  1  0.86105878  0.93743059  0.42365235  1.0
  C  C108  1  0.21361809  0.06488361  0.65045772  1.0
  C  C109  1  0.13915614  0.06277316  0.57656834  1.0
  C  C110  1  0.08618790  0.93800031  0.64981044  1.0
  C  C111  1  0.01346867  0.93660258  0.57688439  1.0
  C  C112  1  0.91411884  0.06378839  0.35199972  1.0
  C  C113  1  0.98681663  0.06365562  0.42344237  1.0
  C  C114  1  0.96148967  0.00002244  0.46116920  1.0
  C  C115  1  0.03874994  0.99977749  0.53868891  1.0
  C  C116  1  0.21310915  0.06521683  0.06334528  1.0
  C  C117  1  0.14019507  0.06538537  0.06485035  1.0
  C  C118  1  0.16513602  0.12907892  0.12915761  1.0
  C  C119  1  0.08714142  0.93817388  0.93624044  1.0
  C  C120  1  0.01251343  0.93644363  0.93589892  1.0
  C  C121  1  0.90909972  0.87281625  0.87286423  1.0
  C  C122  1  0.78762943  0.93661658  0.93480120  1.0
  C  C123  1  0.86057214  0.93516160  0.93461984  1.0
  C  C124  1  0.83565558  0.87087219  0.87092913  1.0
  C  C125  1  0.91361164  0.06369768  0.06183962  1.0
  C  C126  1  0.98825028  0.06409218  0.06353038  1.0
  C  C127  1  0.09166530  0.12712051  0.12719312  1.0
  C  C128  1  0.18680253  0.00255242  0.99961118  1.0
  C  C129  1  0.03801786  0.00039846  0.00015628  1.0
  C  C130  1  0.81390586  0.00031011  0.99750509  1.0
  C  C131  1  0.96275052  0.99984813  0.99958259  1.0
  C  C132  1  0.81337681  0.31149945  0.31410316  1.0
  C  C133  1  0.18692789  0.68587126  0.68852775  1.0
  C  C134  1  0.91562382  0.35011666  0.35165475  1.0
  C  C135  1  0.98722467  0.42391890  0.42397297  1.0
  C  C136  1  0.08469319  0.64838015  0.64995954  1.0
  C  C137  1  0.01304370  0.57605265  0.57614847  1.0
  C  C138  1  0.21240577  0.64836151  0.65005518  1.0
  C  C139  1  0.14097563  0.57701583  0.57723955  1.0
  C  C140  1  0.78781271  0.34991350  0.35158386  1.0
  C  C141  1  0.85921387  0.42273780  0.42293221  1.0
  C  C142  1  0.96130127  0.46140617  0.46110482  1.0
  C  C143  1  0.03890078  0.53888414  0.53860746  1.0
  O  O144  1  0.49593048  0.79344467  0.93885949  1.0
  O  O145  1  0.50440205  0.06108202  0.20650326  1.0
  O  O146  1  0.49593337  0.20224187  0.05694858  1.0
  O  O147  1  0.50453835  0.94310504  0.79774680  1.0
  O  O148  1  0.76318637  0.05985890  0.05565140  1.0
  O  O149  1  0.23628566  0.79386504  0.79769308  1.0
  O  O150  1  0.23744673  0.94442382  0.94004556  1.0
  O  O151  1  0.76418462  0.20232034  0.20618685  1.0
  O  O152  1  0.64533309  0.94287999  0.20545690  1.0
  O  O153  1  0.64535950  0.20139207  0.93874455  1.0
  O  O154  1  0.35498632  0.06123645  0.79855094  1.0
  O  O155  1  0.35503218  0.79454817  0.05715900  1.0
  O  O156  1  0.76480268  0.20197256  0.05718711  1.0
  O  O157  1  0.23561611  0.94272353  0.79795168  1.0
  O  O158  1  0.23575461  0.79416473  0.93876383  1.0
  O  O159  1  0.76465530  0.06118535  0.20581070  1.0
  O  O160  1  0.64468117  0.94107270  0.93736364  1.0
  O  O161  1  0.64468782  0.20245670  0.20602378  1.0
  O  O162  1  0.35596735  0.06265426  0.05890392  1.0
  O  O163  1  0.35569769  0.79393896  0.79747626  1.0
  O  O164  1  0.50421066  0.06161010  0.79811587  1.0
  O  O165  1  0.49645241  0.79423128  0.05779554  1.0
  O  O166  1  0.50379193  0.94210528  0.20574379  1.0
  O  O167  1  0.49627594  0.20191070  0.93845277  1.0
  O  O168  1  0.39574025  0.94788649  0.84411234  1.0
  O  O169  1  0.60474493  0.15582660  0.05210786  1.0
  O  O170  1  0.39594023  0.94842401  0.05233537  1.0
  O  O171  1  0.60454857  0.94765225  0.05156576  1.0
  O  O172  1  0.57740832  0.03843257  0.11468217  1.0
  O  O173  1  0.42313252  0.88534954  0.96157306  1.0
  O  O174  1  0.42338229  0.03823967  0.96208333  1.0
  O  O175  1  0.57707380  0.03789815  0.96175585  1.0
  O  O176  1  0.49767904  0.31889428  0.12615029  1.0
  O  O177  1  0.49842829  0.67884881  0.87180704  1.0
  O  O178  1  0.50158649  0.12806878  0.32091018  1.0
  O  O179  1  0.50240640  0.87375360  0.68085970  1.0
  O  O180  1  0.69183832  0.31797887  0.87179560  1.0
  O  O181  1  0.30837621  0.68022550  0.12630692  1.0
  O  O182  1  0.69185413  0.87380967  0.31990999  1.0
  O  O183  1  0.30837288  0.12834374  0.68215287  1.0
  O  O184  1  0.94827530  0.31883154  0.32074865  1.0
  O  O185  1  0.05211228  0.67934313  0.68128503  1.0
  F  F186  1  0.11567284  0.18796231  0.18834500  1.0
  F  F187  1  0.88504269  0.81168190  0.81196572  1.0
