# generated using pymatgen
data_AlH8(C2O)6
_symmetry_space_group_name_H-M   'P 1'
_cell_length_a   6.92385030
_cell_length_b   11.02609417
_cell_length_c   15.26208275
_cell_angle_alpha   82.93894678
_cell_angle_beta   77.20571598
_cell_angle_gamma   73.81326950
_symmetry_Int_Tables_number   1
_chemical_formula_structural   AlH8(C2O)6
_chemical_formula_sum   'Al2 H16 C24 O12'
_cell_volume   1088.85069726
_cell_formula_units_Z   2
loop_
 _symmetry_equiv_pos_site_id
 _symmetry_equiv_pos_as_xyz
  1  'x, y, z'
loop_
 _atom_site_type_symbol
 _atom_site_label
 _atom_site_symmetry_multiplicity
 _atom_site_fract_x
 _atom_site_fract_y
 _atom_site_fract_z
 _atom_site_occupancy
  Al  Al0  1  0.50240828  0.49647285  0.49964730  1.0
  Al  Al1  1  0.00201072  0.49690433  0.49987800  1.0
  H  H2  1  0.26966888  0.36846631  0.58157704  1.0
  H  H3  1  0.73457224  0.62413284  0.41688223  1.0
  H  H4  1  0.83503761  0.52061544  0.93780313  1.0
  H  H5  1  0.15665339  0.49330264  0.06202825  1.0
  H  H6  1  0.70193724  0.46980196  0.23081871  1.0
  H  H7  1  0.78428802  0.48517588  0.06695201  1.0
  H  H8  1  0.30401484  0.51759533  0.76791871  1.0
  H  H9  1  0.21994100  0.50278292  0.93174142  1.0
  H  H10  1  0.77926051  0.86257978  0.49242035  1.0
  H  H11  1  0.63927998  0.09651793  0.50087024  1.0
  H  H12  1  0.34119159  0.12817849  0.56928273  1.0
  H  H13  1  0.38828260  0.15272913  0.44943825  1.0
  H  H14  1  0.53063212  0.91680696  0.43666243  1.0
  H  H15  1  0.48481883  0.89292111  0.55689316  1.0
  H  H16  1  0.96110938  0.53968986  0.70273655  1.0
  H  H17  1  0.03751478  0.46309440  0.29703420  1.0
  C  C18  1  0.84476171  0.27110382  0.50997718  1.0
  C  C19  1  0.66379393  0.52330061  0.65978240  1.0
  C  C20  1  0.16030620  0.72210988  0.48986693  1.0
  C  C21  1  0.33964247  0.47113174  0.33956173  1.0
  C  C22  1  0.61525589  0.52531526  0.75835117  1.0
  C  C23  1  0.38614015  0.47136110  0.24089974  1.0
  C  C24  1  0.76377147  0.52788806  0.80859488  1.0
  C  C25  1  0.71492449  0.51899071  0.90282376  1.0
  C  C26  1  0.23383198  0.47547997  0.19090349  1.0
  C  C27  1  0.28058721  0.48767013  0.09670858  1.0
  C  C28  1  0.58344788  0.47462526  0.19314214  1.0
  C  C29  1  0.62862187  0.48424739  0.10016457  1.0
  C  C30  1  0.41969573  0.51778358  0.80585012  1.0
  C  C31  1  0.37322701  0.50936846  0.89882021  1.0
  C  C32  1  0.52189339  0.50764842  0.94971931  1.0
  C  C33  1  0.47623656  0.49330989  0.04955004  1.0
  C  C34  1  0.92312875  0.13184863  0.50617566  1.0
  C  C35  1  0.08542054  0.86142349  0.49444643  1.0
  C  C36  1  0.12760404  0.07093196  0.50532800  1.0
  C  C37  1  0.87755249  0.92224051  0.49562452  1.0
  C  C38  1  0.20659944  0.94054464  0.49926591  1.0
  C  C39  1  0.79931336  0.05251421  0.50090077  1.0
  C  C40  1  0.33126821  0.09270795  0.50664052  1.0
  C  C41  1  0.42120510  0.94478798  0.49926506  1.0
  O  O42  1  0.65764944  0.32211478  0.50495721  1.0
  O  O43  1  0.84668607  0.53141190  0.61970979  1.0
  O  O44  1  0.02870337  0.66468771  0.48206865  1.0
  O  O45  1  0.47647931  0.48167850  0.37956500  1.0
  O  O46  1  0.34778523  0.67081137  0.49424367  1.0
  O  O47  1  0.15681386  0.46320374  0.37986994  1.0
  O  O48  1  0.97607884  0.32888504  0.51779652  1.0
  O  O49  1  0.52854322  0.51069154  0.61967233  1.0
  O  O50  1  0.25104018  0.44793430  0.54532841  1.0
  O  O51  1  0.75336300  0.54548574  0.45409283  1.0
  O  O52  1  0.95471799  0.53703750  0.76909076  1.0
  O  O53  1  0.04119353  0.47001953  0.23068241  1.0
