# generated using pymatgen
data_ZnH9C13NO5
_symmetry_space_group_name_H-M   'P 1'
_cell_length_a   10.43798462
_cell_length_b   18.39460926
_cell_length_c   18.39461874
_cell_angle_alpha   116.48511190
_cell_angle_beta   100.92243760
_cell_angle_gamma   100.89333615
_symmetry_Int_Tables_number   1
_chemical_formula_structural   ZnH9C13NO5
_chemical_formula_sum   'Zn6 H54 C78 N6 O30'
_cell_volume   2949.77442705
_cell_formula_units_Z   6
loop_
 _symmetry_equiv_pos_site_id
 _symmetry_equiv_pos_as_xyz
  1  'x, y, z'
loop_
 _atom_site_type_symbol
 _atom_site_label
 _atom_site_symmetry_multiplicity
 _atom_site_fract_x
 _atom_site_fract_y
 _atom_site_fract_z
 _atom_site_occupancy
  Zn  Zn0  1  0.51771230  0.64713486  0.35025308  1.0
  Zn  Zn1  1  0.16718799  0.64966570  0.29679369  1.0
  Zn  Zn2  1  0.87065294  0.70320906  0.35280448  1.0
  Zn  Zn3  1  0.48228876  0.35286602  0.64974753  1.0
  Zn  Zn4  1  0.83281254  0.35033464  0.70320638  1.0
  Zn  Zn5  1  0.12934812  0.29679214  0.64719581  1.0
  H  H6  1  0.54422996  0.75524379  0.50418509  1.0
  H  H7  1  0.03962537  0.49577713  0.25101070  1.0
  H  H8  1  0.78845738  0.74873922  0.24447562  1.0
  H  H9  1  0.45577079  0.24475807  0.49581586  1.0
  H  H10  1  0.96037429  0.50422332  0.74898948  1.0
  H  H11  1  0.21154337  0.25126264  0.75552533  1.0
  H  H12  1  0.37752071  0.70702634  0.46142200  1.0
  H  H13  1  0.91574155  0.53863642  0.24548892  1.0
  H  H14  1  0.67023376  0.75434119  0.29287808  1.0
  H  H15  1  0.62248003  0.29297551  0.53857894  1.0
  H  H16  1  0.08425985  0.46136414  0.75451073  1.0
  H  H17  1  0.32976678  0.24565948  0.70712168  1.0
  H  H18  1  0.27393056  0.37888927  0.34290708  1.0
  H  H19  1  0.93107171  0.65713157  0.03572495  1.0
  H  H20  1  0.89506159  0.96403666  0.62097007  1.0
  H  H21  1  0.72607138  0.62111151  0.65709343  1.0
  H  H22  1  0.06892959  0.34287084  0.96427654  1.0
  H  H23  1  0.10494123  0.03596338  0.37903098  1.0
  H  H24  1  0.48232213  0.34116649  0.39034311  1.0
  H  H25  1  0.09204584  0.60964652  0.95070298  1.0
  H  H26  1  0.14097531  0.04935183  0.65859813  1.0
  H  H27  1  0.51767959  0.65883342  0.60965589  1.0
  H  H28  1  0.90795404  0.39035544  0.04929807  1.0
  H  H29  1  0.85902749  0.95064852  0.34140259  1.0
  H  H30  1  0.73030031  0.55740713  0.38977626  1.0
  H  H31  1  0.34055347  0.61033698  0.16767253  1.0
  H  H32  1  0.17321480  0.83258546  0.44264266  1.0
  H  H33  1  0.26970109  0.44259343  0.61022339  1.0
  H  H34  1  0.65944455  0.38966153  0.83232634  1.0
  H  H35  1  0.82678605  0.16741359  0.55735740  1.0
  H  H36  1  0.69482570  0.38889950  0.50117267  1.0
  H  H37  1  0.19329408  0.49874338  0.88776977  1.0
  H  H38  1  0.30586907  0.11253820  0.61118497  1.0
  H  H39  1  0.30517461  0.61109997  0.49882589  1.0
  H  H40  1  0.80670448  0.50125534  0.11222996  1.0
  H  H41  1  0.69412917  0.88746213  0.38881445  1.0
  H  H42  1  0.07948893  0.36227359  0.46118296  1.0
  H  H43  1  0.61787371  0.53859049  0.90094144  1.0
  H  H44  1  0.71712946  0.09901479  0.63770387  1.0
  H  H45  1  0.92051159  0.63772611  0.53881775  1.0
  H  H46  1  0.38212595  0.46140996  0.09905874  1.0
  H  H47  1  0.28286964  0.90098543  0.36229544  1.0
  H  H48  1  0.03738062  0.40622299  0.34988272  1.0
  H  H49  1  0.68738765  0.64980102  0.05616412  1.0
  H  H50  1  0.63103517  0.94373392  0.59350183  1.0
  H  H51  1  0.96262001  0.59377455  0.65011647  1.0
  H  H52  1  0.31261114  0.35019954  0.94383617  1.0
  H  H53  1  0.36896677  0.05626686  0.40649868  1.0
  H  H54  1  0.82774042  0.44534257  0.31879025  1.0
  H  H55  1  0.50897707  0.68093182  0.12642269  1.0
  H  H56  1  0.38225163  0.87362748  0.55429338  1.0
  H  H57  1  0.17225880  0.55465455  0.68120851  1.0
  H  H58  1  0.49102259  0.31906799  0.87357813  1.0
  H  H59  1  0.61775063  0.12637265  0.44570648  1.0
  C  C60  1  0.27325911  0.50769089  0.30590836  1.0
  C  C61  1  0.96718554  0.69399377  0.20151082  1.0
  C  C62  1  0.76587291  0.79829231  0.49229205  1.0
  C  C63  1  0.72674250  0.49231086  0.69409248  1.0
  C  C64  1  0.03281976  0.30600714  0.79849238  1.0
  C  C65  1  0.23412555  0.20170889  0.50770888  1.0
  C  C66  1  0.39417002  0.48586017  0.34056845  1.0
  C  C67  1  0.05352907  0.65944318  0.14510084  1.0
  C  C68  1  0.90854970  0.85479936  0.51409568  1.0
  C  C69  1  0.60583214  0.51414212  0.65943293  1.0
  C  C70  1  0.94647112  0.34055750  0.85490020  1.0
  C  C71  1  0.09145224  0.14520046  0.48590579  1.0
  C  C72  1  0.37714605  0.41630531  0.35416590  1.0
  C  C73  1  0.02299952  0.64587324  0.06195807  1.0
  C  C74  1  0.96091570  0.93795294  0.58358329  1.0
  C  C75  1  0.62285502  0.58369559  0.64583472  1.0
  C  C76  1  0.97700036  0.35412841  0.93804330  1.0
  C  C77  1  0.03908765  0.06204731  0.41641861  1.0
  C  C78  1  0.49251703  0.39549682  0.37968778  1.0
  C  C79  1  0.11288108  0.62034353  0.01570400  1.0
  C  C80  1  0.09699643  0.98435572  0.60434879  1.0
  C  C81  1  0.50748349  0.60450384  0.62031197  1.0
  C  C82  1  0.88711857  0.37965691  0.98429617  1.0
  C  C83  1  0.90300497  0.01564420  0.39565150  1.0
  C  C84  1  0.62266239  0.44316365  0.38895066  1.0
  C  C85  1  0.23372778  0.61106714  0.05417400  1.0
  C  C86  1  0.17954601  0.94599752  0.55673708  1.0
  C  C87  1  0.37733791  0.55683519  0.61104854  1.0
  C  C88  1  0.76627079  0.38893159  0.94582573  1.0
  C  C89  1  0.82045429  0.05400099  0.44326244  1.0
  C  C90  1  0.63113675  0.51511395  0.37878804  1.0
  C  C91  1  0.25235249  0.62128855  0.13630139  1.0
  C  C92  1  0.11623095  0.86386223  0.48485698  1.0
  C  C93  1  0.36886519  0.48488715  0.62121215  1.0
  C  C94  1  0.74764553  0.37870995  0.86369748  1.0
  C  C95  1  0.88376849  0.13613639  0.51514265  1.0
  C  C96  1  0.74698219  0.41963767  0.40779255  1.0
  C  C97  1  0.33908066  0.59206950  0.01178496  1.0
  C  C98  1  0.32732382  0.98840730  0.58028538  1.0
  C  C99  1  0.25301670  0.58036104  0.59220589  1.0
  C  C100  1  0.66091737  0.40792836  0.98821455  1.0
  C  C101  1  0.67267648  0.01159249  0.41971286  1.0
  C  C102  1  0.76928136  0.39224632  0.46763322  1.0
  C  C103  1  0.30135299  0.53224787  0.92457869  1.0
  C  C104  1  0.37699846  0.07563720  0.60781074  1.0
  C  C105  1  0.23071720  0.60775208  0.53236683  1.0
  C  C106  1  0.69864645  0.46775075  0.07542094  1.0
  C  C107  1  0.62299924  0.92436227  0.39218846  1.0
  C  C108  1  0.88955276  0.37267270  0.48735685  1.0
  C  C109  1  0.40181057  0.51252176  0.88524570  1.0
  C  C110  1  0.51684227  0.11489906  0.62744504  1.0
  C  C111  1  0.11044581  0.62732604  0.51264289  1.0
  C  C112  1  0.59818887  0.48747686  0.11475393  1.0
  C  C113  1  0.48315488  0.88510051  0.37255297  1.0
  C  C114  1  0.98613809  0.37756543  0.44476555  1.0
  C  C115  1  0.54103499  0.55506097  0.93267668  1.0
  C  C116  1  0.60850576  0.06735371  0.62244028  1.0
  C  C117  1  0.01386221  0.62243340  0.55523365  1.0
  C  C118  1  0.45896379  0.44493927  0.06732392  1.0
  C  C119  1  0.39149335  0.93264684  0.37755872  1.0
  C  C120  1  0.96295575  0.40236505  0.38338354  1.0
  C  C121  1  0.57941561  0.61636669  0.01883972  1.0
  C  C122  1  0.56051006  0.98115229  0.59745884  1.0
  C  C123  1  0.03704369  0.59763325  0.61661641  1.0
  C  C124  1  0.42058263  0.38363300  0.98116034  1.0
  C  C125  1  0.43949133  0.01884827  0.40254080  1.0
  C  C126  1  0.84496937  0.42459014  0.36587171  1.0
  C  C127  1  0.47903626  0.63391322  0.05860428  1.0
  C  C128  1  0.42031401  0.94147624  0.57521220  1.0
  C  C129  1  0.15503072  0.57540718  0.63412662  1.0
  C  C130  1  0.52096143  0.36608530  0.94139588  1.0
  C  C131  1  0.57968771  0.05852335  0.42478712  1.0
  C  C132  1  0.91987310  0.35143878  0.55698716  1.0
  C  C133  1  0.36251530  0.44294144  0.79442359  1.0
  C  C134  1  0.56829027  0.20573112  0.64866586  1.0
  C  C135  1  0.08012514  0.64856091  0.44301290  1.0
  C  C136  1  0.63748469  0.55705836  0.20557594  1.0
  C  C137  1  0.43170775  0.79426834  0.35133205  1.0
  N  N138  1  0.51998997  0.53567634  0.35610922  1.0
  N  N139  1  0.16384012  0.64394246  0.17946946  1.0
  N  N140  1  0.98459185  0.82056454  0.46429750  1.0
  N  N141  1  0.48001164  0.46432478  0.64389226  1.0
  N  N142  1  0.83615954  0.35605767  0.82053104  1.0
  N  N143  1  0.01540868  0.17943485  0.53570353  1.0
  O  O144  1  0.15480015  0.46041314  0.28764927  1.0
  O  O145  1  0.86666668  0.71200521  0.17238138  1.0
  O  O146  1  0.69469237  0.82727215  0.53955813  1.0
  O  O147  1  0.84520092  0.53958776  0.71235135  1.0
  O  O148  1  0.13333124  0.28799577  0.82761869  1.0
  O  O149  1  0.30530729  0.17272830  0.46044205  1.0
  O  O150  1  0.46878307  0.69889994  0.46915108  1.0
  O  O151  1  0.99936785  0.53091225  0.22975414  1.0
  O  O152  1  0.76959205  0.77011752  0.30088500  1.0
  O  O153  1  0.53121855  0.30110149  0.53085008  1.0
  O  O154  1  0.00063267  0.46908809  0.77024593  1.0
  O  O155  1  0.23040847  0.22988314  0.69911475  1.0
  O  O156  1  0.30182559  0.57367470  0.29601484  1.0
  O  O157  1  0.00584928  0.70405582  0.27744910  1.0
  O  O158  1  0.72848081  0.72244783  0.42631527  1.0
  O  O159  1  0.69817635  0.42632608  0.70398567  1.0
  O  O160  1  0.99415147  0.29594571  0.72255216  1.0
  O  O161  1  0.27151851  0.27755358  0.57368523  1.0
  O  O162  1  0.81953926  0.32688008  0.58029646  1.0
  O  O163  1  0.23884645  0.41964439  0.74654269  1.0
  O  O164  1  0.49250152  0.25357693  0.67333945  1.0
  O  O165  1  0.18046127  0.67312027  0.41970362  1.0
  O  O166  1  0.76115407  0.58035723  0.25345610  1.0
  O  O167  1  0.50749791  0.74642264  0.32665921  1.0
  O  O168  1  0.04415183  0.36041379  0.58986395  1.0
  O  O169  1  0.45391655  0.41008597  0.77054805  1.0
  O  O170  1  0.68339040  0.22963362  0.63952007  1.0
  O  O171  1  0.95584728  0.63958580  0.41013601  1.0
  O  O172  1  0.54608430  0.58991373  0.22945138  1.0
  O  O173  1  0.31660784  0.77036672  0.36047935  1.0
