# generated using pymatgen
data_Zr3H20C42(Cl3O8)2
_symmetry_space_group_name_H-M   'P 1'
_cell_length_a   19.25020945
_cell_length_b   19.25017075
_cell_length_c   19.25015796
_cell_angle_alpha   60.00008609
_cell_angle_beta   59.99998490
_cell_angle_gamma   90.00016056
_symmetry_Int_Tables_number   1
_chemical_formula_structural   Zr3H20C42(Cl3O8)2
_chemical_formula_sum   'Zr6 H40 C84 Cl12 O32'
_cell_volume   5044.16404650
_cell_formula_units_Z   2
loop_
 _symmetry_equiv_pos_site_id
 _symmetry_equiv_pos_as_xyz
  1  'x, y, z'
loop_
 _atom_site_type_symbol
 _atom_site_label
 _atom_site_symmetry_multiplicity
 _atom_site_fract_x
 _atom_site_fract_y
 _atom_site_fract_z
 _atom_site_occupancy
  Zr  Zr0  1  0.90813013  0.90813088  0.50000110  1.0
  Zr  Zr1  1  0.09186577  0.09186511  0.50000052  1.0
  Zr  Zr2  1  0.09186849  0.09186841  0.31625941  1.0
  Zr  Zr3  1  0.90812679  0.90812737  0.68374262  1.0
  Zr  Zr4  1  0.09186026  0.90813576  0.50000133  1.0
  Zr  Zr5  1  0.90813757  0.09186118  0.49999930  1.0
  H  H6  1  0.07226471  0.92773072  0.35546894  1.0
  H  H7  1  0.07226635  0.92773114  0.64453312  1.0
  H  H8  1  0.07226528  0.21680046  0.35546599  1.0
  H  H9  1  0.78319913  0.92773448  0.64453199  1.0
  H  H10  1  0.11083827  0.31806064  0.50203605  1.0
  H  H11  1  0.88712426  0.67989868  0.50203807  1.0
  H  H12  1  0.10972958  0.67751526  0.50177586  1.0
  H  H13  1  0.10865102  0.55331731  0.49907079  1.0
  H  H14  1  0.88849380  0.32070732  0.50177289  1.0
  H  H15  1  0.89227504  0.44760982  0.49907000  1.0
  H  H16  1  0.32009409  0.11287076  0.49797002  1.0
  H  H17  1  0.68193457  0.88915899  0.49796821  1.0
  H  H18  1  0.67928836  0.11150383  0.49822725  1.0
  H  H19  1  0.55238706  0.10772288  0.50092939  1.0
  H  H20  1  0.32248135  0.89026712  0.49822645  1.0
  H  H21  1  0.44668188  0.89134638  0.50092698  1.0
  H  H22  1  0.88712610  0.31805781  0.29277558  1.0
  H  H23  1  0.11083199  0.67990071  0.70722430  1.0
  H  H24  1  0.88849048  0.67751203  0.93221887  1.0
  H  H25  1  0.89227319  0.55331429  0.05533932  1.0
  H  H26  1  0.10973164  0.32070854  0.06778006  1.0
  H  H27  1  0.10865416  0.44761204  0.94466015  1.0
  H  H28  1  0.32009570  0.88916337  0.29277883  1.0
  H  H29  1  0.68194059  0.11287283  0.70722572  1.0
  H  H30  1  0.67928748  0.89026474  0.93221892  1.0
  H  H31  1  0.55238544  0.89134185  0.05534037  1.0
  H  H32  1  0.32248159  0.11150244  0.06778382  1.0
  H  H33  1  0.44668095  0.10772208  0.94466388  1.0
  H  H34  1  0.88712668  0.88915990  0.93093461  1.0
  H  H35  1  0.11083651  0.11287208  0.06906302  1.0
  H  H36  1  0.88849198  0.89026651  0.28902362  1.0
  H  H37  1  0.89227318  0.89134357  0.16104374  1.0
  H  H38  1  0.10973142  0.11150544  0.71097635  1.0
  H  H39  1  0.10864972  0.10772153  0.83896074  1.0
  H  H40  1  0.32009602  0.31805852  0.06906531  1.0
  H  H41  1  0.68193263  0.67990052  0.93093824  1.0
  H  H42  1  0.67928868  0.67751673  0.71097600  1.0
  H  H43  1  0.55238711  0.55331610  0.83895606  1.0
  H  H44  1  0.32248293  0.32070616  0.28902273  1.0
  H  H45  1  0.44668119  0.44760819  0.16104069  1.0
  C  C46  1  0.99716764  0.76452447  0.50408698  1.0
  C  C47  1  0.23547230  0.00282836  0.49591660  1.0
  C  C48  1  0.99874435  0.23138871  0.50408502  1.0
  C  C49  1  0.76860965  0.00125533  0.49591338  1.0
  C  C50  1  0.99874109  0.00283113  0.26577775  1.0
  C  C51  1  0.76860703  0.76451909  0.73422323  1.0
  C  C52  1  0.99716537  0.00125593  0.73422177  1.0
  C  C53  1  0.23547789  0.23138636  0.26577846  1.0
  C  C54  1  0.23547314  0.00125303  0.26735655  1.0
  C  C55  1  0.99716673  0.23138693  0.26735448  1.0
  C  C56  1  0.76861134  0.00283141  0.73264406  1.0
  C  C57  1  0.99874016  0.76452194  0.73264592  1.0
  C  C58  1  0.99940994  0.30943029  0.50278338  1.0
  C  C59  1  0.99780440  0.68778462  0.50278541  1.0
  C  C60  1  0.06223650  0.34678931  0.50168949  1.0
  C  C61  1  0.06485466  0.42006059  0.50012726  1.0
  C  C62  1  0.93607023  0.65151792  0.50169225  1.0
  C  C63  1  0.93501400  0.57981024  0.50012891  1.0
  C  C64  1  0.06019567  0.65058135  0.50151075  1.0
  C  C65  1  0.05884806  0.57947548  0.49992320  1.0
  C  C66  1  0.93829238  0.34790725  0.50150741  1.0
  C  C67  1  0.94122547  0.42060008  0.49992139  1.0
  C  C68  1  0.00285275  0.46134899  0.49961515  1.0
  C  C69  1  0.99752744  0.53903404  0.49961520  1.0
  C  C70  1  0.31221176  0.00219201  0.49722034  1.0
  C  C71  1  0.69056656  0.00058851  0.49721893  1.0
  C  C72  1  0.34847535  0.06392268  0.49831877  1.0
  C  C73  1  0.42018419  0.06497788  0.49988136  1.0
  C  C74  1  0.65320657  0.93775981  0.49831504  1.0
  C  C75  1  0.57993515  0.93513885  0.49987859  1.0
  C  C76  1  0.65208715  0.06170466  0.49849456  1.0
  C  C77  1  0.57939472  0.05877038  0.50008007  1.0
  C  C78  1  0.34941343  0.93980058  0.49849451  1.0
  C  C79  1  0.42052040  0.94114530  0.50008097  1.0
  C  C80  1  0.46096099  0.00246486  0.50039089  1.0
  C  C81  1  0.53864555  0.99713975  0.50039103  1.0
  C  C82  1  0.99780503  0.30943059  0.18997798  1.0
  C  C83  1  0.99940866  0.68778335  0.81002068  1.0
  C  C84  1  0.93607476  0.34679157  0.21544523  1.0
  C  C85  1  0.93502134  0.42006528  0.14479302  1.0
  C  C86  1  0.06223642  0.65151949  0.78455409  1.0
  C  C87  1  0.06485751  0.57981355  0.85520641  1.0
  C  C88  1  0.93829027  0.65058111  0.90961629  1.0
  C  C89  1  0.94122438  0.57947494  0.97937615  1.0
  C  C90  1  0.06019779  0.34790626  0.09038350  1.0
  C  C91  1  0.05885169  0.42059966  0.02062390  1.0
  C  C92  1  0.99753179  0.46134961  0.04150308  1.0
  C  C93  1  0.00285285  0.53903411  0.95849649  1.0
  C  C94  1  0.31221077  0.00058417  0.18998304  1.0
  C  C95  1  0.69056628  0.00219201  0.81002090  1.0
  C  C96  1  0.34847780  0.93775998  0.21544926  1.0
  C  C97  1  0.42018606  0.93514162  0.14479508  1.0
  C  C98  1  0.65320602  0.06392420  0.78455573  1.0
  C  C99  1  0.57993327  0.06497868  0.85520844  1.0
  C  C100  1  0.65209152  0.93979951  0.90961567  1.0
  C  C101  1  0.57939775  0.94114516  0.97937693  1.0
  C  C102  1  0.34941225  0.06170266  0.09038841  1.0
  C  C103  1  0.42051991  0.05877079  0.02062704  1.0
  C  C104  1  0.46096312  0.99714452  0.04150461  1.0
  C  C105  1  0.53864850  0.00246621  0.95849810  1.0
  C  C106  1  0.99780533  0.00058645  0.81162537  1.0
  C  C107  1  0.99940984  0.00219027  0.18837429  1.0
  C  C108  1  0.93607341  0.93775807  0.91071912  1.0
  C  C109  1  0.93501530  0.93513976  0.98504706  1.0
  C  C110  1  0.06223652  0.06392464  0.08928067  1.0
  C  C111  1  0.06485720  0.06497892  0.01495338  1.0
  C  C112  1  0.93829256  0.93979968  0.21228928  1.0
  C  C113  1  0.94122436  0.94114633  0.13824973  1.0
  C  C114  1  0.06019805  0.06170517  0.78770937  1.0
  C  C115  1  0.05884918  0.05877114  0.86175054  1.0
  C  C116  1  0.99752951  0.99714095  0.96382033  1.0
  C  C117  1  0.00285450  0.00246560  0.03617983  1.0
  C  C118  1  0.31221372  0.30942890  0.18837509  1.0
  C  C119  1  0.69056376  0.68778299  0.81162753  1.0
  C  C120  1  0.34847864  0.34678876  0.08928178  1.0
  C  C121  1  0.42018700  0.42006007  0.01495437  1.0
  C  C122  1  0.65320328  0.65151792  0.91072004  1.0
  C  C123  1  0.57993107  0.57981021  0.98504766  1.0
  C  C124  1  0.65208809  0.65058122  0.78771109  1.0
  C  C125  1  0.57939420  0.57947340  0.86175171  1.0
  C  C126  1  0.34941506  0.34790537  0.21229098  1.0
  C  C127  1  0.42052219  0.42059749  0.13824950  1.0
  C  C128  1  0.46096201  0.46134896  0.03617967  1.0
  C  C129  1  0.53864516  0.53903379  0.96382030  1.0
  Cl  Cl130  1  0.15156571  0.45040560  0.49890227  1.0
  Cl  Cl131  1  0.84952833  0.55069065  0.49890303  1.0
  Cl  Cl132  1  0.44930047  0.15046098  0.50111104  1.0
  Cl  Cl133  1  0.54958905  0.84842634  0.50110645  1.0
  Cl  Cl134  1  0.84953760  0.45040900  0.20116369  1.0
  Cl  Cl135  1  0.15156981  0.55069792  0.79883630  1.0
  Cl  Cl136  1  0.44930271  0.84843102  0.20116449  1.0
  Cl  Cl137  1  0.54959190  0.15046301  0.79883958  1.0
  Cl  Cl138  1  0.84953071  0.84842724  0.10087589  1.0
  Cl  Cl139  1  0.15156842  0.15046259  0.89912514  1.0
  Cl  Cl140  1  0.44930141  0.45040661  0.89912467  1.0
  Cl  Cl141  1  0.54958874  0.55069058  0.10087613  1.0
  O  O142  1  0.93837037  0.79522545  0.50352604  1.0
  O  O143  1  0.20477009  0.06162346  0.49647881  1.0
  O  O144  1  0.05810149  0.20124772  0.50352505  1.0
  O  O145  1  0.79875114  0.94189759  0.49647427  1.0
  O  O146  1  0.05809837  0.06162806  0.23712091  1.0
  O  O147  1  0.79874690  0.79522030  0.76287984  1.0
  O  O148  1  0.93836905  0.94189699  0.76287858  1.0
  O  O149  1  0.20477498  0.20124616  0.23712281  1.0
  O  O150  1  0.20477434  0.94190040  0.35685005  1.0
  O  O151  1  0.93837376  0.20124812  0.35684772  1.0
  O  O152  1  0.79875009  0.06162435  0.64315177  1.0
  O  O153  1  0.05809555  0.79522201  0.64315255  1.0
  O  O154  1  0.05626114  0.20121531  0.23835674  1.0
  O  O155  1  0.79878016  0.94373481  0.76164422  1.0
  O  O156  1  0.93957132  0.79461845  0.76164401  1.0
  O  O157  1  0.20537538  0.06042043  0.23836012  1.0
  O  O158  1  0.93957316  0.94373894  0.35504224  1.0
  O  O159  1  0.20538373  0.20121403  0.35504187  1.0
  O  O160  1  0.05625549  0.06042494  0.64495902  1.0
  O  O161  1  0.79877945  0.79461625  0.64495911  1.0
  O  O162  1  0.79878203  0.06042129  0.49583707  1.0
  O  O163  1  0.05625699  0.79462133  0.50416315  1.0
  O  O164  1  0.20537672  0.94373702  0.49584095  1.0
  O  O165  1  0.93957991  0.20121743  0.50415809  1.0
  O  O166  1  0.84486904  0.94828979  0.60341825  1.0
  O  O167  1  0.05170875  0.15512985  0.39657972  1.0
  O  O168  1  0.05170937  0.94828761  0.60341989  1.0
  O  O169  1  0.05170701  0.94828687  0.39658289  1.0
  O  O170  1  0.11459170  0.03819300  0.42360648  1.0
  O  O171  1  0.96180128  0.88540578  0.57639492  1.0
  O  O172  1  0.96179977  0.03819742  0.57639504  1.0
  O  O173  1  0.96179926  0.03819525  0.42360621  1.0
