# generated using pymatgen
data_CdH20C14(NO2)2
_symmetry_space_group_name_H-M   'P 1'
_cell_length_a   14.34096546
_cell_length_b   16.33818813
_cell_length_c   16.33821766
_cell_angle_alpha   119.99991469
_cell_angle_beta   90.00005717
_cell_angle_gamma   90.00002507
_symmetry_Int_Tables_number   1
_chemical_formula_structural   CdH20C14(NO2)2
_chemical_formula_sum   'Cd6 H120 C84 N12 O24'
_cell_volume   3315.26283255
_cell_formula_units_Z   6
loop_
 _symmetry_equiv_pos_site_id
 _symmetry_equiv_pos_as_xyz
  1  'x, y, z'
loop_
 _atom_site_type_symbol
 _atom_site_label
 _atom_site_symmetry_multiplicity
 _atom_site_fract_x
 _atom_site_fract_y
 _atom_site_fract_z
 _atom_site_occupancy
  Cd  Cd0  1  0.43600468  0.61200173  0.26647402  1.0
  Cd  Cd1  1  0.60267167  0.34552799  0.61200215  1.0
  Cd  Cd2  1  0.76934285  0.73352593  0.34552821  1.0
  Cd  Cd3  1  0.93600635  0.38799868  0.73352577  1.0
  Cd  Cd4  1  0.10267295  0.65447135  0.38799742  1.0
  Cd  Cd5  1  0.26934265  0.26647429  0.65447195  1.0
  H  H6  1  0.37445530  0.61074396  0.55898296  1.0
  H  H7  1  0.54112343  0.05176052  0.61074598  1.0
  H  H8  1  0.70778748  0.44101549  0.05176148  1.0
  H  H9  1  0.87445663  0.38925639  0.44101736  1.0
  H  H10  1  0.04112068  0.94823875  0.38925595  1.0
  H  H11  1  0.20778706  0.55898255  0.94823631  1.0
  H  H12  1  0.32533316  0.70024015  0.66682961  1.0
  H  H13  1  0.49200057  0.03341173  0.70024208  1.0
  H  H14  1  0.65866313  0.33316978  0.03341237  1.0
  H  H15  1  0.82533293  0.29976084  0.33317159  1.0
  H  H16  1  0.99199665  0.96658873  0.29975962  1.0
  H  H17  1  0.15866000  0.66682821  0.96658658  1.0
  H  H18  1  0.44819936  0.68501756  0.65485806  1.0
  H  H19  1  0.61486746  0.03016078  0.68502093  1.0
  H  H20  1  0.78153003  0.34513936  0.03016180  1.0
  H  H21  1  0.94819985  0.31498286  0.34514235  1.0
  H  H22  1  0.11486394  0.96984069  0.31498155  1.0
  H  H23  1  0.28152829  0.65486017  0.96983803  1.0
  H  H24  1  0.32376626  0.74640732  0.54187925  1.0
  H  H25  1  0.49043310  0.20452840  0.74640731  1.0
  H  H26  1  0.65709642  0.45811999  0.20452893  1.0
  H  H27  1  0.82376615  0.25359297  0.45812099  1.0
  H  H28  1  0.99043253  0.79547065  0.25359307  1.0
  H  H29  1  0.15709652  0.54188012  0.79546863  1.0
  H  H30  1  0.46012331  0.86773200  0.70266811  1.0
  H  H31  1  0.62678939  0.16506907  0.86773475  1.0
  H  H32  1  0.79345398  0.29733253  0.16506707  1.0
  H  H33  1  0.96012296  0.13226844  0.29733233  1.0
  H  H34  1  0.12678838  0.83493312  0.13226749  1.0
  H  H35  1  0.29345699  0.70266844  0.83493654  1.0
  H  H36  1  0.33660305  0.87101971  0.71386619  1.0
  H  H37  1  0.50326911  0.15715624  0.87102143  1.0
  H  H38  1  0.66993370  0.28613191  0.15715435  1.0
  H  H39  1  0.83660268  0.12898130  0.28613381  1.0
  H  H40  1  0.00326811  0.84284582  0.12897941  1.0
  H  H41  1  0.16993603  0.71386962  0.84284760  1.0
  H  H42  1  0.39000109  0.90739836  0.63954602  1.0
  H  H43  1  0.55666585  0.26785578  0.90739841  1.0
  H  H44  1  0.72333047  0.36045424  0.26785469  1.0
  H  H45  1  0.89000009  0.09260130  0.36045335  1.0
  H  H46  1  0.05666405  0.73214563  0.09260216  1.0
  H  H47  1  0.22333333  0.63954947  0.73214778  1.0
  H  H48  1  0.53651415  0.73884802  0.55608453  1.0
  H  H49  1  0.70318097  0.18276560  0.73885075  1.0
  H  H50  1  0.86984428  0.44391448  0.18276373  1.0
  H  H51  1  0.03651441  0.26115265  0.44391626  1.0
  H  H52  1  0.20318010  0.81723668  0.26114977  1.0
  H  H53  1  0.36984441  0.55608586  0.81723658  1.0
  H  H54  1  0.46982470  0.65355126  0.46028109  1.0
  H  H55  1  0.63649225  0.19327223  0.65355253  1.0
  H  H56  1  0.80315494  0.53971925  0.19327206  1.0
  H  H57  1  0.96982473  0.34644919  0.53971997  1.0
  H  H58  1  0.13649286  0.80672997  0.34644850  1.0
  H  H59  1  0.30315431  0.46028031  0.80672719  1.0
  H  H60  1  0.48520729  0.86345291  0.51847016  1.0
  H  H61  1  0.65187352  0.34498345  0.86345442  1.0
  H  H62  1  0.81853612  0.48152741  0.34498296  1.0
  H  H63  1  0.98520715  0.13654684  0.48152995  1.0
  H  H64  1  0.15187173  0.65501806  0.13654689  1.0
  H  H65  1  0.31853605  0.51847287  0.65501727  1.0
  H  H66  1  0.49642756  0.99656510  0.39282400  1.0
  H  H67  1  0.66309117  0.60373975  0.99656587  1.0
  H  H68  1  0.82975730  0.60717364  0.60373796  1.0
  H  H69  1  0.99642819  0.00343537  0.60717648  1.0
  H  H70  1  0.16309259  0.39626178  0.00343546  1.0
  H  H71  1  0.32975897  0.39282170  0.39625614  1.0
  H  H72  1  0.35750864  0.80509404  0.30027012  1.0
  H  H73  1  0.52417431  0.50482543  0.80509572  1.0
  H  H74  1  0.69084124  0.69973102  0.50482378  1.0
  H  H75  1  0.85750808  0.19490557  0.69972981  1.0
  H  H76  1  0.02417390  0.49517594  0.19490602  1.0
  H  H77  1  0.19084157  0.30026841  0.49517407  1.0
  H  H78  1  0.47683884  0.82891505  0.32721411  1.0
  H  H79  1  0.64350381  0.50170376  0.82891898  1.0
  H  H80  1  0.81017002  0.67278415  0.50170101  1.0
  H  H81  1  0.97683893  0.17108540  0.67278634  1.0
  H  H82  1  0.14350337  0.49829916  0.17108425  1.0
  H  H83  1  0.31017176  0.32721258  0.49829744  1.0
  H  H84  1  0.44662210  0.16218243  0.50971329  1.0
  H  H85  1  0.61328489  0.65246762  0.16218301  1.0
  H  H86  1  0.77995128  0.49028443  0.65246616  1.0
  H  H87  1  0.94662251  0.83781800  0.49028835  1.0
  H  H88  1  0.11328633  0.34753385  0.83781825  1.0
  H  H89  1  0.27995315  0.50971228  0.34752919  1.0
  H  H90  1  0.22817309  0.06552360  0.60406163  1.0
  H  H91  1  0.39483506  0.46146156  0.06552391  1.0
  H  H92  1  0.56150142  0.39593709  0.46146102  1.0
  H  H93  1  0.72817485  0.93447588  0.39593629  1.0
  H  H94  1  0.89483493  0.53853810  0.93447669  1.0
  H  H95  1  0.06150494  0.60406080  0.53853718  1.0
  H  H96  1  0.26427237  0.89717891  0.48971728  1.0
  H  H97  1  0.43093375  0.40746204  0.89717914  1.0
  H  H98  1  0.59759986  0.51028200  0.40746084  1.0
  H  H99  1  0.76427503  0.10282060  0.51028007  1.0
  H  H100  1  0.93093291  0.59253695  0.10282116  1.0
  H  H101  1  0.09760528  0.48971662  0.59253775  1.0
  H  H102  1  0.48946120  0.29082108  0.16282051  1.0
  H  H103  1  0.65612529  0.12800163  0.29081888  1.0
  H  H104  1  0.82279452  0.83717885  0.12799717  1.0
  H  H105  1  0.98946035  0.70917869  0.83717839  1.0
  H  H106  1  0.15612496  0.87199776  0.70918015  1.0
  H  H107  1  0.32279521  0.16282073  0.87200149  1.0
  H  H108  1  0.40091072  0.30752493  0.24456043  1.0
  H  H109  1  0.56757755  0.06296720  0.30752861  1.0
  H  H110  1  0.73424185  0.75543839  0.06296646  1.0
  H  H111  1  0.90091047  0.69247403  0.75543860  1.0
  H  H112  1  0.06757793  0.93703281  0.69247127  1.0
  H  H113  1  0.23424265  0.24456039  0.93703295  1.0
  H  H114  1  0.51920265  0.33858728  0.28456492  1.0
  H  H115  1  0.68587155  0.05402188  0.33858253  1.0
  H  H116  1  0.85253512  0.71543433  0.05401959  1.0
  H  H117  1  0.01920272  0.66141267  0.71543427  1.0
  H  H118  1  0.18587260  0.94597683  0.66141741  1.0
  H  H119  1  0.35253596  0.28456529  0.94597973  1.0
  H  H120  1  0.34513087  0.76377870  0.42206377  1.0
  H  H121  1  0.51179781  0.34171622  0.76377946  1.0
  H  H122  1  0.67846329  0.57793785  0.34171483  1.0
  H  H123  1  0.84513158  0.23622232  0.57793747  1.0
  H  H124  1  0.01179684  0.65828515  0.23622166  1.0
  H  H125  1  0.17846387  0.42206087  0.65828266  1.0
  C  C126  1  0.38375458  0.68350655  0.61744492  1.0
  C  C127  1  0.55042202  0.06606291  0.68350836  1.0
  C  C128  1  0.71708531  0.38255388  0.06606303  1.0
  C  C129  1  0.88375511  0.31649451  0.38255576  1.0
  C  C130  1  0.05041848  0.93393779  0.31649368  1.0
  C  C131  1  0.21708351  0.61744418  0.93393539  1.0
  C  C132  1  0.38861827  0.75387269  0.58151979  1.0
  C  C133  1  0.55528507  0.17235437  0.75387495  1.0
  C  C134  1  0.72194907  0.41847850  0.17235501  1.0
  C  C135  1  0.88861950  0.24612696  0.41848019  1.0
  C  C136  1  0.05528280  0.82764703  0.24612622  1.0
  C  C137  1  0.22194852  0.58152167  0.82764447  1.0
  C  C138  1  0.39409217  0.85568971  0.66376331  1.0
  C  C139  1  0.56075827  0.19192906  0.85569067  1.0
  C  C140  1  0.72742219  0.33623758  0.19192792  1.0
  C  C141  1  0.89409256  0.14431065  0.33623764  1.0
  C  C142  1  0.06075726  0.80807305  0.14431147  1.0
  C  C143  1  0.22742446  0.66376330  0.80807375  1.0
  C  C144  1  0.47257910  0.72904826  0.51466902  1.0
  C  C145  1  0.63924594  0.21438060  0.72904952  1.0
  C  C146  1  0.80590998  0.48532991  0.21438015  1.0
  C  C147  1  0.97257972  0.27095148  0.48533169  1.0
  C  C148  1  0.13924577  0.78562019  0.27095081  1.0
  C  C149  1  0.30590866  0.51466965  0.78561849  1.0
  C  C150  1  0.48352326  0.78754881  0.46537089  1.0
  C  C151  1  0.65018948  0.32218029  0.78755134  1.0
  C  C152  1  0.81685353  0.53462694  0.32217844  1.0
  C  C153  1  0.98352252  0.21245094  0.53462983  1.0
  C  C154  1  0.15018709  0.67782263  0.21245006  1.0
  C  C155  1  0.31685276  0.46537264  0.67782021  1.0
  C  C156  1  0.43580963  0.00878611  0.43782855  1.0
  C  C157  1  0.60247379  0.57095631  0.00878847  1.0
  C  C158  1  0.76913887  0.56216873  0.57095539  1.0
  C  C159  1  0.93581090  0.99121359  0.56217088  1.0
  C  C160  1  0.10247406  0.42904514  0.99121338  1.0
  C  C161  1  0.26914219  0.43782796  0.42903994  1.0
  C  C162  1  0.38434864  0.93282609  0.43076813  1.0
  C  C163  1  0.55101149  0.50205693  0.93282716  1.0
  C  C164  1  0.71767761  0.56923119  0.50205697  1.0
  C  C165  1  0.88434996  0.06717356  0.56923123  1.0
  C  C166  1  0.05101233  0.49794377  0.06717488  1.0
  C  C167  1  0.21768150  0.43076686  0.49794083  1.0
  C  C168  1  0.40812243  0.83210665  0.35861178  1.0
  C  C169  1  0.57478667  0.47349593  0.83210765  1.0
  C  C170  1  0.74145286  0.64138752  0.47349399  1.0
  C  C171  1  0.90812248  0.16789373  0.64138796  1.0
  C  C172  1  0.07478625  0.52650620  0.16789329  1.0
  C  C173  1  0.24145466  0.35861056  0.52650385  1.0
  C  C174  1  0.40934216  0.10093269  0.50317311  1.0
  C  C175  1  0.57600492  0.59775751  0.10093262  1.0
  C  C176  1  0.74267064  0.49682545  0.59775664  1.0
  C  C177  1  0.90934261  0.89906628  0.49682716  1.0
  C  C178  1  0.07600507  0.40224462  0.89907016  1.0
  C  C179  1  0.24267326  0.50317192  0.40223962  1.0
  C  C180  1  0.28677163  0.04641884  0.55529694  1.0
  C  C181  1  0.45343292  0.49112107  0.04641911  1.0
  C  C182  1  0.62009932  0.44470207  0.49112068  1.0
  C  C183  1  0.78677275  0.95358070  0.44470228  1.0
  C  C184  1  0.95343280  0.50887936  0.95358254  1.0
  C  C185  1  0.12010348  0.55529516  0.50887724  1.0
  C  C186  1  0.30808534  0.95284039  0.49143681  1.0
  C  C187  1  0.47474745  0.46140392  0.95284105  1.0
  C  C188  1  0.64141353  0.50856314  0.46140239  1.0
  C  C189  1  0.80808727  0.04715988  0.50856218  1.0
  C  C190  1  0.97474721  0.53859582  0.04715966  1.0
  C  C191  1  0.14141820  0.49143554  0.53859505  1.0
  C  C192  1  0.44821859  0.43499073  0.24934737  1.0
  C  C193  1  0.61488967  0.18564671  0.43499174  1.0
  C  C194  1  0.78155881  0.75065283  0.18564426  1.0
  C  C195  1  0.94821897  0.56500898  0.75065269  1.0
  C  C196  1  0.11488984  0.81435335  0.56500759  1.0
  C  C197  1  0.28155600  0.24934600  0.81435460  1.0
  C  C198  1  0.46611624  0.33758798  0.23589720  1.0
  C  C199  1  0.63278518  0.10169140  0.33758709  1.0
  C  C200  1  0.79945017  0.76410240  0.10168963  1.0
  C  C201  1  0.96611668  0.66241247  0.76410202  1.0
  C  C202  1  0.13278551  0.89830727  0.66241156  1.0
  C  C203  1  0.29945093  0.23589645  0.89830987  1.0
  C  C204  1  0.57795968  0.76346575  0.41405158  1.0
  C  C205  1  0.74462384  0.34941496  0.76346384  1.0
  C  C206  1  0.91128862  0.58594967  0.34941340  1.0
  C  C207  1  0.07796009  0.23653427  0.58594831  1.0
  C  C208  1  0.24462147  0.65058665  0.23653821  1.0
  C  C209  1  0.41128919  0.41405212  0.65058705  1.0
  N  N210  1  0.40915305  0.76603048  0.39554101  1.0
  N  N211  1  0.57581931  0.37049225  0.76603273  1.0
  N  N212  1  0.74248550  0.60445932  0.37049011  1.0
  N  N213  1  0.90915309  0.23396990  0.60445935  1.0
  N  N214  1  0.07581832  0.62951059  0.23396979  1.0
  N  N215  1  0.24248603  0.39554018  0.62950905  1.0
  N  N216  1  0.33614908  0.11924303  0.56116158  1.0
  N  N217  1  0.50281250  0.55808125  0.11924432  1.0
  N  N218  1  0.66947818  0.43883669  0.55808059  1.0
  N  N219  1  0.83615015  0.88075656  0.43883832  1.0
  N  N220  1  0.00281265  0.44191940  0.88075643  1.0
  N  N221  1  0.16948087  0.56116060  0.44191618  1.0
  O  O222  1  0.58211624  0.69568437  0.32879000  1.0
  O  O223  1  0.74878322  0.36689440  0.69568724  1.0
  O  O224  1  0.91545016  0.67120271  0.36689388  1.0
  O  O225  1  0.08211678  0.30431635  0.67120963  1.0
  O  O226  1  0.24878161  0.63310581  0.30431167  1.0
  O  O227  1  0.41545067  0.32879697  0.63310552  1.0
  O  O228  1  0.64812794  0.81060802  0.46109894  1.0
  O  O229  1  0.81479697  0.34950893  0.81061085  1.0
  O  O230  1  0.98146380  0.53889151  0.34950571  1.0
  O  O231  1  0.14812757  0.18939065  0.53890156  1.0
  O  O232  1  0.31479663  0.65049417  0.18938956  1.0
  O  O233  1  0.48146300  0.46110824  0.65049501  1.0
  O  O234  1  0.38246707  0.44575385  0.20369395  1.0
  O  O235  1  0.54913819  0.24205869  0.44575755  1.0
  O  O236  1  0.71580387  0.79630731  0.24206322  1.0
  O  O237  1  0.88246819  0.55424580  0.79630664  1.0
  O  O238  1  0.04913832  0.75793989  0.55424098  1.0
  O  O239  1  0.21580306  0.20369357  0.75793906  1.0
  O  O240  1  0.50110699  0.50381393  0.30596452  1.0
  O  O241  1  0.66778573  0.19785290  0.50381160  1.0
  O  O242  1  0.83444785  0.69404010  0.19785158  1.0
  O  O243  1  0.00110765  0.49618601  0.69403526  1.0
  O  O244  1  0.16778582  0.80214651  0.49618806  1.0
  O  O245  1  0.33444924  0.30595950  0.80214771  1.0
