# generated using pymatgen
data_ZnH8C24I4N2O7
_symmetry_space_group_name_H-M   'P 1'
_cell_length_a   9.58106935
_cell_length_b   9.92973107
_cell_length_c   26.46104602
_cell_angle_alpha   98.13355207
_cell_angle_beta   90.49706158
_cell_angle_gamma   84.94270371
_symmetry_Int_Tables_number   1
_chemical_formula_structural   ZnH8C24I4N2O7
_chemical_formula_sum   'Zn2 H16 C48 I8 N4 O14'
_cell_volume   2482.39319498
_cell_formula_units_Z   2
loop_
 _symmetry_equiv_pos_site_id
 _symmetry_equiv_pos_as_xyz
  1  'x, y, z'
loop_
 _atom_site_type_symbol
 _atom_site_label
 _atom_site_symmetry_multiplicity
 _atom_site_fract_x
 _atom_site_fract_y
 _atom_site_fract_z
 _atom_site_occupancy
  Zn  Zn0  1  0.13264485  0.53831632  0.48717287  1.0
  Zn  Zn1  1  0.86780231  0.48430948  0.52631279  1.0
  H  H2  1  0.02145054  0.60655285  0.33392062  1.0
  H  H3  1  0.58416832  0.39075818  0.28525388  1.0
  H  H4  1  0.38303200  0.82949813  0.99482118  1.0
  H  H5  1  0.60525436  0.14625444  0.01645896  1.0
  H  H6  1  0.44773764  0.83206795  0.06407100  1.0
  H  H7  1  0.54341640  0.14425597  0.94698503  1.0
  H  H8  1  0.27112917  0.68692634  0.41524928  1.0
  H  H9  1  0.67880533  0.34458281  0.59310012  1.0
  H  H10  1  0.99092563  0.37578298  0.66934101  1.0
  H  H11  1  0.38476514  0.43970298  0.52413119  1.0
  H  H12  1  0.62343794  0.58208666  0.47770551  1.0
  H  H13  1  0.93097628  0.60179018  0.24467262  1.0
  H  H14  1  0.07593149  0.36286380  0.75823876  1.0
  H  H15  1  0.53495972  0.82834596  0.15180816  1.0
  H  H16  1  0.45933867  0.14857284  0.85888718  1.0
  H  H17  1  0.41637469  0.59822241  0.73019164  1.0
  C  C18  1  0.91609511  0.76382514  0.51829749  1.0
  C  C19  1  0.33797497  0.61164187  0.88589079  1.0
  C  C20  1  0.85313518  0.50796425  0.36041767  1.0
  C  C21  1  0.15591963  0.49010860  0.64914153  1.0
  C  C22  1  0.43959381  0.61275405  0.98820145  1.0
  C  C23  1  0.54920885  0.36315951  0.02309739  1.0
  C  C24  1  0.49868909  0.36178842  0.97060901  1.0
  C  C25  1  0.49065891  0.61420336  0.04062769  1.0
  C  C26  1  0.44422587  0.48704078  0.95427947  1.0
  C  C27  1  0.54481759  0.48890169  0.05699988  1.0
  C  C28  1  0.38660519  0.73199608  0.97009838  1.0
  C  C29  1  0.03995411  0.26010543  0.46564595  1.0
  C  C30  1  0.60187082  0.24375553  0.04118482  1.0
  C  C31  1  0.33643001  0.73280798  0.92012119  1.0
  C  C32  1  0.65221632  0.24285922  0.09112436  1.0
  C  C33  1  0.91559582  0.52268929  0.41294833  1.0
  C  C34  1  0.09556987  0.49123870  0.59666345  1.0
  C  C35  1  0.48808329  0.73473233  0.07526995  1.0
  C  C36  1  0.50263533  0.24149404  0.93582151  1.0
  C  C37  1  0.88731925  0.89146069  0.49407065  1.0
  C  C38  1  0.01904402  0.14807155  0.42182649  1.0
  C  C39  1  0.98470390  0.95895599  0.47299528  1.0
  C  C40  1  0.59590652  0.48804582  0.10801424  1.0
  C  C41  1  0.97154120  0.02641478  0.42732109  1.0
  C  C42  1  0.57889787  0.50899535  0.49856982  1.0
  C  C43  1  0.42747097  0.50110197  0.49789958  1.0
  C  C44  1  0.64323395  0.62068292  0.19438821  1.0
  C  C45  1  0.35318498  0.35653784  0.81590764  1.0
  C  C46  1  0.70611515  0.36779184  0.17796002  1.0
  C  C47  1  0.28340627  0.60797544  0.83313550  1.0
  C  C48  1  0.67886621  0.44044640  0.29626003  1.0
  C  C49  1  0.32425540  0.54754890  0.71643549  1.0
  C  C50  1  0.73118311  0.44299834  0.34586721  1.0
  C  C51  1  0.39370986  0.48793035  0.90318848  1.0
  C  C52  1  0.27736946  0.55186137  0.66651582  1.0
  C  C53  1  0.92399366  0.56226782  0.32273684  1.0
  C  C54  1  0.08509666  0.42294238  0.68311246  1.0
  C  C55  1  0.87436679  0.55856579  0.27317783  1.0
  C  C56  1  0.13163725  0.41658650  0.73266131  1.0
  C  C57  1  0.75006922  0.49898882  0.26046476  1.0
  C  C58  1  0.25095285  0.48055128  0.74914373  1.0
  C  C59  1  0.36745048  0.64188241  0.43182498  1.0
  C  C60  1  0.61947276  0.34571047  0.55698276  1.0
  C  C61  1  0.59142108  0.61337409  0.14147602  1.0
  C  C62  1  0.40047403  0.36303317  0.86943506  1.0
  C  C63  1  0.53745087  0.73414664  0.12492209  1.0
  C  C64  1  0.45485156  0.24240246  0.88597946  1.0
  C  C65  1  0.65104274  0.36409721  0.12531616  1.0
  I  I66  1  0.06830494  0.19986112  0.35046379  1.0
  I  I67  1  0.67473057  0.94627708  0.48023811  1.0
  I  I68  1  0.39458655  0.66666667  0.62344171  1.0
  I  I69  1  0.62384100  0.32625987  0.39126747  1.0
  I  I70  1  0.26663861  0.92873548  0.90345577  1.0
  I  I71  1  0.72322211  0.04715040  0.10771129  1.0
  I  I72  1  0.90571911  0.89641237  0.36242882  1.0
  I  I73  1  0.19624880  0.95375710  0.50057551  1.0
  N  N74  1  0.69566159  0.49557613  0.20936184  1.0
  N  N75  1  0.29905178  0.48126678  0.80104126  1.0
  N  N76  1  0.66199626  0.44630663  0.52902031  1.0
  N  N77  1  0.33492272  0.56577586  0.47133625  1.0
  O  O78  1  0.04456379  0.72110492  0.52298806  1.0
  O  O79  1  0.36008355  0.25014560  0.78565852  1.0
  O  O80  1  0.22604793  0.70855710  0.81667334  1.0
  O  O81  1  0.76053746  0.26666922  0.19492169  1.0
  O  O82  1  0.48502360  0.65218974  0.41631551  1.0
  O  O83  1  0.53354012  0.26507285  0.54275487  1.0
  O  O84  1  0.95040941  0.27700064  0.50157898  1.0
  O  O85  1  0.81358810  0.69899564  0.52808455  1.0
  O  O86  1  0.13854830  0.33460477  0.46031661  1.0
  O  O87  1  0.03271253  0.57400213  0.41936303  1.0
  O  O88  1  0.96219881  0.49199506  0.59349447  1.0
  O  O89  1  0.84662689  0.48244641  0.44790277  1.0
  O  O90  1  0.17946056  0.48987475  0.55999389  1.0
  O  O91  1  0.64214382  0.72789733  0.22405174  1.0
