# generated using pymatgen
data_ZnH16C23N5O7
_symmetry_space_group_name_H-M   'P 1'
_cell_length_a   15.89287041
_cell_length_b   17.09441975
_cell_length_c   19.37339515
_cell_angle_alpha   89.44164873
_cell_angle_beta   86.87926358
_cell_angle_gamma   86.75989437
_symmetry_Int_Tables_number   1
_chemical_formula_structural   ZnH16C23N5O7
_chemical_formula_sum   'Zn2 H32 C46 N10 O14'
_cell_volume   5247.02830257
_cell_formula_units_Z   2
loop_
 _symmetry_equiv_pos_site_id
 _symmetry_equiv_pos_as_xyz
  1  'x, y, z'
loop_
 _atom_site_type_symbol
 _atom_site_label
 _atom_site_symmetry_multiplicity
 _atom_site_fract_x
 _atom_site_fract_y
 _atom_site_fract_z
 _atom_site_occupancy
  Zn  Zn0  1  0.58933505  0.50649657  0.49679604  1.0
  Zn  Zn1  1  0.41152920  0.49448296  0.50306639  1.0
  H  H2  1  0.88370943  0.47782069  0.59426475  1.0
  H  H3  1  0.11722524  0.52243680  0.40591806  1.0
  H  H4  1  0.12330968  0.43730433  0.61629335  1.0
  H  H5  1  0.87797986  0.56244524  0.38374065  1.0
  H  H6  1  0.28289328  0.44204241  0.60520311  1.0
  H  H7  1  0.71840252  0.55796350  0.39472066  1.0
  H  H8  1  0.62253946  0.43143652  0.84511482  1.0
  H  H9  1  0.37524233  0.56556383  0.15569870  1.0
  H  H10  1  0.37635950  0.55185147  0.85360019  1.0
  H  H11  1  0.62269158  0.44753150  0.14598555  1.0
  H  H12  1  0.37542949  0.54590035  0.72439952  1.0
  H  H13  1  0.62613956  0.45682275  0.27487992  1.0
  H  H14  1  0.54994331  0.89495053  0.58344873  1.0
  H  H15  1  0.45000826  0.10586749  0.41645926  1.0
  H  H16  1  0.61020490  0.10835438  0.58881225  1.0
  H  H17  1  0.39010122  0.89242304  0.41082480  1.0
  H  H18  1  0.72502990  0.47975942  0.59747629  1.0
  H  H19  1  0.27584237  0.52080414  0.40260317  1.0
  H  H20  1  0.62056226  0.37457480  0.66397306  1.0
  H  H21  1  0.38022885  0.62632722  0.33592715  1.0
  H  H22  1  0.66129467  0.69771210  0.56484370  1.0
  H  H23  1  0.65256739  0.70900732  0.65714923  1.0
  H  H24  1  0.66194040  0.79369402  0.60250511  1.0
  H  H25  1  0.33808489  0.20651135  0.39756193  1.0
  H  H26  1  0.33826856  0.30245325  0.43536144  1.0
  H  H27  1  0.34687170  0.29133965  0.34301911  1.0
  H  H28  1  0.73955654  0.29963408  0.61077529  1.0
  H  H29  1  0.71869559  0.30346757  0.52032534  1.0
  H  H30  1  0.74588833  0.21097721  0.56150335  1.0
  H  H31  1  0.28137708  0.69749290  0.47913234  1.0
  H  H32  1  0.26086648  0.70108657  0.38864048  1.0
  H  H33  1  0.25445550  0.78988039  0.43771111  1.0
  C  C34  1  0.52805457  0.34980441  0.49007686  1.0
  C  C35  1  0.47188347  0.65104784  0.50972871  1.0
  C  C36  1  0.53585778  0.26201145  0.49112127  1.0
  C  C37  1  0.46423118  0.73881874  0.50865975  1.0
  C  C38  1  0.48996702  0.21947787  0.44516071  1.0
  C  C39  1  0.51002755  0.78132923  0.55468072  1.0
  C  C40  1  0.48538434  0.13883208  0.45169979  1.0
  C  C41  1  0.51470803  0.86196756  0.54811176  1.0
  C  C42  1  0.52790507  0.09915555  0.50457265  1.0
  C  C43  1  0.47231571  0.90162158  0.49514861  1.0
  C  C44  1  0.57732890  0.13996296  0.54826240  1.0
  C  C45  1  0.42296366  0.86082670  0.45139263  1.0
  C  C46  1  0.58143575  0.22097216  0.54149914  1.0
  C  C47  1  0.41882509  0.77983734  0.45817965  1.0
  C  C48  1  0.23930754  0.50362091  0.44896091  1.0
  C  C49  1  0.76167349  0.49683719  0.55115391  1.0
  C  C50  1  0.15191847  0.50437009  0.45082464  1.0
  C  C51  1  0.84908355  0.49586470  0.54931865  1.0
  C  C52  1  0.10932408  0.48131699  0.51236385  1.0
  C  C53  1  0.89181276  0.51872279  0.48778239  1.0
  C  C54  1  0.15573481  0.45652776  0.56868621  1.0
  C  C55  1  0.84548463  0.54343201  0.43138778  1.0
  C  C56  1  0.49646690  0.48699720  0.63573078  1.0
  C  C57  1  0.50483276  0.51435598  0.36413855  1.0
  C  C58  1  0.24310603  0.45857961  0.56272419  1.0
  C  C59  1  0.75809211  0.54153145  0.43729546  1.0
  C  C60  1  0.56751173  0.45307209  0.74712958  1.0
  C  C61  1  0.43249998  0.54702027  0.25313636  1.0
  C  C62  1  0.56836414  0.45699114  0.81907690  1.0
  C  C63  1  0.43031241  0.54140547  0.18139498  1.0
  C  C64  1  0.49912368  0.49192583  0.85766848  1.0
  C  C65  1  0.49889531  0.50566385  0.14258235  1.0
  C  C66  1  0.42946479  0.52431269  0.82325890  1.0
  C  C67  1  0.56992366  0.47545342  0.17648441  1.0
  C  C68  1  0.42870565  0.52059313  0.75171625  1.0
  C  C69  1  0.57205417  0.48094777  0.24786369  1.0
  C  C70  1  0.49715077  0.48511050  0.71309086  1.0
  C  C71  1  0.50365664  0.51610273  0.28679184  1.0
  C  C72  1  0.49737389  0.49994196  0.06699666  1.0
  C  C73  1  0.49806395  0.49364300  0.93358035  1.0
  C  C74  1  0.63870746  0.41023575  0.70782415  1.0
  C  C75  1  0.36166013  0.59001513  0.29268628  1.0
  C  C76  1  0.63583224  0.73548587  0.60764930  1.0
  C  C77  1  0.36384682  0.26487260  0.39245745  1.0
  C  C78  1  0.71271044  0.26896384  0.56839160  1.0
  C  C79  1  0.28759511  0.73186690  0.43101028  1.0
  N  N80  1  0.43075136  0.53066520  0.96778112  1.0
  N  N81  1  0.56222285  0.45898434  0.03310181  1.0
  N  N82  1  0.43038205  0.53395464  0.03557253  1.0
  N  N83  1  0.56264536  0.45578641  0.96528722  1.0
  N  N84  1  0.52501416  0.01790286  0.51809338  1.0
  N  N85  1  0.47520494  0.98287953  0.48163616  1.0
  N  N86  1  0.28381404  0.48201291  0.50407539  1.0
  N  N87  1  0.71722910  0.51839910  0.49597908  1.0
  N  N88  1  0.02038963  0.47963926  0.52190279  1.0
  N  N89  1  0.98074169  0.52034186  0.47827034  1.0
  O  O90  1  0.59494498  0.38714409  0.48522954  1.0
  O  O91  1  0.40491648  0.61381914  0.51445170  1.0
  O  O92  1  0.45281745  0.37956234  0.49619736  1.0
  O  O93  1  0.54710188  0.62118757  0.50375768  1.0
  O  O94  1  0.56792923  0.49166585  0.60297723  1.0
  O  O95  1  0.43347806  0.50940817  0.39702613  1.0
  O  O96  1  0.42519094  0.48554209  0.60939642  1.0
  O  O97  1  0.57617950  0.51593572  0.39033169  1.0
  O  O98  1  0.71256181  0.41072420  0.72341703  1.0
  O  O99  1  0.28752146  0.58899831  0.27786702  1.0
  O  O100  1  0.54534991  0.74054228  0.60866782  1.0
  O  O101  1  0.45432006  0.26027935  0.39133574  1.0
  O  O102  1  0.62502480  0.26099816  0.58859682  1.0
  O  O103  1  0.37537177  0.73977705  0.41101935  1.0
