# generated using pymatgen
data_Zn4H12C27N12O13
_symmetry_space_group_name_H-M   'P 1'
_cell_length_a   17.38197824
_cell_length_b   18.09234897
_cell_length_c   18.46759369
_cell_angle_alpha   63.18542739
_cell_angle_beta   62.43532280
_cell_angle_gamma   61.67977567
_symmetry_Int_Tables_number   1
_chemical_formula_structural   Zn4H12C27N12O13
_chemical_formula_sum   'Zn8 H24 C54 N24 O26'
_cell_volume   4328.09646044
_cell_formula_units_Z   2
loop_
 _symmetry_equiv_pos_site_id
 _symmetry_equiv_pos_as_xyz
  1  'x, y, z'
loop_
 _atom_site_type_symbol
 _atom_site_label
 _atom_site_symmetry_multiplicity
 _atom_site_fract_x
 _atom_site_fract_y
 _atom_site_fract_z
 _atom_site_occupancy
  Zn  Zn0  1  0.00918992  0.96838671  0.90798511  1.0
  Zn  Zn1  1  0.19481076  0.96360860  0.91707269  1.0
  Zn  Zn2  1  0.01023711  0.97282274  0.07712403  1.0
  Zn  Zn3  1  0.01713369  0.13858382  0.91675796  1.0
  Zn  Zn4  1  0.60884557  0.55986260  0.49068887  1.0
  Zn  Zn5  1  0.41978862  0.55315774  0.50133419  1.0
  Zn  Zn6  1  0.60256012  0.38447260  0.48943301  1.0
  Zn  Zn7  1  0.59226380  0.54784174  0.32954453  1.0
  H  H8  1  0.38078444  0.77083327  0.78789661  1.0
  H  H9  1  0.47619421  0.68224872  0.68423089  1.0
  H  H10  1  0.14779760  0.85937365  0.70708715  1.0
  H  H11  1  0.11719573  0.72954391  0.67450087  1.0
  H  H12  1  0.80676633  0.86810746  0.24533746  1.0
  H  H13  1  0.72224654  0.76125551  0.34632876  1.0
  H  H14  1  0.88537803  0.76630930  0.04176053  1.0
  H  H15  1  0.70474576  0.72427643  0.06535995  1.0
  H  H16  1  0.90876921  0.31866505  0.71503562  1.0
  H  H17  1  0.80947296  0.41750632  0.62001791  1.0
  H  H18  1  0.79795280  0.11664336  0.79418541  1.0
  H  H19  1  0.76117933  0.10763056  0.64220542  1.0
  H  H20  1  0.15428241  0.74405497  0.23651788  1.0
  H  H21  1  0.24265761  0.64971857  0.34121530  1.0
  H  H22  1  0.33764998  0.89401744  0.09552462  1.0
  H  H23  1  0.51111183  0.84644699  0.06410035  1.0
  H  H24  1  0.16629397  0.30743849  0.81294686  1.0
  H  H25  1  0.25629205  0.40838680  0.70459722  1.0
  H  H26  1  0.36351604  0.10437046  0.69335116  1.0
  H  H27  1  0.56893623  0.09648205  0.62439751  1.0
  H  H28  1  0.81611796  0.31978105  0.05419734  1.0
  H  H29  1  0.72160395  0.41341219  0.15317245  1.0
  H  H30  1  0.92140945  0.10666751  0.25355935  1.0
  H  H31  1  0.75898543  0.10122023  0.44384045  1.0
  C  C32  1  0.19898387  0.87071611  0.81808502  1.0
  C  C33  1  0.25773213  0.81809511  0.75588319  1.0
  C  C34  1  0.35092857  0.76983760  0.74801011  1.0
  C  C35  1  0.40389422  0.72090862  0.69022690  1.0
  C  C36  1  0.36553728  0.71867730  0.63942720  1.0
  C  C37  1  0.42280885  0.65721975  0.58529413  1.0
  C  C38  1  0.27264728  0.77021008  0.64559268  1.0
  C  C39  1  0.21924739  0.81901455  0.70344694  1.0
  C  C40  1  0.15762102  0.75631082  0.60995823  1.0
  C  C41  1  0.90434023  0.88532085  0.07875628  1.0
  C  C42  1  0.85046307  0.82431784  0.13743202  1.0
  C  C43  1  0.80484095  0.82252954  0.22340788  1.0
  C  C44  1  0.75835879  0.76298479  0.27948982  1.0
  C  C45  1  0.75566217  0.70450600  0.25129011  1.0
  C  C46  1  0.69998216  0.64525455  0.31295711  1.0
  C  C47  1  0.80182408  0.70692865  0.16469623  1.0
  C  C48  1  0.84870667  0.76620276  0.10818354  1.0
  C  C49  1  0.75431585  0.66108189  0.08632600  1.0
  C  C50  1  0.92010184  0.15119057  0.81518375  1.0
  C  C51  1  0.86106074  0.21104070  0.75855529  1.0
  C  C52  1  0.86305514  0.29647228  0.71086628  1.0
  C  C53  1  0.80754591  0.35142169  0.65865863  1.0
  C  C54  1  0.74838944  0.32310887  0.65356016  1.0
  C  C55  1  0.69561419  0.38167548  0.59113712  1.0
  C  C56  1  0.74490643  0.23794013  0.70402552  1.0
  C  C57  1  0.80137576  0.18219499  0.75520845  1.0
  C  C58  1  0.69496536  0.14325645  0.67991799  1.0
  C  C59  1  0.19312033  0.87429291  0.09395169  1.0
  C  C60  1  0.24368950  0.82150209  0.15789328  1.0
  C  C61  1  0.21436411  0.75512273  0.22879911  1.0
  C  C62  1  0.26309853  0.70319328  0.28704128  1.0
  C  C63  1  0.34103957  0.71691874  0.27583233  1.0
  C  C64  1  0.40102414  0.65020888  0.33045264  1.0
  C  C65  1  0.36601502  0.78769927  0.20778615  1.0
  C  C66  1  0.31851562  0.83918286  0.14838659  1.0
  C  C67  1  0.50612394  0.83457701  0.12888053  1.0
  C  C68  1  0.20689535  0.13970604  0.82533186  1.0
  C  C69  1  0.26106990  0.19926951  0.76118964  1.0
  C  C70  1  0.22942412  0.28554826  0.76331926  1.0
  C  C71  1  0.27880682  0.34164292  0.70289306  1.0
  C  C72  1  0.35973097  0.31332264  0.63895040  1.0
  C  C73  1  0.41529637  0.37314191  0.58149244  1.0
  C  C74  1  0.38874631  0.22767353  0.63531865  1.0
  C  C75  1  0.34071137  0.17053769  0.69660966  1.0
  C  C76  1  0.54794108  0.13485573  0.56735701  1.0
  C  C77  1  0.92612096  0.14962607  0.09145787  1.0
  C  C78  1  0.87197220  0.20689002  0.14876884  1.0
  C  C79  1  0.81732730  0.29387857  0.11966837  1.0
  C  C80  1  0.76495767  0.34578707  0.17447637  1.0
  C  C81  1  0.76624748  0.31237691  0.25886306  1.0
  C  C82  1  0.70192063  0.36903855  0.31664144  1.0
  C  C83  1  0.82497957  0.22606160  0.28609396  1.0
  C  C84  1  0.87658055  0.17344657  0.23187648  1.0
  C  C85  1  0.80459509  0.12985700  0.43878066  1.0
  N  N86  1  0.23176538  0.77650631  0.59087319  1.0
  N  N87  1  0.14511553  0.77275083  0.53805231  1.0
  N  N88  1  0.21342874  0.80419112  0.47381612  1.0
  N  N89  1  0.26622281  0.80671029  0.50378691  1.0
  N  N90  1  0.80386436  0.64735680  0.13259666  1.0
  N  N91  1  0.77486602  0.58598749  0.07466578  1.0
  N  N92  1  0.83857108  0.52536000  0.11532588  1.0
  N  N93  1  0.85663382  0.56046873  0.15084087  1.0
  N  N94  1  0.68073978  0.20720004  0.70803828  1.0
  N  N95  1  0.61401437  0.13744048  0.69942203  1.0
  N  N96  1  0.54981511  0.19942597  0.74005574  1.0
  N  N97  1  0.58810238  0.24226185  0.74578926  1.0
  N  N98  1  0.43990512  0.80781391  0.19958901  1.0
  N  N99  1  0.56262322  0.84248441  0.15211885  1.0
  N  N100  1  0.52908815  0.82044171  0.23961533  1.0
  N  N101  1  0.45602793  0.79967271  0.26903925  1.0
  N  N102  1  0.46556353  0.19886394  0.56679891  1.0
  N  N103  1  0.59865490  0.13396051  0.48755397  1.0
  N  N104  1  0.54527111  0.19919972  0.43782082  1.0
  N  N105  1  0.46544873  0.23913556  0.48383771  1.0
  N  N106  1  0.83642245  0.19036439  0.36834272  1.0
  N  N107  1  0.83241907  0.11793344  0.50023163  1.0
  N  N108  1  0.88199476  0.17279979  0.46571548  1.0
  N  N109  1  0.88518756  0.21698797  0.38682005  1.0
  O  O110  1  0.05963962  0.00989939  0.95210909  1.0
  O  O111  1  0.23994836  0.87798308  0.85554016  1.0
  O  O112  1  0.11277255  0.90363928  0.82803916  1.0
  O  O113  1  0.37970619  0.62221056  0.57728548  1.0
  O  O114  1  0.50917800  0.64302279  0.55570044  1.0
  O  O115  1  0.91177431  0.92760979  0.11357688  1.0
  O  O116  1  0.93949278  0.88989883  0.99946695  1.0
  O  O117  1  0.66799954  0.62164830  0.28062467  1.0
  O  O118  1  0.68812363  0.62530324  0.39222026  1.0
  O  O119  1  0.95871848  0.18657772  0.82866529  1.0
  O  O120  1  0.92642432  0.07034560  0.84545487  1.0
  O  O121  1  0.67525536  0.34269290  0.56353067  1.0
  O  O122  1  0.67833800  0.46426404  0.56948943  1.0
  O  O123  1  0.11022417  0.87647773  0.12040053  1.0
  O  O124  1  0.23639145  0.91206924  0.01830681  1.0
  O  O125  1  0.48570863  0.62016995  0.28885261  1.0
  O  O126  1  0.36219780  0.62660345  0.41062162  1.0
  O  O127  1  0.12439226  0.17644050  0.86727125  1.0
  O  O128  1  0.24673722  0.05765027  0.83262476  1.0
  O  O129  1  0.50191929  0.33649035  0.55351916  1.0
  O  O130  1  0.37099234  0.45533231  0.56879394  1.0
  O  O131  1  0.93011131  0.18636947  0.01292407  1.0
  O  O132  1  0.96408932  0.06796601  0.12562840  1.0
  O  O133  1  0.68495824  0.33158564  0.39688608  1.0
  O  O134  1  0.66687841  0.45035082  0.28038823  1.0
  O  O135  1  0.55484401  0.51331911  0.45462070  1.0
