# generated using pymatgen
data_ZnH11C33N5O9
_symmetry_space_group_name_H-M   'P 1'
_cell_length_a   14.13882450
_cell_length_b   15.10339410
_cell_length_c   23.77281359
_cell_angle_alpha   88.10994677
_cell_angle_beta   89.84947072
_cell_angle_gamma   89.17021625
_symmetry_Int_Tables_number   1
_chemical_formula_structural   ZnH11C33N5O9
_chemical_formula_sum   'Zn2 H22 C66 N10 O18'
_cell_volume   5073.24169558
_cell_formula_units_Z   2
loop_
 _symmetry_equiv_pos_site_id
 _symmetry_equiv_pos_as_xyz
  1  'x, y, z'
loop_
 _atom_site_type_symbol
 _atom_site_label
 _atom_site_symmetry_multiplicity
 _atom_site_fract_x
 _atom_site_fract_y
 _atom_site_fract_z
 _atom_site_occupancy
  Zn  Zn0  1  0.39631065  0.50340543  0.49983818  1.0
  Zn  Zn1  1  0.60380281  0.49659661  0.50019280  1.0
  H  H2  1  0.42755708  0.28281694  0.96173302  1.0
  H  H3  1  0.57233770  0.71721636  0.03828829  1.0
  H  H4  1  0.43206165  0.29401964  0.06768856  1.0
  H  H5  1  0.56786431  0.70599946  0.93234059  1.0
  H  H6  1  0.65706638  0.52709978  0.21424816  1.0
  H  H7  1  0.64777871  0.47884126  0.78678069  1.0
  H  H8  1  0.65611062  0.53402495  0.31771238  1.0
  H  H9  1  0.65049147  0.47043830  0.68333211  1.0
  H  H10  1  0.34954271  0.52972752  0.31674848  1.0
  H  H11  1  0.34393653  0.46578756  0.68227562  1.0
  H  H12  1  0.35214649  0.52133490  0.21330569  1.0
  H  H13  1  0.34287174  0.47273829  0.78573184  1.0
  H  H14  1  0.37789502  0.77815254  0.56023717  1.0
  H  H15  1  0.62209965  0.22185458  0.43974967  1.0
  H  H16  1  0.30544145  0.91959719  0.58544317  1.0
  H  H17  1  0.69451772  0.08044140  0.41453547  1.0
  H  H18  1  0.31734745  0.54749007  0.40712185  1.0
  H  H19  1  0.68280092  0.45261498  0.59291741  1.0
  H  H20  1  0.31847002  0.44996067  0.59103513  1.0
  H  H21  1  0.68166830  0.54986686  0.40895748  1.0
  H  H22  1  0.67991460  0.79063391  0.42682289  1.0
  H  H23  1  0.31986985  0.20944798  0.57300822  1.0
  C  C24  1  0.50264278  0.33381590  0.48729709  1.0
  C  C25  1  0.49739494  0.66621068  0.51269518  1.0
  C  C26  1  0.59012612  0.52741188  0.23704152  1.0
  C  C27  1  0.58171910  0.47552757  0.76351741  1.0
  C  C28  1  0.58909028  0.53163964  0.29537811  1.0
  C  C29  1  0.58279566  0.47086159  0.70525952  1.0
  C  C30  1  0.50264569  0.53199200  0.32472055  1.0
  C  C31  1  0.49739773  0.46801470  0.67531504  1.0
  C  C32  1  0.41721262  0.52924882  0.29480082  1.0
  C  C33  1  0.41092604  0.46826460  0.70462562  1.0
  C  C34  1  0.41823472  0.52458138  0.23654345  1.0
  C  C35  1  0.40983072  0.47250619  0.76295947  1.0
  C  C36  1  0.50466205  0.52306871  0.20810746  1.0
  C  C37  1  0.49525397  0.47695843  0.79192111  1.0
  C  C38  1  0.57182757  0.80916982  0.47653726  1.0
  C  C39  1  0.42804750  0.19087416  0.52336691  1.0
  C  C40  1  0.50136482  0.76521303  0.50896867  1.0
  C  C41  1  0.49859089  0.23481299  0.49099048  1.0
  C  C42  1  0.43228920  0.81368484  0.53645299  1.0
  C  C43  1  0.56766653  0.18633655  0.46351298  1.0
  C  C44  1  0.43089363  0.90649234  0.53377420  1.0
  C  C45  1  0.56902534  0.09353137  0.46616610  1.0
  C  C46  1  0.50121504  0.53110297  0.38698707  1.0
  C  C47  1  0.49890338  0.46889770  0.61304941  1.0
  C  C48  1  0.50150153  0.95261694  0.50161651  1.0
  C  C49  1  0.49840608  0.04741748  0.49832190  1.0
  C  C50  1  0.57333388  0.90355163  0.47305136  1.0
  C  C51  1  0.42657016  0.09649209  0.52687507  1.0
  C  C52  1  0.35945640  0.95536554  0.56148276  1.0
  C  C53  1  0.64047173  0.04466604  0.43846073  1.0
  C  C54  1  0.35608816  0.04663658  0.55841772  1.0
  C  C55  1  0.64383571  0.95340033  0.44151642  1.0
  C  C56  1  0.20037574  0.52486305  0.45225260  1.0
  C  C57  1  0.79975523  0.47502749  0.54774247  1.0
  C  C58  1  0.20121697  0.47181202  0.54631925  1.0
  C  C59  1  0.79891057  0.52805470  0.45367338  1.0
  C  C60  1  0.10092255  0.47631366  0.54986551  1.0
  C  C61  1  0.89919877  0.52352330  0.45012061  1.0
  C  C62  1  0.10009718  0.52148154  0.44930517  1.0
  C  C63  1  0.90002838  0.47835604  0.55067799  1.0
  C  C64  1  0.05060340  0.49940626  0.49978133  1.0
  C  C65  1  0.94951940  0.50041479  0.50020051  1.0
  C  C66  1  0.05032635  0.46075406  0.60184784  1.0
  C  C67  1  0.94978913  0.53912073  0.39814464  1.0
  C  C68  1  0.04861513  0.53816855  0.39773525  1.0
  C  C69  1  0.95149893  0.46170889  0.60225212  1.0
  C  C70  1  0.52109767  0.56628368  0.87360364  1.0
  C  C71  1  0.47878438  0.43374975  0.12642358  1.0
  C  C72  1  0.46925100  0.40776800  0.88459894  1.0
  C  C73  1  0.53060840  0.59226499  0.11543294  1.0
  C  C74  1  0.47165645  0.41615928  0.94653903  1.0
  C  C75  1  0.52820716  0.58388228  0.05348803  1.0
  C  C76  1  0.49867152  0.49684757  0.97018245  1.0
  C  C77  1  0.50119280  0.50319398  0.02984629  1.0
  C  C78  1  0.52320672  0.57137157  0.93575292  1.0
  C  C79  1  0.47667035  0.42866588  0.06427631  1.0
  C  C80  1  0.44795173  0.34397929  0.98124446  1.0
  C  C81  1  0.55193880  0.65605604  0.01877850  1.0
  C  C82  1  0.45048236  0.35020223  0.04003849  1.0
  C  C83  1  0.54941030  0.64983043  0.95998788  1.0
  C  C84  1  0.27918455  0.08891211  0.58609322  1.0
  C  C85  1  0.72077185  0.91111988  0.41386706  1.0
  C  C86  1  0.09770794  0.45042543  0.65468717  1.0
  C  C87  1  0.90240087  0.54951700  0.34530976  1.0
  C  C88  1  0.09494369  0.54863085  0.34453728  1.0
  C  C89  1  0.90516935  0.45131948  0.65545191  1.0
  N  N90  1  0.49486874  0.48392044  0.85223879  1.0
  N  N91  1  0.50498285  0.51612124  0.14779333  1.0
  N  N92  1  0.24862460  0.49885951  0.49929937  1.0
  N  N93  1  0.75150353  0.50103371  0.50069984  1.0
  N  N94  1  0.21555257  0.12432231  0.60827927  1.0
  N  N95  1  0.78442279  0.87573601  0.39169977  1.0
  N  N96  1  0.13192448  0.44474225  0.69938536  1.0
  N  N97  1  0.86818546  0.55526576  0.30061395  1.0
  N  N98  1  0.12798959  0.55539187  0.29951874  1.0
  N  N99  1  0.87212169  0.44463401  0.70047935  1.0
  O  O100  1  0.42507416  0.37687700  0.48320940  1.0
  O  O101  1  0.57502934  0.62320375  0.51658646  1.0
  O  O102  1  0.41495353  0.63286594  0.51210669  1.0
  O  O103  1  0.58511181  0.36708905  0.48811843  1.0
  O  O104  1  0.42219482  0.53336451  0.41316749  1.0
  O  O105  1  0.57797302  0.46697226  0.58690215  1.0
  O  O106  1  0.42077405  0.47418308  0.58583909  1.0
  O  O107  1  0.57938125  0.52547933  0.41415198  1.0
  O  O108  1  0.54054550  0.62898833  0.84165895  1.0
  O  O109  1  0.45938964  0.37103332  0.15836761  1.0
  O  O110  1  0.44737548  0.33934412  0.86171316  1.0
  O  O111  1  0.55249946  0.66069468  0.13831857  1.0
  O  O112  1  0.24543540  0.55503559  0.40722194  1.0
  O  O113  1  0.75469252  0.44490268  0.59278431  1.0
  O  O114  1  0.24718200  0.43984594  0.59072921  1.0
  O  O115  1  0.75294053  0.56003275  0.40926696  1.0
  O  O116  1  0.63243462  0.75679536  0.44840216  1.0
  O  O117  1  0.36733719  0.24327206  0.55140951  1.0
