# generated using pymatgen
data_ZnH22C29NO4
_symmetry_space_group_name_H-M   'P 1'
_cell_length_a   10.75710667
_cell_length_b   14.12731028
_cell_length_c   15.08656437
_cell_angle_alpha   91.70945098
_cell_angle_beta   91.82564837
_cell_angle_gamma   90.78529567
_symmetry_Int_Tables_number   1
_chemical_formula_structural   ZnH22C29NO4
_chemical_formula_sum   'Zn2 H44 C58 N2 O8'
_cell_volume   2290.25976749
_cell_formula_units_Z   2
loop_
 _symmetry_equiv_pos_site_id
 _symmetry_equiv_pos_as_xyz
  1  'x, y, z'
loop_
 _atom_site_type_symbol
 _atom_site_label
 _atom_site_symmetry_multiplicity
 _atom_site_fract_x
 _atom_site_fract_y
 _atom_site_fract_z
 _atom_site_occupancy
  Zn  Zn0  1  0.48798759  0.39540263  0.49220610  1.0
  Zn  Zn1  1  0.48816728  0.59840371  0.50047097  1.0
  H  H2  1  0.07816537  0.42955780  0.37564178  1.0
  H  H3  1  0.11472407  0.59032540  0.62192405  1.0
  H  H4  1  0.42992184  0.63213120  0.78645093  1.0
  H  H5  1  0.65255243  0.38407625  0.76296696  1.0
  H  H6  1  0.33790579  0.93517637  0.41761656  1.0
  H  H7  1  0.43958454  0.04578654  0.36790298  1.0
  H  H8  1  0.62801443  0.74570966  0.59100360  1.0
  H  H9  1  0.55665923  0.25919205  0.61810760  1.0
  H  H10  1  0.65099626  0.92182443  0.60349667  1.0
  H  H11  1  0.56862173  0.08499734  0.64071283  1.0
  H  H12  1  0.08526866  0.55447126  0.37482644  1.0
  H  H13  1  0.11107370  0.64910579  0.52043616  1.0
  H  H14  1  0.86852539  0.55815779  0.38223318  1.0
  H  H15  1  0.89326203  0.65566401  0.52260971  1.0
  H  H16  1  0.86190507  0.43328965  0.38542694  1.0
  H  H17  1  0.89780054  0.60222960  0.62654402  1.0
  H  H18  1  0.08670230  0.34566027  0.51981835  1.0
  H  H19  1  0.10873775  0.40930417  0.62113977  1.0
  H  H20  1  0.87122181  0.35322734  0.53573790  1.0
  H  H21  1  0.89321503  0.42343295  0.63387218  1.0
  H  H22  1  0.39178558  0.41267065  0.20130368  1.0
  H  H23  1  0.71391249  0.59142486  0.24524455  1.0
  H  H24  1  0.46833408  0.63665744  0.95138062  1.0
  H  H25  1  0.69665838  0.39036974  0.92676253  1.0
  H  H26  1  0.15059036  0.80698022  0.44003946  1.0
  H  H27  1  0.00888711  0.74817999  0.31652432  1.0
  H  H28  1  0.09442472  0.66437143  0.18506009  1.0
  H  H29  1  0.32352206  0.63775778  0.17881759  1.0
  H  H30  1  0.46399740  0.69519707  0.30249346  1.0
  H  H31  1  0.25024644  0.29948017  0.40472871  1.0
  H  H32  1  0.12670094  0.32939123  0.26652188  1.0
  H  H33  1  0.19919737  0.26949146  0.12024091  1.0
  H  H34  1  0.39727745  0.18180619  0.11238451  1.0
  H  H35  1  0.51870657  0.14859170  0.25068874  1.0
  H  H36  1  0.24177778  0.50471633  0.07600643  1.0
  H  H37  1  0.06883525  0.43258048  0.98354819  1.0
  H  H38  1  0.10964742  0.29770949  0.87809639  1.0
  H  H39  1  0.32435953  0.23482009  0.86849816  1.0
  H  H40  1  0.49624283  0.30659543  0.96213058  1.0
  H  H41  1  0.84734712  0.50404445  0.98938430  1.0
  H  H42  1  0.02457660  0.60179625  0.94169520  1.0
  H  H43  1  0.05448450  0.76736388  0.00072658  1.0
  H  H44  1  0.90506130  0.83401108  0.10833220  1.0
  H  H45  1  0.72718111  0.73594420  0.15550235  1.0
  C  C46  1  0.52774501  0.50031997  0.32974514  1.0
  C  C47  1  0.91872398  0.41705845  0.56381670  1.0
  C  C48  1  0.48164799  0.45599355  0.08278398  1.0
  C  C49  1  0.66858595  0.55522675  0.10736280  1.0
  C  C50  1  0.46856502  0.45242045  0.17440487  1.0
  C  C51  1  0.64984397  0.55313609  0.19904945  1.0
  C  C52  1  0.55144411  0.50135642  0.23265411  1.0
  C  C53  1  0.58324988  0.50641774  0.04842469  1.0
  C  C54  1  0.51110876  0.58253397  0.90971453  1.0
  C  C55  1  0.63886678  0.44408914  0.89605003  1.0
  C  C56  1  0.48838825  0.57978398  0.81832251  1.0
  C  C57  1  0.61415041  0.43998537  0.80483132  1.0
  C  C58  1  0.53605638  0.50647787  0.76564249  1.0
  C  C59  1  0.58389159  0.51324027  0.95002206  1.0
  C  C60  1  0.40573029  0.89644856  0.45677997  1.0
  C  C61  1  0.46586503  0.09006715  0.42588766  1.0
  C  C62  1  0.25081815  0.49367746  0.49617434  1.0
  C  C63  1  0.40314885  0.79777088  0.44845645  1.0
  C  C64  1  0.45330815  0.18795449  0.41937030  1.0
  C  C65  1  0.56667901  0.79148613  0.55303447  1.0
  C  C66  1  0.53064726  0.20824141  0.56466235  1.0
  C  C67  1  0.57765903  0.88969435  0.56059624  1.0
  C  C68  1  0.53879572  0.11115140  0.57633042  1.0
  C  C69  1  0.49636298  0.94479956  0.50987781  1.0
  C  C70  1  0.50330235  0.04908892  0.50535703  1.0
  C  C71  1  0.50090801  0.49853769  0.66880859  1.0
  C  C72  1  0.72732640  0.50379122  0.51532743  1.0
  C  C73  1  0.04944427  0.49432753  0.41128663  1.0
  C  C74  1  0.07195711  0.58864102  0.55462429  1.0
  C  C75  1  0.90634573  0.49679893  0.41689206  1.0
  C  C76  1  0.92834862  0.59397958  0.55788215  1.0
  C  C77  1  0.06133816  0.41111712  0.55555241  1.0
  C  C78  1  0.11022688  0.49664366  0.50567464  1.0
  C  C79  1  0.86876313  0.50381012  0.51503389  1.0
  C  C80  1  0.31669053  0.75439904  0.37949365  1.0
  C  C81  1  0.18830488  0.77009963  0.38248833  1.0
  C  C82  1  0.10882496  0.73694943  0.31317926  1.0
  C  C83  1  0.15674207  0.68914622  0.23959551  1.0
  C  C84  1  0.28459578  0.67448340  0.23599317  1.0
  C  C85  1  0.36441622  0.70699059  0.30538221  1.0
  C  C86  1  0.39133229  0.22075903  0.33690505  1.0
  C  C87  1  0.28148571  0.27281140  0.34074995  1.0
  C  C88  1  0.21264893  0.28955280  0.26296872  1.0
  C  C89  1  0.25285696  0.25579343  0.18090947  1.0
  C  C90  1  0.36398878  0.20604960  0.17657648  1.0
  C  C91  1  0.43223069  0.18787177  0.25413772  1.0
  C  C92  1  0.38139312  0.41152859  0.02462124  1.0
  C  C93  1  0.25978839  0.44553979  0.03022162  1.0
  C  C94  1  0.16250033  0.40487967  0.97810455  1.0
  C  C95  1  0.18526018  0.32913407  0.91948811  1.0
  C  C96  1  0.30570802  0.29401860  0.91402252  1.0
  C  C97  1  0.40274832  0.33473895  0.96625898  1.0
  C  C98  1  0.77419291  0.61285204  0.07586353  1.0
  C  C99  1  0.85917323  0.57654552  0.01518766  1.0
  C  C100  1  0.95920745  0.63161511  0.98843748  1.0
  C  C101  1  0.97626917  0.72442772  0.02161597  1.0
  C  C102  1  0.89262479  0.76158078  0.08206693  1.0
  C  C103  1  0.79295047  0.70629584  0.10896448  1.0
  N  N104  1  0.48356406  0.74586857  0.49734345  1.0
  N  N105  1  0.48691227  0.24675473  0.48900792  1.0
  O  O106  1  0.47820400  0.42580069  0.35889957  1.0
  O  O107  1  0.55573588  0.57566908  0.37483811  1.0
  O  O108  1  0.30377119  0.41496232  0.50926754  1.0
  O  O109  1  0.30552930  0.56931174  0.47356520  1.0
  O  O110  1  0.51686747  0.41838898  0.63011206  1.0
  O  O111  1  0.45721453  0.57220970  0.63305191  1.0
  O  O112  1  0.67356784  0.42655908  0.48877109  1.0
  O  O113  1  0.67337994  0.57966641  0.53893852  1.0
