# generated using pymatgen
data_Zn4H24C21O13
_symmetry_space_group_name_H-M   'P 1'
_cell_length_a   15.93582184
_cell_length_b   16.29991377
_cell_length_c   16.30539451
_cell_angle_alpha   90.61114554
_cell_angle_beta   116.56207052
_cell_angle_gamma   118.83382337
_symmetry_Int_Tables_number   1
_chemical_formula_structural   Zn4H24C21O13
_chemical_formula_sum   'Zn8 H48 C42 O26'
_cell_volume   3177.20910691
_cell_formula_units_Z   2
loop_
 _symmetry_equiv_pos_site_id
 _symmetry_equiv_pos_as_xyz
  1  'x, y, z'
loop_
 _atom_site_type_symbol
 _atom_site_label
 _atom_site_symmetry_multiplicity
 _atom_site_fract_x
 _atom_site_fract_y
 _atom_site_fract_z
 _atom_site_occupancy
  Zn  Zn0  1  0.95626560  0.88749080  0.93507881  1.0
  Zn  Zn1  1  0.97031406  0.08404434  0.99592093  1.0
  Zn  Zn2  1  0.14742775  0.09765242  0.94836490  1.0
  Zn  Zn3  1  0.15373473  0.04475670  0.13973707  1.0
  Zn  Zn4  1  0.14636322  0.67089482  0.50836628  1.0
  Zn  Zn5  1  0.15857695  0.48954499  0.56920319  1.0
  Zn  Zn6  1  0.96770021  0.45792952  0.36014268  1.0
  Zn  Zn7  1  0.96272502  0.51182080  0.54880651  1.0
  H  H8  1  0.63507507  0.89185300  0.90941806  1.0
  H  H9  1  0.62708355  0.70086257  0.89370387  1.0
  H  H10  1  0.62199979  0.75954878  0.98165522  1.0
  H  H11  1  0.43110171  0.61295848  0.79926904  1.0
  H  H12  1  0.42325039  0.68058184  0.87792355  1.0
  H  H13  1  0.43591580  0.80157421  0.79526163  1.0
  H  H14  1  0.56473226  0.86468953  0.73612573  1.0
  H  H15  1  0.56355212  0.75438557  0.72901515  1.0
  H  H16  1  0.01801559  0.95324070  0.65928476  1.0
  H  H17  1  0.81955747  0.77424379  0.64829576  1.0
  H  H18  1  0.82238993  0.84435939  0.56636236  1.0
  H  H19  1  0.83799697  0.66761064  0.57073383  1.0
  H  H20  1  0.80887787  0.71811654  0.47361142  1.0
  H  H21  1  0.00899225  0.83797221  0.53993197  1.0
  H  H22  1  0.14099406  0.89350610  0.71577361  1.0
  H  H23  1  0.04107573  0.78725811  0.72777671  1.0
  H  H24  1  0.20599072  0.79552413  0.14558034  1.0
  H  H25  1  0.95453451  0.64058302  0.04391952  1.0
  H  H26  1  0.04658711  0.64932541  0.00734988  1.0
  H  H27  1  0.99667975  0.53405169  0.12748311  1.0
  H  H28  1  0.12322764  0.58217831  0.12908825  1.0
  H  H29  1  0.22654782  0.69736537  0.27581782  1.0
  H  H30  1  0.19718959  0.82657347  0.28899742  1.0
  H  H31  1  0.04947190  0.74515068  0.22296931  1.0
  H  H32  1  0.19787500  0.39163240  0.96432726  1.0
  H  H33  1  0.95542081  0.31879525  0.89374891  1.0
  H  H34  1  0.07697593  0.42061356  0.98964494  1.0
  H  H35  1  0.95132965  0.41388241  0.78689823  1.0
  H  H36  1  0.06840250  0.51947712  0.88170653  1.0
  H  H37  1  0.19762238  0.50112329  0.85701962  1.0
  H  H38  1  0.16019481  0.33987092  0.80438832  1.0
  H  H39  1  0.01393130  0.28481228  0.75426519  1.0
  H  H40  1  0.02202083  0.06517406  0.32128027  1.0
  H  H41  1  0.85633210  0.10301625  0.16647843  1.0
  H  H42  1  0.82135768  0.99800867  0.20812302  1.0
  H  H43  1  0.83372232  0.16531916  0.28062276  1.0
  H  H44  1  0.84917257  0.08400792  0.34826170  1.0
  H  H45  1  0.04151846  0.19389261  0.44655103  1.0
  H  H46  1  0.15833400  0.24487385  0.37801931  1.0
  H  H47  1  0.06143478  0.25862827  0.27761448  1.0
  H  H48  1  0.44037581  0.34525241  0.23495775  1.0
  H  H49  1  0.48132002  0.31719486  0.07381401  1.0
  H  H50  1  0.45190937  0.40189176  0.10041465  1.0
  H  H51  1  0.67288228  0.43482729  0.17469060  1.0
  H  H52  1  0.64700119  0.51546919  0.21668119  1.0
  H  H53  1  0.64641866  0.45080193  0.34605590  1.0
  H  H54  1  0.54755100  0.27580291  0.32519717  1.0
  H  H55  1  0.56641963  0.25354313  0.22906839  1.0
  C  C56  1  0.76087526  0.88878388  0.90072747  1.0
  C  C57  1  0.64062307  0.83718780  0.87578356  1.0
  C  C58  1  0.59480661  0.74325966  0.90534135  1.0
  C  C59  1  0.46585442  0.68727956  0.83851100  1.0
  C  C60  1  0.44546094  0.74693106  0.76726460  1.0
  C  C61  1  0.55586631  0.80389260  0.76750779  1.0
  C  C62  1  0.34243290  0.68830377  0.66852776  1.0
  C  C63  1  0.01530779  0.92551204  0.78437881  1.0
  C  C64  1  0.98796677  0.88851289  0.68443232  1.0
  C  C65  1  0.86372912  0.81019523  0.61093119  1.0
  C  C66  1  0.86446500  0.73628128  0.55108217  1.0
  C  C67  1  0.98765126  0.78469927  0.57948333  1.0
  C  C68  1  0.05134703  0.84021521  0.68598528  1.0
  C  C69  1  0.01803849  0.71397150  0.56270165  1.0
  C  C70  1  0.09389841  0.84142187  0.09569589  1.0
  C  C71  1  0.12160272  0.76776593  0.13315517  1.0
  C  C72  1  0.04078693  0.66113134  0.07051760  1.0
  C  C73  1  0.07113182  0.60231153  0.13918275  1.0
  C  C74  1  0.13717432  0.67056550  0.24188462  1.0
  C  C75  1  0.12783155  0.76029879  0.22942871  1.0
  C  C76  1  0.10424414  0.62737305  0.31260857  1.0
  C  C77  1  0.08011933  0.24208508  0.92702785  1.0
  C  C78  1  0.10840471  0.34072889  0.90981564  1.0
  C  C79  1  0.03999387  0.38008893  0.91585163  1.0
  C  C80  1  0.03705046  0.44467549  0.84661222  1.0
  C  C81  1  0.10861940  0.44365696  0.80774147  1.0
  C  C82  1  0.09760049  0.34481010  0.81164033  1.0
  C  C83  1  0.08250552  0.45932724  0.71011198  1.0
  C  C84  1  0.02999637  0.09352528  0.19718379  1.0
  C  C85  1  0.00176777  0.10671631  0.27152709  1.0
  C  C86  1  0.88032501  0.07760051  0.23030290  1.0
  C  C87  1  0.88311324  0.13273693  0.31014972  1.0
  C  C88  1  0.00797228  0.21344165  0.38041969  1.0
  C  C89  1  0.06927553  0.21500594  0.32837420  1.0
  C  C90  1  0.03266264  0.31461483  0.41027193  1.0
  C  C91  1  0.34569191  0.20616656  0.13868709  1.0
  C  C92  1  0.45458044  0.30522323  0.19299783  1.0
  C  C93  1  0.49675836  0.36597365  0.13295398  1.0
  C  C94  1  0.62394343  0.43930934  0.20300638  1.0
  C  C95  1  0.65136420  0.40921342  0.29667300  1.0
  C  C96  1  0.55517594  0.30141798  0.26550138  1.0
  C  C97  1  0.76614927  0.42487999  0.35308847  1.0
  O  O98  1  0.05664783  0.02742594  0.00403976  1.0
  O  O99  1  0.81090053  0.98132578  0.91500415  1.0
  O  O100  1  0.80244387  0.83776878  0.90460220  1.0
  O  O101  1  0.31452070  0.60327912  0.63124979  1.0
  O  O102  1  0.29062172  0.73007290  0.62930905  1.0
  O  O103  1  0.10130434  0.01242897  0.83166420  1.0
  O  O104  1  0.95395796  0.86770917  0.81405355  1.0
  O  O105  1  0.98797365  0.63951168  0.59372114  1.0
  O  O106  1  0.07298483  0.73536442  0.51988961  1.0
  O  O107  1  0.16110628  0.92854410  0.15196659  1.0
  O  O108  1  0.00812414  0.81184499  0.01277993  1.0
  O  O109  1  0.02562765  0.53772124  0.28555507  1.0
  O  O110  1  0.16039111  0.68735920  0.39558511  1.0
  O  O111  1  0.13142104  0.20762282  0.91397691  1.0
  O  O112  1  0.00930161  0.20202092  0.95388108  1.0
  O  O113  1  0.99576845  0.46221023  0.66043028  1.0
  O  O114  1  0.15105480  0.46753740  0.68548709  1.0
  O  O115  1  0.09131939  0.05906700  0.21573159  1.0
  O  O116  1  0.99201718  0.11988843  0.12284805  1.0
  O  O117  1  0.97102516  0.33904404  0.34934076  1.0
  O  O118  1  0.11686344  0.36830635  0.49421287  1.0
  O  O119  1  0.30085365  0.16593906  0.18731085  1.0
  O  O120  1  0.30662202  0.17077250  0.05038594  1.0
  O  O121  1  0.81302968  0.42323224  0.30746696  1.0
  O  O122  1  0.80601511  0.43735219  0.44307775  1.0
  O  O123  1  0.05730152  0.53077993  0.49584528  1.0
