# generated using pymatgen
data_ZnH3C7O3
_symmetry_space_group_name_H-M   'P 1'
_cell_length_a   6.72997544
_cell_length_b   21.81840880
_cell_length_c   21.81771017
_cell_angle_alpha   119.99895856
_cell_angle_beta   90.00000446
_cell_angle_gamma   89.99702666
_symmetry_Int_Tables_number   1
_chemical_formula_structural   ZnH3C7O3
_chemical_formula_sum   'Zn6 H18 C42 O18'
_cell_volume   2774.47560579
_cell_formula_units_Z   6
loop_
 _symmetry_equiv_pos_site_id
 _symmetry_equiv_pos_as_xyz
  1  'x, y, z'
loop_
 _atom_site_type_symbol
 _atom_site_label
 _atom_site_symmetry_multiplicity
 _atom_site_fract_x
 _atom_site_fract_y
 _atom_site_fract_z
 _atom_site_occupancy
  Zn  Zn0  1  0.01823983  0.71892411  0.33732105  1.0
  Zn  Zn1  1  0.68482127  0.61841960  0.28111188  1.0
  Zn  Zn2  1  0.35140922  0.66270043  0.38161506  1.0
  Zn  Zn3  1  0.98176084  0.28107611  0.61839699  1.0
  Zn  Zn4  1  0.31517792  0.38158022  0.66269236  1.0
  Zn  Zn5  1  0.64859148  0.33729988  0.71891463  1.0
  H  H6  1  0.72892303  0.91305972  0.46286069  1.0
  H  H7  1  0.39574125  0.54980007  0.08702077  1.0
  H  H8  1  0.06203832  0.53714442  0.45016859  1.0
  H  H9  1  0.27107765  0.08694031  0.54980119  1.0
  H  H10  1  0.60425789  0.45019969  0.53722013  1.0
  H  H11  1  0.93796241  0.46285474  0.91302418  1.0
  H  H12  1  0.02996548  0.87259859  0.50380405  1.0
  H  H13  1  0.69664637  0.63121020  0.12740262  1.0
  H  H14  1  0.36295518  0.49616887  0.36875967  1.0
  H  H15  1  0.97003521  0.12740190  0.63120481  1.0
  H  H16  1  0.30335277  0.36878863  0.49619113  1.0
  H  H17  1  0.63704553  0.50383111  0.87259177  1.0
  H  H18  1  0.16577895  0.99437738  0.56473204  1.0
  H  H19  1  0.83268167  0.57038855  0.00565589  1.0
  H  H20  1  0.49894445  0.43524545  0.42963073  1.0
  H  H21  1  0.83422175  0.00562290  0.57035494  1.0
  H  H22  1  0.16731745  0.42960959  0.43526578  1.0
  H  H23  1  0.50105628  0.56475372  0.99438601  1.0
  C  C24  1  0.30109099  0.82296180  0.45044809  1.0
  C  C25  1  0.96776357  0.62756466  0.17710571  1.0
  C  C26  1  0.63403936  0.54952502  0.37244944  1.0
  C  C27  1  0.69890970  0.17703862  0.62748700  1.0
  C  C28  1  0.03223559  0.37243482  0.54954038  1.0
  C  C29  1  0.36596135  0.45047502  0.82292460  1.0
  C  C30  1  0.64547478  0.77949319  0.39576614  1.0
  C  C31  1  0.31205782  0.61629934  0.22055888  1.0
  C  C32  1  0.97846842  0.60424240  0.38372906  1.0
  C  C33  1  0.35452441  0.22050709  0.61627306  1.0
  C  C34  1  0.68794135  0.38370068  0.60425923  1.0
  C  C35  1  0.02153228  0.39575762  0.77948672  1.0
  C  C36  1  0.50340715  0.83569714  0.44020849  1.0
  C  C37  1  0.17006125  0.60453618  0.16436742  1.0
  C  C38  1  0.83637356  0.55979473  0.39546530  1.0
  C  C39  1  0.49659205  0.16430344  0.60451214  1.0
  C  C40  1  0.82993790  0.39546367  0.55983074  1.0
  C  C41  1  0.16362715  0.44020453  0.83567038  1.0
  C  C42  1  0.57568832  0.90564667  0.47399843  1.0
  C  C43  1  0.24252814  0.56838474  0.09441352  1.0
  C  C44  1  0.90880163  0.52598552  0.43161032  1.0
  C  C45  1  0.42431385  0.09435362  0.56835194  1.0
  C  C46  1  0.75747101  0.43161557  0.52602899  1.0
  C  C47  1  0.09119909  0.47401403  0.90562423  1.0
  C  C48  1  0.45912730  0.96378628  0.51868355  1.0
  C  C49  1  0.12611427  0.55499334  0.03626208  1.0
  C  C50  1  0.79227599  0.48124818  0.44500995  1.0
  C  C51  1  0.54087190  0.03621427  0.55489807  1.0
  C  C52  1  0.87388635  0.44500750  0.48126899  1.0
  C  C53  1  0.20772326  0.51875099  0.96376230  1.0
  C  C54  1  0.18361902  0.88230467  0.49535898  1.0
  C  C55  1  0.85037356  0.61313232  0.11774024  1.0
  C  C56  1  0.51659545  0.50461362  0.38689492  1.0
  C  C57  1  0.81638019  0.11769585  0.61305674  1.0
  C  C58  1  0.14962559  0.38686733  0.50460690  1.0
  C  C59  1  0.48340526  0.49538601  0.88228198  1.0
  C  C60  1  0.26011582  0.95029659  0.52863613  1.0
  C  C61  1  0.92706025  0.57844477  0.04975254  1.0
  C  C62  1  0.59321368  0.47131219  0.42159429  1.0
  C  C63  1  0.73988487  0.04970386  0.57834048  1.0
  C  C64  1  0.07293888  0.42155519  0.47130774  1.0
  C  C65  1  0.40678704  0.52868689  0.95028232  1.0
  O  O66  1  0.21476322  0.75868407  0.42068933  1.0
  O  O67  1  0.88141119  0.66204125  0.24137930  1.0
  O  O68  1  0.54775868  0.57928014  0.33791419  1.0
  O  O69  1  0.78523747  0.24131656  0.66200498  1.0
  O  O70  1  0.11858947  0.33795918  0.57933807  1.0
  O  O71  1  0.45224201  0.42072010  0.75863441  1.0
  O  O72  1  0.81391831  0.79581409  0.38087794  1.0
  O  O73  1  0.48060042  0.58514504  0.20423544  1.0
  O  O74  1  0.14697528  0.61910163  0.41490355  1.0
  O  O75  1  0.18608237  0.20418628  0.58506375  1.0
  O  O76  1  0.51939875  0.41485504  0.61909025  1.0
  O  O77  1  0.85302394  0.38089830  0.79580220  1.0
  O  O78  1  0.60118442  0.71401570  0.37357112  1.0
  O  O79  1  0.26782372  0.65957926  0.28604361  1.0
  O  O80  1  0.93420190  0.62647362  0.34047017  1.0
  O  O81  1  0.39881626  0.28598488  0.65955525  1.0
  O  O82  1  0.73217694  0.34042103  0.62646448  1.0
  O  O83  1  0.06579879  0.37352627  0.71399643  1.0
