# generated using pymatgen
data_Zn4H12C44Br16O13
_symmetry_space_group_name_H-M   'P 1'
_cell_length_a   24.06800850
_cell_length_b   24.06821670
_cell_length_c   24.06617677
_cell_angle_alpha   66.75673415
_cell_angle_beta   72.37813742
_cell_angle_gamma   107.61852990
_symmetry_Int_Tables_number   1
_chemical_formula_structural   Zn4H12C44Br16O13
_chemical_formula_sum   'Zn8 H24 C88 Br32 O26'
_cell_volume   10696.22489160
_cell_formula_units_Z   2
loop_
 _symmetry_equiv_pos_site_id
 _symmetry_equiv_pos_as_xyz
  1  'x, y, z'
loop_
 _atom_site_type_symbol
 _atom_site_label
 _atom_site_symmetry_multiplicity
 _atom_site_fract_x
 _atom_site_fract_y
 _atom_site_fract_z
 _atom_site_occupancy
  Zn  Zn0  1  0.05597593  0.09887217  0.45704751  1.0
  Zn  Zn1  1  0.05597661  0.95710299  0.48696255  1.0
  Zn  Zn2  1  0.94401631  0.95704223  0.59888734  1.0
  Zn  Zn3  1  0.94403768  0.98697970  0.45708788  1.0
  Zn  Zn4  1  0.94407063  0.40112672  0.04290852  1.0
  Zn  Zn5  1  0.05593938  0.54291121  0.90111373  1.0
  Zn  Zn6  1  0.94406561  0.54294066  0.01303407  1.0
  Zn  Zn7  1  0.05591521  0.51302109  0.04295911  1.0
  H  H8  1  0.85727257  0.10030810  0.31886348  1.0
  H  H9  1  0.90874370  0.06718638  0.34117911  1.0
  H  H10  1  0.91900665  0.10052677  0.25673780  1.0
  H  H11  1  0.08084137  0.39969113  0.24302827  1.0
  H  H12  1  0.09164956  0.43281441  0.15842798  1.0
  H  H13  1  0.14274551  0.39947558  0.18150551  1.0
  H  H14  1  0.91915897  0.17613595  0.18114457  1.0
  H  H15  1  0.90835040  0.24992116  0.15883297  1.0
  H  H16  1  0.85725443  0.17574172  0.24327691  1.0
  H  H17  1  0.14272861  0.32387258  0.25695684  1.0
  H  H18  1  0.09125805  0.25007963  0.34155965  1.0
  H  H19  1  0.08099524  0.32425029  0.31848687  1.0
  H  H20  1  0.85727441  0.75696129  0.82389368  1.0
  H  H21  1  0.90874792  0.84155705  0.75010076  1.0
  H  H22  1  0.91900779  0.81847110  0.82428191  1.0
  H  H23  1  0.08084312  0.68116078  0.67610106  1.0
  H  H24  1  0.09164426  0.65883464  0.74989846  1.0
  H  H25  1  0.14274486  0.74327213  0.67571954  1.0
  H  H26  1  0.91916099  0.74301940  0.89971175  1.0
  H  H27  1  0.90835830  0.65842725  0.93283361  1.0
  H  H28  1  0.85725901  0.68150237  0.89949955  1.0
  H  H29  1  0.14272358  0.81886427  0.60028031  1.0
  H  H30  1  0.09125001  0.84117956  0.56716230  1.0
  H  H31  1  0.08099047  0.75674518  0.60050126  1.0
  C  C32  1  0.18013959  0.09006144  0.40992518  1.0
  C  C33  1  0.99999776  0.86198841  0.63801230  1.0
  C  C34  1  0.99999465  0.09004507  0.59005056  1.0
  C  C35  1  0.81986412  0.90994632  0.59004563  1.0
  C  C36  1  0.00000005  0.13801372  0.36198845  1.0
  C  C37  1  0.99999714  0.90994879  0.40994738  1.0
  C  C38  1  0.99999691  0.40994197  0.90992489  1.0
  C  C39  1  0.00000480  0.63801395  0.86198646  1.0
  C  C40  1  0.81989815  0.40995847  0.09006223  1.0
  C  C41  1  0.99998854  0.59007202  0.09006909  1.0
  C  C42  1  0.99999730  0.36198660  0.13801635  1.0
  C  C43  1  0.18009843  0.59005085  0.90996912  1.0
  C  C44  1  0.00000096  0.19567737  0.30432339  1.0
  C  C45  1  0.99999902  0.30432342  0.19567735  1.0
  C  C46  1  0.95675182  0.17988341  0.27685451  1.0
  C  C47  1  0.04326759  0.32011791  0.22312684  1.0
  C  C48  1  0.95673163  0.23360565  0.22315103  1.0
  C  C49  1  0.04324892  0.26639462  0.27686951  1.0
  C  C50  1  0.99999812  0.80432420  0.69567662  1.0
  C  C51  1  0.00000347  0.69567609  0.80432035  1.0
  C  C52  1  0.95675281  0.77686618  0.76640456  1.0
  C  C53  1  0.04326788  0.72315269  0.73359175  1.0
  C  C54  1  0.95673483  0.72312277  0.82012671  1.0
  C  C55  1  0.04324652  0.77685738  0.67986978  1.0
  C  C56  1  0.00000024  0.37216801  0.87214409  1.0
  C  C57  1  0.95741477  0.29958487  0.90779951  1.0
  C  C58  1  0.95754301  0.26510857  0.87237566  1.0
  C  C59  1  0.99999387  0.30042682  0.80041550  1.0
  C  C60  1  0.04244449  0.37238089  0.76508554  1.0
  C  C61  1  0.04258010  0.40781068  0.79955675  1.0
  C  C62  1  0.99998645  0.26522954  0.76522028  1.0
  C  C63  1  0.99998128  0.23476626  0.73476183  1.0
  C  C64  1  0.99998024  0.19957053  0.69956616  1.0
  C  C65  1  0.95753594  0.12761643  0.73489611  1.0
  C  C66  1  0.95740459  0.09218923  0.70042466  1.0
  C  C67  1  0.99997631  0.12783033  0.62783085  1.0
  C  C68  1  0.04253588  0.20041966  0.59217251  1.0
  C  C69  1  0.04241290  0.23489132  0.62760118  1.0
  C  C70  1  0.00000793  0.62787325  0.12781943  1.0
  C  C71  1  0.04259878  0.63481908  0.15780884  1.0
  C  C72  1  0.04245851  0.67010171  0.19242623  1.0
  C  C73  1  0.00000052  0.69959280  0.19956550  1.0
  C  C74  1  0.95755762  0.69247440  0.17005217  1.0
  C  C75  1  0.95743210  0.65787882  0.13474807  1.0
  C  C76  1  0.99999418  0.73477877  0.23477035  1.0
  C  C77  1  0.99999227  0.76523430  0.26523648  1.0
  C  C78  1  0.99999034  0.80042178  0.30043882  1.0
  C  C79  1  0.04242269  0.80752780  0.32996480  1.0
  C  C80  1  0.04254483  0.84212079  0.36527261  1.0
  C  C81  1  0.99998446  0.87214649  0.37218737  1.0
  C  C82  1  0.95740658  0.86521357  0.34217896  1.0
  C  C83  1  0.95754231  0.82992681  0.30756666  1.0
  C  C84  1  0.74433439  0.37217317  0.12783429  1.0
  C  C85  1  0.70739405  0.29958793  0.15785274  1.0
  C  C86  1  0.63749436  0.26511317  0.19245444  1.0
  C  C87  1  0.60086057  0.30043399  0.19957562  1.0
  C  C88  1  0.63749209  0.37239015  0.17005495  1.0
  C  C89  1  0.70739227  0.40781839  0.13475025  1.0
  C  C90  1  0.53046969  0.26523412  0.23477943  1.0
  C  C91  1  0.46954856  0.23476825  0.26524075  1.0
  C  C92  1  0.39915760  0.19956632  0.30044249  1.0
  C  C93  1  0.36252810  0.12761170  0.32995488  1.0
  C  C94  1  0.29262807  0.09218191  0.36526015  1.0
  C  C95  1  0.25569206  0.12782714  0.37218797  1.0
  C  C96  1  0.29262599  0.20040517  0.34220672  1.0
  C  C97  1  0.36252470  0.23488250  0.30758643  1.0
  C  C98  1  0.25566232  0.62783924  0.87217835  1.0
  C  C99  1  0.29260784  0.65787420  0.79958236  1.0
  C  C100  1  0.36250835  0.69247186  0.76510596  1.0
  C  C101  1  0.39913778  0.69958101  0.80043384  1.0
  C  C102  1  0.36249886  0.67006048  0.87239934  1.0
  C  C103  1  0.29259958  0.63475720  0.90782893  1.0
  C  C104  1  0.46952937  0.73478243  0.76523585  1.0
  C  C105  1  0.53045029  0.76524313  0.73476790  1.0
  C  C106  1  0.60084249  0.80043835  0.69956678  1.0
  C  C107  1  0.63748043  0.82995114  0.62760421  1.0
  C  C108  1  0.70738133  0.86525133  0.59217411  1.0
  C  C109  1  0.74431054  0.87218012  0.62782700  1.0
  C  C110  1  0.70736955  0.84218026  0.70041565  1.0
  C  C111  1  0.63747066  0.80756918  0.73489145  1.0
  C  C112  1  0.90827078  0.10769574  0.30048333  1.0
  C  C113  1  0.09183413  0.39230661  0.19941399  1.0
  C  C114  1  0.90816570  0.20875138  0.19952781  1.0
  C  C115  1  0.09173178  0.29124838  0.30057540  1.0
  C  C116  1  0.90827349  0.80057368  0.79126961  1.0
  C  C117  1  0.09183186  0.69952988  0.70872746  1.0
  C  C118  1  0.90817194  0.69941012  0.89232446  1.0
  C  C119  1  0.09172538  0.80048484  0.60767128  1.0
  Br  Br120  1  0.89766743  0.24254655  0.00430522  1.0
  Br  Br121  1  0.10233343  0.50430469  0.74250221  1.0
  Br  Br122  1  0.09877829  0.41828462  0.66938538  1.0
  Br  Br123  1  0.90121361  0.16941829  0.91829244  1.0
  Br  Br124  1  0.90122495  0.08171582  0.83059852  1.0
  Br  Br125  1  0.09873316  0.33058727  0.58168617  1.0
  Br  Br126  1  0.10224435  0.25747189  0.49565770  1.0
  Br  Br127  1  0.89765886  0.99569470  0.75748086  1.0
  Br  Br128  1  0.10238460  0.59812026  0.15506663  1.0
  Br  Br129  1  0.89771200  0.65519951  0.09796913  1.0
  Br  Br130  1  0.90122577  0.73183528  0.18047820  1.0
  Br  Br131  1  0.09878678  0.68053100  0.23178647  1.0
  Br  Br132  1  0.09873695  0.76814781  0.31955081  1.0
  Br  Br133  1  0.90123070  0.81952022  0.26818410  1.0
  Br  Br134  1  0.89764267  0.90193834  0.34490426  1.0
  Br  Br135  1  0.10226037  0.84478479  0.40205795  1.0
  Br  Br136  1  0.74684702  0.24254603  0.15515481  1.0
  Br  Br137  1  0.74684154  0.50431704  0.09796871  1.0
  Br  Br138  1  0.58769768  0.41828868  0.18046730  1.0
  Br  Br139  1  0.58770544  0.16942083  0.23183191  1.0
  Br  Br140  1  0.41231651  0.08171057  0.31952875  1.0
  Br  Br141  1  0.41231262  0.33057175  0.26822544  1.0
  Br  Br142  1  0.25318373  0.25744519  0.34496486  1.0
  Br  Br143  1  0.25317202  0.99568274  0.40204270  1.0
  Br  Br144  1  0.25316286  0.65521709  0.74252399  1.0
  Br  Br145  1  0.25314326  0.59797474  0.00433663  1.0
  Br  Br146  1  0.41228044  0.68046346  0.91831530  1.0
  Br  Br147  1  0.41230502  0.73185083  0.66940308  1.0
  Br  Br148  1  0.58770001  0.81952908  0.58169129  1.0
  Br  Br149  1  0.58767549  0.76820002  0.83059043  1.0
  Br  Br150  1  0.74680674  0.84490617  0.75746811  1.0
  Br  Br151  1  0.74684298  0.90202088  0.49566740  1.0
  O  O152  1  0.00000021  0.99999712  0.50000114  1.0
  O  O153  1  0.15074707  0.12472813  0.41623237  1.0
  O  O154  1  0.03957909  0.88602222  0.57516059  1.0
  O  O155  1  0.95906130  0.02595766  0.62474837  1.0
  O  O156  1  0.15074863  0.02600858  0.43297192  1.0
  O  O157  1  0.04093826  0.12472461  0.52597422  1.0
  O  O158  1  0.96041380  0.88524874  0.65357168  1.0
  O  O159  1  0.84925122  0.91627616  0.62472054  1.0
  O  O160  1  0.96046912  0.07517012  0.38596884  1.0
  O  O161  1  0.84925982  0.93299180  0.52599344  1.0
  O  O162  1  0.03953141  0.15356309  0.38530283  1.0
  O  O163  1  0.04091594  0.91617333  0.43311679  1.0
  O  O164  1  0.95910373  0.93314031  0.41614920  1.0
  O  O165  1  0.99999958  0.50000165  0.00000005  1.0
  O  O166  1  0.95899480  0.37528145  0.97398091  1.0
  O  O167  1  0.03888379  0.61404568  0.84642683  1.0
  O  O168  1  0.84928801  0.47403708  0.06689720  1.0
  O  O169  1  0.04100546  0.47399841  0.87525587  1.0
  O  O170  1  0.84929545  0.37526550  0.08384334  1.0
  O  O171  1  0.96113539  0.61469271  0.92483532  1.0
  O  O172  1  0.95898728  0.58373237  0.06701647  1.0
  O  O173  1  0.03880903  0.42483016  0.11475328  1.0
  O  O174  1  0.04096911  0.56699348  0.08375787  1.0
  O  O175  1  0.96118140  0.34643667  0.11398651  1.0
  O  O176  1  0.15070827  0.58380359  0.87527705  1.0
  O  O177  1  0.15070006  0.56689545  0.97405390  1.0
