# generated using pymatgen
data_ZnH9(C9O5)2
_symmetry_space_group_name_H-M   'P 1'
_cell_length_a   8.91462869
_cell_length_b   17.70890717
_cell_length_c   34.86545867
_cell_angle_alpha   89.69791165
_cell_angle_beta   89.95775153
_cell_angle_gamma   89.87022244
_symmetry_Int_Tables_number   1
_chemical_formula_structural   ZnH9(C9O5)2
_chemical_formula_sum   'Zn4 H36 C72 O40'
_cell_volume   5504.05973099
_cell_formula_units_Z   4
loop_
 _symmetry_equiv_pos_site_id
 _symmetry_equiv_pos_as_xyz
  1  'x, y, z'
loop_
 _atom_site_type_symbol
 _atom_site_label
 _atom_site_symmetry_multiplicity
 _atom_site_fract_x
 _atom_site_fract_y
 _atom_site_fract_z
 _atom_site_occupancy
  Zn  Zn0  1  0.60051741  0.99928628  0.50028264  1.0
  Zn  Zn1  1  0.29885484  0.99964063  0.50034787  1.0
  Zn  Zn2  1  0.30885376  0.99842580  0.00028059  1.0
  Zn  Zn3  1  0.61069598  0.99794473  0.00029250  1.0
  H  H4  1  0.63426430  0.99374564  0.88164454  1.0
  H  H5  1  0.64127696  0.99249220  0.81090301  1.0
  H  H6  1  0.76057171  0.00163504  0.69209248  1.0
  H  H7  1  0.27300173  0.00026418  0.69120803  1.0
  H  H8  1  0.29261779  0.98846006  0.74796001  1.0
  H  H9  1  0.63320534  0.00767221  0.75159900  1.0
  H  H10  1  0.63479910  0.00203929  0.11884761  1.0
  H  H11  1  0.64167943  0.00324911  0.18959848  1.0
  H  H12  1  0.76043985  0.99652901  0.30842695  1.0
  H  H13  1  0.27288921  0.99942818  0.30945303  1.0
  H  H14  1  0.29244062  0.00810064  0.25258612  1.0
  H  H15  1  0.63364382  0.99102820  0.24901265  1.0
  H  H16  1  0.63261010  0.77212928  0.49887501  1.0
  H  H17  1  0.15106187  0.75596953  0.50378286  1.0
  H  H18  1  0.63253654  0.22621255  0.50127959  1.0
  H  H19  1  0.15082645  0.24363661  0.49629137  1.0
  H  H20  1  0.27338221  0.77139300  0.00110708  1.0
  H  H21  1  0.75487431  0.75397413  0.99621288  1.0
  H  H22  1  0.27494200  0.22547517  0.99659705  1.0
  H  H23  1  0.75595311  0.24162681  0.00335398  1.0
  H  H24  1  0.14002784  0.99945722  0.90946765  1.0
  H  H25  1  0.13799203  0.00508888  0.77877651  1.0
  H  H26  1  0.26639535  0.99834682  0.59157672  1.0
  H  H27  1  0.77102335  0.99964982  0.59127623  1.0
  H  H28  1  0.14063843  0.99798242  0.09111828  1.0
  H  H29  1  0.13840400  0.99185505  0.22184207  1.0
  H  H30  1  0.26639896  0.00140899  0.40909782  1.0
  H  H31  1  0.77097293  0.99884499  0.40920524  1.0
  H  H32  1  0.13526827  0.58158338  0.45434066  1.0
  H  H33  1  0.63794110  0.54442879  0.53125773  1.0
  H  H34  1  0.13322326  0.41726289  0.54529662  1.0
  H  H35  1  0.63810223  0.45403692  0.46870735  1.0
  H  H36  1  0.77367947  0.58103604  0.04461171  1.0
  H  H37  1  0.26861684  0.54341120  0.96833135  1.0
  H  H38  1  0.76986435  0.41970652  0.95364524  1.0
  H  H39  1  0.26814371  0.45067835  0.03023926  1.0
  C  C40  1  0.38733619  0.85770795  0.50000435  1.0
  C  C41  1  0.51602147  0.99873791  0.57428931  1.0
  C  C42  1  0.38723021  0.14134553  0.50042727  1.0
  C  C43  1  0.51590957  0.00029025  0.42631047  1.0
  C  C44  1  0.51922777  0.85615546  0.00073459  1.0
  C  C45  1  0.39541488  0.99716642  0.92724798  1.0
  C  C46  1  0.52029354  0.14002387  0.99919976  1.0
  C  C47  1  0.39613496  0.99957825  0.07331414  1.0
  C  C48  1  0.39304883  0.99686047  0.88520068  1.0
  C  C49  1  0.53085698  0.99518265  0.86510304  1.0
  C  C50  1  0.53378540  0.99484746  0.82570720  1.0
  C  C51  1  0.39917551  0.99639760  0.80398146  1.0
  C  C52  1  0.26114577  0.99847794  0.82386596  1.0
  C  C53  1  0.25683698  0.99830994  0.86452135  1.0
  C  C54  1  0.40065189  0.99560701  0.76240068  1.0
  C  C55  1  0.52173949  0.00153906  0.73902900  1.0
  C  C56  1  0.65373354  0.00093731  0.67693863  1.0
  C  C57  1  0.51729829  0.00050654  0.69726292  1.0
  C  C58  1  0.38140709  0.99967689  0.67687801  1.0
  C  C59  1  0.38025232  0.99907529  0.63710544  1.0
  C  C60  1  0.51817268  0.99916631  0.61575353  1.0
  C  C61  1  0.65560048  0.00009374  0.63695120  1.0
  C  C62  1  0.39358444  0.99985032  0.11536917  1.0
  C  C63  1  0.53136784  0.00096624  0.13543517  1.0
  C  C64  1  0.53419857  0.00127043  0.17482850  1.0
  C  C65  1  0.39950596  0.00021639  0.19657722  1.0
  C  C66  1  0.26151189  0.99837012  0.17671282  1.0
  C  C67  1  0.25728150  0.99871472  0.13605931  1.0
  C  C68  1  0.40076676  0.00146732  0.23815210  1.0
  C  C69  1  0.52186409  0.99667657  0.26155340  1.0
  C  C70  1  0.65355973  0.99760261  0.32360686  1.0
  C  C71  1  0.51719671  0.99819605  0.30330952  1.0
  C  C72  1  0.38129455  0.99960683  0.32374401  1.0
  C  C73  1  0.38014970  0.00037118  0.36352202  1.0
  C  C74  1  0.51802048  0.99994981  0.38484635  1.0
  C  C75  1  0.65541993  0.99864731  0.36359490  1.0
  C  C76  1  0.39082492  0.77346621  0.50027925  1.0
  C  C77  1  0.53115189  0.73821729  0.49981600  1.0
  C  C78  1  0.54600011  0.66008793  0.50121684  1.0
  C  C79  1  0.41523883  0.61425355  0.50144269  1.0
  C  C80  1  0.27279740  0.65065024  0.50247975  1.0
  C  C81  1  0.26111782  0.72924189  0.50220073  1.0
  C  C82  1  0.42185875  0.53405604  0.50062966  1.0
  C  C83  1  0.42212312  0.46480713  0.49907130  1.0
  C  C84  1  0.41564873  0.38461144  0.49832352  1.0
  C  C85  1  0.54635628  0.33841403  0.49866053  1.0
  C  C86  1  0.53110630  0.26036556  0.50026321  1.0
  C  C87  1  0.39067772  0.22553734  0.49990858  1.0
  C  C88  1  0.26101165  0.27005239  0.49783403  1.0
  C  C89  1  0.27305299  0.34862559  0.49733271  1.0
  C  C90  1  0.51511893  0.77190270  0.99986542  1.0
  C  C91  1  0.37464021  0.73714607  0.99996810  1.0
  C  C92  1  0.35937161  0.65917066  0.99783541  1.0
  C  C93  1  0.49015422  0.61306496  0.99728105  1.0
  C  C94  1  0.63275122  0.64900317  0.99660156  1.0
  C  C95  1  0.64475487  0.72748261  0.99756752  1.0
  C  C96  1  0.48413612  0.53286855  0.99754368  1.0
  C  C97  1  0.48506409  0.46359331  0.99885091  1.0
  C  C98  1  0.49202286  0.38339764  0.99961734  1.0
  C  C99  1  0.36130990  0.33755500  0.99896985  1.0
  C  C100  1  0.37619740  0.25946235  0.99783170  1.0
  C  C101  1  0.51654105  0.22428314  0.99900774  1.0
  C  C102  1  0.64604667  0.26844426  0.00126636  1.0
  C  C103  1  0.63440717  0.34704061  0.00120559  1.0
  C  C104  1  0.13323060  0.60432773  0.50825979  1.0
  C  C105  1  0.70569553  0.63259641  0.50357324  1.0
  C  C106  1  0.13361928  0.39529716  0.49132742  1.0
  C  C107  1  0.70620931  0.36537177  0.49604135  1.0
  C  C108  1  0.77198715  0.60233543  0.99052498  1.0
  C  C109  1  0.19958421  0.63243247  0.99475159  1.0
  C  C110  1  0.77431135  0.39282893  0.00718049  1.0
  C  C111  1  0.20181296  0.36524462  0.00074358  1.0
  O  O112  1  0.51318800  0.89113475  0.49987316  1.0
  O  O113  1  0.25902970  0.89177312  0.50008992  1.0
  O  O114  1  0.38911808  0.99839429  0.55641762  1.0
  O  O115  1  0.64276758  0.99870091  0.55514184  1.0
  O  O116  1  0.25889114  0.10760517  0.50049632  1.0
  O  O117  1  0.51303527  0.10760725  0.50058586  1.0
  O  O118  1  0.64268565  0.99998215  0.44539102  1.0
  O  O119  1  0.38900134  0.00084937  0.44421829  1.0
  O  O120  1  0.39329883  0.88972680  0.00120882  1.0
  O  O121  1  0.64779563  0.88939307  0.00069648  1.0
  O  O122  1  0.52005647  0.99690209  0.94472689  1.0
  O  O123  1  0.26595650  0.99773276  0.94544801  1.0
  O  O124  1  0.64867175  0.10630997  0.99942716  1.0
  O  O125  1  0.39417296  0.10691122  0.99931650  1.0
  O  O126  1  0.26672437  0.99944943  0.05514880  1.0
  O  O127  1  0.52088565  0.99944379  0.05583550  1.0
  O  O128  1  0.12056799  0.99995820  0.88129297  1.0
  O  O129  1  0.12392403  0.00128095  0.80641276  1.0
  O  O130  1  0.24523043  0.99864255  0.61964749  1.0
  O  O131  1  0.79047113  0.00027781  0.61932055  1.0
  O  O132  1  0.12108501  0.99740629  0.11929584  1.0
  O  O133  1  0.12427306  0.99580857  0.19421631  1.0
  O  O134  1  0.24516927  0.00120664  0.38103765  1.0
  O  O135  1  0.79036631  0.99816288  0.38115245  1.0
  O  O136  1  0.07592269  0.56974142  0.47714242  1.0
  O  O137  1  0.07694649  0.59813583  0.53981926  1.0
  O  O138  1  0.73228894  0.56789748  0.52312859  1.0
  O  O139  1  0.80849962  0.66930512  0.49003105  1.0
  O  O140  1  0.07471333  0.42952941  0.52241236  1.0
  O  O141  1  0.07879092  0.40186010  0.45963441  1.0
  O  O142  1  0.73252779  0.43007621  0.47652578  1.0
  O  O143  1  0.80937601  0.32826616  0.50925914  1.0
  O  O144  1  0.83148926  0.56815670  0.02175013  1.0
  O  O145  1  0.82608281  0.59543306  0.95879070  1.0
  O  O146  1  0.17387473  0.56794738  0.97535587  1.0
  O  O147  1  0.09587525  0.66965046  0.00745913  1.0
  O  O148  1  0.83051737  0.42956765  0.97637918  1.0
  O  O149  1  0.83239525  0.39646290  0.03860046  1.0
  O  O150  1  0.17421150  0.42842281  0.02117694  1.0
  O  O151  1  0.09989062  0.33002333  0.98605793  1.0
