# generated using pymatgen
data_ZnH12C18N2O3
_symmetry_space_group_name_H-M   'P 1'
_cell_length_a   5.18582184
_cell_length_b   18.79032830
_cell_length_c   18.80506973
_cell_angle_alpha   88.95116254
_cell_angle_beta   82.07497522
_cell_angle_gamma   82.09249743
_symmetry_Int_Tables_number   1
_chemical_formula_structural   ZnH12C18N2O3
_chemical_formula_sum   'Zn4 H48 C72 N8 O12'
_cell_volume   1797.66933165
_cell_formula_units_Z   4
loop_
 _symmetry_equiv_pos_site_id
 _symmetry_equiv_pos_as_xyz
  1  'x, y, z'
loop_
 _atom_site_type_symbol
 _atom_site_label
 _atom_site_symmetry_multiplicity
 _atom_site_fract_x
 _atom_site_fract_y
 _atom_site_fract_z
 _atom_site_occupancy
  Zn  Zn0  1  0.35602562  0.51068243  0.05959926  1.0
  Zn  Zn1  1  0.92693587  0.48937858  0.94023035  1.0
  Zn  Zn2  1  0.13849927  0.93998105  0.51060535  1.0
  Zn  Zn3  1  0.58972993  0.05960931  0.48918080  1.0
  H  H4  1  0.23825837  0.84148580  0.15359867  1.0
  H  H5  1  0.55218952  0.91552457  0.09264224  1.0
  H  H6  1  0.02954981  0.70294897  0.95200070  1.0
  H  H7  1  0.82056811  0.87330637  0.35386173  1.0
  H  H8  1  0.32605356  0.70946251  0.34824004  1.0
  H  H9  1  0.96668058  0.59018391  0.19386365  1.0
  H  H10  1  0.19210087  0.82160307  0.93658071  1.0
  H  H11  1  0.70890180  0.62731557  0.00751298  1.0
  H  H12  1  0.12558965  0.81667791  0.25189158  1.0
  H  H13  1  0.61531492  0.65472217  0.24113726  1.0
  H  H14  1  0.94939372  0.92736786  0.00653303  1.0
  H  H15  1  0.23367308  0.15840583  0.84641341  1.0
  H  H16  1  0.56058247  0.08445269  0.90732823  1.0
  H  H17  1  0.68516718  0.29707102  0.04800981  1.0
  H  H18  1  0.04986289  0.12663778  0.64585778  1.0
  H  H19  1  0.38498027  0.29008292  0.65162719  1.0
  H  H20  1  0.75058985  0.40959887  0.80631667  1.0
  H  H21  1  0.95118293  0.17846803  0.06326059  1.0
  H  H22  1  0.34425099  0.37266211  0.99249837  1.0
  H  H23  1  0.19581414  0.18344638  0.74784404  1.0
  H  H24  1  0.51149425  0.34481521  0.75885291  1.0
  H  H25  1  0.88405041  0.07270650  0.99327116  1.0
  H  H26  1  0.92110047  0.84555449  0.84093338  1.0
  H  H27  1  0.53390185  0.90665060  0.91468252  1.0
  H  H28  1  0.27049385  0.04762525  0.70243235  1.0
  H  H29  1  0.30989680  0.64551274  0.87293925  1.0
  H  H30  1  0.96715889  0.65091653  0.70894145  1.0
  H  H31  1  0.44749658  0.80563685  0.59011842  1.0
  H  H32  1  0.98815501  0.06271809  0.82080845  1.0
  H  H33  1  0.66807713  0.99205151  0.62690056  1.0
  H  H34  1  0.06099595  0.74732731  0.81637293  1.0
  H  H35  1  0.73240064  0.75786946  0.65426620  1.0
  H  H36  1  0.12444212  0.99274023  0.92649002  1.0
  H  H37  1  0.60850633  0.15423754  0.15888400  1.0
  H  H38  1  0.35532926  0.09330947  0.08513952  1.0
  H  H39  1  0.02001235  0.95227552  0.29736713  1.0
  H  H40  1  0.82736373  0.35460987  0.12711178  1.0
  H  H41  1  0.32706298  0.34900432  0.29082850  1.0
  H  H42  1  0.84361683  0.19411272  0.40970594  1.0
  H  H43  1  0.87163749  0.93709696  0.17890298  1.0
  H  H44  1  0.28684795  0.00768857  0.37282951  1.0
  H  H45  1  0.62394583  0.25263145  0.18360000  1.0
  H  H46  1  0.14482701  0.24190497  0.34538721  1.0
  H  H47  1  0.04395706  0.00710197  0.07325185  1.0
  H  H48  1  0.10875018  0.06973581  0.54082646  1.0
  H  H49  1  0.35792708  0.54052695  0.92971522  1.0
  H  H50  1  0.82738609  0.45951754  0.07008767  1.0
  H  H51  1  0.71919226  0.92975628  0.45908355  1.0
  C  C52  1  0.89031456  0.73249001  0.23866653  1.0
  C  C53  1  0.33952165  0.79420800  0.12421853  1.0
  C  C54  1  0.37147709  0.82871448  0.42030947  1.0
  C  C55  1  0.26420033  0.72660479  0.13414541  1.0
  C  C56  1  0.56077643  0.80169955  0.07276383  1.0
  C  C57  1  0.65663206  0.86907553  0.06188469  1.0
  C  C58  1  0.92548664  0.74997922  0.98171149  1.0
  C  C59  1  0.39651408  0.66704560  0.09119442  1.0
  C  C60  1  0.69818206  0.74082812  0.03088918  1.0
  C  C61  1  0.77642856  0.82567585  0.32855242  1.0
  C  C62  1  0.55347930  0.79528286  0.35720214  1.0
  C  C63  1  0.50049519  0.73281424  0.32562223  1.0
  C  C64  1  0.08940901  0.62638186  0.16476449  1.0
  C  C65  1  0.01475697  0.81562896  0.97345291  1.0
  C  C66  1  0.60957491  0.67313871  0.03988423  1.0
  C  C67  1  0.94568130  0.79448645  0.27025648  1.0
  C  C68  1  0.66440838  0.70207019  0.26612057  1.0
  C  C69  1  0.87751358  0.87556950  0.01373588  1.0
  C  C70  1  0.86237079  0.26735616  0.76125067  1.0
  C  C71  1  0.25812615  0.20569651  0.87583957  1.0
  C  C72  1  0.62215500  0.17097157  0.57939959  1.0
  C  C73  1  0.12536063  0.27329245  0.86586386  1.0
  C  C74  1  0.43544212  0.19826168  0.92729591  1.0
  C  C75  1  0.58786272  0.13090169  0.93812964  1.0
  C  C76  1  0.65776080  0.25004222  0.01829435  1.0
  C  C77  1  0.15498460  0.33285775  0.90886320  1.0
  C  C78  1  0.47018483  0.25914437  0.96919289  1.0
  C  C79  1  0.93255339  0.17423002  0.67117587  1.0
  C  C80  1  0.70759023  0.20442938  0.64255866  1.0
  C  C81  1  0.56017007  0.26679185  0.67423812  1.0
  C  C82  1  0.88056084  0.37343201  0.83535591  1.0
  C  C83  1  0.80459103  0.18442493  0.02645116  1.0
  C  C84  1  0.32280971  0.32679866  0.96019545  1.0
  C  C85  1  0.01196780  0.20552515  0.72951394  1.0
  C  C86  1  0.63329956  0.29756441  0.73383075  1.0
  C  C87  1  0.76740864  0.12446602  0.98618344  1.0
  C  C88  1  0.38007645  0.76057735  0.73210073  1.0
  C  C89  1  0.86845431  0.87518586  0.79369633  1.0
  C  C90  1  0.80414999  0.57906873  0.82834041  1.0
  C  C91  1  0.01224872  0.86528075  0.72625186  1.0
  C  C92  1  0.64000221  0.92680027  0.80109961  1.0
  C  C93  1  0.47624353  0.93758205  0.86835274  1.0
  C  C94  1  0.32736351  0.01788842  0.74939393  1.0
  C  C95  1  0.94032872  0.90838033  0.66677969  1.0
  C  C96  1  0.56410118  0.96878124  0.74029288  1.0
  C  C97  1  0.40143305  0.67071323  0.82524439  1.0
  C  C98  1  0.65474886  0.64202421  0.79485128  1.0
  C  C99  1  0.76953557  0.67355017  0.73235437  1.0
  C  C100  1  0.28837780  0.83475980  0.62624295  1.0
  C  C101  1  0.17178633  0.02596949  0.81490067  1.0
  C  C102  1  0.72115728  0.95975643  0.67276654  1.0
  C  C103  1  0.26300120  0.72896870  0.79405457  1.0
  C  C104  1  0.63619359  0.73301357  0.70164142  1.0
  C  C105  1  0.24865533  0.98566538  0.87481310  1.0
  C  C106  1  0.87260272  0.23928029  0.26771995  1.0
  C  C107  1  0.53769444  0.12465731  0.20610566  1.0
  C  C108  1  0.21108158  0.42093873  0.17155343  1.0
  C  C109  1  0.60417191  0.13447502  0.27356271  1.0
  C  C110  1  0.36779887  0.07313186  0.19871743  1.0
  C  C111  1  0.28202331  0.06238693  0.13147162  1.0
  C  C112  1  0.09422206  0.98201156  0.25041045  1.0
  C  C113  1  0.51588346  0.09132556  0.33302111  1.0
  C  C114  1  0.27297229  0.03111683  0.25949645  1.0
  C  C115  1  0.89655151  0.32931343  0.17472878  1.0
  C  C116  1  0.09118921  0.35794706  0.20502733  1.0
  C  C117  1  0.17535868  0.32636830  0.26744503  1.0
  C  C118  1  0.74981456  0.16497206  0.37356754  1.0
  C  C119  1  0.01248700  0.97389343  0.18486887  1.0
  C  C120  1  0.35379567  0.04000055  0.32701062  1.0
  C  C121  1  0.78537855  0.27097993  0.20587141  1.0
  C  C122  1  0.07099249  0.26682164  0.29808202  1.0
  C  C123  1  0.10906498  0.01423864  0.12498169  1.0
  N  N124  1  0.27892487  0.60629716  0.11199534  1.0
  N  N125  1  0.06768079  0.69817431  0.18104280  1.0
  N  N126  1  0.99730120  0.39357333  0.88809998  1.0
  N  N127  1  0.94719755  0.30166971  0.81900024  1.0
  N  N128  1  0.11933077  0.88762451  0.60616057  1.0
  N  N129  1  0.23723960  0.81830253  0.69789522  1.0
  N  N130  1  0.61364143  0.11205911  0.39364547  1.0
  N  N131  1  0.75378497  0.18146201  0.30192715  1.0
  O  O132  1  0.71562333  0.46808790  0.03171478  1.0
  O  O133  1  0.43332070  0.88860832  0.44392306  1.0
  O  O134  1  0.17422621  0.80125628  0.44626574  1.0
  O  O135  1  0.21584126  0.53215996  0.96804502  1.0
  O  O136  1  0.76694952  0.11099563  0.55586033  1.0
  O  O137  1  0.42392864  0.19854366  0.55331586  1.0
  O  O138  1  0.82277516  0.96814305  0.46751869  1.0
  O  O139  1  0.68425118  0.55609383  0.88874415  1.0
  O  O140  1  0.02774853  0.55269841  0.80049301  1.0
  O  O141  1  0.25911915  0.03137795  0.53232067  1.0
  O  O142  1  0.12891658  0.44388348  0.11111504  1.0
  O  O143  1  0.38034428  0.44733746  0.19946742  1.0
