# generated using pymatgen
data_Zr3H12C24(N3O8)2
_symmetry_space_group_name_H-M   'P 1'
_cell_length_a   17.26979874
_cell_length_b   17.27313313
_cell_length_c   18.15136992
_cell_angle_alpha   89.55450789
_cell_angle_beta   89.97322153
_cell_angle_gamma   110.25655121
_symmetry_Int_Tables_number   1
_chemical_formula_structural   Zr3H12C24(N3O8)2
_chemical_formula_sum   'Zr6 H24 C48 N12 O32'
_cell_volume   5079.55081040
_cell_formula_units_Z   2
loop_
 _symmetry_equiv_pos_site_id
 _symmetry_equiv_pos_as_xyz
  1  'x, y, z'
loop_
 _atom_site_type_symbol
 _atom_site_label
 _atom_site_symmetry_multiplicity
 _atom_site_fract_x
 _atom_site_fract_y
 _atom_site_fract_z
 _atom_site_occupancy
  Zr  Zr0  1  0.89496299  0.88715646  0.90797905  1.0
  Zr  Zr1  1  0.90661462  0.89262611  0.10333218  1.0
  Zr  Zr2  1  0.07642634  0.06480027  0.89723778  1.0
  Zr  Zr3  1  0.08407189  0.07397539  0.09256669  1.0
  Zr  Zr4  1  0.90173844  0.06845336  0.00087475  1.0
  Zr  Zr5  1  0.07911439  0.89091979  0.99949328  1.0
  H  H6  1  0.90450947  0.76625219  0.00018274  1.0
  H  H7  1  0.92702505  0.04180288  0.16374454  1.0
  H  H8  1  0.20398892  0.06533540  0.99959087  1.0
  H  H9  1  0.92641560  0.04514953  0.83747620  1.0
  H  H10  1  0.92435444  0.87047836  0.24604460  1.0
  H  H11  1  0.13416437  0.06072040  0.23095129  1.0
  H  H12  1  0.19732981  0.22359422  0.09596792  1.0
  H  H13  1  0.23398764  0.17529986  0.85889369  1.0
  H  H14  1  0.09898404  0.05066660  0.75442055  1.0
  H  H15  1  0.83295955  0.87583918  0.76424632  1.0
  H  H16  1  0.74490303  0.77466172  0.90654911  1.0
  H  H17  1  0.80028910  0.73532055  0.14399526  1.0
  H  H18  1  0.17286768  0.22329137  0.87702526  1.0
  H  H19  1  0.90414841  0.83756452  0.76867533  1.0
  H  H20  1  0.74897422  0.79382675  0.12684275  1.0
  H  H21  1  0.09713210  0.13256630  0.23777771  1.0
  H  H22  1  0.36440228  0.96535770  0.43067564  1.0
  H  H23  1  0.61738400  0.97790495  0.43022399  1.0
  H  H24  1  0.61811357  0.98024919  0.56846805  1.0
  H  H25  1  0.36525858  0.96794014  0.56876901  1.0
  H  H26  1  0.00498210  0.60540985  0.42951952  1.0
  H  H27  1  0.97932400  0.34884308  0.43402979  1.0
  H  H28  1  0.97944969  0.35054306  0.57230534  1.0
  H  H29  1  0.00529519  0.60711906  0.56766775  1.0
  C  C30  1  0.75770867  0.97928491  0.88386582  1.0
  C  C31  1  0.99872675  0.75495683  0.12699924  1.0
  C  C32  1  0.75719071  0.97645871  0.11583013  1.0
  C  C33  1  0.00112550  0.75991960  0.87181606  1.0
  C  C34  1  0.21393793  0.97348938  0.87184598  1.0
  C  C35  1  0.99232733  0.21080584  0.11840130  1.0
  C  C36  1  0.21111148  0.96606942  0.12730798  1.0
  C  C37  1  0.99143285  0.21425737  0.88587642  1.0
  C  C38  1  0.99896766  0.55138193  0.76561174  1.0
  C  C39  1  0.99331243  0.48098125  0.65940555  1.0
  C  C40  1  0.99147322  0.41848897  0.77022270  1.0
  C  C41  1  0.99631712  0.54501208  0.23389873  1.0
  C  C42  1  0.99265107  0.47720138  0.34233283  1.0
  C  C43  1  0.99106913  0.41292723  0.23343146  1.0
  C  C44  1  0.42287273  0.97460011  0.76526748  1.0
  C  C45  1  0.55478937  0.97920171  0.76797066  1.0
  C  C46  1  0.49104173  0.97543807  0.65799142  1.0
  C  C47  1  0.41894060  0.96461531  0.23404246  1.0
  C  C48  1  0.55186039  0.97210966  0.23065611  1.0
  C  C49  1  0.48907749  0.97014723  0.34093065  1.0
  C  C50  1  0.41953795  0.96872178  0.46143506  1.0
  C  C51  1  0.49074482  0.97157893  0.42228718  1.0
  C  C52  1  0.56253248  0.97576623  0.46110262  1.0
  C  C53  1  0.56296341  0.97703913  0.53768662  1.0
  C  C54  1  0.49169125  0.97424524  0.57671584  1.0
  C  C55  1  0.42000121  0.97006047  0.53781774  1.0
  C  C56  1  0.99943964  0.55005118  0.46136877  1.0
  C  C57  1  0.99225591  0.47710740  0.42361773  1.0
  C  C58  1  0.98497574  0.40503892  0.46384708  1.0
  C  C59  1  0.98506000  0.40595778  0.54043454  1.0
  C  C60  1  0.99251043  0.47900187  0.57807557  1.0
  C  C61  1  0.99958718  0.55099356  0.53778371  1.0
  C  C62  1  0.98989225  0.34170546  0.19345014  1.0
  C  C63  1  0.99040568  0.28218327  0.15843762  1.0
  C  C64  1  0.99863562  0.61822938  0.19561425  1.0
  C  C65  1  0.99967831  0.68111805  0.16449040  1.0
  C  C66  1  0.98977265  0.34748677  0.81192355  1.0
  C  C67  1  0.99025796  0.28753735  0.84726496  1.0
  C  C68  1  0.00352287  0.68829017  0.83238325  1.0
  C  C69  1  0.00226463  0.62544601  0.80192034  1.0
  C  C70  1  0.28234262  0.96165369  0.16666526  1.0
  C  C71  1  0.34498965  0.96169065  0.19719479  1.0
  C  C72  1  0.62313609  0.97461014  0.18944236  1.0
  C  C73  1  0.68347052  0.97582181  0.15421049  1.0
  C  C74  1  0.28716308  0.97252793  0.83379014  1.0
  C  C75  1  0.34967339  0.97318939  0.80259704  1.0
  C  C76  1  0.62594579  0.98108950  0.80886664  1.0
  C  C77  1  0.68591092  0.98130039  0.84401934  1.0
  N  N78  1  0.99820979  0.55258546  0.69156351  1.0
  N  N79  1  0.98933793  0.41172586  0.69634624  1.0
  N  N80  1  0.99618878  0.48647895  0.80856344  1.0
  N  N81  1  0.99586278  0.54764634  0.30783595  1.0
  N  N82  1  0.98997903  0.40767897  0.30747891  1.0
  N  N83  1  0.99413172  0.47963820  0.19292022  1.0
  N  N84  1  0.48806200  0.97753257  0.80732815  1.0
  N  N85  1  0.56023626  0.97837325  0.69401719  1.0
  N  N86  1  0.42052850  0.97336901  0.69129501  1.0
  N  N87  1  0.48401251  0.96755586  0.19169427  1.0
  N  N88  1  0.55839481  0.97392612  0.30460561  1.0
  N  N89  1  0.41759698  0.96529676  0.30806637  1.0
  O  O90  1  0.78244543  0.91984307  0.86802688  1.0
  O  O91  1  0.78920886  0.03656419  0.92980656  1.0
  O  O92  1  0.94186811  0.78200547  0.14643202  1.0
  O  O93  1  0.05394611  0.78500272  0.07827466  1.0
  O  O94  1  0.77817345  0.91349239  0.12493878  1.0
  O  O95  1  0.79499534  0.04094884  0.07795297  1.0
  O  O96  1  0.95010143  0.79290717  0.84933636  1.0
  O  O97  1  0.04931634  0.78177586  0.92692214  1.0
  O  O98  1  0.80186223  0.77856732  0.91309256  1.0
  O  O99  1  0.89037980  0.88727337  0.77812548  1.0
  O  O100  1  0.78956998  0.77133436  0.10675708  1.0
  O  O101  1  0.90368171  0.90327612  0.21312818  1.0
  O  O102  1  0.87727160  0.94364374  0.00281144  1.0
  O  O103  1  0.93320319  0.82551162  0.00343045  1.0
  O  O104  1  0.18732277  0.03116658  0.85347819  1.0
  O  O105  1  0.18397352  0.91735921  0.91999929  1.0
  O  O106  1  0.05192359  0.18596284  0.13389262  1.0
  O  O107  1  0.93459452  0.17979350  0.07254215  1.0
  O  O108  1  0.17880155  0.01704720  0.15059811  1.0
  O  O109  1  0.18890429  0.91945095  0.07138761  1.0
  O  O110  1  0.05470940  0.19403491  0.87624837  1.0
  O  O111  1  0.92781754  0.17590831  0.92446084  1.0
  O  O112  1  0.19659046  0.18294675  0.89607869  1.0
  O  O113  1  0.06524749  0.06952218  0.78752345  1.0
  O  O114  1  0.19289890  0.16667056  0.08861430  1.0
  O  O115  1  0.08478004  0.07557150  0.22249594  1.0
  O  O116  1  0.14464129  0.03695694  0.99656093  1.0
  O  O117  1  0.02668444  0.09312500  0.99821305  1.0
  O  O118  1  0.02699984  0.94005691  0.91840407  1.0
  O  O119  1  0.94512829  0.02979055  0.11578450  1.0
  O  O120  1  0.93904828  0.02643593  0.88516999  1.0
  O  O121  1  0.03114749  0.94217684  0.08146988  1.0
