# generated using pymatgen
data_ZnH10C15N3O4
_symmetry_space_group_name_H-M   'P 1'
_cell_length_a   11.26390101
_cell_length_b   15.85794709
_cell_length_c   17.28878607
_cell_angle_alpha   86.61928914
_cell_angle_beta   86.43964542
_cell_angle_gamma   70.85826414
_symmetry_Int_Tables_number   1
_chemical_formula_structural   ZnH10C15N3O4
_chemical_formula_sum   'Zn2 H20 C30 N6 O8'
_cell_volume   2909.34718432
_cell_formula_units_Z   2
loop_
 _symmetry_equiv_pos_site_id
 _symmetry_equiv_pos_as_xyz
  1  'x, y, z'
loop_
 _atom_site_type_symbol
 _atom_site_label
 _atom_site_symmetry_multiplicity
 _atom_site_fract_x
 _atom_site_fract_y
 _atom_site_fract_z
 _atom_site_occupancy
  Zn  Zn0  1  0.48049924  0.59068077  0.50276699  1.0
  Zn  Zn1  1  0.52026666  0.40832097  0.50215622  1.0
  H  H2  1  0.13033946  0.42281049  0.50826374  1.0
  H  H3  1  0.86866603  0.57460158  0.51538801  1.0
  H  H4  1  0.65890362  0.25494113  0.40528268  1.0
  H  H5  1  0.34090629  0.74556159  0.59745693  1.0
  H  H6  1  0.05843854  0.62743675  0.51511445  1.0
  H  H7  1  0.94262503  0.37055107  0.50229711  1.0
  H  H8  1  0.49885996  0.61445563  0.89327482  1.0
  H  H9  1  0.57921774  0.37610641  0.10959585  1.0
  H  H10  1  0.49595450  0.66058318  0.10652827  1.0
  H  H11  1  0.56768903  0.33144761  0.89555130  1.0
  H  H12  1  0.48615968  0.65577018  0.25305643  1.0
  H  H13  1  0.54788123  0.34034495  0.75023866  1.0
  H  H14  1  0.61081405  0.70446996  0.41783323  1.0
  H  H15  1  0.38682197  0.29425097  0.58352321  1.0
  H  H16  1  0.61779215  0.86231004  0.42182296  1.0
  H  H17  1  0.38028812  0.13653774  0.57779447  1.0
  H  H18  1  0.66301519  0.09537855  0.39091597  1.0
  H  H19  1  0.33661466  0.90552281  0.60971737  1.0
  H  H20  1  0.47836527  0.62286332  0.74856315  1.0
  H  H21  1  0.56919167  0.37171808  0.25561701  1.0
  C  C22  1  0.51560103  0.51039000  0.34964693  1.0
  C  C23  1  0.49942764  0.48817951  0.65510871  1.0
  C  C24  1  0.50678765  0.59513958  0.22098351  1.0
  C  C25  1  0.53701463  0.39970357  0.78232526  1.0
  C  C26  1  0.44673891  0.24703742  0.54256648  1.0
  C  C27  1  0.55168268  0.75208258  0.45878397  1.0
  C  C28  1  0.44314726  0.16077518  0.53919602  1.0
  C  C29  1  0.55525335  0.83848169  0.46106291  1.0
  C  C30  1  0.52301811  0.10484795  0.48417410  1.0
  C  C31  1  0.47601473  0.89494573  0.51597787  1.0
  C  C32  1  0.60169259  0.13792369  0.43436785  1.0
  C  C33  1  0.39759416  0.86240915  0.56649674  1.0
  C  C34  1  0.59980448  0.22520779  0.44213442  1.0
  C  C35  1  0.39960096  0.77494689  0.55989206  1.0
  C  C36  1  0.74580418  0.45784745  0.50324965  1.0
  C  C37  1  0.25515636  0.53978331  0.50806005  1.0
  C  C38  1  0.88314462  0.44024703  0.50581884  1.0
  C  C39  1  0.11729335  0.55748760  0.51254231  1.0
  C  C40  1  0.93328053  0.50613729  0.51158114  1.0
  C  C41  1  0.06618492  0.49148219  0.51140822  1.0
  C  C42  1  0.52614693  0.51355622  0.26260589  1.0
  C  C43  1  0.51116017  0.48220165  0.74141337  1.0
  C  C44  1  0.55362786  0.43448575  0.22211841  1.0
  C  C45  1  0.49785552  0.55955590  0.78167289  1.0
  C  C46  1  0.55915260  0.43662465  0.14173195  1.0
  C  C47  1  0.50939447  0.55512109  0.86126852  1.0
  C  C48  1  0.53645565  0.51906603  0.10015899  1.0
  C  C49  1  0.53447215  0.47217224  0.90229148  1.0
  C  C50  1  0.51216448  0.59787012  0.14031106  1.0
  C  C51  1  0.54838868  0.39469251  0.86224655  1.0
  N  N52  1  0.53264539  0.53043997  0.01860429  1.0
  N  N53  1  0.54426820  0.45993968  0.98352254  1.0
  N  N54  1  0.52411597  0.27825040  0.49530180  1.0
  N  N55  1  0.47504094  0.72128451  0.50703956  1.0
  N  N56  1  0.52992817  0.01519326  0.47389698  1.0
  N  N57  1  0.46939236  0.98457836  0.52580092  1.0
  O  O58  1  0.49651552  0.58339841  0.38329978  1.0
  O  O59  1  0.51646843  0.41547296  0.62144655  1.0
  O  O60  1  0.52554009  0.43487064  0.38335848  1.0
  O  O61  1  0.47437724  0.56557795  0.62196089  1.0
  O  O62  1  0.67398179  0.53897981  0.50447594  1.0
  O  O63  1  0.32660053  0.45853029  0.50767280  1.0
  O  O64  1  0.71011961  0.38954828  0.49983748  1.0
  O  O65  1  0.29170107  0.60828351  0.50431906  1.0
