# generated using pymatgen
data_Zn6H38C43(SO11)3
_symmetry_space_group_name_H-M   'P 1'
_cell_length_a   18.79677198
_cell_length_b   18.81817672
_cell_length_c   18.84241639
_cell_angle_alpha   109.30335586
_cell_angle_beta   109.33259936
_cell_angle_gamma   109.33401842
_symmetry_Int_Tables_number   1
_chemical_formula_structural   Zn6H38C43(SO11)3
_chemical_formula_sum   'Zn6 H38 C43 S3 O33'
_cell_volume   5158.58952730
_cell_formula_units_Z   1
loop_
 _symmetry_equiv_pos_site_id
 _symmetry_equiv_pos_as_xyz
  1  'x, y, z'
loop_
 _atom_site_type_symbol
 _atom_site_label
 _atom_site_symmetry_multiplicity
 _atom_site_fract_x
 _atom_site_fract_y
 _atom_site_fract_z
 _atom_site_occupancy
  Zn  Zn0  1  0.94714339  0.00001585  0.43574125  1.0
  Zn  Zn1  1  0.06776574  0.00375535  0.56627215  1.0
  Zn  Zn2  1  0.04975248  0.56405217  0.98801370  1.0
  Zn  Zn3  1  0.92790124  0.42630157  0.97388018  1.0
  Zn  Zn4  1  0.47666072  0.56519390  0.53758118  1.0
  Zn  Zn5  1  0.49278150  0.44521993  0.42712170  1.0
  H  H6  1  0.98128561  0.21780285  0.61036780  1.0
  H  H7  1  0.00196779  0.83345627  0.26509388  1.0
  H  H8  1  0.08789744  0.29526010  0.69799871  1.0
  H  H9  1  0.72933653  0.64331437  0.48443070  1.0
  H  H10  1  0.68215814  0.78440130  0.55110726  1.0
  H  H11  1  0.86557879  0.77385351  0.52446829  1.0
  H  H12  1  0.72854832  0.81887612  0.44000440  1.0
  H  H13  1  0.64866061  0.36902312  0.59257530  1.0
  H  H14  1  0.68844689  0.54666210  0.72371421  1.0
  H  H15  1  0.73678168  0.37689034  0.73445521  1.0
  H  H16  1  0.84635469  0.56516221  0.78061044  1.0
  H  H17  1  0.09791568  0.30186538  0.91815867  1.0
  H  H18  1  0.37568644  0.62261074  0.34440039  1.0
  H  H19  1  0.31727106  0.44540766  0.19622715  1.0
  H  H20  1  0.30160752  0.64267225  0.21625443  1.0
  H  H21  1  0.17390915  0.45480006  0.15657956  1.0
  H  H22  1  0.91406591  0.26531877  0.68552020  1.0
  H  H23  1  0.88518125  0.11373436  0.64583637  1.0
  H  H24  1  0.87481850  0.19924617  0.76013619  1.0
  H  H25  1  0.10157968  0.18766265  0.82862937  1.0
  H  H26  1  0.16265953  0.25604670  0.80175624  1.0
  H  H27  1  0.93678341  0.06822356  0.92444332  1.0
  H  H28  1  0.93506265  0.08211922  0.71755807  1.0
  H  H29  1  0.90976547  0.14503140  0.97471066  1.0
  H  H30  1  0.82769588  0.03532327  0.90034215  1.0
  H  H31  1  0.82040957  0.12725030  0.82965026  1.0
  H  H32  1  0.84633709  0.05015358  0.77909620  1.0
  H  H33  1  0.00436300  0.16406223  0.86962966  1.0
  H  H34  1  0.97585944  0.23965952  0.91895210  1.0
  H  H35  1  0.12616327  0.84673720  0.51307155  1.0
  H  H36  1  0.97909345  0.46639129  0.79589467  1.0
  H  H37  1  0.27345694  0.40402629  0.85529507  1.0
  H  H38  1  0.21856840  0.40247038  0.52251465  1.0
  H  H39  1  0.27799681  0.27586394  0.44736107  1.0
  H  H40  1  0.08661899  0.25539361  0.46311225  1.0
  H  H41  1  0.23427108  0.21623231  0.53147918  1.0
  H  H42  1  0.02492773  0.73376432  0.16741381  1.0
  H  H43  1  0.91868238  0.59595483  0.19933069  1.0
  C  C44  1  0.10148300  0.12538396  0.48771759  1.0
  C  C45  1  0.95337558  0.62580725  0.17185408  1.0
  C  C46  1  0.00588712  0.78084619  0.27614287  1.0
  C  C47  1  0.03213517  0.11563606  0.64526189  1.0
  C  C48  1  0.02350675  0.79578748  0.35705024  1.0
  C  C49  1  0.73405557  0.70692511  0.50248455  1.0
  C  C50  1  0.67743038  0.72086848  0.52594564  1.0
  C  C51  1  0.80257770  0.77115354  0.50221769  1.0
  C  C52  1  0.79179969  0.82416183  0.47119369  1.0
  C  C53  1  0.89104846  0.50982216  0.86003801  1.0
  C  C54  1  0.98620728  0.36340579  0.86970753  1.0
  C  C55  1  0.00493963  0.29963068  0.81284374  1.0
  C  C56  1  0.13156658  0.52280382  0.09497791  1.0
  C  C57  1  0.95246452  0.56724582  0.09577093  1.0
  C  C58  1  0.59293102  0.48349462  0.58747673  1.0
  C  C59  1  0.86399730  0.88739362  0.47198148  1.0
  C  C60  1  0.35292777  0.41033177  0.48687601  1.0
  C  C61  1  0.39712360  0.48961789  0.33425995  1.0
  C  C62  1  0.60783621  0.65033290  0.52150830  1.0
  C  C63  1  0.68343219  0.42833413  0.65502547  1.0
  C  C64  1  0.66050832  0.48986349  0.66129201  1.0
  C  C65  1  0.74933251  0.43507302  0.72838683  1.0
  C  C66  1  0.93895361  0.20387447  0.78423388  1.0
  C  C67  1  0.82639183  0.50761275  0.78755988  1.0
  C  C68  1  0.33804890  0.56931670  0.27751485  1.0
  C  C69  1  0.34621572  0.49792360  0.26176649  1.0
  C  C70  1  0.28037525  0.57967457  0.21323537  1.0
  C  C71  1  0.03121527  0.87699647  0.41756906  1.0
  C  C72  1  0.19801804  0.51566583  0.15582019  1.0
  C  C73  1  0.02208311  0.25009255  0.68053781  1.0
  C  C74  1  0.98521271  0.29948203  0.72552782  1.0
  C  C75  1  0.94003862  0.13844487  0.70926677  1.0
  C  C76  1  0.10141651  0.23174116  0.80246183  1.0
  C  C77  1  0.09544782  0.30777897  0.86132810  1.0
  C  C78  1  0.02564353  0.18356463  0.70987683  1.0
  C  C79  1  0.95344225  0.18251893  0.85840574  1.0
  C  C80  1  0.87124401  0.10873485  0.83994586  1.0
  C  C81  1  0.88700211  0.08800589  0.91372524  1.0
  C  C82  1  0.21990218  0.34176217  0.49857695  1.0
  C  C83  1  0.28120048  0.33806632  0.47790291  1.0
  C  C84  1  0.15221131  0.26445100  0.48534459  1.0
  C  C85  1  0.16814170  0.20488190  0.50137998  1.0
  C  C86  1  0.99666682  0.71210546  0.20376098  1.0
  S  S87  1  0.03744782  0.72690695  0.40065351  1.0
  S  S88  1  0.01380522  0.39608458  0.71351570  1.0
  S  S89  1  0.20127511  0.40628316  0.92058335  1.0
  O  O90  1  0.02147055  0.09475960  0.43187252  1.0
  O  O91  1  0.57127695  0.42988646  0.51020411  1.0
  O  O92  1  0.37453817  0.48939627  0.53504559  1.0
  O  O93  1  0.12707380  0.09144841  0.53203376  1.0
  O  O94  1  0.38997361  0.38749178  0.44521896  1.0
  O  O95  1  0.41067973  0.53645297  0.40898022  1.0
  O  O96  1  0.42402919  0.43431540  0.31728267  1.0
  O  O97  1  0.56877846  0.67238113  0.56253689  1.0
  O  O98  1  0.59036743  0.57309506  0.47759210  1.0
  O  O99  1  0.98229013  0.08623706  0.56578653  1.0
  O  O100  1  0.08554870  0.08967707  0.67291990  1.0
  O  O101  1  0.86582042  0.45470920  0.88348427  1.0
  O  O102  1  0.84281032  0.91635366  0.41911743  1.0
  O  O103  1  0.94146729  0.90995780  0.52275776  1.0
  O  O104  1  0.98860094  0.90890978  0.38658299  1.0
  O  O105  1  0.08279114  0.91032755  0.49999525  1.0
  O  O106  1  0.97132320  0.56819999  0.89384019  1.0
  O  O107  1  0.97015827  0.70437971  0.42316276  1.0
  O  O108  1  0.04783654  0.66094500  0.34750198  1.0
  O  O109  1  0.12963190  0.79300694  0.48562553  1.0
  O  O110  1  0.10250772  0.46218769  0.77463607  1.0
  O  O111  1  0.98093301  0.36215553  0.62197340  1.0
  O  O112  1  0.02635062  0.44257648  0.89193477  1.0
  O  O113  1  0.95035481  0.42942826  0.73256442  1.0
  O  O114  1  0.19820184  0.48207661  0.96552315  1.0
  O  O115  1  0.26052018  0.38392904  0.96736767  1.0
  O  O116  1  0.22397476  0.41387602  0.84648759  1.0
  O  O117  1  0.92874002  0.33166067  0.88961942  1.0
  O  O118  1  0.15329899  0.58692868  0.08041105  1.0
  O  O119  1  0.05362734  0.46253671  0.05975007  1.0
  O  O120  1  0.99768355  0.60079539  0.06627875  1.0
  O  O121  1  0.90622346  0.48491008  0.06453981  1.0
  O  O122  1  0.56135997  0.53272301  0.60623988  1.0
