# generated using pymatgen
data_ZnH11C18N3O4
_symmetry_space_group_name_H-M   'P 1'
_cell_length_a   10.15110737
_cell_length_b   11.41880359
_cell_length_c   13.99042233
_cell_angle_alpha   89.99999296
_cell_angle_beta   101.83771947
_cell_angle_gamma   89.99996671
_symmetry_Int_Tables_number   1
_chemical_formula_structural   ZnH11C18N3O4
_chemical_formula_sum   'Zn2 H22 C36 N6 O8'
_cell_volume   1587.18986466
_cell_formula_units_Z   2
loop_
 _symmetry_equiv_pos_site_id
 _symmetry_equiv_pos_as_xyz
  1  'x, y, z'
loop_
 _atom_site_type_symbol
 _atom_site_label
 _atom_site_symmetry_multiplicity
 _atom_site_fract_x
 _atom_site_fract_y
 _atom_site_fract_z
 _atom_site_occupancy
  Zn  Zn0  1  0.37340586  0.00000019  0.60308759  1.0
  Zn  Zn1  1  0.62659377  0.99999983  0.39691175  1.0
  H  H2  1  0.91557650  0.00000005  0.58953230  1.0
  H  H3  1  0.08442349  0.00000028  0.41046786  1.0
  H  H4  1  0.16025944  0.99999991  0.88007793  1.0
  H  H5  1  0.83974119  0.00000186  0.11992299  1.0
  H  H6  1  0.72718975  0.00000008  0.83982969  1.0
  H  H7  1  0.27281088  0.99999994  0.16017052  1.0
  H  H8  1  0.53431750  0.19713200  0.71689762  1.0
  H  H9  1  0.46568234  0.19713205  0.28310250  1.0
  H  H10  1  0.46568213  0.80286889  0.28310315  1.0
  H  H11  1  0.53431729  0.80286884  0.71689684  1.0
  H  H12  1  0.54202846  0.41386924  0.72160098  1.0
  H  H13  1  0.45797123  0.41386930  0.27839980  1.0
  H  H14  1  0.45797117  0.58613078  0.27839907  1.0
  H  H15  1  0.54202739  0.58613072  0.72160082  1.0
  H  H16  1  0.20799118  0.41171325  0.47233285  1.0
  H  H17  1  0.79200851  0.41171310  0.52766722  1.0
  H  H18  1  0.79200845  0.58828589  0.52766649  1.0
  H  H19  1  0.20799212  0.58828604  0.47233227  1.0
  H  H20  1  0.21661203  0.19468263  0.47980528  1.0
  H  H21  1  0.78338882  0.19468248  0.52019499  1.0
  H  H22  1  0.78338860  0.80531739  0.52019493  1.0
  H  H23  1  0.21661181  0.80531753  0.47980450  1.0
  C  C24  1  0.66952961  0.00000011  0.64059210  1.0
  C  C25  1  0.33047303  0.99999903  0.35940483  1.0
  C  C26  1  0.80600873  0.00000007  0.70726126  1.0
  C  C27  1  0.19399024  0.00000026  0.29273875  1.0
  C  C28  1  0.92266555  0.00000005  0.66845227  1.0
  C  C29  1  0.07733444  0.00000029  0.33154860  1.0
  C  C30  1  0.05005469  0.00000027  0.73100721  1.0
  C  C31  1  0.94994630  0.00000182  0.26899381  1.0
  C  C32  1  0.17464028  0.99999992  0.68878277  1.0
  C  C33  1  0.82535934  0.00000097  0.31121800  1.0
  C  C34  1  0.06114701  0.00000113  0.83205945  1.0
  C  C35  1  0.93885197  0.00000008  0.16794056  1.0
  C  C36  1  0.94407361  0.00000002  0.87109200  1.0
  C  C37  1  0.05592702  0.99999912  0.12890892  1.0
  C  C38  1  0.81715109  0.00000094  0.80866406  1.0
  C  C39  1  0.18284853  0.99999908  0.19133528  1.0
  C  C40  1  0.46449999  0.24931000  0.66407541  1.0
  C  C41  1  0.53549981  0.24931088  0.33592470  1.0
  C  C42  1  0.53549963  0.75069002  0.33592465  1.0
  C  C43  1  0.46449881  0.75068914  0.66407449  1.0
  C  C44  1  0.46745419  0.37089629  0.66561567  1.0
  C  C45  1  0.53254553  0.37089630  0.33438441  1.0
  C  C46  1  0.53254443  0.62910461  0.33438352  1.0
  C  C47  1  0.46745409  0.62910372  0.66561565  1.0
  C  C48  1  0.37542242  0.43505891  0.59650314  1.0
  C  C49  1  0.62457625  0.43505973  0.40349606  1.0
  C  C50  1  0.62457620  0.56494199  0.40349676  1.0
  C  C51  1  0.37542237  0.56494116  0.59650313  1.0
  C  C52  1  0.28342920  0.36955820  0.52829985  1.0
  C  C53  1  0.71657052  0.36955897  0.47169952  1.0
  C  C54  1  0.71657244  0.63044007  0.47169979  1.0
  C  C55  1  0.28342810  0.63043930  0.52829967  1.0
  C  C56  1  0.28701734  0.24786331  0.53144935  1.0
  C  C57  1  0.71298347  0.24786321  0.46855019  1.0
  C  C58  1  0.71298329  0.75213670  0.46855085  1.0
  C  C59  1  0.28701716  0.75213593  0.53144859  1.0
  N  N60  1  0.94241544  0.99999883  0.97212018  1.0
  N  N61  1  0.05758383  0.99999913  0.02788049  1.0
  N  N62  1  0.37638773  0.18832903  0.59789881  1.0
  N  N63  1  0.62361212  0.18832898  0.40210131  1.0
  N  N64  1  0.62361190  0.81167099  0.40210196  1.0
  N  N65  1  0.37638751  0.81167104  0.59789803  1.0
  O  O66  1  0.56794831  0.00000014  0.68183355  1.0
  O  O67  1  0.43205232  0.99999988  0.31816594  1.0
  O  O68  1  0.66340173  0.00000012  0.54969373  1.0
  O  O69  1  0.33659825  0.00000021  0.45030500  1.0
  O  O70  1  0.15996542  0.00000025  0.59535714  1.0
  O  O71  1  0.84003557  0.00000009  0.40464316  1.0
  O  O72  1  0.28997650  0.99999989  0.74490463  1.0
  O  O73  1  0.71002312  0.00000013  0.25509543  1.0
