# generated using pymatgen
data_Mg2H9C18N4O6F
_symmetry_space_group_name_H-M   'P 1'
_cell_length_a   6.74868784
_cell_length_b   31.39402725
_cell_length_c   31.39680060
_cell_angle_alpha   119.49472155
_cell_angle_beta   94.09860486
_cell_angle_gamma   94.10926786
_symmetry_Int_Tables_number   1
_chemical_formula_structural   Mg2H9C18N4O6F
_chemical_formula_sum   'Mg6 H27 C54 N12 O18 F3'
_cell_volume   5731.19016240
_cell_formula_units_Z   3
loop_
 _symmetry_equiv_pos_site_id
 _symmetry_equiv_pos_as_xyz
  1  'x, y, z'
loop_
 _atom_site_type_symbol
 _atom_site_label
 _atom_site_symmetry_multiplicity
 _atom_site_fract_x
 _atom_site_fract_y
 _atom_site_fract_z
 _atom_site_occupancy
  Mg  Mg0  1  0.45106264  0.32145023  0.69308605  1.0
  Mg  Mg1  1  0.85534894  0.66750048  0.36745188  1.0
  Mg  Mg2  1  0.75802457  0.30696749  0.62841431  1.0
  Mg  Mg3  1  0.48788673  0.63250436  0.30002540  1.0
  Mg  Mg4  1  0.12968674  0.37163463  0.67857971  1.0
  Mg  Mg5  1  0.18779984  0.69993162  0.33243468  1.0
  H  H6  1  0.72945665  0.93143145  0.43742960  1.0
  H  H7  1  0.58563744  0.83620395  0.38382132  1.0
  H  H8  1  0.25624741  0.81204650  0.43811998  1.0
  H  H9  1  0.18929534  0.89510278  0.45505634  1.0
  H  H10  1  0.93899090  0.08325075  0.51120012  1.0
  H  H11  1  0.96043694  0.16931532  0.54420800  1.0
  H  H12  1  0.68592359  0.17892827  0.59018341  1.0
  H  H13  1  0.49126985  0.09752727  0.53056626  1.0
  H  H14  1  0.47532470  0.97713833  0.40905834  1.0
  H  H15  1  0.29113825  0.56256300  0.49390186  1.0
  H  H16  1  0.20152009  0.61615264  0.45233005  1.0
  H  H17  1  0.81810623  0.56184680  0.37394488  1.0
  H  H18  1  0.73412078  0.54496575  0.44009332  1.0
  H  H19  1  0.42696488  0.48874557  0.57209895  1.0
  H  H20  1  0.41608866  0.45581869  0.62523939  1.0
  H  H21  1  0.09579906  0.41001536  0.58890055  1.0
  H  H22  1  0.96029442  0.46952898  0.56703773  1.0
  H  H23  1  0.06527643  0.59083915  0.56799422  1.0
  H  H24  1  0.79769063  0.50602742  0.06863985  1.0
  H  H25  1  0.74960985  0.54764544  0.16376443  1.0
  H  H26  1  0.44453424  0.62602118  0.18791504  1.0
  H  H27  1  0.29457311  0.55988572  0.10485002  1.0
  H  H28  1  0.85544135  0.42789789  0.91668805  1.0
  H  H29  1  0.79121093  0.37491793  0.83067713  1.0
  H  H30  1  0.50718509  0.41116538  0.82107838  1.0
  H  H31  1  0.39376142  0.43298779  0.90246567  1.0
  H  H32  1  0.49799147  0.43204309  0.02283687  1.0
  C  C33  1  0.18599721  0.94437205  0.40954280  1.0
  C  C34  1  0.00663803  0.95347333  0.43166460  1.0
  C  C35  1  0.88697056  0.87085343  0.41739770  1.0
  C  C36  1  0.73426883  0.83164334  0.39593449  1.0
  C  C37  1  0.76696461  0.78447952  0.38800857  1.0
  C  C38  1  0.96336130  0.77637816  0.40061377  1.0
  C  C39  1  0.10997233  0.81778419  0.42618932  1.0
  C  C40  1  0.07280427  0.86387789  0.43484367  1.0
  C  C41  1  0.59578159  0.74511551  0.36532815  1.0
  C  C42  1  0.12898048  0.03610660  0.47389429  1.0
  C  C43  1  0.21007189  0.12726839  0.53407683  1.0
  C  C44  1  0.11978492  0.17041987  0.55415085  1.0
  C  C45  1  0.22663858  0.21656175  0.58803453  1.0
  C  C46  1  0.43576368  0.22017412  0.60233243  1.0
  C  C47  1  0.52584931  0.17623535  0.57982424  1.0
  C  C48  1  0.41771883  0.13080299  0.54672255  1.0
  C  C49  1  0.11283387  0.25930492  0.60732773  1.0
  C  C50  1  0.33338408  0.98351441  0.42471810  1.0
  C  C51  1  0.77536286  0.59041973  0.53485085  1.0
  C  C52  1  0.57388070  0.56831505  0.52182340  1.0
  C  C53  1  0.46920976  0.58257572  0.45343141  1.0
  C  C54  1  0.33804858  0.60403346  0.43566332  1.0
  C  C55  1  0.37884883  0.61196110  0.39644348  1.0
  C  C56  1  0.56275656  0.59937895  0.37578061  1.0
  C  C57  1  0.68375567  0.57379005  0.39161341  1.0
  C  C58  1  0.63778894  0.56515408  0.42905418  1.0
  C  C59  1  0.23037510  0.63462602  0.37974901  1.0
  C  C60  1  0.65401645  0.52607287  0.56220266  1.0
  C  C61  1  0.67550537  0.46594074  0.59322462  1.0
  C  C62  1  0.56545915  0.44588275  0.61635742  1.0
  C  C63  1  0.63865363  0.41203038  0.62862742  1.0
  C  C64  1  0.83351634  0.39776606  0.61794740  1.0
  C  C65  1  0.94596579  0.42031761  0.59653542  1.0
  C  C66  1  0.87066086  0.45335908  0.58414944  1.0
  C  C67  1  0.50561453  0.39273417  0.65207978  1.0
  C  C68  1  0.90766135  0.57520257  0.55875642  1.0
  C  C69  1  0.24119240  0.46519327  0.05557716  1.0
  C  C70  1  0.05260465  0.47814895  0.04648408  1.0
  C  C71  1  0.01620908  0.54656343  0.12909896  1.0
  C  C72  1  0.90276543  0.56433765  0.16831058  1.0
  C  C73  1  0.98255196  0.60357051  0.21545899  1.0
  C  C74  1  0.18711088  0.62423505  0.22355459  1.0
  C  C75  1  0.29243921  0.60837460  0.18215821  1.0
  C  C76  1  0.20920077  0.57093103  0.13606778  1.0
  C  C77  1  0.85069392  0.62023484  0.25482612  1.0
  C  C78  1  0.09238149  0.43776933  0.96387150  1.0
  C  C79  1  0.08278289  0.40682077  0.87272923  1.0
  C  C80  1  0.94945703  0.38374470  0.82957497  1.0
  C  C81  1  0.01023185  0.37145549  0.78343640  1.0
  C  C82  1  0.21575890  0.38212812  0.77983005  1.0
  C  C83  1  0.34976072  0.40353267  0.82376554  1.0
  C  C84  1  0.28698038  0.41588633  0.86919600  1.0
  C  C85  1  0.85366522  0.34802309  0.74069947  1.0
  C  C86  1  0.34959748  0.44128146  0.01645314  1.0
  N  N87  1  0.85532299  0.91734315  0.42294739  1.0
  N  N88  1  0.97848768  0.00009517  0.46274711  1.0
  N  N89  1  0.08465197  0.08264786  0.50508702  1.0
  N  N90  1  0.31035349  0.03007153  0.45790045  1.0
  N  N91  1  0.43157669  0.57702067  0.49434607  1.0
  N  N92  1  0.51461601  0.53723111  0.53736476  1.0
  N  N93  1  0.57872825  0.49487370  0.57756854  1.0
  N  N94  1  0.85141377  0.54201664  0.57211182  1.0
  N  N95  1  0.93773214  0.50561553  0.08265618  1.0
  N  N96  1  0.97774561  0.46257340  0.99986903  1.0
  N  N97  1  0.00173965  0.42243161  0.91732252  1.0
  N  N98  1  0.27994342  0.42789474  0.96990996  1.0
  O  O99  1  0.93275048  0.25526052  0.58942512  1.0
  O  O100  1  0.19902525  0.30097425  0.64364919  1.0
  O  O101  1  0.54776883  0.26260872  0.63564348  1.0
  O  O102  1  0.42171810  0.75409608  0.35631709  1.0
  O  O103  1  0.62472486  0.70075292  0.35504750  1.0
  O  O104  1  0.01973443  0.73205791  0.38905398  1.0
  O  O105  1  0.34343842  0.41065477  0.66596184  1.0
  O  O106  1  0.55540426  0.35637379  0.65737808  1.0
  O  O107  1  0.91233205  0.36443583  0.62702701  1.0
  O  O108  1  0.06524417  0.64360659  0.39771965  1.0
  O  O109  1  0.26956667  0.64488571  0.34565277  1.0
  O  O110  1  0.63071057  0.61091053  0.34301510  1.0
  O  O111  1  0.67758873  0.33420415  0.74476022  1.0
  O  O112  1  0.89821038  0.34268025  0.69903079  1.0
  O  O113  1  0.28535678  0.37304568  0.73740660  1.0
  O  O114  1  0.66760430  0.60224793  0.24585134  1.0
  O  O115  1  0.92395027  0.65429547  0.29918831  1.0
  O  O116  1  0.28771896  0.65698217  0.26787528  1.0
  F  F117  1  0.21527699  0.89814446  0.37386186  1.0
  F  F118  1  0.84043303  0.62612236  0.52433900  1.0
  F  F119  1  0.31673024  0.47575674  0.10181587  1.0
