# generated using pymatgen
data_AlH5C12(ClO2)3
_symmetry_space_group_name_H-M   'P 1'
_cell_length_a   6.84973802
_cell_length_b   16.30946453
_cell_length_c   20.12471710
_cell_angle_alpha   109.39237123
_cell_angle_beta   90.00000128
_cell_angle_gamma   89.99969412
_symmetry_Int_Tables_number   1
_chemical_formula_structural   AlH5C12(ClO2)3
_chemical_formula_sum   'Al4 H20 C48 Cl12 O24'
_cell_volume   2120.69411873
_cell_formula_units_Z   4
loop_
 _symmetry_equiv_pos_site_id
 _symmetry_equiv_pos_as_xyz
  1  'x, y, z'
loop_
 _atom_site_type_symbol
 _atom_site_label
 _atom_site_symmetry_multiplicity
 _atom_site_fract_x
 _atom_site_fract_y
 _atom_site_fract_z
 _atom_site_occupancy
  Al  Al0  1  0.00651707  0.50467999  0.50646039  1.0
  Al  Al1  1  0.99348177  0.00468111  0.00646023  1.0
  Al  Al2  1  0.50741505  0.50571934  0.50392318  1.0
  Al  Al3  1  0.49258231  0.00571875  0.00392020  1.0
  H  H4  1  0.03501928  0.67697345  0.24507214  1.0
  H  H5  1  0.96497177  0.17697303  0.74507348  1.0
  H  H6  1  0.46650157  0.66666667  0.39321070  1.0
  H  H7  1  0.53348236  0.16667331  0.89321137  1.0
  H  H8  1  0.92752183  0.95581406  0.20461820  1.0
  H  H9  1  0.07247174  0.45581213  0.70462118  1.0
  H  H10  1  0.03167484  0.65594653  0.71360371  1.0
  H  H11  1  0.96832666  0.15594894  0.21360516  1.0
  H  H12  1  0.27276250  0.72137602  0.67125534  1.0
  H  H13  1  0.72723530  0.22137294  0.17125215  1.0
  H  H14  1  0.29522852  0.81586609  0.82950475  1.0
  H  H15  1  0.70478281  0.31586288  0.32950105  1.0
  H  H16  1  0.30374891  0.74064853  0.33073082  1.0
  H  H17  1  0.69624726  0.24065313  0.83073559  1.0
  H  H18  1  0.13053823  0.70100946  0.82395853  1.0
  H  H19  1  0.86946424  0.20100126  0.32395565  1.0
  H  H20  1  0.25181783  0.60433937  0.49161159  1.0
  H  H21  1  0.74818001  0.10434245  0.99161107  1.0
  H  H22  1  0.75390104  0.39536690  0.50147550  1.0
  H  H23  1  0.24609609  0.89536942  0.00147457  1.0
  C  C24  1  0.25435790  0.38416628  0.39783880  1.0
  C  C25  1  0.74563952  0.88416755  0.89783222  1.0
  C  C26  1  0.26066744  0.42181304  0.58293258  1.0
  C  C27  1  0.73933233  0.92181317  0.08293335  1.0
  C  C28  1  0.75658742  0.62288298  0.61449306  1.0
  C  C29  1  0.24341152  0.12288304  0.11449341  1.0
  C  C30  1  0.76010453  0.58361307  0.42316058  1.0
  C  C31  1  0.23989937  0.08361357  0.92316454  1.0
  C  C32  1  0.91026591  0.67610494  0.27856472  1.0
  C  C33  1  0.08972809  0.17610481  0.77856929  1.0
  C  C34  1  0.92376013  0.63013490  0.32581548  1.0
  C  C35  1  0.07623588  0.13013113  0.82581529  1.0
  C  C36  1  0.76285327  0.62765412  0.36876402  1.0
  C  C37  1  0.23713841  0.12765591  0.86876331  1.0
  C  C38  1  0.59130193  0.67013425  0.36078557  1.0
  C  C39  1  0.40869508  0.17013595  0.86078735  1.0
  C  C40  1  0.57661642  0.71534592  0.31325125  1.0
  C  C41  1  0.42337712  0.21535068  0.81325308  1.0
  C  C42  1  0.73980511  0.71989716  0.27219007  1.0
  C  C43  1  0.26018836  0.21989741  0.77219192  1.0
  C  C44  1  0.83961838  0.84937398  0.23898158  1.0
  C  C45  1  0.16036625  0.34937390  0.73898193  1.0
  C  C46  1  0.84280216  0.89616384  0.19239864  1.0
  C  C47  1  0.15718336  0.39616148  0.69240103  1.0
  C  C48  1  0.73558945  0.86724315  0.12996547  1.0
  C  C49  1  0.26440806  0.36724544  0.62996789  1.0
  C  C50  1  0.62853326  0.78963209  0.11307629  1.0
  C  C51  1  0.37146663  0.28963368  0.61307914  1.0
  C  C52  1  0.63110008  0.74157081  0.15960137  1.0
  C  C53  1  0.36889894  0.24157302  0.65960423  1.0
  C  C54  1  0.73530828  0.77097739  0.22353053  1.0
  C  C55  1  0.26468165  0.27097785  0.72353134  1.0
  C  C56  1  0.59258157  0.80305788  0.78059774  1.0
  C  C57  1  0.40741530  0.30305566  0.28059635  1.0
  C  C58  1  0.74945611  0.81630109  0.82713547  1.0
  C  C59  1  0.25055084  0.31629617  0.32713727  1.0
  C  C60  1  0.90320833  0.75539541  0.80255332  1.0
  C  C61  1  0.09679495  0.25539112  0.30255420  1.0
  C  C62  1  0.90804825  0.69907222  0.73199639  1.0
  C  C63  1  0.09195421  0.19907269  0.23199685  1.0
  C  C64  1  0.75196788  0.68928682  0.68603358  1.0
  C  C65  1  0.24803760  0.18928770  0.18603289  1.0
  C  C66  1  0.58896281  0.73963846  0.71429751  1.0
  C  C67  1  0.41103916  0.23963253  0.21429448  1.0
  C  C68  1  0.37285096  0.73005418  0.71540536  1.0
  C  C69  1  0.62715843  0.23005509  0.21540232  1.0
  C  C70  1  0.37376291  0.81528412  0.78217235  1.0
  C  C71  1  0.62624696  0.31526650  0.28216736  1.0
  Cl  Cl72  1  0.34118464  0.63161667  0.74268123  1.0
  Cl  Cl73  1  0.65882447  0.13161256  0.24267649  1.0
  Cl  Cl74  1  0.28769046  0.90722294  0.76066979  1.0
  Cl  Cl75  1  0.71231832  0.40722154  0.26066769  1.0
  Cl  Cl76  1  0.14134659  0.57541128  0.32525620  1.0
  Cl  Cl77  1  0.85864715  0.07540706  0.82525493  1.0
  Cl  Cl78  1  0.96679966  0.89040858  0.31744162  1.0
  Cl  Cl79  1  0.03319328  0.39040636  0.81744358  1.0
  Cl  Cl80  1  0.50533461  0.75001194  0.03428410  1.0
  Cl  Cl81  1  0.49467740  0.25001771  0.53428904  1.0
  Cl  Cl82  1  0.51024785  0.64375230  0.13770192  1.0
  Cl  Cl83  1  0.48976253  0.14375582  0.63770577  1.0
  O  O84  1  0.42432320  0.44384093  0.56485875  1.0
  O  O85  1  0.57567630  0.94384053  0.06485387  1.0
  O  O86  1  0.09006533  0.41095629  0.42606784  1.0
  O  O87  1  0.90993762  0.91095808  0.92606691  1.0
  O  O88  1  0.92267872  0.56929881  0.44777359  1.0
  O  O89  1  0.07731952  0.06929940  0.94777036  1.0
  O  O90  1  0.09249154  0.44199297  0.56667292  1.0
  O  O91  1  0.90751966  0.94199411  0.06667255  1.0
  O  O92  1  0.92440713  0.59544270  0.58972553  1.0
  O  O93  1  0.07559650  0.09544340  0.08972809  1.0
  O  O94  1  0.42301237  0.41084095  0.42283981  1.0
  O  O95  1  0.57699350  0.91084884  0.92283506  1.0
  O  O96  1  0.25649858  0.55772424  0.51151583  1.0
  O  O97  1  0.74349525  0.05772335  0.01151685  1.0
  O  O98  1  0.59178124  0.60060955  0.58467445  1.0
  O  O99  1  0.40820919  0.10060692  0.08467201  1.0
  O  O100  1  0.59186901  0.56622333  0.44234188  1.0
  O  O101  1  0.40812051  0.06622548  0.94234001  1.0
  O  O102  1  0.75617816  0.45351907  0.49850964  1.0
  O  O103  1  0.24382286  0.95352083  0.99850760  1.0
  O  O104  1  0.40997185  0.75698506  0.30533032  1.0
  O  O105  1  0.59001098  0.25699037  0.80533466  1.0
  O  O106  1  0.03956514  0.74806529  0.84908888  1.0
  O  O107  1  0.96044701  0.24806033  0.34908705  1.0
