# generated using pymatgen
data_Hf3H14C39N9O16
_symmetry_space_group_name_H-M   'P 1'
_cell_length_a   17.75515155
_cell_length_b   22.21320731
_cell_length_c   22.21921973
_cell_angle_alpha   65.32222185
_cell_angle_beta   88.69136737
_cell_angle_gamma   88.73933486
_symmetry_Int_Tables_number   1
_chemical_formula_structural   Hf3H14C39N9O16
_chemical_formula_sum   'Hf6 H28 C78 N18 O32'
_cell_volume   7960.06384172
_cell_formula_units_Z   2
loop_
 _symmetry_equiv_pos_site_id
 _symmetry_equiv_pos_as_xyz
  1  'x, y, z'
loop_
 _atom_site_type_symbol
 _atom_site_label
 _atom_site_symmetry_multiplicity
 _atom_site_fract_x
 _atom_site_fract_y
 _atom_site_fract_z
 _atom_site_occupancy
  Hf  Hf0  1  0.79483288  0.95325638  0.02619585  1.0
  Hf  Hf1  1  0.06289725  0.97396840  0.04899531  1.0
  Hf  Hf2  1  0.92704856  0.85899203  0.14532414  1.0
  Hf  Hf3  1  0.93047217  0.06782109  0.92938558  1.0
  Hf  Hf4  1  0.90092567  0.03475413  0.09995355  1.0
  Hf  Hf5  1  0.95806421  0.89559527  0.97445040  1.0
  H  H6  1  0.37907336  0.50800022  0.92758042  1.0
  H  H7  1  0.48603076  0.41342270  0.15344534  1.0
  H  H8  1  0.35257393  0.51739535  0.59469067  1.0
  H  H9  1  0.50841075  0.40435946  0.48254013  1.0
  H  H10  1  0.47666478  0.07267707  0.49193327  1.0
  H  H11  1  0.36979233  0.84662053  0.58760113  1.0
  H  H12  1  0.80093647  0.09143265  0.99070403  1.0
  H  H13  1  0.01372576  0.95224576  0.18091215  1.0
  H  H14  1  0.06022725  0.00261839  0.91159951  1.0
  H  H15  1  0.84589546  0.81863176  0.05964669  1.0
  H  H16  1  0.82995481  0.98590195  0.22523855  1.0
  H  H17  1  0.91106594  0.72757771  0.17707129  1.0
  H  H18  1  0.02745585  0.77043731  0.02940532  1.0
  H  H19  1  0.91975710  0.16329502  0.05975114  1.0
  H  H20  1  0.94162742  0.19643628  0.89216958  1.0
  H  H21  1  0.92177491  0.09225707  0.80293750  1.0
  H  H22  1  0.96476455  0.99831032  0.84637846  1.0
  H  H23  1  0.97194873  0.06725036  0.18610544  1.0
  H  H24  1  0.15809832  0.06140463  0.07226648  1.0
  H  H25  1  0.71626138  0.86621353  0.98056113  1.0
  H  H26  1  0.88261004  0.80629640  0.94905331  1.0
  H  H27  1  0.89567715  0.16039957  0.98916655  1.0
  H  H28  1  0.16632844  0.99090645  0.13209959  1.0
  H  H29  1  0.86602227  0.82577224  0.26411135  1.0
  H  H30  1  0.88633289  0.92533913  0.22877934  1.0
  H  H31  1  0.93254744  0.92796156  0.84775733  1.0
  H  H32  1  0.96452691  0.76893234  0.08522963  1.0
  H  H33  1  0.80165674  0.87734200  0.94832542  1.0
  C  C34  1  0.26356268  0.25911285  0.87544491  1.0
  C  C35  1  0.33601256  0.32710826  0.90106747  1.0
  C  C36  1  0.33662878  0.33421704  0.79634979  1.0
  C  C37  1  0.54894481  0.10385263  0.18532328  1.0
  C  C38  1  0.48187719  0.09940935  0.27491154  1.0
  C  C39  1  0.48424314  0.19446812  0.18093421  1.0
  C  C40  1  0.30838071  0.81492755  0.89766605  1.0
  C  C41  1  0.37152946  0.82009778  0.80608315  1.0
  C  C42  1  0.37478181  0.72565604  0.90070646  1.0
  C  C43  1  0.40985605  0.41841015  0.01142941  1.0
  C  C44  1  0.44043955  0.39074363  0.07639979  1.0
  C  C45  1  0.46244687  0.43393276  0.10398454  1.0
  C  C46  1  0.45577230  0.50306912  0.06940338  1.0
  C  C47  1  0.42453406  0.53063296  0.00467847  1.0
  C  C48  1  0.40284776  0.48751901  0.97696734  1.0
  C  C49  1  0.59356331  0.67048348  0.20209978  1.0
  C  C50  1  0.52789093  0.59848049  0.17659643  1.0
  C  C51  1  0.52443559  0.59152974  0.28133653  1.0
  C  C52  1  0.59521660  0.12248305  0.74206571  1.0
  C  C53  1  0.52160334  0.09842803  0.67367263  1.0
  C  C54  1  0.52313853  0.20280505  0.66725818  1.0
  C  C55  1  0.26124688  0.79575110  0.33267208  1.0
  C  C56  1  0.33378591  0.71750781  0.40909978  1.0
  C  C57  1  0.32901707  0.82186334  0.40313369  1.0
  C  C58  1  0.40830499  0.42632861  0.60562661  1.0
  C  C59  1  0.45287330  0.39387465  0.57356153  1.0
  C  C60  1  0.47412794  0.42900368  0.50701348  1.0
  C  C61  1  0.45277232  0.49544783  0.47162396  1.0
  C  C62  1  0.40788010  0.52778556  0.50361984  1.0
  C  C63  1  0.38679808  0.49274251  0.57018762  1.0
  C  C64  1  0.43145295  0.99511356  0.46983333  1.0
  C  C65  1  0.40033980  0.93029264  0.49766127  1.0
  C  C66  1  0.39335217  0.89613771  0.56681910  1.0
  C  C67  1  0.41500828  0.92419330  0.60969628  1.0
  C  C68  1  0.44575924  0.98914419  0.58179763  1.0
  C  C69  1  0.45289543  0.02324383  0.51267724  1.0
  C  C70  1  0.71901253  0.03032764  0.10826678  1.0
  C  C71  1  0.75353622  0.06494103  0.88654769  1.0
  C  C72  1  0.74628141  0.81962855  0.14717898  1.0
  C  C73  1  0.10639150  0.85239231  0.18539277  1.0
  C  C74  1  0.14007577  0.88859058  0.97618100  1.0
  C  C75  1  0.10637740  0.11354688  0.93177615  1.0
  C  C76  1  0.20784523  0.81353306  0.28090583  1.0
  C  C77  1  0.16148309  0.82742151  0.23751459  1.0
  C  C78  1  0.35267373  0.86690072  0.42929840  1.0
  C  C79  1  0.37571544  0.89875827  0.45818322  1.0
  C  C80  1  0.38380627  0.59420052  0.46887832  1.0
  C  C81  1  0.36127216  0.65108465  0.44012553  1.0
  C  C82  1  0.65027627  0.10288513  0.79250362  1.0
  C  C83  1  0.69797283  0.08699590  0.83495601  1.0
  C  C84  1  0.49450213  0.05370106  0.64850636  1.0
  C  C85  1  0.47063784  0.02094047  0.62091875  1.0
  C  C86  1  0.49789803  0.27002239  0.63655829  1.0
  C  C87  1  0.47633318  0.32724460  0.60812701  1.0
  C  C88  1  0.69084205  0.76770375  0.17050848  1.0
  C  C89  1  0.64537011  0.72362955  0.18397191  1.0
  C  C90  1  0.47660093  0.53007381  0.40514378  1.0
  C  C91  1  0.49852129  0.55936922  0.34812923  1.0
  C  C92  1  0.48077467  0.54291619  0.10037490  1.0
  C  C93  1  0.50413334  0.57221082  0.13172221  1.0
  C  C94  1  0.20574774  0.86493014  0.95237126  1.0
  C  C95  1  0.25589087  0.84343515  0.92828767  1.0
  C  C96  1  0.41236491  0.59963973  0.96892377  1.0
  C  C97  1  0.39782606  0.65815959  0.93662495  1.0
  C  C98  1  0.40395048  0.88850558  0.67888721  1.0
  C  C99  1  0.39124163  0.85645286  0.73780094  1.0
  C  C100  1  0.65283311  0.05220550  0.13336236  1.0
  C  C101  1  0.60212278  0.07444409  0.15618152  1.0
  C  C102  1  0.44387229  0.03064761  0.40081159  1.0
  C  C103  1  0.45872821  0.06293069  0.34233184  1.0
  C  C104  1  0.46390754  0.26268529  0.14480795  1.0
  C  C105  1  0.45124215  0.32156094  0.11245580  1.0
  C  C106  1  0.20853216  0.20854018  0.89412647  1.0
  C  C107  1  0.16117847  0.16581517  0.90936419  1.0
  C  C108  1  0.36200398  0.35187071  0.94641056  1.0
  C  C109  1  0.38530500  0.37920037  0.97960722  1.0
  C  C110  1  0.36311015  0.36475201  0.72957297  1.0
  C  C111  1  0.38492879  0.39234363  0.67234128  1.0
  N  N112  1  0.28677938  0.27685172  0.92305235  1.0
  N  N113  1  0.36257174  0.35820791  0.83836401  1.0
  N  N114  1  0.28678656  0.28489775  0.81164157  1.0
  N  N115  1  0.52622058  0.06662873  0.24808953  1.0
  N  N116  1  0.45975776  0.16352873  0.24434509  1.0
  N  N117  1  0.52846946  0.16730718  0.14842364  1.0
  N  N118  1  0.32788089  0.85223901  0.83408284  1.0
  N  N119  1  0.39605359  0.75663720  0.83642611  1.0
  N  N120  1  0.33120579  0.75211229  0.93429418  1.0
  N  N121  1  0.57377492  0.65122540  0.15457736  1.0
  N  N122  1  0.50219224  0.56599837  0.23942209  1.0
  N  N123  1  0.57007021  0.64378445  0.26583205  1.0
  N  N124  1  0.57096804  0.07557583  0.72367503  1.0
  N  N125  1  0.49595534  0.16145064  0.64295524  1.0
  N  N126  1  0.57286158  0.18660862  0.71663777  1.0
  N  N127  1  0.28623330  0.73242901  0.35830438  1.0
  N  N128  1  0.35653974  0.75950424  0.43437079  1.0
  N  N129  1  0.28131641  0.84335560  0.35178010  1.0
  O  O130  1  0.75646754  0.89820573  0.96361868  1.0
  O  O131  1  0.71000303  0.99764057  0.07400579  1.0
  O  O132  1  0.72733056  0.87075821  0.09540333  1.0
  O  O133  1  0.81904082  0.08837168  0.87125009  1.0
  O  O134  1  0.80822069  0.80874663  0.17742214  1.0
  O  O135  1  0.72976110  0.02323558  0.94304585  1.0
  O  O136  1  0.78105633  0.04767488  0.12391198  1.0
  O  O137  1  0.85982853  0.94382730  0.10319291  1.0
  O  O138  1  0.83733504  0.05505212  0.00506537  1.0
  O  O139  1  0.86853445  0.86005157  0.05388281  1.0
  O  O140  1  0.88403063  0.97194098  0.96164749  1.0
  O  O141  1  0.95805779  0.06846291  0.83718295  1.0
  O  O142  1  0.88071036  0.97638743  0.21391714  1.0
  O  O143  1  0.97718841  0.04128608  0.02470160  1.0
  O  O144  1  0.99101684  0.95507102  0.14044569  1.0
  O  O145  1  0.99884903  0.89615512  0.06187570  1.0
  O  O146  1  0.02377809  0.99022666  0.94789794  1.0
  O  O147  1  0.90548465  0.85573848  0.23851387  1.0
  O  O148  1  0.04245693  0.82648433  0.19624317  1.0
  O  O149  1  0.12910894  0.90196517  0.13311638  1.0
  O  O150  1  0.87960917  0.85427787  0.93216616  1.0
  O  O151  1  0.14931705  0.92588288  0.00566543  1.0
  O  O152  1  0.94495186  0.76320163  0.15159259  1.0
  O  O153  1  0.97525221  0.78239157  0.03398415  1.0
  O  O154  1  0.97276913  0.94657284  0.86371092  1.0
  O  O155  1  0.07758657  0.86909069  0.96338043  1.0
  O  O156  1  0.12999312  0.02478851  0.10545206  1.0
  O  O157  1  0.90505324  0.16331779  0.91801552  1.0
  O  O158  1  0.12853589  0.05992233  0.97992417  1.0
  O  O159  1  0.04360922  0.12493356  0.90361853  1.0
  O  O160  1  0.88376674  0.14557164  0.03886926  1.0
  O  O161  1  0.95957219  0.08570752  0.13956968  1.0
