# generated using pymatgen
data_AlH4C8S2NO5
_symmetry_space_group_name_H-M   'P 1'
_cell_length_a   6.72846552
_cell_length_b   16.83318759
_cell_length_c   18.01164972
_cell_angle_alpha   90.02255242
_cell_angle_beta   91.50743951
_cell_angle_gamma   91.28007259
_symmetry_Int_Tables_number   1
_chemical_formula_structural   AlH4C8S2NO5
_chemical_formula_sum   'Al4 H16 C32 S8 N4 O20'
_cell_volume   2038.81093217
_cell_formula_units_Z   4
loop_
 _symmetry_equiv_pos_site_id
 _symmetry_equiv_pos_as_xyz
  1  'x, y, z'
loop_
 _atom_site_type_symbol
 _atom_site_label
 _atom_site_symmetry_multiplicity
 _atom_site_fract_x
 _atom_site_fract_y
 _atom_site_fract_z
 _atom_site_occupancy
  Al  Al0  1  0.99308404  0.00160400  0.49966129  1.0
  Al  Al1  1  0.49247419  0.99891084  0.49565461  1.0
  Al  Al2  1  0.01210115  0.50075885  0.00116742  1.0
  Al  Al3  1  0.51207034  0.50027118  0.99817602  1.0
  H  H4  1  0.24036799  0.89891524  0.51976977  1.0
  H  H5  1  0.74259472  0.10485420  0.51046503  1.0
  H  H6  1  0.26700783  0.60485447  0.99218449  1.0
  H  H7  1  0.75743981  0.39625369  0.99026042  1.0
  H  H8  1  0.45417848  0.64605071  0.79843095  1.0
  H  H9  1  0.96416716  0.35547382  0.19884117  1.0
  H  H10  1  0.54770207  0.35626735  0.80017224  1.0
  H  H11  1  0.46318816  0.69339281  0.14983759  1.0
  H  H12  1  0.20762476  0.83581228  0.72392598  1.0
  H  H13  1  0.10962948  0.89740588  0.65586736  1.0
  H  H14  1  0.70419297  0.16621716  0.27688950  1.0
  H  H15  1  0.60800500  0.10486781  0.34513194  1.0
  H  H16  1  0.79646273  0.16071624  0.72348174  1.0
  H  H17  1  0.89023245  0.09716568  0.65784123  1.0
  H  H18  1  0.21292468  0.78762776  0.32948477  1.0
  H  H19  1  0.11825389  0.86097218  0.38513366  1.0
  C  C20  1  0.73640394  0.90844044  0.39412119  1.0
  C  C21  1  0.74016423  0.89856937  0.59457369  1.0
  C  C22  1  0.25659137  0.09514711  0.60060645  1.0
  C  C23  1  0.24177605  0.10123875  0.40226591  1.0
  C  C24  1  0.77275048  0.59720418  0.09858763  1.0
  C  C25  1  0.76067182  0.59724382  0.90006307  1.0
  C  C26  1  0.24868470  0.40503990  0.89873746  1.0
  C  C27  1  0.26505681  0.40451628  0.09892074  1.0
  C  C28  1  0.90740235  0.82135377  0.69944135  1.0
  C  C29  1  0.60034963  0.67405132  0.79311546  1.0
  C  C30  1  0.74293580  0.84007361  0.65329388  1.0
  C  C31  1  0.76076075  0.65474679  0.83866006  1.0
  C  C32  1  0.65409401  0.73327931  0.74150602  1.0
  C  C33  1  0.85352327  0.75912158  0.74937853  1.0
  C  C34  1  0.40814824  0.17989173  0.29977663  1.0
  C  C35  1  0.10790241  0.32759121  0.20497288  1.0
  C  C36  1  0.24548093  0.16075470  0.34467939  1.0
  C  C37  1  0.26580594  0.34706331  0.16031683  1.0
  C  C38  1  0.16045791  0.26829277  0.25676154  1.0
  C  C39  1  0.35618483  0.24247209  0.24984804  1.0
  C  C40  1  0.09473423  0.17464245  0.70186244  1.0
  C  C41  1  0.40203852  0.32733394  0.79409863  1.0
  C  C42  1  0.25744846  0.15498269  0.65823202  1.0
  C  C43  1  0.24396869  0.34700450  0.83761288  1.0
  C  C44  1  0.34722875  0.26607041  0.74363078  1.0
  C  C45  1  0.14945833  0.23915661  0.75027307  1.0
  C  C46  1  0.91293803  0.80728594  0.31624528  1.0
  C  C47  1  0.60925838  0.70203500  0.17622488  1.0
  C  C48  1  0.74529255  0.85123854  0.33464611  1.0
  C  C49  1  0.77131486  0.65806307  0.15698327  1.0
  C  C50  1  0.66110101  0.75680667  0.23305525  1.0
  C  C51  1  0.86085545  0.75315192  0.25724289  1.0
  S  S52  1  0.52913430  0.78332150  0.67170372  1.0
  S  S53  1  0.97699095  0.70852388  0.81909049  1.0
  S  S54  1  0.03687502  0.21818769  0.32579767  1.0
  S  S55  1  0.47834300  0.29337242  0.18099492  1.0
  S  S56  1  0.46969214  0.21437035  0.67667217  1.0
  S  S57  1  0.02847917  0.29125528  0.81726863  1.0
  S  S58  1  0.53356172  0.82766903  0.28019070  1.0
  S  S59  1  0.98678060  0.68292010  0.20826394  1.0
  N  N60  1  0.08626789  0.86005835  0.69925445  1.0
  N  N61  1  0.58331496  0.14179930  0.30129161  1.0
  N  N62  1  0.91632661  0.13558666  0.70079724  1.0
  N  N63  1  0.09253203  0.81267297  0.35186457  1.0
  O  O64  1  0.90502371  0.93180641  0.42294063  1.0
  O  O65  1  0.57090559  0.91905758  0.56687295  1.0
  O  O66  1  0.42146958  0.07600917  0.57201740  1.0
  O  O67  1  0.07534678  0.08245441  0.43157820  1.0
  O  O68  1  0.08402275  0.06545105  0.58177042  1.0
  O  O69  1  0.40991481  0.07099585  0.42073513  1.0
  O  O70  1  0.56630907  0.93101665  0.41514498  1.0
  O  O71  1  0.91040086  0.92576903  0.57396459  1.0
  O  O72  1  0.23955290  0.95086488  0.49654195  1.0
  O  O73  1  0.74403623  0.04826859  0.50090647  1.0
  O  O74  1  0.94155387  0.57248570  0.07903207  1.0
  O  O75  1  0.59064250  0.57275305  0.92090829  1.0
  O  O76  1  0.42131623  0.42861075  0.92116671  1.0
  O  O77  1  0.09512897  0.42816060  0.07667670  1.0
  O  O78  1  0.08227100  0.42534084  0.92469788  1.0
  O  O79  1  0.43317786  0.42463895  0.07250120  1.0
  O  O80  1  0.60316680  0.57540346  0.07150507  1.0
  O  O81  1  0.93000484  0.57803797  0.92761130  1.0
  O  O82  1  0.26451523  0.54788040  0.99942504  1.0
  O  O83  1  0.75994252  0.45308143  0.99861055  1.0
