# generated using pymatgen
data_Zn4H7C24S4NO17
_symmetry_space_group_name_H-M   'P 1'
_cell_length_a   19.63515213
_cell_length_b   19.69607559
_cell_length_c   33.31893519
_cell_angle_alpha   79.15269508
_cell_angle_beta   79.34153333
_cell_angle_gamma   64.03283799
_symmetry_Int_Tables_number   1
_chemical_formula_structural   Zn4H7C24S4NO17
_chemical_formula_sum   'Zn16 H28 C96 S16 N4 O68'
_cell_volume   11300.75342291
_cell_formula_units_Z   4
loop_
 _symmetry_equiv_pos_site_id
 _symmetry_equiv_pos_as_xyz
  1  'x, y, z'
loop_
 _atom_site_type_symbol
 _atom_site_label
 _atom_site_symmetry_multiplicity
 _atom_site_fract_x
 _atom_site_fract_y
 _atom_site_fract_z
 _atom_site_occupancy
  Zn  Zn0  1  0.05742711  0.40093982  0.47827080  1.0
  Zn  Zn1  1  0.98327112  0.48368101  0.56020463  1.0
  Zn  Zn2  1  0.06029435  0.56012952  0.48163888  1.0
  Zn  Zn3  1  0.89921551  0.55513108  0.48022130  1.0
  Zn  Zn4  1  0.69506515  0.34985363  0.27091594  1.0
  Zn  Zn5  1  0.69106000  0.18924037  0.26715412  1.0
  Zn  Zn6  1  0.76925779  0.26751817  0.18987114  1.0
  Zn  Zn7  1  0.84878800  0.19402992  0.27309750  1.0
  Zn  Zn8  1  0.26576821  0.76779081  0.68952724  1.0
  Zn  Zn9  1  0.34764979  0.69568933  0.77181252  1.0
  Zn  Zn10  1  0.19176971  0.84954056  0.77099868  1.0
  Zn  Zn11  1  0.19074212  0.68774388  0.76675442  1.0
  Zn  Zn12  1  0.56083612  0.06009279  0.98301140  1.0
  Zn  Zn13  1  0.40058421  0.05552190  0.97848138  1.0
  Zn  Zn14  1  0.55492112  0.90191821  0.97794827  1.0
  Zn  Zn15  1  0.48338686  0.98372040  0.06040645  1.0
  H  H16  1  0.95270738  0.24861514  0.35257887  1.0
  H  H17  1  0.74762947  0.45590812  0.35003992  1.0
  H  H18  1  0.99951076  0.29796074  0.40111339  1.0
  H  H19  1  0.09951617  0.59537294  0.69925197  1.0
  H  H20  1  0.20049887  0.70271852  0.59693025  1.0
  H  H21  1  0.05184888  0.54864228  0.64979719  1.0
  H  H22  1  0.46473630  0.23876855  0.34117845  1.0
  H  H23  1  0.47900923  0.70393833  0.60167054  1.0
  H  H24  1  0.20159502  0.98035540  0.60054278  1.0
  H  H25  1  0.94832132  0.96923733  0.34984390  1.0
  H  H26  1  0.54929271  0.05195097  0.15271160  1.0
  H  H27  1  0.65459327  0.15174051  0.04871650  1.0
  H  H28  1  0.59828203  0.10124734  0.20007969  1.0
  H  H29  1  0.54626733  0.77084075  0.14837533  1.0
  H  H30  1  0.16182396  0.13959674  0.04086631  1.0
  H  H31  1  0.50090455  0.79795105  0.89764767  1.0
  H  H32  1  0.29389794  0.00328288  0.89967349  1.0
  H  H33  1  0.45069372  0.75201887  0.84915368  1.0
  H  H34  1  0.30039134  0.28019277  0.90186831  1.0
  H  H35  1  0.78853595  0.00883554  0.90941053  1.0
  H  H36  1  0.32564101  0.54109176  0.39920222  1.0
  H  H37  1  0.75569014  0.53925527  0.68529370  1.0
  H  H38  1  0.04045657  0.25623738  0.68368586  1.0
  H  H39  1  0.74415122  0.81180185  0.38759552  1.0
  H  H40  1  0.70947218  0.49243312  0.06633618  1.0
  H  H41  1  0.14820322  0.07599963  0.22126144  1.0
  H  H42  1  0.50685902  0.43378478  0.86199094  1.0
  H  H43  1  0.92446180  0.70724310  0.85162563  1.0
  C  C44  1  0.06298512  0.31705816  0.56172523  1.0
  C  C45  1  0.06997728  0.56920861  0.56803256  1.0
  C  C46  1  0.18439983  0.43859590  0.43741341  1.0
  C  C47  1  0.93655779  0.68306902  0.43926676  1.0
  C  C48  1  0.93046388  0.43005769  0.43228378  1.0
  C  C49  1  0.81607663  0.56092465  0.56325898  1.0
  C  C50  1  0.56637922  0.31089639  0.31051665  1.0
  C  C51  1  0.68091026  0.18235090  0.18105833  1.0
  C  C52  1  0.69184653  0.43470872  0.18833562  1.0
  C  C53  1  0.93516775  0.18495474  0.19003248  1.0
  C  C54  1  0.81869469  0.32021309  0.31985652  1.0
  C  C55  1  0.81121909  0.06554777  0.31280417  1.0
  C  C56  1  0.43286564  0.69146209  0.68869343  1.0
  C  C57  1  0.31785336  0.82106745  0.81817328  1.0
  C  C58  1  0.18573072  0.93413424  0.68751410  1.0
  C  C59  1  0.06707486  0.80852664  0.81226891  1.0
  C  C60  1  0.18132454  0.68014124  0.68005262  1.0
  C  C61  1  0.31387960  0.56475830  0.81059734  1.0
  C  C62  1  0.43795493  0.18391412  0.93864042  1.0
  C  C63  1  0.42970985  0.93151775  0.93032515  1.0
  C  C64  1  0.68405341  0.93921019  0.93820649  1.0
  C  C65  1  0.56058845  0.81671575  0.06135366  1.0
  C  C66  1  0.57011202  0.06986811  0.06925571  1.0
  C  C67  1  0.31557785  0.06227407  0.06146012  1.0
  C  C68  1  0.90117175  0.40412113  0.40233277  1.0
  C  C69  1  0.84752978  0.34921390  0.34847414  1.0
  C  C70  1  0.83038453  0.44796776  0.38733947  1.0
  C  C71  1  0.91872276  0.30456425  0.36268060  1.0
  C  C72  1  0.80301093  0.42130709  0.36102840  1.0
  C  C73  1  0.94468886  0.33193919  0.38937725  1.0
  C  C74  1  0.09795113  0.60013115  0.59613150  1.0
  C  C75  1  0.15257741  0.65186550  0.65104752  1.0
  C  C76  1  0.13975929  0.64399411  0.58185717  1.0
  C  C77  1  0.11057800  0.60853478  0.66612135  1.0
  C  C78  1  0.16762278  0.66928203  0.60860418  1.0
  C  C79  1  0.08406331  0.58293488  0.63882171  1.0
  C  C80  1  0.30454105  0.45457520  0.40005726  1.0
  C  C81  1  0.44736175  0.29579124  0.34881308  1.0
  C  C82  1  0.25916354  0.41439357  0.41302033  1.0
  C  C83  1  0.49196295  0.33587033  0.33570573  1.0
  C  C84  1  0.37931045  0.33854331  0.37247987  1.0
  C  C85  1  0.37340254  0.41075814  0.37680864  1.0
  C  C86  1  0.72586118  0.57565653  0.63109897  1.0
  C  C87  1  0.52370443  0.67495885  0.62183307  1.0
  C  C88  1  0.74197249  0.58564470  0.58836104  1.0
  C  C89  1  0.50791999  0.66558560  0.66421722  1.0
  C  C90  1  0.60302951  0.64260405  0.60959724  1.0
  C  C91  1  0.64610214  0.60867669  0.64312909  1.0
  C  C92  1  0.07687598  0.22665437  0.62955825  1.0
  C  C93  1  0.17257140  0.02489914  0.62058606  1.0
  C  C94  1  0.08693800  0.24293058  0.58679898  1.0
  C  C95  1  0.16175652  0.00911135  0.66292903  1.0
  C  C96  1  0.14132870  0.10408266  0.60824408  1.0
  C  C97  1  0.10786268  0.14698222  0.64166842  1.0
  C  C98  1  0.84224160  0.79927401  0.39760049  1.0
  C  C99  1  0.90389955  0.94884721  0.35395551  1.0
  C  C100  1  0.91097409  0.75755509  0.41457644  1.0
  C  C101  1  0.83561810  0.99053363  0.33738510  1.0
  C  C102  1  0.90657517  0.87923532  0.37593270  1.0
  C  C103  1  0.83998679  0.86914375  0.37550832  1.0
  C  C104  1  0.65460329  0.15261281  0.15147701  1.0
  C  C105  1  0.59905260  0.09872490  0.09792266  1.0
  C  C106  1  0.67012242  0.16581362  0.10860103  1.0
  C  C107  1  0.58323049  0.08422454  0.14062548  1.0
  C  C108  1  0.64245234  0.14022486  0.08188153  1.0
  C  C109  1  0.61050995  0.11130237  0.16682211  1.0
  C  C110  1  0.67575283  0.52424815  0.12021333  1.0
  C  C111  1  0.57555977  0.72616871  0.12841856  1.0
  C  C112  1  0.66618072  0.50861381  0.16304315  1.0
  C  C113  1  0.58552585  0.74176523  0.08601748  1.0
  C  C114  1  0.60798690  0.64709366  0.14098996  1.0
  C  C115  1  0.64225625  0.60382240  0.10773391  1.0
  C  C116  1  0.08212250  0.12255657  0.17894418  1.0
  C  C117  1  0.16969460  0.12368000  0.07330841  1.0
  C  C118  1  0.00986715  0.16005917  0.16548841  1.0
  C  C119  1  0.24122748  0.08646602  0.08670306  1.0
  C  C120  1  0.11150853  0.13694385  0.10676084  1.0
  C  C121  1  0.14018865  0.10947814  0.14513905  1.0
  C  C122  1  0.34445471  0.85040424  0.84778275  1.0
  C  C123  1  0.40048462  0.90320444  0.90155413  1.0
  C  C124  1  0.30100138  0.92100117  0.86263842  1.0
  C  C125  1  0.44477580  0.83219298  0.88747697  1.0
  C  C126  1  0.32826550  0.94804164  0.88881645  1.0
  C  C127  1  0.41694373  0.80668970  0.86077130  1.0
  C  C128  1  0.40795949  0.44853413  0.85244896  1.0
  C  C129  1  0.34503553  0.30035667  0.89738940  1.0
  C  C130  1  0.33910334  0.49065055  0.83568803  1.0
  C  C131  1  0.41351627  0.25864144  0.91375694  1.0
  C  C132  1  0.34269704  0.36958929  0.87502670  1.0
  C  C133  1  0.40974316  0.37913271  0.87490738  1.0
  C  C134  1  0.94601649  0.79379273  0.84929517  1.0
  C  C135  1  0.80494870  0.95231547  0.90131235  1.0
  C  C136  1  0.99262919  0.83275316  0.83705469  1.0
  C  C137  1  0.75887939  0.91361089  0.91343448  1.0
  C  C138  1  0.87322507  0.90892927  0.87799099  1.0
  C  C139  1  0.87765352  0.83772985  0.87276827  1.0
  S  S140  1  0.30081956  0.32387419  0.39714565  1.0
  S  S141  1  0.45171781  0.42577262  0.35201197  1.0
  S  S142  1  0.66021789  0.63476102  0.56327329  1.0
  S  S143  1  0.58915949  0.61714731  0.68963394  1.0
  S  S144  1  0.13402358  0.16132888  0.56185159  1.0
  S  S145  1  0.11401517  0.09005843  0.68817714  1.0
  S  S146  1  0.97183883  0.80355791  0.40368201  1.0
  S  S147  1  0.77407779  0.94543462  0.34829598  1.0
  S  S148  1  0.61633995  0.59044783  0.18759499  1.0
  S  S149  1  0.63438165  0.66048376  0.06105623  1.0
  S  S150  1  0.01328722  0.17863441  0.11199923  1.0
  S  S151  1  0.23849039  0.06730763  0.14005641  1.0
  S  S152  1  0.27730967  0.44565095  0.84753857  1.0
  S  S153  1  0.47557092  0.30307578  0.90222999  1.0
  S  S154  1  0.95302337  0.92207039  0.85429817  1.0
  S  S155  1  0.79802577  0.82416713  0.89657170  1.0
  N  N156  1  0.78115242  0.52651500  0.39722138  1.0
  N  N157  1  0.15483599  0.66865056  0.53752107  1.0
  N  N158  1  0.71894882  0.20564983  0.08877642  1.0
  N  N159  1  0.22222885  0.97036469  0.85267557  1.0
  O  O160  1  0.00032232  0.49942018  0.49989633  1.0
  O  O161  1  0.07408217  0.31582565  0.52257988  1.0
  O  O162  1  0.02323817  0.54052160  0.58493256  1.0
  O  O163  1  0.15280895  0.50692867  0.44599013  1.0
  O  O164  1  0.03364675  0.37586508  0.58068946  1.0
  O  O165  1  0.15711325  0.38835462  0.44788841  1.0
  O  O166  1  0.09609867  0.57336356  0.53022710  1.0
  O  O167  1  0.00120251  0.65950720  0.45292498  1.0
  O  O168  1  0.88286665  0.48805626  0.44938651  1.0
  O  O169  1  0.89333929  0.64820835  0.44498343  1.0
  O  O170  1  0.00007589  0.39084370  0.43824210  1.0
  O  O171  1  0.87522478  0.52137132  0.58178631  1.0
  O  O172  1  0.81444881  0.58159501  0.52441811  1.0
  O  O173  1  0.75056585  0.25006204  0.25035482  1.0
  O  O174  1  0.59813804  0.35720008  0.30328434  1.0
  O  O175  1  0.67156690  0.15776110  0.21894446  1.0
  O  O176  1  0.73184853  0.37594607  0.16989729  1.0
  O  O177  1  0.59247798  0.24549565  0.29813403  1.0
  O  O178  1  0.67167843  0.43598254  0.22725292  1.0
  O  O179  1  0.70907087  0.22998359  0.16581129  1.0
  O  O180  1  0.87724358  0.21676273  0.16960610  1.0
  O  O181  1  0.86136162  0.25353851  0.31022997  1.0
  O  O182  1  0.93390429  0.17340615  0.22911090  1.0
  O  O183  1  0.75411585  0.36470072  0.30762758  1.0
  O  O184  1  0.74447911  0.09341271  0.30124467  1.0
  O  O185  1  0.85830470  0.09632315  0.30515268  1.0
  O  O186  1  0.24895406  0.75043904  0.74980455  1.0
  O  O187  1  0.37470145  0.72384229  0.66886186  1.0
  O  O188  1  0.35835222  0.75216139  0.81167764  1.0
  O  O189  1  0.16607778  0.93393463  0.72636323  1.0
  O  O190  1  0.43288878  0.67907492  0.72787348  1.0
  O  O191  1  0.22383619  0.87620901  0.66805512  1.0
  O  O192  1  0.25817914  0.86754093  0.80184865  1.0
  O  O193  1  0.09846871  0.85535580  0.80612263  1.0
  O  O194  1  0.16666054  0.66177779  0.71835869  1.0
  O  O195  1  0.09404282  0.74400435  0.79894404  1.0
  O  O196  1  0.21786501  0.72032930  0.66380998  1.0
  O  O197  1  0.36011430  0.59647671  0.80191893  1.0
  O  O198  1  0.24675878  0.59121351  0.79954682  1.0
  O  O199  1  0.49994457  0.00031432  0.99996550  1.0
  O  O200  1  0.50455998  0.15661168  0.95025625  1.0
  O  O201  1  0.38598590  0.99668652  0.94171104  1.0
  O  O202  1  0.65219856  0.89288365  0.94562239  1.0
  O  O203  1  0.39094566  0.15307742  0.94636870  1.0
  O  O204  1  0.65757681  0.00494619  0.95015365  1.0
  O  O205  1  0.49574775  0.88791967  0.94097724  1.0
  O  O206  1  0.57589372  0.81680614  0.02224650  1.0
  O  O207  1  0.53154599  0.03179952  0.08575809  1.0
  O  O208  1  0.52618364  0.87480266  0.08096466  1.0
  O  O209  1  0.58665503  0.08576194  0.03083555  1.0
  O  O210  1  0.31498460  0.07732087  0.02247017  1.0
  O  O211  1  0.37442367  0.02801004  0.08097049  1.0
  O  O212  1  0.80128585  0.57689525  0.37954728  1.0
  O  O213  1  0.72162681  0.53574727  0.42037042  1.0
  O  O214  1  0.10084200  0.72050170  0.52104483  1.0
  O  O215  1  0.22129388  0.63838374  0.52136981  1.0
  O  O216  1  0.78838610  0.16931038  0.08961269  1.0
  O  O217  1  0.68640137  0.27033806  0.07092533  1.0
  O  O218  1  0.17158295  0.95081734  0.87066740  1.0
  O  O219  1  0.21322923  0.02927914  0.82899811  1.0
  O  O220  1  0.28392219  0.52576355  0.40898181  1.0
  O  O221  1  0.78030147  0.53931214  0.65708341  1.0
  O  O222  1  0.04153003  0.28082964  0.65546526  1.0
  O  O223  1  0.78627448  0.77482126  0.40247430  1.0
  O  O224  1  0.71238291  0.46940261  0.09488725  1.0
  O  O225  1  0.09361621  0.10194420  0.21919000  1.0
  O  O226  1  0.46475108  0.47204875  0.84751461  1.0
  O  O227  1  0.96501789  0.72329862  0.83962155  1.0
