# generated using pymatgen
data_Zn2H10C39(I3O14)2
_symmetry_space_group_name_H-M   'P 1'
_cell_length_a   12.08865998
_cell_length_b   12.23533823
_cell_length_c   23.32771225
_cell_angle_alpha   88.03264838
_cell_angle_beta   86.94176757
_cell_angle_gamma   90.34928683
_symmetry_Int_Tables_number   1
_chemical_formula_structural   Zn2H10C39(I3O14)2
_chemical_formula_sum   'Zn4 H20 C78 I12 O56'
_cell_volume   3443.32144509
_cell_formula_units_Z   2
loop_
 _symmetry_equiv_pos_site_id
 _symmetry_equiv_pos_as_xyz
  1  'x, y, z'
loop_
 _atom_site_type_symbol
 _atom_site_label
 _atom_site_symmetry_multiplicity
 _atom_site_fract_x
 _atom_site_fract_y
 _atom_site_fract_z
 _atom_site_occupancy
  Zn  Zn0  1  0.10764007  0.51255164  0.48963743  1.0
  Zn  Zn1  1  0.88073984  0.49432209  0.50876443  1.0
  Zn  Zn2  1  0.50841540  0.10446588  0.98939977  1.0
  Zn  Zn3  1  0.50595364  0.88311094  0.00916790  1.0
  H  H4  1  0.17174186  0.33338345  0.74182612  1.0
  H  H5  1  0.32542880  0.19502918  0.43343902  1.0
  H  H6  1  0.41131272  0.31609907  0.84019326  1.0
  H  H7  1  0.54264599  0.76993672  0.15566931  1.0
  H  H8  1  0.48784411  0.81202632  0.83406055  1.0
  H  H9  1  0.53469011  0.11159985  0.17491921  1.0
  H  H10  1  0.87465761  0.94440979  0.02821092  1.0
  H  H11  1  0.12849180  0.96877649  0.97754262  1.0
  H  H12  1  0.66834101  0.36140835  0.66998619  1.0
  H  H13  1  0.25242193  0.61748688  0.35211202  1.0
  H  H14  1  0.20369304  0.48634240  0.64716975  1.0
  H  H15  1  0.72647433  0.73259230  0.27399162  1.0
  H  H16  1  0.79875493  0.51079967  0.35384465  1.0
  H  H17  1  0.84518493  0.65936003  0.72143416  1.0
  H  H18  1  0.32129284  0.18785151  0.30956551  1.0
  H  H19  1  0.08801188  0.21560747  0.87362731  1.0
  H  H20  1  0.86446877  0.79402033  0.13636837  1.0
  H  H21  1  0.36510898  0.83414551  0.73641793  1.0
  H  H22  1  0.66695688  0.20040971  0.26063656  1.0
  H  H23  1  0.75365261  0.79865931  0.52853366  1.0
  C  C24  1  0.92961581  0.63537543  0.42014451  1.0
  C  C25  1  0.88059565  0.12989836  0.16993443  1.0
  C  C26  1  0.24556540  0.89848056  0.85842883  1.0
  C  C27  1  0.79211825  0.14684837  0.13261056  1.0
  C  C28  1  0.92978627  0.18341763  0.72076605  1.0
  C  C29  1  0.02243448  0.80838108  0.28735306  1.0
  C  C30  1  0.91670278  0.26939485  0.68018302  1.0
  C  C31  1  0.01524607  0.72458012  0.33013226  1.0
  C  C32  1  0.11191157  0.81064439  0.69863896  1.0
  C  C33  1  0.92081138  0.20577778  0.29853128  1.0
  C  C34  1  0.11083342  0.73055994  0.65667074  1.0
  C  C35  1  0.97355177  0.37098624  0.58675191  1.0
  C  C36  1  0.93378399  0.28574724  0.33973092  1.0
  C  C37  1  0.02364452  0.98682831  0.74760735  1.0
  C  C38  1  0.97731926  0.01830117  0.25290305  1.0
  C  C39  1  0.03705336  0.65388264  0.56711431  1.0
  C  C40  1  0.02947982  0.36143597  0.42308135  1.0
  C  C41  1  0.01407430  0.10167147  0.71197626  1.0
  C  C42  1  0.95803612  0.90701171  0.29247178  1.0
  C  C43  1  0.99648177  0.29155502  0.63510204  1.0
  C  C44  1  0.92595329  0.71902904  0.37146128  1.0
  C  C45  1  0.03037977  0.89563265  0.70057097  1.0
  C  C46  1  0.74413737  0.87977571  0.82842019  1.0
  C  C47  1  0.98993833  0.11141315  0.29684650  1.0
  C  C48  1  0.03586304  0.73606058  0.61320765  1.0
  C  C49  1  0.02020476  0.27955317  0.37729881  1.0
  C  C50  1  0.12851576  0.98797480  0.78624511  1.0
  C  C51  1  0.87855241  0.03982131  0.21123177  1.0
  C  C52  1  0.29813951  0.99849094  0.86896372  1.0
  C  C53  1  0.72111677  0.05842202  0.12265943  1.0
  C  C54  1  0.92323083  0.96217452  0.79374321  1.0
  C  C55  1  0.08262235  0.01507823  0.20803021  1.0
  C  C56  1  0.74917342  0.92913778  0.88110710  1.0
  C  C57  1  0.27505987  0.05642307  0.17265604  1.0
  C  C58  1  0.26346179  0.99404599  0.12416959  1.0
  C  C59  1  0.65505122  0.92967736  0.92579374  1.0
  C  C60  1  0.35663647  0.98059244  0.07995626  1.0
  C  C61  1  0.37192931  0.01441337  0.91796350  1.0
  C  C62  1  0.64692013  0.05166506  0.07300312  1.0
  C  C63  1  0.09256572  0.12663932  0.66484172  1.0
  C  C64  1  0.87792073  0.90399734  0.34068756  1.0
  C  C65  1  0.09284237  0.22863065  0.63378432  1.0
  C  C66  1  0.84991238  0.80407581  0.37126637  1.0
  C  C67  1  0.95427308  0.89749781  0.65522611  1.0
  C  C68  1  0.92731605  0.00820163  0.84957823  1.0
  C  C69  1  0.06861273  0.10179205  0.34042506  1.0
  C  C70  1  0.95836712  0.81987507  0.61210731  1.0
  C  C71  1  0.08782359  0.18779248  0.37714210  1.0
  C  C72  1  0.19778511  0.08197644  0.78991586  1.0
  C  C73  1  0.78982057  0.96395346  0.20798309  1.0
  C  C74  1  0.27102220  0.08980493  0.83481603  1.0
  C  C75  1  0.72434584  0.96558227  0.15980656  1.0
  C  C76  1  0.83291017  0.88899377  0.78633492  1.0
  C  C77  1  0.18630440  0.07003159  0.21352488  1.0
  C  C78  1  0.21268281  0.18510705  0.75173208  1.0
  C  C79  1  0.07127738  0.96126061  0.15516428  1.0
  C  C80  1  0.74183046  0.88216227  0.25282812  1.0
  C  C81  1  0.81172399  0.80510225  0.74108027  1.0
  C  C82  1  0.21673283  0.15947518  0.25390537  1.0
  C  C83  1  0.01733281  0.07643954  0.87456983  1.0
  C  C84  1  0.96907949  0.91126073  0.13166162  1.0
  C  C85  1  0.21694308  0.79042966  0.73108165  1.0
  C  C86  1  0.81690763  0.23412300  0.26670524  1.0
  C  C87  1  0.89158145  0.82829648  0.55880241  1.0
  C  C88  1  0.17217325  0.17897394  0.42246322  1.0
  C  C89  1  0.30405735  0.20403622  0.85095594  1.0
  C  C90  1  0.84525247  0.98574407  0.89293422  1.0
  C  C91  1  0.67124857  0.85790434  0.14578602  1.0
  C  C92  1  0.64504508  0.80578261  0.82293078  1.0
  C  C93  1  0.37926959  0.12461581  0.17410839  1.0
  C  C94  1  0.85709048  0.01989833  0.95407618  1.0
  C  C95  1  0.14021628  0.90767724  0.05539260  1.0
  C  C96  1  0.81991063  0.34804370  0.68445414  1.0
  C  C97  1  0.10424696  0.63726209  0.33272988  1.0
  C  C98  1  0.19720550  0.64159580  0.65192221  1.0
  C  C99  1  0.83971552  0.36406242  0.35166179  1.0
  C  C100  1  0.15886935  0.95474887  0.11339165  1.0
  C  C101  1  0.15090755  0.89761715  0.82499996  1.0
  I  I102  1  0.24337456  0.29121069  0.59323297  1.0
  I  I103  1  0.77004724  0.30032944  0.09227993  1.0
  I  I104  1  0.21059848  0.02069461  0.62569098  1.0
  I  I105  1  0.80374556  0.03459416  0.38694707  1.0
  I  I106  1  0.69252149  0.78064442  0.41537495  1.0
  I  I107  1  0.82811949  0.01347230  0.63831956  1.0
  I  I108  1  0.16159371  0.96166165  0.36456581  1.0
  I  I109  1  0.04335892  0.76240707  0.84666942  1.0
  I  I110  1  0.01241029  0.24281764  0.15597150  1.0
  I  I111  1  0.79698101  0.18784213  0.78451056  1.0
  I  I112  1  0.15433836  0.76865115  0.22706390  1.0
  I  I113  1  0.30778524  0.74755315  0.88983089  1.0
  O  O114  1  0.02620754  0.61463292  0.43520720  1.0
  O  O115  1  0.38818524  0.88241605  0.07038300  1.0
  O  O116  1  0.39611224  0.93232772  0.94879573  1.0
  O  O117  1  0.61494650  0.13861633  0.04715398  1.0
  O  O118  1  0.40441968  0.11248827  0.92696119  1.0
  O  O119  1  0.61968304  0.95502262  0.06052618  1.0
  O  O120  1  0.61683947  0.84050168  0.94974074  1.0
  O  O121  1  0.39463796  0.06723883  0.05517414  1.0
  O  O122  1  0.29560236  0.19578675  0.71980568  1.0
  O  O123  1  0.14387308  0.26884556  0.76439442  1.0
  O  O124  1  0.66642153  0.90919958  0.28601198  1.0
  O  O125  1  0.87229862  0.38858517  0.57495050  1.0
  O  O126  1  0.77303353  0.77688785  0.24621111  1.0
  O  O127  1  0.73155657  0.81036288  0.71153954  1.0
  O  O128  1  0.87698895  0.71625711  0.74459768  1.0
  O  O129  1  0.17808909  0.25081862  0.25531807  1.0
  O  O130  1  0.30552213  0.12853948  0.28368367  1.0
  O  O131  1  0.07153463  0.03813724  0.91343068  1.0
  O  O132  1  0.02351287  0.18023644  0.85625365  1.0
  O  O133  1  0.93025073  0.95749352  0.08951374  1.0
  O  O134  1  0.93578336  0.81544462  0.15402864  1.0
  O  O135  1  0.23343548  0.70249310  0.75541339  1.0
  O  O136  1  0.94333188  0.61491940  0.55648783  1.0
  O  O137  1  0.29789253  0.86654358  0.72138975  1.0
  O  O138  1  0.80666948  0.32274278  0.24190492  1.0
  O  O139  1  0.73092536  0.16359990  0.27656950  1.0
  O  O140  1  0.93530087  0.85905420  0.51257925  1.0
  O  O141  1  0.78608234  0.79285036  0.56653921  1.0
  O  O142  1  0.14893989  0.15815520  0.47300480  1.0
  O  O143  1  0.27724404  0.20319535  0.40105512  1.0
  O  O144  1  0.23831166  0.26069045  0.87851297  1.0
  O  O145  1  0.40218774  0.24067737  0.82808551  1.0
  O  O146  1  0.72655138  0.78453395  0.12378534  1.0
  O  O147  1  0.12563305  0.40015446  0.43261603  1.0
  O  O148  1  0.56588299  0.84361765  0.16559044  1.0
  O  O149  1  0.64912910  0.70654183  0.82191444  1.0
  O  O150  1  0.55005115  0.86427296  0.82494239  1.0
  O  O151  1  0.38118971  0.22402472  0.16935039  1.0
  O  O152  1  0.47035491  0.06201951  0.17868652  1.0
  O  O153  1  0.86235426  0.11383330  0.96962185  1.0
  O  O154  1  0.85749641  0.92879802  0.98764814  1.0
  O  O155  1  0.11478153  0.81318785  0.04738474  1.0
  O  O156  1  0.15619835  0.98815371  0.01505273  1.0
  O  O157  1  0.82883211  0.44106407  0.70097953  1.0
  O  O158  1  0.13065492  0.62978723  0.54235166  1.0
  O  O159  1  0.72540174  0.30520178  0.66565802  1.0
  O  O160  1  0.09464521  0.54402347  0.31740314  1.0
  O  O161  1  0.19815920  0.67646888  0.35555508  1.0
  O  O162  1  0.29438936  0.65784837  0.63765929  1.0
  O  O163  1  0.14988381  0.54131876  0.66116305  1.0
  O  O164  1  0.75007649  0.33087733  0.37236355  1.0
  O  O165  1  0.86303587  0.46973981  0.33886744  1.0
  O  O166  1  0.93946906  0.38455353  0.44991975  1.0
  O  O167  1  0.84051400  0.59357703  0.44434426  1.0
  O  O168  1  0.05561049  0.41244942  0.55800056  1.0
  O  O169  1  0.62232603  0.02523606  0.93730062  1.0
