# generated using pymatgen
data_Zn4H5C17N3O13
_symmetry_space_group_name_H-M   'P 1'
_cell_length_a   10.86635960
_cell_length_b   10.87724852
_cell_length_c   13.22249089
_cell_angle_alpha   99.99237195
_cell_angle_beta   99.08198654
_cell_angle_gamma   95.96298837
_symmetry_Int_Tables_number   1
_chemical_formula_structural   Zn4H5C17N3O13
_chemical_formula_sum   'Zn4 H5 C17 N3 O13'
_cell_volume   1505.93318022
_cell_formula_units_Z   1
loop_
 _symmetry_equiv_pos_site_id
 _symmetry_equiv_pos_as_xyz
  1  'x, y, z'
loop_
 _atom_site_type_symbol
 _atom_site_label
 _atom_site_symmetry_multiplicity
 _atom_site_fract_x
 _atom_site_fract_y
 _atom_site_fract_z
 _atom_site_occupancy
  Zn  Zn0  1  0.42311239  0.61910256  0.57858531  1.0
  Zn  Zn1  1  0.60383054  0.41519027  0.60388405  1.0
  Zn  Zn2  1  0.61960476  0.57898057  0.42764534  1.0
  Zn  Zn3  1  0.38072198  0.36533793  0.39821329  1.0
  H  H4  1  0.49169639  0.40316799  0.90753447  1.0
  H  H5  1  0.37860985  0.97091517  0.47425619  1.0
  H  H6  1  0.43774879  0.33585599  0.06212325  1.0
  H  H7  1  0.53549253  0.69287888  0.92875758  1.0
  H  H8  1  0.97710459  0.45469009  0.39382763  1.0
  C  C9  1  0.83786195  0.49737745  0.53960368  1.0
  C  C10  1  0.47976370  0.16250612  0.49388922  1.0
  C  C11  1  0.17341523  0.48268154  0.47710508  1.0
  C  C12  1  0.47793901  0.44505979  0.22229737  1.0
  C  C13  1  0.52320038  0.56442244  0.77894255  1.0
  C  C14  1  0.52483653  0.59335146  0.89257045  1.0
  C  C15  1  0.50706630  0.50162789  0.94756020  1.0
  C  C16  1  0.55371104  0.82352729  0.50507061  1.0
  C  C17  1  0.47296523  0.42957306  0.10842095  1.0
  C  C18  1  0.50753223  0.52463825  0.05948524  1.0
  C  C19  1  0.03552023  0.47964033  0.47127348  1.0
  C  C20  1  0.47220756  0.02510437  0.49272936  1.0
  C  C21  1  0.54558274  0.65232264  0.11405780  1.0
  C  C22  1  0.04441987  0.52975712  0.66074233  1.0
  C  C23  1  0.70059282  0.02292492  0.52990202  1.0
  C  C24  1  0.97902003  0.50276384  0.55535898  1.0
  C  C25  1  0.57333967  0.96394245  0.50997307  1.0
  N  N26  1  0.57514282  0.75954105  0.14869953  1.0
  N  N27  1  0.09390223  0.55311266  0.74818546  1.0
  N  N28  1  0.80634007  0.06665093  0.54768075  1.0
  O  O29  1  0.50411467  0.49090028  0.49947279  1.0
  O  O30  1  0.57160541  0.23225607  0.55633124  1.0
  O  O31  1  0.64122721  0.76311999  0.47824612  1.0
  O  O32  1  0.78520793  0.52012270  0.45300506  1.0
  O  O33  1  0.39219434  0.19641518  0.43279541  1.0
  O  O34  1  0.20845878  0.40643051  0.40592329  1.0
  O  O35  1  0.55034400  0.54030803  0.27891230  1.0
  O  O36  1  0.55278398  0.45772135  0.74003969  1.0
  O  O37  1  0.49181164  0.65011524  0.72847958  1.0
  O  O38  1  0.41035722  0.36118176  0.25379990  1.0
  O  O39  1  0.78526336  0.47168389  0.61406025  1.0
  O  O40  1  0.45125900  0.77906422  0.52847177  1.0
  O  O41  1  0.24250469  0.56238636  0.55154150  1.0
