# generated using pymatgen
data_ZnH25C24NO6
_symmetry_space_group_name_H-M   'P 1'
_cell_length_a   13.86610991
_cell_length_b   14.05283588
_cell_length_c   15.23901730
_cell_angle_alpha   89.13318690
_cell_angle_beta   89.13209293
_cell_angle_gamma   82.84583027
_symmetry_Int_Tables_number   1
_chemical_formula_structural   ZnH25C24NO6
_chemical_formula_sum   'Zn2 H50 C48 N2 O12'
_cell_volume   2945.72830963
_cell_formula_units_Z   2
loop_
 _symmetry_equiv_pos_site_id
 _symmetry_equiv_pos_as_xyz
  1  'x, y, z'
loop_
 _atom_site_type_symbol
 _atom_site_label
 _atom_site_symmetry_multiplicity
 _atom_site_fract_x
 _atom_site_fract_y
 _atom_site_fract_z
 _atom_site_occupancy
  Zn  Zn0  1  0.50659495  0.59843234  0.49286922  1.0
  Zn  Zn1  1  0.49369362  0.39684293  0.50513801  1.0
  H  H2  1  0.96813647  0.60974829  0.49634754  1.0
  H  H3  1  0.39485940  0.75596890  0.58248623  1.0
  H  H4  1  0.64213457  0.05908502  0.44028791  1.0
  H  H5  1  0.39074751  0.93254406  0.59943449  1.0
  H  H6  1  0.53591782  0.75890738  0.73131002  1.0
  H  H7  1  0.53576689  0.74520174  0.84788990  1.0
  H  H8  1  0.36701913  0.85083418  0.74316043  1.0
  H  H9  1  0.37195980  0.83897219  0.85827420  1.0
  H  H10  1  0.51910220  0.93089059  0.85891580  1.0
  H  H11  1  0.41671986  0.00028384  0.81204383  1.0
  H  H12  1  0.51166611  0.94508165  0.74327995  1.0
  H  H13  1  0.03426177  0.39156263  0.49401299  1.0
  H  H14  1  0.49801644  0.25866907  0.25244385  1.0
  H  H15  1  0.42681268  0.24037608  0.15832260  1.0
  H  H16  1  0.35545020  0.25105117  0.34993034  1.0
  H  H17  1  0.27981561  0.24052420  0.25938258  1.0
  H  H18  1  0.37436508  0.08165227  0.22026681  1.0
  H  H19  1  0.33272074  0.07787387  0.33079244  1.0
  H  H20  1  0.45582377  0.09217667  0.30735297  1.0
  H  H21  1  0.74794390  0.34090570  0.93269362  1.0
  H  H22  1  0.69071360  0.36530556  0.03641222  1.0
  H  H23  1  0.72296171  0.24473410  0.00336398  1.0
  H  H24  1  0.45577465  0.64173968  0.94917105  1.0
  H  H25  1  0.54464186  0.29314375  0.98761198  1.0
  H  H26  1  0.60063763  0.26433127  0.88529797  1.0
  H  H27  1  0.77478304  0.52243631  0.06747263  1.0
  H  H28  1  0.71908081  0.52460726  0.96322270  1.0
  H  H29  1  0.78033944  0.62207317  0.99489484  1.0
  H  H30  1  0.60035104  0.66471090  0.00798619  1.0
  H  H31  1  0.65623231  0.66813235  0.11055393  1.0
  H  H32  1  0.31182712  0.35033870  0.68767948  1.0
  H  H33  1  0.43017868  0.28722837  0.69239719  1.0
  H  H34  1  0.23796700  0.20241677  0.72559786  1.0
  H  H35  1  0.41862962  0.38793617  0.05255190  1.0
  H  H36  1  0.35344496  0.13262384  0.72252224  1.0
  H  H37  1  0.40828223  0.22099721  0.85069962  1.0
  H  H38  1  0.29944070  0.17201447  0.87811254  1.0
  H  H39  1  0.29572212  0.29629018  0.85354317  1.0
  H  H40  1  0.76846458  0.67172363  0.40813627  1.0
  H  H41  1  0.74720916  0.79648640  0.43281010  1.0
  H  H42  1  0.74276609  0.71185717  0.24842463  1.0
  H  H43  1  0.72524311  0.83556208  0.27220855  1.0
  H  H44  1  0.89682449  0.82237452  0.33253636  1.0
  H  H45  1  0.89762207  0.78524378  0.22182610  1.0
  H  H46  1  0.56811356  0.36144597  0.76708160  1.0
  H  H47  1  0.91359991  0.69829485  0.30758753  1.0
  H  H48  1  0.59981264  0.59482330  0.23077226  1.0
  H  H49  1  0.35956350  0.07406379  0.56914097  1.0
  H  H50  1  0.62021729  0.92201580  0.40205716  1.0
  H  H51  1  0.62558981  0.23691801  0.44843109  1.0
  C  C52  1  0.50567592  0.51175081  0.66803799  1.0
  C  C53  1  0.57012635  0.78922844  0.44276134  1.0
  C  C54  1  0.56945935  0.19646507  0.47514161  1.0
  C  C55  1  0.44368363  0.79671110  0.54493784  1.0
  C  C56  1  0.57722281  0.09740739  0.47037155  1.0
  C  C57  1  0.44159862  0.89489122  0.55296219  1.0
  C  C58  1  0.50197665  0.04900973  0.50489957  1.0
  C  C59  1  0.50551147  0.94347179  0.50138502  1.0
  C  C60  1  0.31229267  0.53546475  0.50116060  1.0
  C  C61  1  0.69030651  0.45861802  0.49639798  1.0
  C  C62  1  0.79546532  0.44795202  0.49547536  1.0
  C  C63  1  0.50053022  0.48496077  0.33126924  1.0
  C  C64  1  0.20715436  0.54875345  0.49974487  1.0
  C  C65  1  0.98312969  0.45744981  0.49452856  1.0
  C  C66  1  0.01900244  0.54366009  0.49591441  1.0
  C  C67  1  0.11905891  0.54970295  0.49809737  1.0
  C  C68  1  0.88318219  0.45047359  0.49475802  1.0
  C  C69  1  0.48496274  0.58059596  0.90941314  1.0
  C  C70  1  0.46280500  0.43036282  0.09121948  1.0
  C  C71  1  0.47907486  0.58946374  0.81819066  1.0
  C  C72  1  0.45494163  0.42609683  0.18252644  1.0
  C  C73  1  0.50973335  0.50957715  0.76614285  1.0
  C  C74  1  0.55336478  0.41327853  0.89933711  1.0
  C  C75  1  0.50613940  0.48488327  0.23313470  1.0
  C  C76  1  0.54517807  0.42316593  0.80838847  1.0
  C  C77  1  0.56299094  0.54738376  0.19028962  1.0
  C  C78  1  0.48855279  0.75524116  0.78996826  1.0
  C  C79  1  0.41705448  0.84574328  0.79896395  1.0
  C  C80  1  0.46882066  0.93539579  0.80341698  1.0
  C  C81  1  0.42392021  0.26974133  0.22549871  1.0
  C  C82  1  0.35419963  0.22131031  0.28364036  1.0
  C  C83  1  0.38061788  0.11239451  0.28562148  1.0
  C  C84  1  0.59510351  0.31739246  0.93811073  1.0
  C  C85  1  0.57328882  0.55155827  0.09901439  1.0
  C  C86  1  0.69499834  0.31719625  0.98002908  1.0
  C  C87  1  0.63904797  0.61927772  0.05886978  1.0
  C  C88  1  0.73376326  0.56913018  0.01885708  1.0
  C  C89  1  0.35377824  0.27942934  0.67947321  1.0
  C  C90  1  0.31562660  0.20403793  0.73869292  1.0
  C  C91  1  0.33057716  0.22446381  0.83557696  1.0
  C  C92  1  0.73167742  0.74169040  0.38579967  1.0
  C  C93  1  0.76397364  0.76594835  0.29340288  1.0
  C  C94  1  0.87399609  0.76811169  0.28864056  1.0
  C  C95  1  0.52226157  0.49467058  0.95097115  1.0
  C  C96  1  0.52171665  0.49126441  0.04859087  1.0
  C  C97  1  0.42237786  0.10498672  0.54325768  1.0
  C  C98  1  0.57101338  0.88877413  0.44578397  1.0
  C  C99  1  0.42105830  0.20431466  0.54869183  1.0
  N  N100  1  0.49318686  0.24950195  0.51396481  1.0
  N  N101  1  0.50669069  0.74476032  0.49085213  1.0
  O  O102  1  0.52477244  0.58657242  0.62703604  1.0
  O  O103  1  0.39081736  0.37091514  0.22244408  1.0
  O  O104  1  0.34430075  0.25787070  0.58642185  1.0
  O  O105  1  0.62875719  0.73120463  0.39011349  1.0
  O  O106  1  0.51516112  0.40457834  0.37169026  1.0
  O  O107  1  0.48482030  0.43491886  0.63321059  1.0
  O  O108  1  0.48409859  0.56724187  0.36598185  1.0
  O  O109  1  0.35584941  0.60797398  0.51596463  1.0
  O  O110  1  0.64766833  0.38592119  0.51579547  1.0
  O  O111  1  0.35054909  0.44975029  0.48728626  1.0
  O  O112  1  0.65104153  0.54310602  0.47727614  1.0
  O  O113  1  0.43578687  0.67397427  0.78137970  1.0
