# generated using pymatgen
data_ZnH17C26NO4
_symmetry_space_group_name_H-M   'P 1'
_cell_length_a   13.93523491
_cell_length_b   15.32260424
_cell_length_c   17.22532197
_cell_angle_alpha   89.09614137
_cell_angle_beta   83.22579016
_cell_angle_gamma   87.33824335
_symmetry_Int_Tables_number   1
_chemical_formula_structural   ZnH17C26NO4
_chemical_formula_sum   'Zn2 H34 C52 N2 O8'
_cell_volume   3648.20673585
_cell_formula_units_Z   2
loop_
 _symmetry_equiv_pos_site_id
 _symmetry_equiv_pos_as_xyz
  1  'x, y, z'
loop_
 _atom_site_type_symbol
 _atom_site_label
 _atom_site_symmetry_multiplicity
 _atom_site_fract_x
 _atom_site_fract_y
 _atom_site_fract_z
 _atom_site_occupancy
  Zn  Zn0  1  0.59900864  0.49282580  0.49915709  1.0
  Zn  Zn1  1  0.39702638  0.50259326  0.50928542  1.0
  H  H2  1  0.37496986  0.59656157  0.27550840  1.0
  H  H3  1  0.94136046  0.57422614  0.39217619  1.0
  H  H4  1  0.32455473  0.55374053  0.75582362  1.0
  H  H5  1  0.67846047  0.52739724  0.24776929  1.0
  H  H6  1  0.39303880  0.60940926  0.01009939  1.0
  H  H7  1  0.61560901  0.59771446  0.99404986  1.0
  H  H8  1  0.68780904  0.56509637  0.10554395  1.0
  H  H9  1  0.31925211  0.60082615  0.89467570  1.0
  H  H10  1  0.62999974  0.56431035  0.87781145  1.0
  H  H11  1  0.38238842  0.63543574  0.13439125  1.0
  H  H12  1  0.63567557  0.93325303  0.54551456  1.0
  H  H13  1  0.63281718  0.51808148  0.74034584  1.0
  H  H14  1  0.41172829  0.05835147  0.40899236  1.0
  H  H15  1  0.34756106  0.78076390  0.48834759  1.0
  H  H16  1  0.58733654  0.21948220  0.59099919  1.0
  H  H17  1  0.34562934  0.94328121  0.48183552  1.0
  H  H18  1  0.57950634  0.05805166  0.60368238  1.0
  H  H19  1  0.58827646  0.69374741  0.65857119  1.0
  H  H20  1  0.73769625  0.62956713  0.70420678  1.0
  H  H21  1  0.89903687  0.66087835  0.63289040  1.0
  H  H22  1  0.90850711  0.75969077  0.51585154  1.0
  H  H23  1  0.75815863  0.82529262  0.47084978  1.0
  H  H24  1  0.06481207  0.63080026  0.46035176  1.0
  H  H25  1  0.26813121  0.16555209  0.40684771  1.0
  H  H26  1  0.19035875  0.23879499  0.29910458  1.0
  H  H27  1  0.28079275  0.34582279  0.21145537  1.0
  H  H28  1  0.44946023  0.37823921  0.23214349  1.0
  H  H29  1  0.52696351  0.30479456  0.33921896  1.0
  H  H30  1  0.92080236  0.41677523  0.60353859  1.0
  H  H31  1  0.24406867  0.62718577  0.46768579  1.0
  H  H32  1  0.74097694  0.42077551  0.60031340  1.0
  H  H33  1  0.24892133  0.36748716  0.53564793  1.0
  H  H34  1  0.76058183  0.57103018  0.39839243  1.0
  H  H35  1  0.06949783  0.35942859  0.53342542  1.0
  C  C36  1  0.48820000  0.66836657  0.51460167  1.0
  C  C37  1  0.54829669  0.18322568  0.55172746  1.0
  C  C38  1  0.40996217  0.90621373  0.49628519  1.0
  C  C39  1  0.54436649  0.09290480  0.55827866  1.0
  C  C40  1  0.49155184  0.95029427  0.51208455  1.0
  C  C41  1  0.49368864  0.04647586  0.50769296  1.0
  C  C42  1  0.10263231  0.57082964  0.47710865  1.0
  C  C43  1  0.88860260  0.45071023  0.55623623  1.0
  C  C44  1  0.20163721  0.56967236  0.48118083  1.0
  C  C45  1  0.78907057  0.45279792  0.55520914  1.0
  C  C46  1  0.20412987  0.42413739  0.52074272  1.0
  C  C47  1  0.50205693  0.32779842  0.49723599  1.0
  C  C48  1  0.79997702  0.53799987  0.44226523  1.0
  C  C49  1  0.10496319  0.42049666  0.51913976  1.0
  C  C50  1  0.89989845  0.53956962  0.43961482  1.0
  C  C51  1  0.51852940  0.52697935  0.35316374  1.0
  C  C52  1  0.48362807  0.50406790  0.65677185  1.0
  C  C53  1  0.05198137  0.49521081  0.49750084  1.0
  C  C54  1  0.94620845  0.49482493  0.49733650  1.0
  C  C55  1  0.52560121  0.55709995  0.26968762  1.0
  C  C56  1  0.47896527  0.53209971  0.74005039  1.0
  C  C57  1  0.44300769  0.58987613  0.23735551  1.0
  C  C58  1  0.57184178  0.90021519  0.53246526  1.0
  C  C59  1  0.56468228  0.53681019  0.77501337  1.0
  C  C60  1  0.44767587  0.61115687  0.15844255  1.0
  C  C61  1  0.56243726  0.56323252  0.85176938  1.0
  C  C62  1  0.53523783  0.59939919  0.10866856  1.0
  C  C63  1  0.47382658  0.58579648  0.89707884  1.0
  C  C64  1  0.61902806  0.57257858  0.14294787  1.0
  C  C65  1  0.38842763  0.58298323  0.86070361  1.0
  C  C66  1  0.61429579  0.55122379  0.22200622  1.0
  C  C67  1  0.39070288  0.55645967  0.78355692  1.0
  C  C68  1  0.54182666  0.60388208  0.02379161  1.0
  C  C69  1  0.44720211  0.09375321  0.45128517  1.0
  C  C70  1  0.46687474  0.60348311  0.98040503  1.0
  C  C71  1  0.66267091  0.76392877  0.56122644  1.0
  C  C72  1  0.65832000  0.70819390  0.62692554  1.0
  C  C73  1  0.74272526  0.67172811  0.65243953  1.0
  C  C74  1  0.83314543  0.68948882  0.61264454  1.0
  C  C75  1  0.83835730  0.74477174  0.54720715  1.0
  C  C76  1  0.75386401  0.78205255  0.52202507  1.0
  C  C77  1  0.40280515  0.23014247  0.38075459  1.0
  C  C78  1  0.30808868  0.21186727  0.36811469  1.0
  C  C79  1  0.26424987  0.25340527  0.30779537  1.0
  C  C80  1  0.57404656  0.80875993  0.53652298  1.0
  C  C81  1  0.31479388  0.31344900  0.25872714  1.0
  C  C82  1  0.40941635  0.33160747  0.27032972  1.0
  C  C83  1  0.45295199  0.29041170  0.33076918  1.0
  C  C84  1  0.44937117  0.18494812  0.44431282  1.0
  C  C85  1  0.49157858  0.76574410  0.51924520  1.0
  C  C86  1  0.50048482  0.23002344  0.49610146  1.0
  C  C87  1  0.41045470  0.81564262  0.50042384  1.0
  N  N88  1  0.25112478  0.49788385  0.50312032  1.0
  N  N89  1  0.74585973  0.49511856  0.49889554  1.0
  O  O90  1  0.56827508  0.62574190  0.49787146  1.0
  O  O91  1  0.42126447  0.37020121  0.49763343  1.0
  O  O92  1  0.40497195  0.63589616  0.52561767  1.0
  O  O93  1  0.58392744  0.36032446  0.49993401  1.0
  O  O94  1  0.59667124  0.49996191  0.37944394  1.0
  O  O95  1  0.40435810  0.49341016  0.62895649  1.0
  O  O96  1  0.43460335  0.52970632  0.39165514  1.0
  O  O97  1  0.56816641  0.49484489  0.61923422  1.0
