# generated using pymatgen
data_AlH12C39N7O30
_symmetry_space_group_name_H-M   'P 1'
_cell_length_a   4.41691152
_cell_length_b   18.13089610
_cell_length_c   18.26389029
_cell_angle_alpha   60.42106585
_cell_angle_beta   89.60573424
_cell_angle_gamma   88.46644412
_symmetry_Int_Tables_number   1
_chemical_formula_structural   AlH12C39N7O30
_chemical_formula_sum   'Al1 H12 C39 N7 O30'
_cell_volume   1271.51617701
_cell_formula_units_Z   1
loop_
 _symmetry_equiv_pos_site_id
 _symmetry_equiv_pos_as_xyz
  1  'x, y, z'
loop_
 _atom_site_type_symbol
 _atom_site_label
 _atom_site_symmetry_multiplicity
 _atom_site_fract_x
 _atom_site_fract_y
 _atom_site_fract_z
 _atom_site_occupancy
  Al  Al0  1  0.99098604  0.00188775  0.49941908  1.0
  H  H1  1  0.84785849  0.95815084  0.29389403  1.0
  H  H2  1  0.72417195  0.03261036  0.08820821  1.0
  H  H3  1  0.17026694  0.27021378  0.28516385  1.0
  H  H4  1  0.29877407  0.38889125  0.08245428  1.0
  H  H5  1  0.66990380  0.58945694  0.87758994  1.0
  H  H6  1  0.62830740  0.78869861  0.77176100  1.0
  H  H7  1  0.33119859  0.58025155  0.53434732  1.0
  H  H8  1  0.16746794  0.78174747  0.45235497  1.0
  H  H9  1  0.35904684  0.02802791  0.88798361  1.0
  H  H10  1  0.92427278  0.93260320  0.78946014  1.0
  H  H11  1  0.78769686  0.38092809  0.53551241  1.0
  H  H12  1  0.89900614  0.25019551  0.45825865  1.0
  C  C13  1  0.49495583  0.07236819  0.36856074  1.0
  C  C14  1  0.50167365  0.06212827  0.56963768  1.0
  C  C15  1  0.47652922  0.86970309  0.55932769  1.0
  C  C16  1  0.57691241  0.24979704  0.13741729  1.0
  C  C17  1  0.51019129  0.20673707  0.09347727  1.0
  C  C18  1  0.62873247  0.11089046  0.74934975  1.0
  C  C19  1  0.58306611  0.19980461  0.70727338  1.0
  C  C20  1  0.50566748  0.59364363  0.70275640  1.0
  C  C21  1  0.58521315  0.63646025  0.61719444  1.0
  C  C22  1  0.51441993  0.24320482  0.62081029  1.0
  C  C23  1  0.51078532  0.19844894  0.57639346  1.0
  C  C24  1  0.53374853  0.10969148  0.61833515  1.0
  C  C25  1  0.58418192  0.06609687  0.70599373  1.0
  C  C26  1  0.55979506  0.72515533  0.57072221  1.0
  C  C27  1  0.46614132  0.77336455  0.60836992  1.0
  C  C28  1  0.37427574  0.72981595  0.69300068  1.0
  C  C29  1  0.39754179  0.64076733  0.74030882  1.0
  C  C30  1  0.44125689  0.12030291  0.13902818  1.0
  C  C31  1  0.45052013  0.07760925  0.22728912  1.0
  C  C32  1  0.50216182  0.12064776  0.27230869  1.0
  C  C33  1  0.55976866  0.20782801  0.22574256  1.0
  C  C34  1  0.51203282  0.37894231  0.87849342  1.0
  C  C35  1  0.54738936  0.24344201  0.88022252  1.0
  C  C36  1  0.51444708  0.25170966  0.00093609  1.0
  C  C37  1  0.52218001  0.50041954  0.75068165  1.0
  C  C38  1  0.56451274  0.37628540  0.74687059  1.0
  C  C39  1  0.58251374  0.24687704  0.75360078  1.0
  C  C40  1  0.40601083  0.98395031  0.27356440  1.0
  C  C41  1  0.32323459  0.07176319  0.09754378  1.0
  C  C42  1  0.60966039  0.26040719  0.26691909  1.0
  C  C43  1  0.69855934  0.33911373  0.09387703  1.0
  C  C44  1  0.27315503  0.59948600  0.82934608  1.0
  C  C45  1  0.23148641  0.77418168  0.73662751  1.0
  C  C46  1  0.72412987  0.59203226  0.57242702  1.0
  C  C47  1  0.61263576  0.76579774  0.47785106  1.0
  C  C48  1  0.75380942  0.06252330  0.83853714  1.0
  C  C49  1  0.50921027  0.97381551  0.75580379  1.0
  C  C50  1  0.39271330  0.33419249  0.57389274  1.0
  C  C51  1  0.45976748  0.24649654  0.48325617  1.0
  N  N52  1  0.54201015  0.33283499  0.83526227  1.0
  N  N53  1  0.53208833  0.20370648  0.96386631  1.0
  N  N54  1  0.50028592  0.33670956  0.96218106  1.0
  N  N55  1  0.49662287  0.46329779  0.83461956  1.0
  N  N56  1  0.55852653  0.46059577  0.70571334  1.0
  N  N57  1  0.56628810  0.20122576  0.83784386  1.0
  N  N58  1  0.58872213  0.33168780  0.70703356  1.0
  O  O59  1  0.24343171  0.90890109  0.56747451  1.0
  O  O60  1  0.25863275  0.03038392  0.40228973  1.0
  O  O61  1  0.25951275  0.07376340  0.52784267  1.0
  O  O62  1  0.71118386  0.90323592  0.51675955  1.0
  O  O63  1  0.72943913  0.01423745  0.57544929  1.0
  O  O64  1  0.72675195  0.07767523  0.40689438  1.0
  O  O65  1  0.63642479  0.93549412  0.31551351  1.0
  O  O66  1  0.16124771  0.95384677  0.27171076  1.0
  O  O67  1  0.50538699  0.01852699  0.08803370  1.0
  O  O68  1  0.04972447  0.07828423  0.08212921  1.0
  O  O69  1  0.38385273  0.27636545  0.30299183  1.0
  O  O70  1  0.85902500  0.29097986  0.26312405  1.0
  O  O71  1  0.51769684  0.40304794  0.08195485  1.0
  O  O72  1  0.97191322  0.34665521  0.07919194  1.0
  O  O73  1  0.44894209  0.58881269  0.89187685  1.0
  O  O74  1  0.99933821  0.58652756  0.83802252  1.0
  O  O75  1  0.40591268  0.79503397  0.78103622  1.0
  O  O76  1  0.95420976  0.78409811  0.73425316  1.0
  O  O77  1  0.55268216  0.57890269  0.52149062  1.0
  O  O78  1  0.00031089  0.57883320  0.57840386  1.0
  O  O79  1  0.38149870  0.80038540  0.42818305  1.0
  O  O80  1  0.86275786  0.76301081  0.44881431  1.0
  O  O81  1  0.58099426  0.01423639  0.90222479  1.0
  O  O82  1  0.03049391  0.06506105  0.84549841  1.0
  O  O83  1  0.70684484  0.91488246  0.80424575  1.0
  O  O84  1  0.24167019  0.95870511  0.75092820  1.0
  O  O85  1  0.56627463  0.39544782  0.52130895  1.0
  O  O86  1  0.11865657  0.34444626  0.58002727  1.0
  O  O87  1  0.68709674  0.25140624  0.43525837  1.0
  O  O88  1  0.21022060  0.27914124  0.45348499  1.0
