# generated using pymatgen
data_Zn3H14C20(BrO7)2
_symmetry_space_group_name_H-M   'P 1'
_cell_length_a   18.71456392
_cell_length_b   18.90284744
_cell_length_c   19.14030766
_cell_angle_alpha   109.11597656
_cell_angle_beta   109.58225137
_cell_angle_gamma   108.99227879
_symmetry_Int_Tables_number   1
_chemical_formula_structural   Zn3H14C20(BrO7)2
_chemical_formula_sum   'Zn6 H28 C40 Br4 O28'
_cell_volume   5258.24219711
_cell_formula_units_Z   2
loop_
 _symmetry_equiv_pos_site_id
 _symmetry_equiv_pos_as_xyz
  1  'x, y, z'
loop_
 _atom_site_type_symbol
 _atom_site_label
 _atom_site_symmetry_multiplicity
 _atom_site_fract_x
 _atom_site_fract_y
 _atom_site_fract_z
 _atom_site_occupancy
  Zn  Zn0  1  0.04873524  0.49848269  0.04892286  1.0
  Zn  Zn1  1  0.92118634  0.49419054  0.92379233  1.0
  Zn  Zn2  1  0.95777247  0.94410978  0.51746933  1.0
  Zn  Zn3  1  0.07875866  0.06373600  0.51113096  1.0
  Zn  Zn4  1  0.51068245  0.93573057  0.95469919  1.0
  Zn  Zn5  1  0.51499559  0.06078870  0.07878157  1.0
  H  H6  1  0.92723630  0.12545336  0.67176021  1.0
  H  H7  1  0.14319452  0.91083937  0.32704063  1.0
  H  H8  1  0.70238053  0.95737790  0.19027678  1.0
  H  H9  1  0.30138051  0.07017358  0.89378643  1.0
  H  H10  1  0.70600657  0.93362954  0.36940257  1.0
  H  H11  1  0.28075199  0.07334657  0.70009279  1.0
  H  H12  1  0.83263920  0.03283281  0.32289174  1.0
  H  H13  1  0.15857694  0.95474283  0.73691460  1.0
  H  H14  1  0.08722309  0.28072190  0.71033308  1.0
  H  H15  1  0.99785382  0.77610914  0.32904311  1.0
  H  H16  1  0.30877160  0.68974604  0.91145678  1.0
  H  H17  1  0.74361895  0.25111590  0.10122043  1.0
  H  H18  1  0.26513774  0.82973094  0.98789875  1.0
  H  H19  1  0.67912606  0.12572156  0.91517562  1.0
  H  H20  1  0.19756178  0.59729479  0.92945870  1.0
  H  H21  1  0.85919309  0.34775801  0.08669403  1.0
  H  H22  1  0.18541478  0.46462318  0.95959149  1.0
  H  H23  1  0.16856134  0.44011568  0.85403572  1.0
  H  H24  1  0.23898274  0.41390580  0.91794525  1.0
  H  H25  1  0.89980941  0.54015469  0.15556052  1.0
  H  H26  1  0.84637708  0.56981022  0.08187738  1.0
  H  H27  1  0.83330132  0.58606462  0.17379619  1.0
  H  H28  1  0.00883868  0.72030373  0.94374107  1.0
  H  H29  1  0.10328318  0.77324165  0.04709194  1.0
  H  H30  1  0.09239426  0.82786163  0.98653408  1.0
  H  H31  1  0.61142883  0.19507370  0.76724831  1.0
  H  H32  1  0.71365588  0.27897937  0.79598841  1.0
  H  H33  1  0.70621025  0.18239602  0.79831372  1.0
  C  C34  1  0.06962080  0.60295713  0.94913667  1.0
  C  C35  1  0.84524254  0.38403904  0.96597440  1.0
  C  C36  1  0.13500499  0.66934241  0.94404203  1.0
  C  C37  1  0.77727150  0.31070300  0.96137181  1.0
  C  C38  1  0.87505803  0.98147370  0.40483834  1.0
  C  C39  1  0.11195926  0.99037918  0.63859301  1.0
  C  C40  1  0.03991816  0.14629358  0.62033486  1.0
  C  C41  1  0.04694512  0.91043746  0.40726620  1.0
  C  C42  1  0.41036438  0.04579966  0.93777314  1.0
  C  C43  1  0.60912990  0.99847228  0.14935125  1.0
  C  C44  1  0.37796334  0.86113305  0.97215342  1.0
  C  C45  1  0.62876693  0.08713792  0.99204401  1.0
  C  C46  1  0.66710512  0.98483967  0.28360763  1.0
  C  C47  1  0.33503282  0.04172285  0.79852909  1.0
  C  C48  1  0.66339105  0.98160796  0.21092158  1.0
  C  C49  1  0.34506362  0.05307399  0.87515869  1.0
  C  C50  1  0.72733422  0.96707947  0.33724892  1.0
  C  C51  1  0.26452243  0.03995269  0.73417322  1.0
  C  C52  1  0.80890444  0.99412587  0.34987054  1.0
  C  C53  1  0.18002832  0.99390531  0.70944880  1.0
  C  C54  1  0.01517050  0.38159147  0.90359877  1.0
  C  C55  1  0.02008479  0.62278584  0.12426099  1.0
  C  C56  1  0.97565736  0.19339643  0.70538865  1.0
  C  C57  1  0.09492328  0.84645423  0.30730031  1.0
  C  C58  1  0.03823844  0.21479285  0.68405204  1.0
  C  C59  1  0.04466982  0.83860569  0.34435332  1.0
  C  C60  1  0.96355810  0.25167252  0.76554091  1.0
  C  C61  1  0.08998887  0.77526210  0.24327896  1.0
  C  C62  1  0.02842837  0.32178439  0.84180242  1.0
  C  C63  1  0.02237171  0.69303096  0.19291012  1.0
  C  C64  1  0.27083367  0.71534715  0.93293586  1.0
  C  C65  1  0.73877950  0.23321833  0.03863343  1.0
  C  C66  1  0.29796155  0.80017512  0.96202060  1.0
  C  C67  1  0.68377385  0.15039170  0.97745725  1.0
  C  C68  1  0.20009351  0.65741326  0.93500834  1.0
  C  C69  1  0.79595756  0.29928628  0.03067923  1.0
  C  C70  1  0.17958748  0.41894754  0.90201606  1.0
  C  C71  1  0.87810359  0.58625152  0.14890337  1.0
  C  C72  1  0.07885455  0.76543823  0.98270043  1.0
  C  C73  1  0.68198649  0.22860159  0.80883897  1.0
  Br  Br74  1  0.84382375  0.21334562  0.73291156  1.0
  Br  Br75  1  0.18749779  0.80235645  0.22464865  1.0
  Br  Br76  1  0.59421909  0.01065007  0.32463179  1.0
  Br  Br77  1  0.41427693  0.02640522  0.76093565  1.0
  O  O78  1  0.09816430  0.57667769  0.99958610  1.0
  O  O79  1  0.81966689  0.41096295  0.91329275  1.0
  O  O80  1  0.43743680  0.09399496  0.01726958  1.0
  O  O81  1  0.59108829  0.95553084  0.07298302  1.0
  O  O82  1  0.41043842  0.83493110  0.92552477  1.0
  O  O83  1  0.61445760  0.11352194  0.05354153  1.0
  O  O84  1  0.41147501  0.93879941  0.02879156  1.0
  O  O85  1  0.59732469  0.00725103  0.93863856  1.0
  O  O86  1  0.98850674  0.57716367  0.90181319  1.0
  O  O87  1  0.92403905  0.41589176  0.02121059  1.0
  O  O88  1  0.06626974  0.41032841  0.98311530  1.0
  O  O89  1  0.96579966  0.59623954  0.04825417  1.0
  O  O90  1  0.95847686  0.40247684  0.87535330  1.0
  O  O91  1  0.07005208  0.59240962  0.14848102  1.0
  O  O92  1  0.85194328  0.92993761  0.43339937  1.0
  O  O93  1  0.13575839  0.03749431  0.60747408  1.0
  O  O94  1  0.95229560  0.02497913  0.42096948  1.0
  O  O95  1  0.03222836  0.93781220  0.61246499  1.0
  O  O96  1  0.98938092  0.06899464  0.59665899  1.0
  O  O97  1  0.09763192  0.98892623  0.43002955  1.0
  O  O98  1  0.09278024  0.16932603  0.59255833  1.0
  O  O99  1  0.99529304  0.88844055  0.43551553  1.0
  O  O100  1  0.43391860  0.99199183  0.91046737  1.0
  O  O101  1  0.58596574  0.05456925  0.17531377  1.0
  O  O102  1  0.11077207  0.33362016  0.86712300  1.0
  O  O103  1  0.95000442  0.67280260  0.20085071  1.0
  O  O104  1  0.12565030  0.73725611  0.94371640  1.0
  O  O105  1  0.69522444  0.26389565  0.89401258  1.0
