# generated using pymatgen
data_ZnH11C18NO6
_symmetry_space_group_name_H-M   'P 1'
_cell_length_a   10.99966934
_cell_length_b   13.96008419
_cell_length_c   15.37797130
_cell_angle_alpha   89.75130398
_cell_angle_beta   91.63540452
_cell_angle_gamma   89.82120621
_symmetry_Int_Tables_number   1
_chemical_formula_structural   ZnH11C18NO6
_chemical_formula_sum   'Zn2 H22 C36 N2 O12'
_cell_volume   2360.38799861
_cell_formula_units_Z   2
loop_
 _symmetry_equiv_pos_site_id
 _symmetry_equiv_pos_as_xyz
  1  'x, y, z'
loop_
 _atom_site_type_symbol
 _atom_site_label
 _atom_site_symmetry_multiplicity
 _atom_site_fract_x
 _atom_site_fract_y
 _atom_site_fract_z
 _atom_site_occupancy
  Zn  Zn0  1  0.48721005  0.39837114  0.50333334  1.0
  Zn  Zn1  1  0.49030720  0.60291892  0.50233768  1.0
  H  H2  1  0.86477045  0.56446640  0.38983851  1.0
  H  H3  1  0.09141749  0.56107650  0.38113786  1.0
  H  H4  1  0.39381711  0.06742921  0.37972137  1.0
  H  H5  1  0.63481406  0.07081838  0.60877370  1.0
  H  H6  1  0.78145038  0.44610906  0.67652668  1.0
  H  H7  1  0.23265598  0.43249987  0.65536848  1.0
  H  H8  1  0.90861951  0.39281240  0.80166931  1.0
  H  H9  1  0.13530401  0.38490337  0.79095439  1.0
  H  H10  1  0.44537710  0.34706539  0.94453734  1.0
  H  H11  1  0.33729725  0.40501877  0.05878893  1.0
  H  H12  1  0.53968600  0.64205069  0.77840896  1.0
  H  H13  1  0.63345183  0.60414083  0.22614296  1.0
  H  H14  1  0.54098023  0.64728295  0.94050565  1.0
  H  H15  1  0.64325406  0.59743095  0.06484484  1.0
  H  H16  1  0.68815060  0.92801951  0.55017210  1.0
  H  H17  1  0.31463717  0.93866590  0.45537451  1.0
  H  H18  1  0.67109358  0.74945611  0.55227995  1.0
  H  H19  1  0.31340857  0.75937084  0.46198133  1.0
  H  H20  1  0.42809827  0.31823721  0.35548507  1.0
  H  H21  1  0.67798521  0.31997908  0.57961600  1.0
  H  H22  1  0.44245474  0.33887975  0.71553814  1.0
  H  H23  1  0.26737628  0.36122878  0.19122167  1.0
  C  C24  1  0.48990789  0.49418776  0.67444618  1.0
  C  C25  1  0.48690477  0.50692833  0.33093654  1.0
  C  C26  1  0.49145052  0.49388579  0.77053790  1.0
  C  C27  1  0.48563403  0.50502005  0.23378964  1.0
  C  C28  1  0.51986497  0.57816218  0.81638090  1.0
  C  C29  1  0.56965254  0.55985699  0.18865803  1.0
  C  C30  1  0.52136331  0.58062558  0.90640453  1.0
  C  C31  1  0.57408940  0.55696134  0.09838651  1.0
  C  C32  1  0.49288069  0.49747452  0.95422239  1.0
  C  C33  1  0.49135502  0.50014000  0.05021778  1.0
  C  C34  1  0.60264255  0.89398959  0.53097708  1.0
  C  C35  1  0.39608109  0.89972135  0.47687439  1.0
  C  C36  1  0.59429813  0.79482749  0.53233803  1.0
  C  C37  1  0.39426543  0.80034837  0.48049784  1.0
  C  C38  1  0.50228121  0.94901070  0.50215218  1.0
  C  C39  1  0.44599649  0.10397011  0.43060587  1.0
  C  C40  1  0.58252660  0.10551362  0.55642943  1.0
  C  C41  1  0.45628749  0.20369330  0.42632950  1.0
  C  C42  1  0.58891366  0.20507190  0.54794099  1.0
  C  C43  1  0.50896545  0.05459059  0.49722641  1.0
  C  C44  1  0.72780695  0.50519350  0.51494801  1.0
  C  C45  1  0.25385306  0.49823363  0.50157433  1.0
  C  C46  1  0.87988832  0.44256396  0.67084860  1.0
  C  C47  1  0.13399731  0.43573685  0.65954381  1.0
  C  C48  1  0.95130532  0.41301456  0.74115368  1.0
  C  C49  1  0.07928836  0.40891658  0.73534020  1.0
  C  C50  1  0.06340450  0.46768290  0.58618567  1.0
  C  C51  1  0.93310452  0.47001752  0.59138180  1.0
  C  C52  1  0.86348540  0.50400168  0.51773455  1.0
  C  C53  1  0.11811858  0.50025654  0.50848521  1.0
  C  C54  1  0.92036033  0.53744689  0.44444992  1.0
  C  C55  1  0.04781261  0.53549863  0.43961966  1.0
  C  C56  1  0.46462868  0.41313699  0.90954167  1.0
  C  C57  1  0.40537817  0.44663785  0.09520529  1.0
  C  C58  1  0.46359717  0.40985121  0.81841667  1.0
  C  C59  1  0.40260965  0.44834488  0.18583486  1.0
  N  N60  1  0.49198657  0.74867441  0.50725338  1.0
  N  N61  1  0.52136859  0.25383811  0.48703550  1.0
  O  O62  1  0.46646803  0.41321495  0.63626396  1.0
  O  O63  1  0.49643295  0.42593031  0.37089056  1.0
  O  O64  1  0.51083099  0.57150638  0.63411504  1.0
  O  O65  1  0.48281821  0.58762536  0.36749853  1.0
  O  O66  1  0.67111755  0.42689701  0.53062690  1.0
  O  O67  1  0.30356861  0.41676941  0.49257717  1.0
  O  O68  1  0.67578897  0.58315200  0.49361034  1.0
  O  O69  1  0.30761329  0.57885144  0.50557008  1.0
  O  O70  1  0.40065011  0.24985572  0.36042118  1.0
  O  O71  1  0.66378208  0.25322283  0.60161857  1.0
  O  O72  1  0.43569481  0.32587588  0.77967285  1.0
  O  O73  1  0.31756253  0.39890991  0.23134705  1.0
