# generated using pymatgen
data_CuSiH16C24N4(O2F3)2
_symmetry_space_group_name_H-M   'P 1'
_cell_length_a   7.98107327
_cell_length_b   13.73165716
_cell_length_c   13.73155198
_cell_angle_alpha   89.90142114
_cell_angle_beta   90.20310293
_cell_angle_gamma   89.79814107
_symmetry_Int_Tables_number   1
_chemical_formula_structural   CuSiH16C24N4(O2F3)2
_chemical_formula_sum   'Cu1 Si1 H16 C24 N4 O4 F6'
_cell_volume   1504.86589146
_cell_formula_units_Z   1
loop_
 _symmetry_equiv_pos_site_id
 _symmetry_equiv_pos_as_xyz
  1  'x, y, z'
loop_
 _atom_site_type_symbol
 _atom_site_label
 _atom_site_symmetry_multiplicity
 _atom_site_fract_x
 _atom_site_fract_y
 _atom_site_fract_z
 _atom_site_occupancy
  Cu  Cu0  1  0.49998799  0.49999549  0.49999245  1.0
  Si  Si1  1  0.99999869  0.49999875  0.50000033  1.0
  H  H2  1  0.76279590  0.65175425  0.49970661  1.0
  H  H3  1  0.78237831  0.83176837  0.50003505  1.0
  H  H4  1  0.23918242  0.66115887  0.50042353  1.0
  H  H5  1  0.76078371  0.33883281  0.49961672  1.0
  H  H6  1  0.23716851  0.34823392  0.50018070  1.0
  H  H7  1  0.21759123  0.16821758  0.49988941  1.0
  H  H8  1  0.76280903  0.50038566  0.34823556  1.0
  H  H9  1  0.78238190  0.50002385  0.16821874  1.0
  H  H10  1  0.23919688  0.49958317  0.33883058  1.0
  H  H11  1  0.76077651  0.50044277  0.66116013  1.0
  H  H12  1  0.23716476  0.49950265  0.65174798  1.0
  H  H13  1  0.21759435  0.49988120  0.83176551  1.0
  H  H14  1  0.23070258  0.92063868  0.50005590  1.0
  H  H15  1  0.76928354  0.07935517  0.49996980  1.0
  H  H16  1  0.23070476  0.49991799  0.07934654  1.0
  H  H17  1  0.76928240  0.50010357  0.92063689  1.0
  C  C18  1  0.65003529  0.69635164  0.49998365  1.0
  C  C19  1  0.65985959  0.79701443  0.50007428  1.0
  C  C20  1  0.51198872  0.85297279  0.50013871  1.0
  C  C21  1  0.35710719  0.80282989  0.50016154  1.0
  C  C22  1  0.35705994  0.70103209  0.50019097  1.0
  C  C23  1  0.50953457  0.95570236  0.50007974  1.0
  C  C24  1  0.49043899  0.04428497  0.49992702  1.0
  C  C25  1  0.48797476  0.14701966  0.49985420  1.0
  C  C26  1  0.64286388  0.19715817  0.49985322  1.0
  C  C27  1  0.64289485  0.29895598  0.49982377  1.0
  C  C28  1  0.34992548  0.30363722  0.49994298  1.0
  C  C29  1  0.34010249  0.20297370  0.49987057  1.0
  C  C30  1  0.65005015  0.50008970  0.30363859  1.0
  C  C31  1  0.65986758  0.49999186  0.20297728  1.0
  C  C32  1  0.51199828  0.49988427  0.14701542  1.0
  C  C33  1  0.35711896  0.49985391  0.19715555  1.0
  C  C34  1  0.35707858  0.49983830  0.29895340  1.0
  C  C35  1  0.50953852  0.49992139  0.04428579  1.0
  C  C36  1  0.49044384  0.50004410  0.95570716  1.0
  C  C37  1  0.48797154  0.50008123  0.85297533  1.0
  C  C38  1  0.64285573  0.50014873  0.80283007  1.0
  C  C39  1  0.64289864  0.50016215  0.70103514  1.0
  C  C40  1  0.34992979  0.49983865  0.69634783  1.0
  C  C41  1  0.34010858  0.49994377  0.79700913  1.0
  N  N42  1  0.50100500  0.64992492  0.50004777  1.0
  N  N43  1  0.49896470  0.35006317  0.49992694  1.0
  N  N44  1  0.50101201  0.50000718  0.35006474  1.0
  N  N45  1  0.49895653  0.49995688  0.64991654  1.0
  O  O46  1  0.20783707  0.85055033  0.50016394  1.0
  O  O47  1  0.79213529  0.14944499  0.49986757  1.0
  O  O48  1  0.20784299  0.49983311  0.14943528  1.0
  O  O49  1  0.79213032  0.50020959  0.85054740  1.0
  F  F50  1  0.78288263  0.49524658  0.50474464  1.0
  F  F51  1  0.21711719  0.50474656  0.49525194  1.0
  F  F52  1  0.00000029  0.58791617  0.58792308  1.0
  F  F53  1  0.00000323  0.41207988  0.41207742  1.0
  F  F54  1  0.98853130  0.58796271  0.41204218  1.0
  F  F55  1  0.01147228  0.41203406  0.58795950  1.0
