# generated using pymatgen
data_ZnH16C20NO6
_symmetry_space_group_name_H-M   'P 1'
_cell_length_a   14.83476130
_cell_length_b   16.01285487
_cell_length_c   16.16149900
_cell_angle_alpha   89.65962507
_cell_angle_beta   89.75672986
_cell_angle_gamma   89.77650283
_symmetry_Int_Tables_number   1
_chemical_formula_structural   ZnH16C20NO6
_chemical_formula_sum   'Zn2 H32 C40 N2 O12'
_cell_volume   3838.98247939
_cell_formula_units_Z   2
loop_
 _symmetry_equiv_pos_site_id
 _symmetry_equiv_pos_as_xyz
  1  'x, y, z'
loop_
 _atom_site_type_symbol
 _atom_site_label
 _atom_site_symmetry_multiplicity
 _atom_site_fract_x
 _atom_site_fract_y
 _atom_site_fract_z
 _atom_site_occupancy
  Zn  Zn0  1  0.40606105  0.50021395  0.50016274  1.0
  Zn  Zn1  1  0.59513010  0.49875258  0.50065962  1.0
  H  H2  1  0.08487577  0.38333524  0.56831835  1.0
  H  H3  1  0.08481638  0.61688990  0.43249943  1.0
  H  H4  1  0.41118609  0.08970539  0.31955004  1.0
  H  H5  1  0.30145485  0.07363012  0.35992226  1.0
  H  H6  1  0.36429852  0.16225687  0.39004632  1.0
  H  H7  1  0.54472048  0.06266802  0.30825303  1.0
  H  H8  1  0.58394960  0.15555993  0.35508100  1.0
  H  H9  1  0.66076121  0.07482033  0.32871625  1.0
  H  H10  1  0.44740187  0.95650377  0.30790577  1.0
  H  H11  1  0.42315847  0.85450903  0.34574122  1.0
  H  H12  1  0.33516037  0.92761071  0.32844980  1.0
  H  H13  1  0.91631674  0.38355749  0.56830058  1.0
  H  H14  1  0.56771803  0.92528862  0.31094407  1.0
  H  H15  1  0.68151881  0.92680961  0.34185335  1.0
  H  H16  1  0.61210082  0.84139299  0.36991657  1.0
  H  H17  1  0.73457453  0.94613275  0.46742671  1.0
  H  H18  1  0.67226063  0.96288101  0.55918950  1.0
  H  H19  1  0.67471033  0.86157032  0.51296301  1.0
  H  H20  1  0.26603264  0.93680661  0.45341606  1.0
  H  H21  1  0.32616027  0.84382848  0.47924070  1.0
  H  H22  1  0.32160243  0.92916860  0.54957286  1.0
  H  H23  1  0.42652321  0.05884038  0.67705371  1.0
  H  H24  1  0.63858834  0.07496818  0.47614262  1.0
  H  H25  1  0.58096999  0.13253482  0.61685699  1.0
  H  H26  1  0.35092219  0.48289185  0.14438319  1.0
  H  H27  1  0.65007643  0.48492330  0.14187886  1.0
  H  H28  1  0.35624815  0.05962094  0.49991547  1.0
  H  H29  1  0.43663254  0.92868883  0.60696500  1.0
  H  H30  1  0.55510087  0.92520982  0.61098303  1.0
  H  H31  1  0.35307498  0.48478339  0.92396063  1.0
  H  H32  1  0.64562989  0.48730976  0.92151397  1.0
  H  H33  1  0.91627615  0.61711828  0.43251007  1.0
  C  C34  1  0.50004908  0.49503657  0.33849142  1.0
  C  C35  1  0.58259009  0.48530511  0.04171680  1.0
  C  C36  1  0.41739944  0.48406646  0.04311432  1.0
  C  C37  1  0.50023472  0.48490043  0.08672930  1.0
  C  C38  1  0.49876159  0.48962270  0.82601345  1.0
  C  C39  1  0.50164067  0.66151176  0.49561670  1.0
  C  C40  1  0.50063889  0.48686740  0.17361540  1.0
  C  C41  1  0.50066794  0.49003715  0.24926810  1.0
  C  C42  1  0.49835462  0.49345261  0.75070463  1.0
  C  C43  1  0.04731919  0.56638154  0.46188527  1.0
  C  C44  1  0.95378848  0.56650210  0.46187859  1.0
  C  C45  1  0.50020453  0.04659953  0.57805225  1.0
  C  C46  1  0.09384988  0.50006849  0.50034149  1.0
  C  C47  1  0.90731609  0.50029428  0.50033249  1.0
  C  C48  1  0.04737307  0.43392221  0.53889360  1.0
  C  C49  1  0.95384236  0.43404152  0.53888754  1.0
  C  C50  1  0.18965042  0.49993202  0.50010830  1.0
  C  C51  1  0.81152205  0.50009724  0.50013789  1.0
  C  C52  1  0.49849373  0.49764257  0.66137384  1.0
  C  C53  1  0.50248751  0.33715270  0.49942293  1.0
  C  C54  1  0.41045771  0.94989215  0.44093452  1.0
  C  C55  1  0.59101613  0.95179820  0.44477025  1.0
  C  C56  1  0.49806149  0.95054869  0.57611892  1.0
  C  C57  1  0.58256269  0.04972952  0.43974743  1.0
  C  C58  1  0.40538647  0.04744587  0.45039081  1.0
  C  C59  1  0.50104947  0.24696216  0.49627717  1.0
  C  C60  1  0.50022824  0.91807481  0.48564216  1.0
  C  C61  1  0.49581827  0.08084420  0.48649352  1.0
  C  C62  1  0.36944712  0.09555958  0.37526597  1.0
  C  C63  1  0.59285566  0.08748793  0.35298273  1.0
  C  C64  1  0.40476315  0.92082920  0.35049414  1.0
  C  C65  1  0.61311783  0.90954613  0.36161263  1.0
  C  C66  1  0.67226014  0.92914285  0.50045813  1.0
  C  C67  1  0.49685368  0.17137354  0.49082952  1.0
  C  C68  1  0.32677139  0.91225289  0.48403646  1.0
  C  C69  1  0.50135877  0.82746263  0.48889748  1.0
  C  C70  1  0.50175705  0.75159294  0.49238718  1.0
  C  C71  1  0.41672057  0.48485742  0.95713637  1.0
  C  C72  1  0.58234975  0.48623214  0.95573759  1.0
  C  C73  1  0.49928775  0.48653814  0.91367266  1.0
  N  N74  1  0.73335646  0.49959511  0.49988040  1.0
  N  N75  1  0.26782562  0.49988153  0.49969053  1.0
  O  O76  1  0.42275488  0.50149033  0.37246617  1.0
  O  O77  1  0.58007867  0.07140284  0.61908477  1.0
  O  O78  1  0.33771582  0.48293416  0.08495582  1.0
  O  O79  1  0.66271357  0.48543602  0.08224228  1.0
  O  O80  1  0.57675706  0.49252971  0.37350417  1.0
  O  O81  1  0.42465988  0.62646998  0.49999133  1.0
  O  O82  1  0.57834148  0.62536908  0.49352338  1.0
  O  O83  1  0.42173129  0.49619175  0.62624763  1.0
  O  O84  1  0.57550486  0.50222789  0.62634695  1.0
  O  O85  1  0.42610119  0.37368189  0.49574763  1.0
  O  O86  1  0.57956949  0.37151235  0.50498992  1.0
  O  O87  1  0.42395188  0.08059285  0.62065763  1.0
