# generated using pymatgen
data_Zn2H3C43Br20(NO5)2
_symmetry_space_group_name_H-M   'P 1'
_cell_length_a   17.01449467
_cell_length_b   17.78130853
_cell_length_c   28.59317022
_cell_angle_alpha   89.78938565
_cell_angle_beta   89.80215379
_cell_angle_gamma   88.69238008
_symmetry_Int_Tables_number   1
_chemical_formula_structural   Zn2H3C43Br20(NO5)2
_chemical_formula_sum   'Zn4 H6 C86 Br40 N4 O20'
_cell_volume   8648.21682795
_cell_formula_units_Z   2
loop_
 _symmetry_equiv_pos_site_id
 _symmetry_equiv_pos_as_xyz
  1  'x, y, z'
loop_
 _atom_site_type_symbol
 _atom_site_label
 _atom_site_symmetry_multiplicity
 _atom_site_fract_x
 _atom_site_fract_y
 _atom_site_fract_z
 _atom_site_occupancy
  Zn  Zn0  1  0.40785846  0.48814555  0.51215216  1.0
  Zn  Zn1  1  0.58727694  0.48362744  0.49563160  1.0
  Zn  Zn2  1  0.58860546  0.48301176  0.12219303  1.0
  Zn  Zn3  1  0.40723859  0.48884757  0.11418046  1.0
  H  H4  1  0.37896987  0.40432496  0.22489728  1.0
  H  H5  1  0.39674006  0.38750498  0.39779059  1.0
  H  H6  1  0.62090937  0.52677070  0.35129527  1.0
  H  H7  1  0.61793957  0.52627302  0.26380204  1.0
  H  H8  1  0.33215199  0.28160353  0.22024015  1.0
  H  H9  1  0.27039545  0.37729933  0.41276899  1.0
  C  C10  1  0.47868992  0.62806139  0.49861822  1.0
  C  C11  1  0.51835009  0.47344888  0.41103530  1.0
  C  C12  1  0.46547319  0.34429549  0.50241270  1.0
  C  C13  1  0.53345343  0.49817451  0.58936736  1.0
  C  C14  1  0.48000848  0.62831496  0.11806120  1.0
  C  C15  1  0.51211916  0.47360358  0.20729632  1.0
  C  C16  1  0.47023772  0.34356613  0.11338713  1.0
  C  C17  1  0.53559406  0.49585807  0.03062780  1.0
  C  C18  1  0.75772032  0.57221022  0.48829809  1.0
  C  C19  1  0.83330418  0.58614536  0.50535462  1.0
  C  C20  1  0.87569399  0.52708691  0.52786467  1.0
  C  C21  1  0.83897820  0.45690423  0.53339728  1.0
  C  C22  1  0.76349104  0.44908411  0.51508686  1.0
  C  C23  1  0.95567758  0.53417085  0.53951411  1.0
  C  C24  1  0.02700045  0.53289763  0.54353619  1.0
  C  C25  1  0.10941295  0.52417889  0.54071953  1.0
  C  C26  1  0.14764685  0.53367663  0.49704917  1.0
  C  C27  1  0.22819377  0.51711929  0.49439174  1.0
  C  C28  1  0.23626295  0.48617956  0.57291794  1.0
  C  C29  1  0.15530603  0.50028179  0.57931602  1.0
  C  C30  1  0.48192526  0.71309110  0.49680389  1.0
  C  C31  1  0.44164748  0.75338568  0.46159345  1.0
  C  C32  1  0.44285529  0.83201219  0.46001038  1.0
  C  C33  1  0.48467887  0.87234007  0.49417171  1.0
  C  C34  1  0.52831987  0.83123991  0.52818219  1.0
  C  C35  1  0.52794820  0.75247475  0.52894761  1.0
  C  C36  1  0.48273080  0.95174360  0.49418249  1.0
  C  C37  1  0.47862907  0.02028471  0.49450857  1.0
  C  C38  1  0.47316009  0.09959839  0.49551328  1.0
  C  C39  1  0.43043008  0.13715886  0.53137545  1.0
  C  C40  1  0.42648469  0.21587634  0.53288762  1.0
  C  C41  1  0.46456527  0.25915744  0.49870995  1.0
  C  C42  1  0.50555690  0.22201666  0.46235857  1.0
  C  C43  1  0.51029412  0.14339465  0.46078543  1.0
  C  C44  1  0.50827175  0.47074194  0.25977335  1.0
  C  C45  1  0.44616878  0.43612544  0.28524132  1.0
  C  C46  1  0.57031377  0.50166984  0.28383140  1.0
  C  C47  1  0.38292733  0.40003325  0.26275039  1.0
  C  C48  1  0.32665481  0.36151372  0.28740545  1.0
  C  C49  1  0.51300487  0.46889205  0.35879972  1.0
  C  C50  1  0.57230052  0.50141617  0.33283771  1.0
  C  C51  1  0.44927381  0.43395678  0.33550313  1.0
  C  C52  1  0.39107983  0.39291412  0.35999702  1.0
  C  C53  1  0.33142532  0.35673912  0.33707625  1.0
  C  C54  1  0.54257444  0.50734017  0.97814772  1.0
  C  C55  1  0.58703153  0.45607567  0.95092109  1.0
  C  C56  1  0.59453605  0.46604797  0.90256616  1.0
  C  C57  1  0.55885906  0.52914285  0.87989916  1.0
  C  C58  1  0.51450924  0.58076687  0.90767768  1.0
  C  C59  1  0.50475945  0.56885761  0.95582266  1.0
  C  C60  1  0.56439055  0.53794846  0.83090146  1.0
  C  C61  1  0.56633751  0.54124688  0.78821132  1.0
  C  C62  1  0.56324657  0.53710690  0.73894558  1.0
  C  C63  1  0.61549688  0.48855400  0.71396050  1.0
  C  C64  1  0.60473798  0.47515379  0.66623251  1.0
  C  C65  1  0.54478200  0.51336217  0.64105473  1.0
  C  C66  1  0.49597381  0.56592364  0.66498104  1.0
  C  C67  1  0.50484794  0.57735337  0.71316061  1.0
  C  C68  1  0.22735470  0.53212571  0.14506810  1.0
  C  C69  1  0.14820004  0.55455513  0.14061521  1.0
  C  C70  1  0.11029263  0.54318280  0.09731069  1.0
  C  C71  1  0.15566019  0.51373395  0.05986082  1.0
  C  C72  1  0.23510634  0.49498735  0.06755834  1.0
  C  C73  1  0.02814241  0.55366513  0.09373726  1.0
  C  C74  1  0.95655943  0.55304636  0.09559706  1.0
  C  C75  1  0.87599740  0.54112456  0.10367813  1.0
  C  C76  1  0.82883900  0.59355496  0.12896813  1.0
  C  C77  1  0.75224958  0.57387726  0.14181315  1.0
  C  C78  1  0.76609634  0.45750843  0.10604231  1.0
  C  C79  1  0.84290975  0.47150095  0.09138562  1.0
  C  C80  1  0.48631835  0.71320300  0.11676648  1.0
  C  C81  1  0.54465398  0.74811905  0.08955070  1.0
  C  C82  1  0.54883509  0.82671284  0.08801429  1.0
  C  C83  1  0.49595929  0.87240450  0.11429460  1.0
  C  C84  1  0.43976525  0.83700679  0.14308326  1.0
  C  C85  1  0.43534064  0.75856793  0.14419757  1.0
  C  C86  1  0.49826352  0.95155892  0.11214087  1.0
  C  C87  1  0.49540940  0.02010191  0.11120378  1.0
  C  C88  1  0.48869153  0.09927425  0.11156734  1.0
  C  C89  1  0.49528594  0.13936874  0.15407475  1.0
  C  C90  1  0.48690058  0.21772556  0.15427194  1.0
  C  C91  1  0.47199954  0.25814254  0.11291123  1.0
  C  C92  1  0.46410780  0.21869552  0.07085938  1.0
  C  C93  1  0.47295147  0.14023229  0.06991746  1.0
  C  C94  1  0.25760997  0.33158058  0.26132303  1.0
  C  C95  1  0.27928499  0.30389238  0.36310256  1.0
  Br  Br96  1  0.70398606  0.64489470  0.45184639  1.0
  Br  Br97  1  0.71356677  0.35577162  0.51494942  1.0
  Br  Br98  1  0.89321580  0.37662112  0.56269121  1.0
  Br  Br99  1  0.88096670  0.67971684  0.49766352  1.0
  Br  Br100  1  0.08982183  0.56474149  0.44433124  1.0
  Br  Br101  1  0.10522989  0.48657099  0.63728902  1.0
  Br  Br102  1  0.29801156  0.45020640  0.62278707  1.0
  Br  Br103  1  0.28224712  0.52059425  0.43680645  1.0
  Br  Br104  1  0.38958417  0.69950055  0.41424898  1.0
  Br  Br105  1  0.59121163  0.69915839  0.57284595  1.0
  Br  Br106  1  0.58705617  0.88599270  0.57181811  1.0
  Br  Br107  1  0.38916784  0.88720663  0.41306401  1.0
  Br  Br108  1  0.37952570  0.07795394  0.57674581  1.0
  Br  Br109  1  0.56715382  0.09249007  0.41323156  1.0
  Br  Br110  1  0.55396508  0.27905669  0.41465842  1.0
  Br  Br111  1  0.37200351  0.26478613  0.58244254  1.0
  Br  Br112  1  0.63460377  0.37061762  0.97967934  1.0
  Br  Br113  1  0.43961507  0.63591678  0.99068326  1.0
  Br  Br114  1  0.46883419  0.66558367  0.87765570  1.0
  Br  Br115  1  0.65094521  0.39523635  0.86593388  1.0
  Br  Br116  1  0.70015786  0.44319524  0.74673180  1.0
  Br  Br117  1  0.43889922  0.64550113  0.74618066  1.0
  Br  Br118  1  0.41868853  0.62383485  0.63254020  1.0
  Br  Br119  1  0.66883800  0.40059735  0.63673968  1.0
  Br  Br120  1  0.27609886  0.53490041  0.20371179  1.0
  Br  Br121  1  0.29659534  0.45162993  0.01981733  1.0
  Br  Br122  1  0.10717776  0.49901225  0.00174890  1.0
  Br  Br123  1  0.09073669  0.59549462  0.19099038  1.0
  Br  Br124  1  0.87169580  0.68605898  0.14575443  1.0
  Br  Br125  1  0.90328586  0.39947986  0.05840872  1.0
  Br  Br126  1  0.72104420  0.36291140  0.09781209  1.0
  Br  Br127  1  0.69243323  0.63655520  0.18188347  1.0
  Br  Br128  1  0.61809486  0.69036642  0.05397519  1.0
  Br  Br129  1  0.36271515  0.71323123  0.18533926  1.0
  Br  Br130  1  0.37113504  0.89865237  0.17904735  1.0
  Br  Br131  1  0.62501326  0.87577283  0.05145657  1.0
  Br  Br132  1  0.51582826  0.08486220  0.20961340  1.0
  Br  Br133  1  0.46402478  0.08594196  0.01366759  1.0
  Br  Br134  1  0.44260143  0.27354827  0.01536343  1.0
  Br  Br135  1  0.49352443  0.27149546  0.21126159  1.0
  N  N136  1  0.72359655  0.50586306  0.49461646  1.0
  N  N137  1  0.27153904  0.49562273  0.53133518  1.0
  N  N138  1  0.26998489  0.50443584  0.10916254  1.0
  N  N139  1  0.72155303  0.50840818  0.12901369  1.0
  O  O140  1  0.41261172  0.59986224  0.50965250  1.0
  O  O141  1  0.54167067  0.59310896  0.48934359  1.0
  O  O142  1  0.58838453  0.46805203  0.42803201  1.0
  O  O143  1  0.45638260  0.48387087  0.43467179  1.0
  O  O144  1  0.53134782  0.37343311  0.50825957  1.0
  O  O145  1  0.39887897  0.37926334  0.49987634  1.0
  O  O146  1  0.46486615  0.48333856  0.57610710  1.0
  O  O147  1  0.59488050  0.50184220  0.56390600  1.0
  O  O148  1  0.54188111  0.59184526  0.12814698  1.0
  O  O149  1  0.41298406  0.60097009  0.10909788  1.0
  O  O150  1  0.44921769  0.48307107  0.18413137  1.0
  O  O151  1  0.58157433  0.46746574  0.19005295  1.0
  O  O152  1  0.40280102  0.37648575  0.11480274  1.0
  O  O153  1  0.53668664  0.37319501  0.11245859  1.0
  O  O154  1  0.59997611  0.49855275  0.05343426  1.0
  O  O155  1  0.46814690  0.48505941  0.04699074  1.0
  O  O156  1  0.27509548  0.29043637  0.22241245  1.0
  O  O157  1  0.18979627  0.34652382  0.27193409  1.0
  O  O158  1  0.25416340  0.32580044  0.40635299  1.0
  O  O159  1  0.26233629  0.24271191  0.34770104  1.0
