# generated using pymatgen
data_Al4H27C46N3O20
_symmetry_space_group_name_H-M   'P 1'
_cell_length_a   6.64915430
_cell_length_b   16.27905289
_cell_length_c   17.02099428
_cell_angle_alpha   79.14447783
_cell_angle_beta   89.23549243
_cell_angle_gamma   89.91829724
_symmetry_Int_Tables_number   1
_chemical_formula_structural   Al4H27C46N3O20
_chemical_formula_sum   'Al4 H27 C46 N3 O20'
_cell_volume   1809.25406674
_cell_formula_units_Z   1
loop_
 _symmetry_equiv_pos_site_id
 _symmetry_equiv_pos_as_xyz
  1  'x, y, z'
loop_
 _atom_site_type_symbol
 _atom_site_label
 _atom_site_symmetry_multiplicity
 _atom_site_fract_x
 _atom_site_fract_y
 _atom_site_fract_z
 _atom_site_occupancy
  Al  Al0  1  0.10148911  0.49941455  0.50502241  1.0
  Al  Al1  1  0.60052996  0.49696284  0.50154386  1.0
  Al  Al2  1  0.63529862  0.99734863  0.00031306  1.0
  Al  Al3  1  0.13693249  0.00058177  0.00670458  1.0
  H  H4  1  0.57422221  0.72798999  0.34725917  1.0
  H  H5  1  0.16331175  0.77711109  0.16374428  1.0
  H  H6  1  0.16261827  0.65558994  0.27859376  1.0
  H  H7  1  0.10256083  0.70266367  0.62843656  1.0
  H  H8  1  0.53392894  0.59024656  0.70781861  1.0
  H  H9  1  0.63033435  0.80083070  0.86841542  1.0
  H  H10  1  0.63267728  0.30513795  0.35858534  1.0
  H  H11  1  0.03299046  0.39938303  0.31046060  1.0
  H  H12  1  0.76479097  0.19343032  0.29050265  1.0
  H  H13  1  0.99009296  0.30863721  0.20928271  1.0
  H  H14  1  0.71893303  0.10048573  0.19113612  1.0
  H  H15  1  0.12027290  0.19475436  0.14245281  1.0
  H  H16  1  0.04881594  0.27679304  0.67497989  1.0
  H  H17  1  0.07084953  0.15573485  0.79025137  1.0
  H  H18  1  0.67775720  0.22534769  0.83253846  1.0
  H  H19  1  0.65879710  0.34417433  0.71506259  1.0
  H  H20  1  0.28749534  0.00376538  0.26548020  1.0
  H  H21  1  0.31881032  0.99151715  0.37043909  1.0
  H  H22  1  0.19382038  0.91297926  0.32945481  1.0
  H  H23  1  0.54557008  0.86838399  0.36922573  1.0
  H  H24  1  0.64479934  0.95842267  0.30732995  1.0
  H  H25  1  0.52034808  0.91288213  0.18572954  1.0
  H  H26  1  0.38635350  0.83003061  0.24442442  1.0
  H  H27  1  0.35371841  0.60420952  0.46156046  1.0
  H  H28  1  0.85936982  0.39705472  0.48407335  1.0
  H  H29  1  0.37585539  0.90272347  0.97384908  1.0
  H  H30  1  0.88624111  0.10408812  0.96182598  1.0
  C  C31  1  0.35330491  0.40912196  0.40314012  1.0
  C  C32  1  0.34394236  0.38727701  0.61871529  1.0
  C  C33  1  0.83739873  0.58528612  0.60318564  1.0
  C  C34  1  0.86143757  0.61322843  0.38870981  1.0
  C  C35  1  0.70352071  0.73942540  0.30657144  1.0
  C  C36  1  0.70232937  0.80939435  0.24440291  1.0
  C  C37  1  0.87150828  0.82126853  0.19215529  1.0
  C  C38  1  0.03578137  0.76596428  0.20527431  1.0
  C  C39  1  0.03527814  0.69834966  0.26858219  1.0
  C  C40  1  0.86600567  0.68443353  0.31949345  1.0
  C  C41  1  0.82271332  0.64111128  0.66360181  1.0
  C  C42  1  0.90927221  0.86258068  0.83497928  1.0
  C  C43  1  0.09722576  0.81854796  0.72561797  1.0
  C  C44  1  0.07967117  0.87043202  0.78238457  1.0
  C  C45  1  0.76151794  0.80475721  0.82875592  1.0
  C  C46  1  0.77911132  0.74982558  0.77406310  1.0
  C  C47  1  0.95011786  0.75565750  0.72147173  1.0
  C  C48  1  0.97075113  0.69960891  0.66772142  1.0
  C  C49  1  0.65030733  0.63561142  0.71374916  1.0
  C  C50  1  0.63002294  0.68767319  0.76902935  1.0
  C  C51  1  0.33614687  0.35668235  0.34061365  1.0
  C  C52  1  0.41577938  0.14283422  0.16163038  1.0
  C  C53  1  0.62510884  0.19457002  0.25733717  1.0
  C  C54  1  0.60011187  0.14278822  0.20308942  1.0
  C  C55  1  0.26086989  0.19573358  0.17459827  1.0
  C  C56  1  0.28427555  0.25113445  0.22870614  1.0
  C  C57  1  0.46983512  0.25039390  0.27130104  1.0
  C  C58  1  0.49231057  0.30506263  0.32613319  1.0
  C  C59  1  0.15274454  0.35747178  0.29841773  1.0
  C  C60  1  0.12914445  0.30693176  0.24290904  1.0
  C  C61  1  0.18526025  0.26513969  0.71015653  1.0
  C  C62  1  0.19741320  0.19828001  0.77413481  1.0
  C  C63  1  0.37490452  0.18407076  0.81840746  1.0
  C  C64  1  0.54130581  0.23671958  0.79739848  1.0
  C  C65  1  0.53048875  0.30290349  0.73266861  1.0
  C  C66  1  0.35214325  0.31753116  0.68910818  1.0
  C  C67  1  0.38214988  0.11398969  0.88870909  1.0
  C  C68  1  0.39545562  0.08612923  0.10298965  1.0
  C  C69  1  0.88358982  0.88857848  0.11914373  1.0
  C  C70  1  0.89186485  0.91282234  0.90022415  1.0
  C  C71  1  0.52463958  0.86766374  0.24196533  1.0
  C  C72  1  0.51922170  0.91343004  0.31338003  1.0
  C  C73  1  0.31916498  0.95801770  0.32007769  1.0
  C  C74  1  0.26631355  0.82636438  0.67246511  1.0
  C  C75  1  0.45652262  0.68146717  0.81989950  1.0
  C  C76  1  0.23354971  0.93114144  0.78359213  1.0
  N  N77  1  0.40509044  0.82993574  0.62909201  1.0
  N  N78  1  0.31339523  0.67840216  0.86098947  1.0
  N  N79  1  0.36415820  0.97983640  0.77880532  1.0
  O  O80  1  0.51105535  0.40909087  0.58384818  1.0
  O  O81  1  0.18727565  0.42569047  0.43513970  1.0
  O  O82  1  0.03077678  0.58173931  0.41248868  1.0
  O  O83  1  0.17320846  0.41905502  0.59767108  1.0
  O  O84  1  0.00997551  0.57370189  0.57413205  1.0
  O  O85  1  0.52751969  0.43229390  0.42101196  1.0
  O  O86  1  0.35250936  0.55023844  0.49730042  1.0
  O  O87  1  0.67185823  0.55558867  0.58516345  1.0
  O  O88  1  0.69043883  0.58988259  0.42026693  1.0
  O  O89  1  0.85215787  0.44776280  0.50603108  1.0
  O  O90  1  0.22202041  0.07344729  0.07650112  1.0
  O  O91  1  0.55335940  0.09067972  0.91798565  1.0
  O  O92  1  0.71617577  0.93398643  0.91870356  1.0
  O  O93  1  0.55881457  0.05437145  0.08300245  1.0
  O  O94  1  0.72242609  0.90706397  0.08045160  1.0
  O  O95  1  0.21257081  0.08391900  0.91563620  1.0
  O  O96  1  0.38414913  0.94731884  0.00427691  1.0
  O  O97  1  0.05593404  0.92038389  0.09840159  1.0
  O  O98  1  0.05622272  0.92707019  0.93240963  1.0
  O  O99  1  0.88452729  0.04962918  0.99672296  1.0
