# generated using pymatgen
data_Zn6H42C68(Br2O9)3
_symmetry_space_group_name_H-M   'P 1'
_cell_length_a   18.72498732
_cell_length_b   18.73910769
_cell_length_c   18.74362817
_cell_angle_alpha   109.38684163
_cell_angle_beta   109.57880566
_cell_angle_gamma   109.28779581
_symmetry_Int_Tables_number   1
_chemical_formula_structural   Zn6H42C68(Br2O9)3
_chemical_formula_sum   'Zn6 H42 C68 Br6 O27'
_cell_volume   5072.89425444
_cell_formula_units_Z   1
loop_
 _symmetry_equiv_pos_site_id
 _symmetry_equiv_pos_as_xyz
  1  'x, y, z'
loop_
 _atom_site_type_symbol
 _atom_site_label
 _atom_site_symmetry_multiplicity
 _atom_site_fract_x
 _atom_site_fract_y
 _atom_site_fract_z
 _atom_site_occupancy
  Zn  Zn0  1  0.42910597  0.43301475  0.50848966  1.0
  Zn  Zn1  1  0.55716006  0.55442222  0.50605108  1.0
  Zn  Zn2  1  0.44349714  0.01099870  0.94323538  1.0
  Zn  Zn3  1  0.56981677  0.00781676  0.06467165  1.0
  Zn  Zn4  1  0.00782356  0.44735972  0.94120379  1.0
  Zn  Zn5  1  0.01060308  0.57093601  0.07002278  1.0
  H  H6  1  0.54547804  0.41040911  0.26817345  1.0
  H  H7  1  0.14104689  0.60464614  0.36506512  1.0
  H  H8  1  0.33165175  0.65837364  0.48323426  1.0
  H  H9  1  0.23751788  0.57597419  0.46901358  1.0
  H  H10  1  0.82348863  0.19913166  0.11414252  1.0
  H  H11  1  0.67658848  0.30782463  0.86430123  1.0
  H  H12  1  0.67526465  0.21604681  0.79188239  1.0
  H  H13  1  0.56681704  0.20771252  0.88459254  1.0
  H  H14  1  0.42712301  0.11613658  0.40030917  1.0
  H  H15  1  0.56536636  0.11649328  0.81182586  1.0
  H  H16  1  0.42865744  0.81538436  0.13079143  1.0
  H  H17  1  0.73715191  0.30720073  0.72269471  1.0
  H  H18  1  0.09910923  0.63137328  0.79778980  1.0
  H  H19  1  0.07346706  0.70166731  0.86288267  1.0
  H  H20  1  0.21869910  0.76093404  0.81809688  1.0
  H  H21  1  0.19559977  0.83176884  0.88594376  1.0
  H  H22  1  0.39809384  0.99981028  0.26209115  1.0
  H  H23  1  0.42787475  0.03740731  0.15768896  1.0
  H  H24  1  0.80334248  0.62615294  0.93086509  1.0
  H  H25  1  0.80569783  0.37057817  0.69489961  1.0
  H  H26  1  0.29143957  0.54921903  0.76749724  1.0
  H  H27  1  0.25395079  0.61460542  0.81948980  1.0
  H  H28  1  0.67388087  0.34984608  0.57603750  1.0
  H  H29  1  0.38409236  0.67142457  0.96623102  1.0
  H  H30  1  0.31308255  0.55713220  0.91231295  1.0
  H  H31  1  0.41369707  0.59787946  0.91217990  1.0
  H  H32  1  0.41322412  0.79198804  0.23659529  1.0
  H  H33  1  0.43330399  0.71383990  0.17361635  1.0
  H  H34  1  0.35502842  0.60655817  0.21143857  1.0
  H  H35  1  0.44366565  0.70505834  0.30738769  1.0
  H  H36  1  0.33453473  0.68442234  0.27328985  1.0
  H  H37  1  0.58617832  0.30303066  0.05256105  1.0
  H  H38  1  0.60733001  0.24957649  0.11287470  1.0
  H  H39  1  0.60510361  0.28737341  0.60440236  1.0
  H  H40  1  0.70343187  0.39428112  0.25272912  1.0
  H  H41  1  0.74096789  0.39287129  0.17698947  1.0
  H  H42  1  0.68146077  0.44815848  0.19251754  1.0
  H  H43  1  0.60472314  0.81683763  0.68668880  1.0
  H  H44  1  0.40646489  0.57996773  0.72903673  1.0
  H  H45  1  0.47781722  0.26650061  0.42801793  1.0
  H  H46  1  0.17812953  0.41290431  0.10953497  1.0
  H  H47  1  0.23523048  0.68673427  0.37881924  1.0
  C  C48  1  0.58342220  0.48149747  0.63585249  1.0
  C  C49  1  0.76996766  0.57032277  0.86565909  1.0
  C  C50  1  0.80185763  0.51158445  0.84987106  1.0
  C  C51  1  0.51701032  0.39826622  0.39310786  1.0
  C  C52  1  0.75458324  0.44029764  0.76548415  1.0
  C  C53  1  0.74964618  0.35888640  0.70542849  1.0
  C  C54  1  0.66675463  0.34619361  0.63076100  1.0
  C  C55  1  0.43852287  0.68029954  0.69214592  1.0
  C  C56  1  0.50180366  0.70477594  0.66820083  1.0
  C  C57  1  0.55446058  0.79466430  0.70352936  1.0
  C  C58  1  0.54553280  0.85567250  0.76226630  1.0
  C  C59  1  0.48245504  0.24069220  0.30856171  1.0
  C  C60  1  0.48292348  0.83159735  0.78792947  1.0
  C  C61  1  0.42915800  0.74214241  0.74867707  1.0
  C  C62  1  0.35754785  0.67504523  0.74893767  1.0
  C  C63  1  0.35256071  0.46968969  0.39067592  1.0
  C  C64  1  0.37444332  0.60481537  0.69097095  1.0
  C  C65  1  0.25801288  0.53635957  0.35501499  1.0
  C  C66  1  0.28605393  0.47769040  0.32745272  1.0
  C  C67  1  0.25506753  0.43360522  0.23705046  1.0
  C  C68  1  0.20082347  0.44833074  0.17895189  1.0
  C  C69  1  0.17463480  0.50951829  0.20844327  1.0
  C  C70  1  0.50971112  0.32681651  0.32005058  1.0
  C  C71  1  0.20419120  0.55232182  0.29750254  1.0
  C  C72  1  0.20485448  0.62076969  0.36941662  1.0
  C  C73  1  0.26556278  0.60281135  0.43481661  1.0
  C  C74  1  0.64492923  0.11789890  0.01888901  1.0
  C  C75  1  0.51367580  0.63834508  0.61120808  1.0
  C  C76  1  0.48584581  0.12848227  0.09821873  1.0
  C  C77  1  0.41790932  0.88981138  0.02624972  1.0
  C  C78  1  0.48008237  0.89639858  0.85862518  1.0
  C  C79  1  0.13151659  0.60355482  0.98993453  1.0
  C  C80  1  0.88251676  0.52464396  0.91725593  1.0
  C  C81  1  0.52548543  0.34512794  0.25939476  1.0
  C  C82  1  0.89883870  0.36234783  0.98067246  1.0
  C  C83  1  0.11774245  0.52358619  0.14425799  1.0
  C  C84  1  0.68507114  0.19751600  0.94204795  1.0
  C  C85  1  0.71038775  0.17686741  0.00796751  1.0
  C  C86  1  0.80081182  0.21427241  0.06245335  1.0
  C  C87  1  0.46754319  0.21700942  0.36901053  1.0
  C  C88  1  0.86107062  0.27099557  0.05162720  1.0
  C  C89  1  0.83573422  0.29302700  0.98587394  1.0
  C  C90  1  0.74614004  0.25308000  0.93118665  1.0
  C  C91  1  0.67699534  0.24675637  0.85406562  1.0
  C  C92  1  0.51535313  0.28089828  0.18483101  1.0
  C  C93  1  0.60782208  0.18374753  0.86659930  1.0
  C  C94  1  0.26263223  0.77478384  0.95004996  1.0
  C  C95  1  0.34768609  0.81634957  0.01843797  1.0
  C  C96  1  0.36234662  0.78448564  0.07748158  1.0
  C  C97  1  0.29351454  0.71514966  0.06820530  1.0
  C  C98  1  0.20705595  0.67278691  0.99746022  1.0
  C  C99  1  0.43878630  0.13249802  0.35311014  1.0
  C  C100  1  0.19510199  0.70387543  0.93944142  1.0
  C  C101  1  0.12693666  0.69249831  0.85788949  1.0
  C  C102  1  0.20330382  0.77386233  0.87104958  1.0
  C  C103  1  0.48948512  0.19679886  0.17157019  1.0
  C  C104  1  0.42300711  0.06704492  0.27563576  1.0
  C  C105  1  0.43951631  0.08811531  0.21696622  1.0
  C  C106  1  0.47124752  0.17499804  0.23216539  1.0
  C  C107  1  0.31209235  0.60880518  0.82587578  1.0
  C  C108  1  0.35898246  0.60899607  0.90914424  1.0
  C  C109  1  0.38834107  0.72158450  0.19742059  1.0
  C  C110  1  0.37964674  0.67657967  0.25024977  1.0
  C  C111  1  0.60251480  0.30748031  0.11645227  1.0
  C  C112  1  0.68696056  0.39068251  0.18911049  1.0
  C  C113  1  0.68162113  0.42919827  0.69968385  1.0
  C  C114  1  0.65203619  0.48879959  0.71225722  1.0
  C  C115  1  0.69785216  0.55909779  0.79828641  1.0
  Br  Br116  1  0.62458627  0.97607305  0.81212165  1.0
  Br  Br117  1  0.24153110  0.66610993  0.67945520  1.0
  Br  Br118  1  0.27777527  0.50065983  0.58185931  1.0
  Br  Br119  1  0.28973695  0.35176707  0.19240049  1.0
  Br  Br120  1  0.98227700  0.32108522  0.12985684  1.0
  Br  Br121  1  0.66087128  0.64342698  0.82423163  1.0
  O  O122  1  0.50330187  0.42638893  0.60527046  1.0
  O  O123  1  0.10237752  0.62928251  0.03937422  1.0
  O  O124  1  0.91426912  0.47860204  0.88933295  1.0
  O  O125  1  0.61148964  0.52822611  0.60536351  1.0
  O  O126  1  0.91502200  0.58015525  0.99807544  1.0
  O  O127  1  0.92395019  0.33917921  0.92520454  1.0
  O  O128  1  0.92002858  0.43949805  0.03061499  1.0
  O  O129  1  0.09645492  0.48049377  0.06502881  1.0
  O  O130  1  0.09261426  0.57819322  0.17247367  1.0
  O  O131  1  0.46803115  0.37796618  0.42461476  1.0
  O  O132  1  0.57148989  0.47774837  0.41938236  1.0
  O  O133  1  0.67120681  0.09212615  0.07336742  1.0
  O  O134  1  0.32621999  0.41725570  0.41783940  1.0
  O  O135  1  0.43108161  0.51869348  0.41441127  1.0
  O  O136  1  0.46705451  0.56074518  0.59184585  1.0
  O  O137  1  0.56847915  0.66209287  0.58539622  1.0
  O  O138  1  0.56595168  0.09630025  0.97234333  1.0
  O  O139  1  0.37138867  0.68421976  0.82814216  1.0
  O  O140  1  0.30293476  0.68244752  0.12379628  1.0
  O  O141  1  0.52851222  0.30502277  0.12666969  1.0
  O  O142  1  0.43046894  0.10095908  0.01899420  1.0
  O  O143  1  0.53899702  0.10158222  0.12089524  1.0
  O  O144  1  0.39341853  0.92111868  0.97803185  1.0
  O  O145  1  0.49865646  0.91811984  0.07981204  1.0
  O  O146  1  0.42640989  0.92346811  0.83588555  1.0
  O  O147  1  0.53165767  0.91764035  0.93531718  1.0
  O  O148  1  0.09991657  0.52420025  0.93199358  1.0
