# generated using pymatgen
data_Zn4H52C69N22O
_symmetry_space_group_name_H-M   'P 1'
_cell_length_a   19.51409086
_cell_length_b   19.78527861
_cell_length_c   20.20046269
_cell_angle_alpha   107.07539552
_cell_angle_beta   109.19360934
_cell_angle_gamma   110.46925351
_symmetry_Int_Tables_number   1
_chemical_formula_structural   Zn4H52C69N22O
_chemical_formula_sum   'Zn4 H52 C69 N22 O1'
_cell_volume   6120.71871482
_cell_formula_units_Z   1
loop_
 _symmetry_equiv_pos_site_id
 _symmetry_equiv_pos_as_xyz
  1  'x, y, z'
loop_
 _atom_site_type_symbol
 _atom_site_label
 _atom_site_symmetry_multiplicity
 _atom_site_fract_x
 _atom_site_fract_y
 _atom_site_fract_z
 _atom_site_occupancy
  Zn  Zn0  1  0.87554703  0.88851612  0.50042892  1.0
  Zn  Zn1  1  0.11661909  0.08221604  0.49642370  1.0
  Zn  Zn2  1  0.09162655  0.98950475  0.61090024  1.0
  Zn  Zn3  1  0.90729445  0.99786426  0.40029232  1.0
  H  H4  1  0.82813785  0.90346746  0.65030263  1.0
  H  H5  1  0.23466565  0.02776492  0.44071676  1.0
  H  H6  1  0.12841076  0.86149677  0.50583884  1.0
  H  H7  1  0.89717060  0.03070725  0.24941344  1.0
  H  H8  1  0.15048334  0.07392141  0.34980460  1.0
  H  H9  1  0.86100084  0.71554720  0.40736582  1.0
  H  H10  1  0.87621380  0.84599812  0.25974359  1.0
  H  H11  1  0.28585436  0.98253713  0.64420727  1.0
  H  H12  1  0.13562954  0.48451186  0.45832475  1.0
  H  H13  1  0.86563237  0.47288418  0.32031667  1.0
  H  H14  1  0.86647101  0.35121826  0.33212575  1.0
  H  H15  1  0.60371729  0.46996741  0.11103974  1.0
  H  H16  1  0.47276166  0.35547331  0.99076186  1.0
  H  H17  1  0.51616488  0.48592094  0.85805061  1.0
  H  H18  1  0.85278589  0.02922206  0.92584823  1.0
  H  H19  1  0.88644645  0.06075384  0.06549145  1.0
  H  H20  1  0.22559603  0.14896540  0.78865867  1.0
  H  H21  1  0.22710151  0.25632526  0.62999034  1.0
  H  H22  1  0.80655473  0.97791114  0.58932461  1.0
  H  H23  1  0.89966563  0.15962523  0.44705718  1.0
  H  H24  1  0.09561399  0.06083351  0.77437567  1.0
  H  H25  1  0.14398426  0.66886543  0.44698181  1.0
  H  H26  1  0.27874516  0.69417315  0.51069743  1.0
  H  H27  1  0.24524908  0.58889245  0.46216397  1.0
  H  H28  1  0.23828675  0.62921849  0.54969684  1.0
  H  H29  1  0.19245144  0.23460168  0.46118180  1.0
  H  H30  1  0.26363521  0.37549351  0.50142167  1.0
  H  H31  1  0.18347466  0.38591394  0.51890408  1.0
  H  H32  1  0.16436083  0.33907096  0.41999462  1.0
  H  H33  1  0.71043794  0.66020046  0.03119013  1.0
  H  H34  1  0.69382858  0.68403470  0.92346786  1.0
  H  H35  1  0.58454601  0.63068749  0.89057407  1.0
  H  H36  1  0.63454138  0.57768123  0.85924581  1.0
  H  H37  1  0.24232153  0.31691558  0.27138936  1.0
  H  H38  1  0.13658010  0.26922533  0.25044612  1.0
  H  H39  1  0.21550959  0.39887070  0.20364556  1.0
  H  H40  1  0.10842213  0.34852516  0.17661260  1.0
  H  H41  1  0.14379773  0.40589036  0.31974168  1.0
  H  H42  1  0.18736215  0.48555820  0.29760358  1.0
  H  H43  1  0.25212250  0.45375371  0.34903729  1.0
  H  H44  1  0.09489673  0.18109067  0.93779576  1.0
  H  H45  1  0.17640406  0.32995296  0.06345754  1.0
  H  H46  1  0.21931734  0.29470789  0.00459564  1.0
  H  H47  1  0.24112307  0.28843046  0.09474612  1.0
  H  H48  1  0.75796271  0.03684857  0.34385567  1.0
  H  H49  1  0.65766253  0.07911927  0.32878260  1.0
  H  H50  1  0.73273115  0.14334983  0.43130770  1.0
  H  H51  1  0.64020210  0.05377985  0.40132383  1.0
  H  H52  1  0.68170316  0.71632735  0.36853355  1.0
  H  H53  1  0.61855719  0.57549772  0.29938112  1.0
  H  H54  1  0.68794522  0.58375999  0.25935486  1.0
  H  H55  1  0.60360581  0.60124341  0.21980592  1.0
  C  C56  1  0.89416118  0.93609618  0.66850185  1.0
  C  C57  1  0.02154843  0.23781811  0.45572736  1.0
  C  C58  1  0.25975883  0.23376944  0.73678718  1.0
  C  C59  1  0.74246496  0.00583089  0.49495899  1.0
  C  C60  1  0.75823631  0.75198237  0.32439183  1.0
  C  C61  1  0.23678549  0.01986454  0.49216958  1.0
  C  C62  1  0.06269086  0.83771353  0.48844290  1.0
  C  C63  1  0.95647567  0.03540954  0.28297644  1.0
  C  C64  1  0.08612468  0.05795977  0.33448963  1.0
  C  C65  1  0.92566069  0.76331600  0.43826106  1.0
  C  C66  1  0.84243541  0.82378309  0.28888344  1.0
  C  C67  1  0.09136182  0.22454480  0.47278899  1.0
  C  C68  1  0.26281528  0.99694256  0.59644924  1.0
  C  C69  1  0.78033766  0.74404331  0.26283671  1.0
  C  C70  1  0.28861789  0.99863708  0.53870436  1.0
  C  C71  1  0.99627220  0.75751822  0.43958245  1.0
  C  C72  1  0.03148174  0.07119464  0.28054110  1.0
  C  C73  1  0.67401207  0.00429445  0.50363039  1.0
  C  C74  1  0.61148214  0.99729627  0.51007530  1.0
  C  C75  1  0.54303395  0.99008312  0.51566165  1.0
  C  C76  1  0.47978420  0.98468623  0.52028856  1.0
  C  C77  1  0.41294379  0.98384719  0.52579949  1.0
  C  C78  1  0.21312007  0.16256505  0.73907014  1.0
  C  C79  1  0.35334072  0.98766833  0.53155580  1.0
  C  C80  1  0.07740234  0.55036532  0.41879176  1.0
  C  C81  1  0.99913922  0.54768654  0.38264487  1.0
  C  C82  1  0.92451880  0.47440674  0.34942642  1.0
  C  C83  1  0.92474658  0.40674604  0.35624704  1.0
  C  C84  1  0.00153072  0.41128070  0.39804218  1.0
  C  C85  1  0.07696952  0.48218281  0.42674552  1.0
  C  C86  1  0.99804125  0.62036450  0.38989495  1.0
  C  C87  1  0.00427145  0.34751074  0.41485603  1.0
  C  C88  1  0.01157622  0.29694999  0.43530834  1.0
  C  C89  1  0.76451900  0.01412088  0.43570897  1.0
  C  C90  1  0.99935641  0.68572150  0.40828923  1.0
  C  C91  1  0.51134032  0.40906431  0.98851934  1.0
  C  C92  1  0.48521001  0.41506386  0.91744442  1.0
  C  C93  1  0.53667292  0.48285259  0.91359995  1.0
  C  C94  1  0.61144966  0.54706862  0.98056921  1.0
  C  C95  1  0.63358818  0.54385014  0.05416149  1.0
  C  C96  1  0.58436390  0.47287794  0.05527569  1.0
  C  C97  1  0.40641610  0.35404565  0.85194238  1.0
  C  C98  1  0.69732457  0.61366740  0.12578483  1.0
  C  C99  1  0.74138192  0.67542972  0.18947407  1.0
  C  C100  1  0.21472322  0.21747276  0.65792034  1.0
  C  C101  1  0.33676463  0.30085922  0.79822632  1.0
  C  C102  1  0.93424062  0.09033579  0.05135663  1.0
  C  C103  1  0.01800109  0.14144724  0.11296762  1.0
  C  C104  1  0.08016159  0.18570696  0.09760519  1.0
  C  C105  1  0.06223361  0.16799463  0.01849672  1.0
  C  C106  1  0.97991787  0.10587523  0.95632841  1.0
  C  C107  1  0.91595854  0.07251128  0.97423506  1.0
  C  C108  1  0.03625617  0.13378788  0.18337478  1.0
  C  C109  1  0.96629351  0.07301505  0.87797588  1.0
  C  C110  1  0.96062206  0.03802664  0.81371023  1.0
  C  C111  1  0.80068260  0.98798018  0.53828676  1.0
  C  C112  1  0.04078512  0.10759368  0.23160888  1.0
  C  C113  1  0.96194115  0.17254089  0.45651857  1.0
  C  C114  1  0.03094652  0.01592556  0.73166740  1.0
  C  C115  1  0.96053195  0.99905092  0.74315107  1.0
  C  C116  1  0.23161365  0.63334038  0.49471042  1.0
  C  C117  1  0.19603775  0.34597597  0.47984972  1.0
  C  C118  1  0.64243538  0.62682636  0.90962443  1.0
  C  C119  1  0.17825633  0.29764511  0.22921455  1.0
  C  C120  1  0.17158352  0.37013442  0.22274333  1.0
  C  C121  1  0.18969508  0.43212938  0.30155929  1.0
  C  C122  1  0.19307987  0.28286771  0.04303429  1.0
  C  C123  1  0.68814562  0.07974412  0.38539887  1.0
  C  C124  1  0.65060664  0.60957475  0.27467736  1.0
  N  N125  1  0.92304503  0.91808876  0.61732975  1.0
  N  N126  1  0.18627226  0.03060991  0.52120150  1.0
  N  N127  1  0.03325027  0.88640154  0.51501944  1.0
  N  N128  1  0.96659699  0.00488797  0.33432467  1.0
  N  N129  1  0.04707177  0.01887930  0.36736729  1.0
  N  N130  1  0.94921008  0.84041166  0.48402957  1.0
  N  N131  1  0.85501892  0.87473390  0.35785415  1.0
  N  N132  1  0.20209460  0.01619177  0.58559255  1.0
  N  N133  1  0.07158906  0.15641161  0.48120644  1.0
  N  N134  1  0.14721264  0.10865988  0.66696532  1.0
  N  N135  1  0.82920987  0.00064869  0.44454772  1.0
  N  N136  1  0.14817715  0.14183851  0.61677042  1.0
  N  N137  1  0.85140829  0.98367938  0.50764532  1.0
  N  N138  1  0.99188250  0.12357604  0.47085359  1.0
  N  N139  1  0.00847137  0.96778018  0.65701641  1.0
  N  N140  1  0.80264725  0.83045164  0.38022930  1.0
  N  N141  1  0.15004819  0.61990943  0.44660057  1.0
  N  N142  1  0.16994479  0.26940692  0.48373788  1.0
  N  N143  1  0.66264513  0.61347060  0.97833207  1.0
  N  N144  1  0.12125471  0.20111049  0.99719981  1.0
  N  N145  1  0.72787947  0.02997328  0.37597995  1.0
  N  N146  1  0.70510302  0.69409396  0.33498364  1.0
  O  O147  1  0.16194771  0.23755771  0.15589021  1.0
