# generated using pymatgen
data_ZnH12C22Br(NO2)2
_symmetry_space_group_name_H-M   'P 1'
_cell_length_a   11.55239373
_cell_length_b   15.84308609
_cell_length_c   15.89318172
_cell_angle_alpha   90.00017568
_cell_angle_beta   90.09241666
_cell_angle_gamma   89.99989836
_symmetry_Int_Tables_number   1
_chemical_formula_structural   ZnH12C22Br(NO2)2
_chemical_formula_sum   'Zn2 H24 C44 Br2 N4 O8'
_cell_volume   2908.85483416
_cell_formula_units_Z   2
loop_
 _symmetry_equiv_pos_site_id
 _symmetry_equiv_pos_as_xyz
  1  'x, y, z'
loop_
 _atom_site_type_symbol
 _atom_site_label
 _atom_site_symmetry_multiplicity
 _atom_site_fract_x
 _atom_site_fract_y
 _atom_site_fract_z
 _atom_site_occupancy
  Zn  Zn0  1  0.49851629  0.49999950  0.58672191  1.0
  Zn  Zn1  1  0.50148076  0.49999987  0.41327631  1.0
  H  H2  1  0.13351573  0.16726372  0.36439630  1.0
  H  H3  1  0.86647780  0.16725861  0.63560152  1.0
  H  H4  1  0.86648305  0.83274322  0.63560381  1.0
  H  H5  1  0.13351406  0.83273697  0.36439544  1.0
  H  H6  1  0.25434503  0.29862924  0.63451826  1.0
  H  H7  1  0.74566116  0.29863293  0.36548125  1.0
  H  H8  1  0.74565894  0.70136760  0.36548438  1.0
  H  H9  1  0.25434541  0.70137275  0.63451636  1.0
  H  H10  1  0.25538259  0.29785436  0.36496928  1.0
  H  H11  1  0.74461408  0.29785256  0.63503021  1.0
  H  H12  1  0.74461705  0.70214879  0.63503147  1.0
  H  H13  1  0.25538211  0.70214744  0.36496738  1.0
  H  H14  1  0.13244371  0.16803103  0.63509981  1.0
  H  H15  1  0.86755933  0.16803582  0.36490118  1.0
  H  H16  1  0.86755420  0.83196455  0.36490220  1.0
  H  H17  1  0.13244465  0.83196607  0.63509642  1.0
  H  H18  1  0.68553011  0.49999957  0.70975562  1.0
  H  H19  1  0.31446781  0.50000043  0.29023758  1.0
  H  H20  1  0.32911966  0.49999920  0.73026102  1.0
  H  H21  1  0.67087998  0.50000017  0.26973784  1.0
  H  H22  1  0.33814852  0.49999944  0.88953196  1.0
  H  H23  1  0.66185545  0.49999993  0.11046691  1.0
  H  H24  1  0.71045225  0.49999916  0.86872053  1.0
  H  H25  1  0.28955260  0.50000083  0.13127205  1.0
  C  C26  1  0.11944842  0.00000107  0.49979809  1.0
  C  C27  1  0.88054812  0.99999995  0.50019608  1.0
  C  C28  1  0.26218345  0.30577284  0.49979660  1.0
  C  C29  1  0.73781406  0.30577380  0.50020607  1.0
  C  C30  1  0.73781533  0.69422779  0.50020604  1.0
  C  C31  1  0.26218645  0.69422683  0.49979405  1.0
  C  C32  1  0.06097014  0.07768484  0.49984647  1.0
  C  C33  1  0.93902361  0.07768490  0.50014730  1.0
  C  C34  1  0.93902606  0.92231769  0.50014609  1.0
  C  C35  1  0.06097085  0.92231636  0.49984463  1.0
  C  C36  1  0.15912733  0.19652135  0.42369147  1.0
  C  C37  1  0.84087045  0.19651988  0.57630771  1.0
  C  C38  1  0.84087664  0.80348180  0.57631054  1.0
  C  C39  1  0.15912574  0.80347886  0.42368926  1.0
  C  C40  1  0.22614269  0.26963103  0.57580588  1.0
  C  C41  1  0.77385751  0.26963550  0.42419416  1.0
  C  C42  1  0.77385522  0.73036455  0.42419613  1.0
  C  C43  1  0.22614560  0.73036892  0.57580282  1.0
  C  C44  1  0.22680086  0.26925146  0.42371352  1.0
  C  C45  1  0.77319674  0.26924818  0.57628651  1.0
  C  C46  1  0.77320138  0.73075233  0.57628849  1.0
  C  C47  1  0.22680204  0.73074866  0.42371298  1.0
  C  C48  1  0.12599068  0.15885395  0.49975027  1.0
  C  C49  1  0.87400546  0.15885473  0.50024816  1.0
  C  C50  1  0.87400810  0.84114541  0.50025047  1.0
  C  C51  1  0.12599072  0.84114590  0.49974755  1.0
  C  C52  1  0.34246608  0.38009606  0.50015388  1.0
  C  C53  1  0.65753125  0.38009838  0.49985719  1.0
  C  C54  1  0.65753182  0.61990394  0.49985756  1.0
  C  C55  1  0.34247012  0.61990225  0.50015237  1.0
  C  C56  1  0.15847694  0.19695521  0.57579517  1.0
  C  C57  1  0.84152258  0.19696022  0.42420213  1.0
  C  C58  1  0.84152444  0.80304226  0.42420558  1.0
  C  C59  1  0.15847794  0.80304357  0.57579422  1.0
  C  C60  1  0.61195393  0.49999968  0.75257742  1.0
  C  C61  1  0.38805438  0.49999969  0.24741768  1.0
  C  C62  1  0.41117128  0.49999983  0.76426679  1.0
  C  C63  1  0.58882751  0.50000080  0.23572892  1.0
  C  C64  1  0.41631995  0.49999933  0.85146551  1.0
  C  C65  1  0.58368317  0.49999941  0.14852832  1.0
  C  C66  1  0.52583603  0.49999995  0.88999985  1.0
  C  C67  1  0.47416881  0.49999942  0.10999588  1.0
  C  C68  1  0.62506831  0.49999917  0.83960051  1.0
  C  C69  1  0.37493481  0.50000019  0.16039395  1.0
  Br  Br70  1  0.28475060  0.99999868  0.50022152  1.0
  Br  Br71  1  0.71524610  0.99999209  0.49978642  1.0
  N  N72  1  0.50704979  0.50000032  0.71604006  1.0
  N  N73  1  0.49294813  0.49999967  0.28395502  1.0
  N  N74  1  0.54564273  0.50000007  0.97817882  1.0
  N  N75  1  0.45436385  0.49999993  0.02181628  1.0
  O  O76  1  0.37515378  0.40853989  0.42900388  1.0
  O  O77  1  0.62484780  0.40853805  0.57101044  1.0
  O  O78  1  0.62484845  0.59146390  0.57101072  1.0
  O  O79  1  0.37515616  0.59145753  0.42900102  1.0
  O  O80  1  0.37426585  0.40825165  0.57175405  1.0
  O  O81  1  0.62572447  0.40825695  0.42826150  1.0
  O  O82  1  0.62572771  0.59174582  0.42826116  1.0
  O  O83  1  0.37427169  0.59174684  0.57175183  1.0
