# generated using pymatgen
data_Al3H19C42(S3O16)2
_symmetry_space_group_name_H-M   'P 1'
_cell_length_a   13.95077811
_cell_length_b   14.01801188
_cell_length_c   28.11469710
_cell_angle_alpha   90.11625914
_cell_angle_beta   90.15252436
_cell_angle_gamma   60.32231972
_symmetry_Int_Tables_number   1
_chemical_formula_structural   Al3H19C42(S3O16)2
_chemical_formula_sum   'Al6 H38 C84 S12 O64'
_cell_volume   4776.92713342
_cell_formula_units_Z   2
loop_
 _symmetry_equiv_pos_site_id
 _symmetry_equiv_pos_as_xyz
  1  'x, y, z'
loop_
 _atom_site_type_symbol
 _atom_site_label
 _atom_site_symmetry_multiplicity
 _atom_site_fract_x
 _atom_site_fract_y
 _atom_site_fract_z
 _atom_site_occupancy
  Al  Al0  1  0.75071839  0.76028540  0.49908880  1.0
  Al  Al1  1  0.76214014  0.52528110  0.49998960  1.0
  Al  Al2  1  0.53892606  0.72738487  0.50002759  1.0
  Al  Al3  1  0.51017689  0.24061265  0.00085436  1.0
  Al  Al4  1  0.28714790  0.47536727  0.99975353  1.0
  Al  Al5  1  0.26549387  0.27263808  0.99928861  1.0
  H  H6  1  0.36522127  0.65413047  0.22636789  1.0
  H  H7  1  0.87512623  0.46164811  0.79661677  1.0
  H  H8  1  0.66031671  0.87415935  0.79214688  1.0
  H  H9  1  0.45692116  0.66764728  0.78541534  1.0
  H  H10  1  0.56849142  0.60677068  0.26820629  1.0
  H  H11  1  0.59905867  0.82799782  0.26315533  1.0
  H  H12  1  0.82617608  0.56564020  0.25949458  1.0
  H  H13  1  0.18014938  0.40484216  0.76936166  1.0
  H  H14  1  0.41412142  0.17734384  0.76515065  1.0
  H  H15  1  0.39735589  0.42089753  0.76039680  1.0
  H  H16  1  0.44205586  0.34021084  0.24615277  1.0
  H  H17  1  0.64073931  0.98486133  0.21938591  1.0
  H  H18  1  0.32680288  0.21690507  0.24421695  1.0
  H  H19  1  0.21795410  0.44641167  0.24025309  1.0
  H  H20  1  0.78722584  0.66111092  0.74326201  1.0
  H  H21  1  0.54391150  0.78630004  0.74063722  1.0
  H  H22  1  0.66391689  0.54765782  0.73696478  1.0
  H  H23  1  0.81708266  0.30288356  0.26352919  1.0
  H  H24  1  0.28771619  0.88339190  0.26214573  1.0
  H  H25  1  0.89126537  0.81990822  0.26167517  1.0
  H  H26  1  0.12927084  0.68773283  0.77988651  1.0
  H  H27  1  0.18260778  0.12595263  0.77996312  1.0
  H  H28  1  0.98000013  0.37152708  0.21238946  1.0
  H  H29  1  0.67745602  0.18994156  0.77920885  1.0
  H  H30  1  0.76697001  0.18355099  0.23674464  1.0
  H  H31  1  0.17203583  0.04965380  0.23673551  1.0
  H  H32  1  0.06076968  0.76229341  0.23852952  1.0
  H  H33  1  0.92969092  0.81316120  0.72616022  1.0
  H  H34  1  0.24772407  0.93066859  0.72618494  1.0
  H  H35  1  0.81366742  0.25326472  0.72709047  1.0
  H  H36  1  0.03195137  0.35257763  0.72288195  1.0
  H  H37  1  0.61067113  0.02939031  0.71737454  1.0
  H  H38  1  0.35500102  0.61242204  0.71026066  1.0
  H  H39  1  0.33031551  0.53722076  0.30122850  1.0
  H  H40  1  0.52979216  0.13382046  0.29596088  1.0
  H  H41  1  0.13272820  0.32466411  0.28885479  1.0
  H  H42  1  0.85602156  0.83946825  0.52461050  1.0
  H  H43  1  0.69217180  0.13835104  0.97265961  1.0
  C  C44  1  0.55364515  0.86539496  0.43394893  1.0
  C  C45  1  0.00580302  0.52145873  0.80471387  1.0
  C  C46  1  0.47144116  0.00439494  0.80127766  1.0
  C  C47  1  0.51219110  0.48079879  0.79717495  1.0
  C  C48  1  0.60013152  0.44084851  0.23394439  1.0
  C  C49  1  0.42881352  0.95993773  0.23144281  1.0
  C  C50  1  0.96007203  0.60379442  0.22946864  1.0
  C  C51  1  0.04453713  0.57006371  0.73494764  1.0
  C  C52  1  0.38038105  0.04224359  0.73232774  1.0
  C  C53  1  0.56882432  0.38468982  0.72959674  1.0
  C  C54  1  0.53826570  0.54902517  0.26343237  1.0
  C  C55  1  0.87978109  0.56851831  0.43293666  1.0
  C  C56  1  0.53995859  0.91510703  0.25906756  1.0
  C  C57  1  0.91396581  0.53673366  0.25544301  1.0
  C  C58  1  0.09236605  0.46062520  0.76334612  1.0
  C  C59  1  0.44467728  0.08993055  0.75954385  1.0
  C  C60  1  0.45548504  0.45074115  0.75522368  1.0
  C  C61  1  0.47078928  0.45641024  0.16066251  1.0
  C  C62  1  0.43611558  0.07750242  0.15772462  1.0
  C  C63  1  0.07540843  0.48588756  0.15376313  1.0
  C  C64  1  0.93772364  0.55111663  0.65886415  1.0
  C  C65  1  0.50294408  0.93287160  0.65599880  1.0
  C  C66  1  0.59130341  0.54826776  0.43686723  1.0
  C  C67  1  0.56326175  0.50103498  0.65198926  1.0
  C  C68  1  0.54021115  0.49869626  0.35331330  1.0
  C  C69  1  0.49731807  0.96156286  0.34959496  1.0
  C  C70  1  0.96601778  0.52331129  0.34641841  1.0
  C  C71  1  0.03827977  0.50634733  0.85300937  1.0
  C  C72  1  0.45714987  0.03676922  0.84951501  1.0
  C  C73  1  0.49324185  0.47097825  0.84581266  1.0
  C  C74  1  0.55730374  0.86040826  0.56761747  1.0
  C  C75  1  0.87531131  0.57295201  0.56851428  1.0
  C  C76  1  0.59412547  0.55084348  0.56485024  1.0
  C  C77  1  0.42132773  0.13350719  0.93374110  1.0
  C  C78  1  0.41320347  0.14265659  0.06795322  1.0
  C  C79  1  0.44498765  0.42616938  0.06945750  1.0
  C  C80  1  0.14716415  0.44941120  0.06503016  1.0
  C  C81  1  0.40646122  0.50992870  0.28127188  1.0
  C  C82  1  0.50096994  0.08502662  0.27677011  1.0
  C  C83  1  0.08424167  0.40354907  0.27106672  1.0
  C  C84  1  0.92290327  0.49260545  0.77820792  1.0
  C  C85  1  0.58103832  0.92139501  0.77418123  1.0
  C  C86  1  0.48905697  0.58746897  0.76854764  1.0
  C  C87  1  0.42599830  0.57470133  0.24079020  1.0
  C  C88  1  0.44760653  0.43345851  0.93297159  1.0
  C  C89  1  0.56259367  0.00234960  0.23540870  1.0
  C  C90  1  0.99948327  0.42950744  0.22976861  1.0
  C  C91  1  0.01013803  0.43201143  0.73828895  1.0
  C  C92  1  0.55339581  0.00786315  0.73382559  1.0
  C  C93  1  0.43218280  0.55683385  0.72804919  1.0
  C  C94  1  0.45936712  0.44822907  0.11821735  1.0
  C  C95  1  0.42670347  0.10184314  0.11582455  1.0
  C  C96  1  0.10106622  0.47355728  0.11195272  1.0
  C  C97  1  0.91621388  0.55585994  0.61667211  1.0
  C  C98  1  0.52256920  0.90654140  0.61439524  1.0
  C  C99  1  0.13886589  0.45011576  0.93642449  1.0
  C  C100  1  0.57461233  0.51824462  0.61054401  1.0
  C  C101  1  0.56096660  0.51636938  0.39337436  1.0
  C  C102  1  0.51837651  0.92354348  0.38956407  1.0
  C  C103  1  0.93333908  0.53845023  0.38730791  1.0
  C  C104  1  0.07609127  0.48612586  0.89314566  1.0
  C  C105  1  0.44201203  0.07430411  0.88959500  1.0
  C  C106  1  0.47450492  0.45877622  0.88693436  1.0
  C  C107  1  0.46752723  0.40170281  0.25150165  1.0
  C  C108  1  0.38956034  0.13086256  0.24898493  1.0
  C  C109  1  0.13128132  0.47011671  0.24511727  1.0
  C  C110  1  0.51910118  0.48496285  0.30533645  1.0
  C  C111  1  0.87431420  0.60200610  0.74932056  1.0
  C  C112  1  0.51750033  0.87292988  0.74652134  1.0
  C  C113  1  0.60251665  0.52201995  0.74266712  1.0
  C  C114  1  0.48607928  0.46668623  0.20972354  1.0
  C  C115  1  0.45104299  0.04916615  0.20640712  1.0
  C  C116  1  0.04741036  0.49532541  0.20247721  1.0
  C  C117  1  0.96133061  0.54135672  0.70812429  1.0
  C  C118  1  0.49007032  0.95902003  0.70493462  1.0
  C  C119  1  0.54580370  0.49152111  0.70082340  1.0
  C  C120  1  0.57957946  0.37585489  0.27449678  1.0
  C  C121  1  0.47918251  0.99649241  0.30172713  1.0
  C  C122  1  0.36670371  0.04390578  0.27285400  1.0
  C  C123  1  0.04580538  0.57720423  0.27090188  1.0
  C  C124  1  0.95547065  0.63167185  0.77466032  1.0
  C  C125  1  0.40872552  0.95405651  0.77247987  1.0
  C  C126  1  0.62670484  0.41593375  0.76997168  1.0
  C  C127  1  0.99745572  0.51087760  0.29807607  1.0
  S  S128  1  0.72466444  0.40188866  0.20111514  1.0
  S  S129  1  0.91665170  0.76414042  0.79646339  1.0
  S  S130  1  0.31531306  0.91565271  0.79571739  1.0
  S  S131  1  0.75595006  0.32427656  0.79544439  1.0
  S  S132  1  0.38994745  0.87191009  0.20039088  1.0
  S  S133  1  0.87221320  0.73315169  0.20075272  1.0
  S  S134  1  0.12353958  0.62506120  0.71087348  1.0
  S  S135  1  0.24521995  0.12186596  0.70983126  1.0
  S  S136  1  0.62460352  0.24891002  0.70829698  1.0
  S  S137  1  0.67687151  0.25081423  0.30066702  1.0
  S  S138  1  0.24275564  0.07045165  0.30034379  1.0
  S  S139  1  0.07418423  0.67072428  0.30092275  1.0
  O  O140  1  0.84211578  0.66672526  0.44584613  1.0
  O  O141  1  0.49440172  0.15497872  0.94795858  1.0
  O  O142  1  0.35638627  0.50803806  0.95149149  1.0
  O  O143  1  0.16080220  0.35563431  0.95187917  1.0
  O  O144  1  0.85477646  0.66171154  0.54868942  1.0
  O  O145  1  0.68467019  0.48584959  0.54398619  1.0
  O  O146  1  0.48980556  0.83952013  0.54438737  1.0
  O  O147  1  0.51001911  0.33130928  0.05400743  1.0
  O  O148  1  0.17902859  0.51344097  0.04787358  1.0
  O  O149  1  0.31962520  0.17022719  0.04798431  1.0
  O  O150  1  0.65156115  0.84038424  0.55422412  1.0
  O  O151  1  0.69092042  0.48936195  0.45099196  1.0
  O  O152  1  0.85896374  0.49733939  0.55079812  1.0
  O  O153  1  0.52115900  0.64542403  0.54994951  1.0
  O  O154  1  0.49111385  0.15197840  0.05040493  1.0
  O  O155  1  0.36404893  0.50416456  0.04644684  1.0
  O  O156  1  0.15782127  0.36272104  0.04509479  1.0
  O  O157  1  0.68351238  0.66984480  0.50007900  1.0
  O  O158  1  0.35246604  0.33066829  0.99965269  1.0
  O  O159  1  0.71790308  0.36281821  0.15496882  1.0
  O  O160  1  0.75075360  0.48825373  0.20772169  1.0
  O  O161  1  0.81743829  0.29215896  0.22841771  1.0
  O  O162  1  0.49252117  0.82803231  0.45051701  1.0
  O  O163  1  0.35480933  0.91148639  0.15316215  1.0
  O  O164  1  0.47451596  0.76077877  0.20979376  1.0
  O  O165  1  0.27707452  0.89356094  0.22698425  1.0
  O  O166  1  0.90612576  0.72891169  0.15253680  1.0
  O  O167  1  0.76064943  0.76408879  0.21325017  1.0
  O  O168  1  0.90355174  0.81812411  0.22659295  1.0
  O  O169  1  0.20643006  0.54905065  0.67930250  1.0
  O  O170  1  0.04595547  0.73569634  0.69459497  1.0
  O  O171  1  0.18546969  0.63173142  0.75711438  1.0
  O  O172  1  0.23711193  0.20498367  0.67806894  1.0
  O  O173  1  0.51219942  0.34014984  0.95008686  1.0
  O  O174  1  0.20869023  0.04556826  0.69446732  1.0
  O  O175  1  0.18155075  0.18236857  0.75696343  1.0
  O  O176  1  0.55160802  0.23946225  0.67536736  1.0
  O  O177  1  0.73835208  0.21252730  0.69467886  1.0
  O  O178  1  0.62352079  0.18767626  0.75548478  1.0
  O  O179  1  0.76699386  0.26565033  0.31760078  1.0
  O  O180  1  0.62084774  0.21447128  0.33199573  1.0
  O  O181  1  0.71768951  0.16751774  0.25644947  1.0
  O  O182  1  0.25746135  0.96588788  0.31672963  1.0
  O  O183  1  0.20778854  0.16131620  0.33223498  1.0
  O  O184  1  0.17219327  0.51219043  0.95450500  1.0
  O  O185  1  0.15676187  0.11404503  0.25679831  1.0
  O  O186  1  0.96958086  0.76117140  0.31665269  1.0
  O  O187  1  0.16273259  0.61200094  0.33376884  1.0
  O  O188  1  0.12340947  0.71203684  0.25917969  1.0
  O  O189  1  0.82757997  0.79821585  0.82940452  1.0
  O  O190  1  0.01684025  0.76418509  0.81109974  1.0
  O  O191  1  0.86779946  0.83650229  0.75006889  1.0
  O  O192  1  0.37125953  0.82608381  0.82814679  1.0
  O  O193  1  0.21739069  0.01521856  0.81143319  1.0
  O  O194  1  0.28693830  0.86843223  0.74980395  1.0
  O  O195  1  0.32761928  0.16279430  0.95365003  1.0
  O  O196  1  0.78756564  0.38172512  0.82838197  1.0
  O  O197  1  0.75183303  0.22751990  0.81123717  1.0
  O  O198  1  0.83509332  0.29404520  0.75082961  1.0
  O  O199  1  0.64223470  0.85270005  0.45173856  1.0
  O  O200  1  0.87188976  0.49273048  0.45575864  1.0
  O  O201  1  0.51746232  0.63612699  0.45681724  1.0
  O  O202  1  0.81069172  0.84356877  0.49778886  1.0
  O  O203  1  0.65329198  0.16006287  0.00259889  1.0
