# generated using pymatgen
data_ZnH25C34N2ClO6
_symmetry_space_group_name_H-M   'P 1'
_cell_length_a   14.62766755
_cell_length_b   16.04938984
_cell_length_c   27.92025727
_cell_angle_alpha   89.98358088
_cell_angle_beta   90.06520227
_cell_angle_gamma   89.94409461
_symmetry_Int_Tables_number   1
_chemical_formula_structural   ZnH25C34N2ClO6
_chemical_formula_sum   'Zn2 H50 C68 N4 Cl2 O12'
_cell_volume   6554.69544207
_cell_formula_units_Z   2
loop_
 _symmetry_equiv_pos_site_id
 _symmetry_equiv_pos_as_xyz
  1  'x, y, z'
loop_
 _atom_site_type_symbol
 _atom_site_label
 _atom_site_symmetry_multiplicity
 _atom_site_fract_x
 _atom_site_fract_y
 _atom_site_fract_z
 _atom_site_occupancy
  Zn  Zn0  1  0.40665119  0.49936126  0.50027970  1.0
  Zn  Zn1  1  0.59463722  0.49956335  0.50018720  1.0
  H  H2  1  0.36546773  0.43993322  0.35716522  1.0
  H  H3  1  0.34457477  0.43327823  0.26817819  1.0
  H  H4  1  0.42609539  0.28827592  0.12324197  1.0
  H  H5  1  0.35606230  0.47238622  0.64939500  1.0
  H  H6  1  0.35082964  0.47404722  0.73960503  1.0
  H  H7  1  0.54170732  0.30191223  0.88109824  1.0
  H  H8  1  0.51512594  0.29538673  0.96862714  1.0
  H  H9  1  0.60252718  0.55653189  0.25017795  1.0
  H  H10  1  0.43911588  0.70451313  0.12296028  1.0
  H  H11  1  0.39190589  0.70218440  0.96500191  1.0
  H  H12  1  0.64124876  0.53011623  0.65405715  1.0
  H  H13  1  0.40417906  0.70105288  0.87639531  1.0
  H  H14  1  0.42760086  0.70628122  0.03434296  1.0
  H  H15  1  0.39707613  0.92647539  0.55542763  1.0
  H  H16  1  0.56889735  0.92576747  0.56824967  1.0
  H  H17  1  0.39721568  0.07243307  0.55573283  1.0
  H  H18  1  0.56940265  0.07166088  0.56857785  1.0
  H  H19  1  0.64350548  0.07184702  0.51874583  1.0
  H  H20  1  0.35239079  0.07304432  0.49701153  1.0
  H  H21  1  0.64313082  0.92580465  0.51844429  1.0
  H  H22  1  0.35195312  0.92698572  0.49677438  1.0
  H  H23  1  0.45902874  0.07308698  0.42564595  1.0
  H  H24  1  0.57851222  0.07288237  0.43446748  1.0
  H  H25  1  0.45925526  0.92724278  0.42513846  1.0
  H  H26  1  0.57864439  0.92699805  0.43431482  1.0
  H  H27  1  0.08033392  0.37055147  0.51940220  1.0
  H  H28  1  0.92002534  0.36979224  0.51780240  1.0
  H  H29  1  0.92029187  0.59763391  0.54985510  1.0
  H  H30  1  0.08026374  0.59886418  0.54908638  1.0
  H  H31  1  0.92141189  0.49578237  0.57373670  1.0
  H  H32  1  0.08122678  0.49771480  0.57390482  1.0
  H  H33  1  0.92464379  0.62062083  0.46283169  1.0
  H  H34  1  0.07883076  0.61936796  0.46137486  1.0
  H  H35  1  0.92192567  0.38519892  0.45509264  1.0
  H  H36  1  0.08123101  0.38352662  0.45650948  1.0
  H  H37  1  0.76791244  0.50290862  0.70216044  1.0
  H  H38  1  0.74001440  0.61071221  0.70205985  1.0
  H  H39  1  0.80568492  0.56792293  0.74962830  1.0
  H  H40  1  0.64653328  0.58976336  0.77745310  1.0
  H  H41  1  0.67385111  0.48301702  0.77702768  1.0
  H  H42  1  0.32032366  0.21014501  0.09080612  1.0
  H  H43  1  0.25360853  0.26547014  0.04823249  1.0
  H  H44  1  0.29455569  0.16382645  0.03479685  1.0
  H  H45  1  0.38539516  0.26831990  0.99122955  1.0
  H  H46  1  0.45495981  0.21501514  0.03270919  1.0
  H  H47  1  0.74090409  0.57623640  0.28196801  1.0
  H  H48  1  0.67518367  0.66818545  0.29074030  1.0
  H  H49  1  0.77015627  0.64647274  0.32837886  1.0
  H  H50  1  0.63038187  0.61448837  0.37365030  1.0
  H  H51  1  0.69048983  0.52296849  0.36325517  1.0
  C  C52  1  0.49878226  0.33739902  0.50000059  1.0
  C  C53  1  0.50161691  0.49978481  0.40713117  1.0
  C  C54  1  0.49886499  0.66163587  0.49980382  1.0
  C  C55  1  0.50236215  0.50012808  0.59333892  1.0
  C  C56  1  0.45614067  0.41678571  0.17986070  1.0
  C  C57  1  0.45240088  0.57286248  0.18034840  1.0
  C  C58  1  0.55200909  0.52966171  0.27424355  1.0
  C  C59  1  0.56600960  0.53223318  0.32384905  1.0
  C  C60  1  0.41768868  0.46425026  0.33316798  1.0
  C  C61  1  0.40553187  0.46111496  0.28382101  1.0
  C  C62  1  0.47318471  0.49468738  0.25464399  1.0
  C  C63  1  0.44246711  0.49557513  0.10207017  1.0
  C  C64  1  0.44380140  0.41911420  0.12724468  1.0
  C  C65  1  0.43097914  0.34552537  0.10235911  1.0
  C  C66  1  0.44415246  0.57166370  0.12750936  1.0
  C  C67  1  0.49664600  0.49889196  0.35341951  1.0
  C  C68  1  0.49938564  0.50115586  0.64706434  1.0
  C  C69  1  0.46054000  0.41994632  0.97451219  1.0
  C  C70  1  0.42844944  0.57254540  0.97388128  1.0
  C  C71  1  0.44896601  0.49685987  0.94924138  1.0
  C  C72  1  0.49683849  0.35188943  0.94938043  1.0
  C  C73  1  0.51342851  0.35534417  0.90011054  1.0
  C  C74  1  0.49371731  0.42701727  0.87422029  1.0
  C  C75  1  0.46195739  0.49893323  0.89849947  1.0
  C  C76  1  0.44542171  0.57349914  0.87276284  1.0
  C  C77  1  0.45730623  0.57679595  0.82020423  1.0
  C  C78  1  0.50911437  0.42803086  0.82190908  1.0
  C  C79  1  0.41425714  0.48621585  0.72037930  1.0
  C  C80  1  0.41687891  0.48532223  0.67060545  1.0
  C  C81  1  0.57840970  0.51793718  0.67370726  1.0
  C  C82  1  0.57742496  0.51926392  0.72377995  1.0
  C  C83  1  0.49355011  0.50288055  0.74627969  1.0
  C  C84  1  0.44087683  0.41685332  0.02587342  1.0
  C  C85  1  0.43924692  0.49487869  0.05100630  1.0
  C  C86  1  0.43271328  0.57256914  0.02614538  1.0
  C  C87  1  0.42552874  0.34258018  0.05196439  1.0
  C  C88  1  0.43829248  0.64652711  0.10265076  1.0
  C  C89  1  0.41077456  0.64449549  0.94698338  1.0
  C  C90  1  0.41787272  0.64478863  0.89710055  1.0
  C  C91  1  0.43182130  0.64658808  0.05277123  1.0
  C  C92  1  0.40774759  0.04787938  0.51941043  1.0
  C  C93  1  0.57829883  0.04715373  0.53213000  1.0
  C  C94  1  0.57805518  0.95075117  0.53191851  1.0
  C  C95  1  0.40756271  0.95149613  0.51920116  1.0
  C  C96  1  0.49925784  0.75173003  0.49921859  1.0
  C  C97  1  0.50005638  0.08116203  0.50016613  1.0
  C  C98  1  0.49959237  0.91788797  0.49972153  1.0
  C  C99  1  0.51383121  0.95169805  0.44825028  1.0
  C  C100  1  0.51382870  0.04813180  0.44847402  1.0
  C  C101  1  0.49959486  0.82746549  0.49932725  1.0
  C  C102  1  0.50019842  0.17158920  0.50007993  1.0
  C  C103  1  0.49986311  0.24731185  0.50001374  1.0
  C  C104  1  0.94807515  0.40916679  0.48923885  1.0
  C  C105  1  0.05367138  0.40891771  0.48997565  1.0
  C  C106  1  0.94803107  0.53468349  0.54458336  1.0
  C  C107  1  0.05355441  0.53543451  0.54445269  1.0
  C  C108  1  0.91265168  0.49918630  0.49635398  1.0
  C  C109  1  0.08897616  0.49903559  0.49649154  1.0
  C  C110  1  0.05461706  0.55565810  0.45499834  1.0
  C  C111  1  0.94720077  0.55671545  0.45538020  1.0
  C  C112  1  0.18814517  0.49929651  0.49746524  1.0
  C  C113  1  0.81342727  0.49945675  0.49718935  1.0
  C  C114  1  0.66169384  0.53700643  0.75342182  1.0
  C  C115  1  0.74849090  0.55569215  0.72510730  1.0
  C  C116  1  0.39827295  0.26013779  0.02961726  1.0
  C  C117  1  0.31196935  0.22291089  0.05242757  1.0
  C  C118  1  0.65113820  0.57181976  0.34473886  1.0
  C  C119  1  0.71228702  0.61805913  0.30933665  1.0
  N  N120  1  0.46112855  0.49466462  0.20327987  1.0
  N  N121  1  0.48701897  0.50269619  0.79800020  1.0
  N  N122  1  0.26706427  0.49938450  0.50013796  1.0
  N  N123  1  0.73449615  0.49931491  0.49978626  1.0
  Cl  Cl124  1  0.89456865  0.52994578  0.40011919  1.0
  Cl  Cl125  1  0.10520671  0.52519636  0.39989194  1.0
  O  O126  1  0.42216930  0.37218740  0.49141884  1.0
  O  O127  1  0.57461026  0.37362903  0.50865563  1.0
  O  O128  1  0.42637488  0.51401469  0.42867755  1.0
  O  O129  1  0.57826826  0.48547074  0.42717273  1.0
  O  O130  1  0.42280842  0.62653946  0.50896723  1.0
  O  O131  1  0.57495196  0.62570798  0.49115076  1.0
  O  O132  1  0.42729310  0.48431398  0.57193807  1.0
  O  O133  1  0.57869241  0.51494917  0.57313907  1.0
  O  O134  1  0.46264399  0.35106702  0.20231505  1.0
  O  O135  1  0.53923076  0.36772410  0.79966194  1.0
  O  O136  1  0.45279072  0.63805854  0.20350257  1.0
  O  O137  1  0.44258838  0.63997454  0.79639635  1.0
