# generated using pymatgen
data_ZnH20C24N5O6
_symmetry_space_group_name_H-M   'P 1'
_cell_length_a   15.81714157
_cell_length_b   17.13366151
_cell_length_c   19.05790490
_cell_angle_alpha   89.42189669
_cell_angle_beta   87.53896673
_cell_angle_gamma   86.89665349
_symmetry_Int_Tables_number   1
_chemical_formula_structural   ZnH20C24N5O6
_chemical_formula_sum   'Zn2 H40 C48 N10 O12'
_cell_volume   5152.31105376
_cell_formula_units_Z   2
loop_
 _symmetry_equiv_pos_site_id
 _symmetry_equiv_pos_as_xyz
  1  'x, y, z'
loop_
 _atom_site_type_symbol
 _atom_site_label
 _atom_site_symmetry_multiplicity
 _atom_site_fract_x
 _atom_site_fract_y
 _atom_site_fract_z
 _atom_site_occupancy
  Zn  Zn0  1  0.58468614  0.50937356  0.49613067  1.0
  Zn  Zn1  1  0.41127136  0.49767418  0.50855333  1.0
  H  H2  1  0.88677605  0.40472648  0.54068100  1.0
  H  H3  1  0.63329151  0.50160810  0.14606726  1.0
  H  H4  1  0.39203892  0.42012336  0.72270253  1.0
  H  H5  1  0.61393178  0.53009577  0.27457937  1.0
  H  H6  1  0.58540703  0.74374950  0.41879091  1.0
  H  H7  1  0.40500082  0.25543381  0.53559571  1.0
  H  H8  1  0.57970004  0.88960610  0.40357717  1.0
  H  H9  1  0.39894703  0.11101588  0.51723628  1.0
  H  H10  1  0.63789409  0.11297972  0.40024910  1.0
  H  H11  1  0.34730684  0.90453006  0.53008382  1.0
  H  H12  1  0.72646643  0.40607548  0.54218660  1.0
  H  H13  1  0.11552217  0.54210860  0.41220698  1.0
  H  H14  1  0.27560380  0.54376906  0.41326346  1.0
  H  H15  1  0.70553722  0.48454772  0.67440578  1.0
  H  H16  1  0.73868050  0.51795240  0.75721276  1.0
  H  H17  1  0.75856312  0.65128306  0.70439643  1.0
  H  H18  1  0.82073413  0.57878806  0.65585451  1.0
  H  H19  1  0.72321416  0.61844813  0.62280725  1.0
  H  H20  1  0.39701949  0.28276338  0.29299386  1.0
  H  H21  1  0.43284593  0.33755641  0.36430678  1.0
  H  H22  1  0.24526501  0.31430274  0.33797308  1.0
  H  H23  1  0.30669067  0.26133432  0.40084589  1.0
  H  H24  1  0.12187689  0.42034890  0.61141016  1.0
  H  H25  1  0.28571089  0.36388209  0.41041480  1.0
  H  H26  1  0.59297587  0.34515279  0.35820006  1.0
  H  H27  1  0.63975260  0.26580703  0.30716317  1.0
  H  H28  1  0.78513264  0.31294196  0.33317474  1.0
  H  H29  1  0.72182742  0.38420012  0.28726434  1.0
  H  H30  1  0.73368827  0.39385347  0.37925546  1.0
  H  H31  1  0.28117039  0.69706284  0.47948134  1.0
  H  H32  1  0.23169024  0.78953217  0.50574235  1.0
  H  H33  1  0.19633995  0.73240746  0.62538014  1.0
  H  H34  1  0.15149413  0.67822896  0.55818574  1.0
  H  H35  1  0.87038202  0.62567696  0.43009609  1.0
  H  H36  1  0.24575961  0.64112495  0.59839779  1.0
  H  H37  1  0.28171832  0.43130324  0.60607311  1.0
  H  H38  1  0.70995431  0.61997809  0.43995738  1.0
  H  H39  1  0.62867582  0.51715730  0.85447865  1.0
  H  H40  1  0.40227098  0.37851105  0.15845095  1.0
  H  H41  1  0.40592716  0.38342765  0.84945634  1.0
  C  C42  1  0.52035359  0.35119070  0.49522836  1.0
  C  C43  1  0.46323220  0.90559565  0.46656596  1.0
  C  C44  1  0.58627697  0.14417199  0.42983795  1.0
  C  C45  1  0.39835269  0.86874184  0.50422625  1.0
  C  C46  1  0.59027181  0.22457375  0.44053608  1.0
  C  C47  1  0.40144332  0.78759559  0.51265913  1.0
  C  C48  1  0.23806263  0.51887916  0.45643169  1.0
  C  C49  1  0.76161347  0.45383232  0.51933997  1.0
  C  C50  1  0.15053232  0.51728296  0.45578590  1.0
  C  C51  1  0.84937097  0.45299166  0.51790728  1.0
  C  C52  1  0.10796264  0.48213433  0.51289503  1.0
  C  C53  1  0.48049338  0.65540980  0.49232257  1.0
  C  C54  1  0.88916697  0.51603031  0.48563450  1.0
  C  C55  1  0.15445607  0.44884041  0.56751758  1.0
  C  C56  1  0.83985801  0.57692679  0.45580598  1.0
  C  C57  1  0.49742347  0.49901505  0.63916806  1.0
  C  C58  1  0.49433672  0.49101003  0.36535886  1.0
  C  C59  1  0.24188542  0.45439779  0.56456601  1.0
  C  C60  1  0.75215459  0.57374736  0.46073836  1.0
  C  C61  1  0.56967397  0.51487490  0.75481061  1.0
  C  C62  1  0.43810433  0.42834651  0.25489428  1.0
  C  C63  1  0.57752960  0.49466695  0.82535091  1.0
  C  C64  1  0.52388052  0.26538593  0.47952326  1.0
  C  C65  1  0.44911663  0.41212630  0.18329008  1.0
  C  C66  1  0.51945083  0.44639679  0.85937406  1.0
  C  C67  1  0.51905947  0.43813133  0.14380542  1.0
  C  C68  1  0.45140298  0.42007131  0.82254048  1.0
  C  C69  1  0.57900562  0.48131300  0.17676562  1.0
  C  C70  1  0.44390990  0.44053686  0.75230358  1.0
  C  C71  1  0.56814707  0.49709186  0.24782710  1.0
  C  C72  1  0.50349992  0.48618183  0.71682544  1.0
  C  C73  1  0.49853048  0.47149086  0.28853387  1.0
  C  C74  1  0.52895675  0.42217680  0.06851978  1.0
  C  C75  1  0.46999659  0.74215827  0.48200843  1.0
  C  C76  1  0.52906769  0.42627743  0.93347510  1.0
  C  C77  1  0.70852992  0.53625889  0.70802392  1.0
  C  C78  1  0.75563641  0.60011657  0.67052587  1.0
  C  C79  1  0.37987147  0.33125615  0.32957864  1.0
  C  C80  1  0.29924286  0.31701871  0.37211639  1.0
  C  C81  1  0.64970881  0.30558993  0.35098380  1.0
  C  C82  1  0.72754823  0.35176232  0.33701818  1.0
  C  C83  1  0.26469257  0.73533849  0.52471354  1.0
  C  C84  1  0.21131293  0.69430222  0.58003607  1.0
  C  C85  1  0.45530929  0.22284411  0.50580397  1.0
  C  C86  1  0.53305938  0.78000141  0.44221555  1.0
  C  C87  1  0.45138773  0.14345669  0.49553705  1.0
  C  C88  1  0.53030945  0.86043876  0.43357721  1.0
  C  C89  1  0.51786012  0.10321519  0.45713945  1.0
  N  N90  1  0.47001154  0.38409427  0.96783661  1.0
  N  N91  1  0.97811697  0.52286834  0.47988585  1.0
  N  N92  1  0.60101060  0.44192695  0.03338316  1.0
  N  N93  1  0.46996893  0.38194100  0.03691756  1.0
  N  N94  1  0.60119865  0.44388649  0.96435422  1.0
  N  N95  1  0.52275736  0.02136645  0.44671501  1.0
  N  N96  1  0.45729941  0.98792986  0.46951126  1.0
  N  N97  1  0.28241561  0.48888681  0.51022672  1.0
  N  N98  1  0.71419401  0.51336292  0.49171258  1.0
  N  N99  1  0.01896414  0.47650415  0.51954630  1.0
  O  O100  1  0.58681852  0.38899835  0.48435068  1.0
  O  O101  1  0.36636546  0.40228582  0.28879311  1.0
  O  O102  1  0.66149519  0.25900223  0.41395955  1.0
  O  O103  1  0.34188605  0.75470393  0.55683060  1.0
  O  O104  1  0.41471996  0.61596103  0.49144544  1.0
  O  O105  1  0.44876838  0.38082518  0.51826334  1.0
  O  O106  1  0.55605159  0.62776450  0.50004469  1.0
  O  O107  1  0.56681621  0.49600611  0.60275597  1.0
  O  O108  1  0.42568755  0.48123176  0.40078170  1.0
  O  O109  1  0.42345300  0.50806106  0.61532005  1.0
  O  O110  1  0.56188738  0.51531969  0.38986205  1.0
  O  O111  1  0.62303841  0.56695770  0.72366380  1.0
