# generated using pymatgen
data_ZnHC17N5(O6F5)2
_symmetry_space_group_name_H-M   'P 1'
_cell_length_a   10.79307965
_cell_length_b   14.72616403
_cell_length_c   16.00761118
_cell_angle_alpha   89.86913755
_cell_angle_beta   89.94875496
_cell_angle_gamma   88.89086880
_symmetry_Int_Tables_number   1
_chemical_formula_structural   ZnHC17N5(O6F5)2
_chemical_formula_sum   'Zn2 H2 C34 N10 O24 F20'
_cell_volume   2543.77605966
_cell_formula_units_Z   2
loop_
 _symmetry_equiv_pos_site_id
 _symmetry_equiv_pos_as_xyz
  1  'x, y, z'
loop_
 _atom_site_type_symbol
 _atom_site_label
 _atom_site_symmetry_multiplicity
 _atom_site_fract_x
 _atom_site_fract_y
 _atom_site_fract_z
 _atom_site_occupancy
  Zn  Zn0  1  0.48861913  0.40438809  0.49875624  1.0
  Zn  Zn1  1  0.49382260  0.59441254  0.50052619  1.0
  H  H2  1  0.36267680  0.43109523  0.93834976  1.0
  H  H3  1  0.35734300  0.57281847  0.91771916  1.0
  C  C4  1  0.48950665  0.49654557  0.66139453  1.0
  C  C5  1  0.72957675  0.48776772  0.50625220  1.0
  C  C6  1  0.50420154  0.50254661  0.33796326  1.0
  C  C7  1  0.25371835  0.51313434  0.49417407  1.0
  C  C8  1  0.96561596  0.40922314  0.50247796  1.0
  C  C9  1  0.94684545  0.54150828  0.57115305  1.0
  C  C10  1  0.04507154  0.46129183  0.56903389  1.0
  C  C11  1  0.11548634  0.51200886  0.49675480  1.0
  C  C12  1  0.03639497  0.45979423  0.43018239  1.0
  C  C13  1  0.01772180  0.59207558  0.49887806  1.0
  C  C14  1  0.93822836  0.54009673  0.43228331  1.0
  C  C15  1  0.86782878  0.48931102  0.50458871  1.0
  C  C16  1  0.46127082  0.41449253  0.94998456  1.0
  C  C17  1  0.44934645  0.58070328  0.94593301  1.0
  C  C18  1  0.43066608  0.57461454  0.04214044  1.0
  C  C19  1  0.47136021  0.40570802  0.04575628  1.0
  C  C20  1  0.50906894  0.50255975  0.24741904  1.0
  C  C21  1  0.53399209  0.49923270  0.91554894  1.0
  C  C22  1  0.51854604  0.49887720  0.08207962  1.0
  C  C23  1  0.65732674  0.51209433  0.05214580  1.0
  C  C24  1  0.66583177  0.51152290  0.95343054  1.0
  C  C25  1  0.51313380  0.50036106  0.17190278  1.0
  C  C26  1  0.52838217  0.49710437  0.82527465  1.0
  C  C27  1  0.50555697  0.49610932  0.75122145  1.0
  C  C28  1  0.55648326  0.94515392  0.59173769  1.0
  C  C29  1  0.56908594  0.05124375  0.58818286  1.0
  C  C30  1  0.37624369  0.94672306  0.48433279  1.0
  C  C31  1  0.37023300  0.05346776  0.49703625  1.0
  C  C32  1  0.51244955  0.90999804  0.50417828  1.0
  C  C33  1  0.50812327  0.09004931  0.50608329  1.0
  C  C34  1  0.58321269  0.05290652  0.42770459  1.0
  C  C35  1  0.60115954  0.94707793  0.43367927  1.0
  C  C36  1  0.49998892  0.18866299  0.50401343  1.0
  C  C37  1  0.51167636  0.81144086  0.50264020  1.0
  N  N38  1  0.48358676  0.26598787  0.49653820  1.0
  N  N39  1  0.50530267  0.73332824  0.50149780  1.0
  N  N40  1  0.52562893  0.09975582  0.67277440  1.0
  N  N41  1  0.46603375  0.90836032  0.66442531  1.0
  N  N42  1  0.74176402  0.91071815  0.45029885  1.0
  N  N43  1  0.70895154  0.10463062  0.40776713  1.0
  N  N44  1  0.44222233  0.66940771  0.08865886  1.0
  N  N45  1  0.55408996  0.32122679  0.07586978  1.0
  N  N46  1  0.76331657  0.43866685  0.92373411  1.0
  N  N47  1  0.72833583  0.59971202  0.91091720  1.0
  O  O48  1  0.48642452  0.41935697  0.62624498  1.0
  O  O49  1  0.48180474  0.57449297  0.62730406  1.0
  O  O50  1  0.67802654  0.41138254  0.50416193  1.0
  O  O51  1  0.67845750  0.56621948  0.50839942  1.0
  O  O52  1  0.50139517  0.42471903  0.37205141  1.0
  O  O53  1  0.50334125  0.57983841  0.37288597  1.0
  O  O54  1  0.30450922  0.43461425  0.49334828  1.0
  O  O55  1  0.30559935  0.58949818  0.49383478  1.0
  O  O56  1  0.45704653  0.16631380  0.66753589  1.0
  O  O57  1  0.57744374  0.06692305  0.73404742  1.0
  O  O58  1  0.38153558  0.95898597  0.68722612  1.0
  O  O59  1  0.49256818  0.83156887  0.68745616  1.0
  O  O60  1  0.81604270  0.96372567  0.47921051  1.0
  O  O61  1  0.75684551  0.83113797  0.43130447  1.0
  O  O62  1  0.73521145  0.16941776  0.45123013  1.0
  O  O63  1  0.75954494  0.07573485  0.34454239  1.0
  O  O64  1  0.35610327  0.68862015  0.13560128  1.0
  O  O65  1  0.53412856  0.71388042  0.07331043  1.0
  O  O66  1  0.52377548  0.28937300  0.14339312  1.0
  O  O67  1  0.63734935  0.29485086  0.02926507  1.0
  O  O68  1  0.72840844  0.37945892  0.87644923  1.0
  O  O69  1  0.86879624  0.45128550  0.94970400  1.0
  O  O70  1  0.74662038  0.58831603  0.83595449  1.0
  O  O71  1  0.75223903  0.66576214  0.95282538  1.0
  F  F72  1  0.10383186  0.42465196  0.63630082  1.0
  F  F73  1  0.72735792  0.44227218  0.08524905  1.0
  F  F74  1  0.70250735  0.58802545  0.08702743  1.0
  F  F75  1  0.34553875  0.92615876  0.40481355  1.0
  F  F76  1  0.31206060  0.09386951  0.43173486  1.0
  F  F77  1  0.29455796  0.90533030  0.53558758  1.0
  F  F78  1  0.30419190  0.07379092  0.56650524  1.0
  F  F79  1  0.57222087  0.90879092  0.35991044  1.0
  F  F80  1  0.51605540  0.07176625  0.35741250  1.0
  F  F81  1  0.66762110  0.90571518  0.60984756  1.0
  F  F82  1  0.69209364  0.07033177  0.58780583  1.0
  F  F83  1  0.93799168  0.31988001  0.50446850  1.0
  F  F84  1  0.89759585  0.57963945  0.64092760  1.0
  F  F85  1  0.08602664  0.42164038  0.36057327  1.0
  F  F86  1  0.04526650  0.68150087  0.49714109  1.0
  F  F87  1  0.87939028  0.57691730  0.36520489  1.0
  F  F88  1  0.35763039  0.38659957  0.07837560  1.0
  F  F89  1  0.30976870  0.55154098  0.05524619  1.0
  F  F90  1  0.49425722  0.66274273  0.91850662  1.0
  F  F91  1  0.48586703  0.33499712  0.90789545  1.0
