# generated using pymatgen
data_Al6H14C36O31
_symmetry_space_group_name_H-M   'P 1'
_cell_length_a   11.61767849
_cell_length_b   11.70113120
_cell_length_c   19.44991453
_cell_angle_alpha   90.03480119
_cell_angle_beta   90.57990900
_cell_angle_gamma   116.49521670
_symmetry_Int_Tables_number   1
_chemical_formula_structural   Al6H14C36O31
_chemical_formula_sum   'Al6 H14 C36 O31'
_cell_volume   2366.16375714
_cell_formula_units_Z   1
loop_
 _symmetry_equiv_pos_site_id
 _symmetry_equiv_pos_as_xyz
  1  'x, y, z'
loop_
 _atom_site_type_symbol
 _atom_site_label
 _atom_site_symmetry_multiplicity
 _atom_site_fract_x
 _atom_site_fract_y
 _atom_site_fract_z
 _atom_site_occupancy
  Al  Al0  1  0.77642131  0.24705005  0.49548962  1.0
  Al  Al1  1  0.50296992  0.25241077  0.49369611  1.0
  Al  Al2  1  0.74269177  0.50291717  0.49286525  1.0
  Al  Al3  1  0.22553380  0.77494384  0.97911526  1.0
  Al  Al4  1  0.48929662  0.75097720  0.97610944  1.0
  Al  Al5  1  0.24137995  0.50874514  0.97400591  1.0
  H  H6  1  0.30383379  0.36382591  0.78981009  1.0
  H  H7  1  0.65692486  0.64089313  0.63422485  1.0
  H  H8  1  0.07931952  0.47077471  0.71494658  1.0
  H  H9  1  0.36572167  0.05728986  0.64104170  1.0
  H  H10  1  0.01636333  0.69344535  0.79986459  1.0
  H  H11  1  0.65358682  0.97003796  0.80185702  1.0
  H  H12  1  0.34945215  0.31899339  0.67378533  1.0
  H  H13  1  0.89034900  0.63221290  0.68874790  1.0
  H  H14  1  0.70208393  0.07284659  0.68911518  1.0
  H  H15  1  0.56734576  0.60160269  0.79147845  1.0
  H  H16  1  0.98679072  0.41781750  0.79960009  1.0
  H  H17  1  0.40110856  0.99681134  0.79796917  1.0
  H  H18  1  0.94433771  0.20069014  0.52822560  1.0
  H  H19  1  0.16549395  0.93648306  0.95433562  1.0
  C  C20  1  0.89310719  0.46148729  0.39631546  1.0
  C  C21  1  0.45149794  0.90960652  0.88358668  1.0
  C  C22  1  0.43812549  0.55038597  0.87780669  1.0
  C  C23  1  0.08654491  0.55623509  0.88064701  1.0
  C  C24  1  0.90270549  0.48088034  0.58944692  1.0
  C  C25  1  0.56558421  0.12331229  0.59821032  1.0
  C  C26  1  0.52963995  0.44935663  0.58506286  1.0
  C  C27  1  0.47078177  0.51255658  0.13553379  1.0
  C  C28  1  0.04478758  0.52629922  0.14218714  1.0
  C  C29  1  0.48528947  0.94328463  0.14827371  1.0
  C  C30  1  0.49783033  0.48084342  0.26448555  1.0
  C  C31  1  0.54779718  0.09852438  0.40322469  1.0
  C  C32  1  0.98124176  0.50935534  0.26933249  1.0
  C  C33  1  0.51327064  0.00782459  0.27599893  1.0
  C  C34  1  0.48280391  0.49613333  0.19677890  1.0
  C  C35  1  0.01510381  0.51976366  0.20271345  1.0
  C  C36  1  0.49968390  0.97346210  0.20912485  1.0
  C  C37  1  0.51261893  0.46908517  0.32600358  1.0
  C  C38  1  0.94925407  0.49787050  0.32965801  1.0
  C  C39  1  0.52353467  0.03993379  0.33650704  1.0
  C  C40  1  0.51102036  0.48897731  0.65507313  1.0
  C  C41  1  0.96511015  0.50703925  0.65887928  1.0
  C  C42  1  0.54442432  0.44912798  0.39485718  1.0
  C  C43  1  0.52463473  0.06581026  0.66736122  1.0
  C  C44  1  0.47436485  0.52986040  0.80859416  1.0
  C  C45  1  0.01739344  0.51735086  0.81442417  1.0
  C  C46  1  0.47615876  0.97282614  0.81660239  1.0
  C  C47  1  0.39414326  0.43249800  0.76728732  1.0
  C  C48  1  0.99340232  0.60112057  0.77568456  1.0
  C  C49  1  0.58150727  0.99469642  0.77868127  1.0
  C  C50  1  0.41592374  0.40926390  0.69726886  1.0
  C  C51  1  0.94287128  0.58037092  0.70646419  1.0
  C  C52  1  0.60758041  0.04710217  0.71071945  1.0
  C  C53  1  0.44958564  0.89217596  0.07958006  1.0
  C  C54  1  0.44613593  0.54626424  0.06770242  1.0
  C  C55  1  0.09654319  0.55085775  0.07381398  1.0
  O  O56  1  0.65213252  0.11976413  0.43343076  1.0
  O  O57  1  0.85248715  0.55415194  0.56895241  1.0
  O  O58  1  0.89779648  0.38552713  0.55718896  1.0
  O  O59  1  0.47354391  0.13085176  0.56251151  1.0
  O  O60  1  0.62822279  0.53260909  0.55361845  1.0
  O  O61  1  0.67170685  0.33513978  0.49521174  1.0
  O  O62  1  0.11035733  0.65369308  0.04648674  1.0
  O  O63  1  0.53501788  0.87546561  0.04498508  1.0
  O  O64  1  0.34393652  0.46724074  0.03694939  1.0
  O  O65  1  0.33612176  0.86455576  0.06074461  1.0
  O  O66  1  0.52552958  0.65585371  0.04603550  1.0
  O  O67  1  0.46584681  0.34881525  0.42591493  1.0
  O  O68  1  0.12843970  0.46753715  0.04827316  1.0
  O  O69  1  0.12569164  0.67023472  0.90080846  1.0
  O  O70  1  0.53337745  0.87237548  0.90801629  1.0
  O  O71  1  0.32700061  0.47384255  0.90103937  1.0
  O  O72  1  0.34730313  0.89106488  0.91289704  1.0
  O  O73  1  0.51986103  0.64977069  0.91010347  1.0
  O  O74  1  0.10674630  0.46910171  0.91236356  1.0
  O  O75  1  0.60027441  0.60671185  0.67419552  1.0
  O  O76  1  0.03887083  0.44581017  0.66925713  1.0
  O  O77  1  0.40118169  0.03659456  0.68289512  1.0
  O  O78  1  0.87794434  0.54651637  0.43257266  1.0
  O  O79  1  0.31990325  0.67669591  0.97771794  1.0
  O  O80  1  0.85908547  0.34687811  0.41331627  1.0
  O  O81  1  0.46111021  0.12965267  0.42588032  1.0
  O  O82  1  0.65304296  0.53162940  0.41880676  1.0
  O  O83  1  0.68007139  0.16209682  0.57974682  1.0
  O  O84  1  0.45513347  0.33802869  0.56227652  1.0
  O  O85  1  0.87005072  0.16455843  0.49792626  1.0
  O  O86  1  0.13716903  0.86296830  0.98404587  1.0
