# generated using pymatgen
data_ZnH6C18Br3NO5
_symmetry_space_group_name_H-M   'P 1'
_cell_length_a   11.75238764
_cell_length_b   13.14359702
_cell_length_c   16.16837440
_cell_angle_alpha   89.89697662
_cell_angle_beta   85.16371136
_cell_angle_gamma   85.83822132
_symmetry_Int_Tables_number   1
_chemical_formula_structural   ZnH6C18Br3NO5
_chemical_formula_sum   'Zn2 H12 C36 Br6 N2 O10'
_cell_volume   2482.02929571
_cell_formula_units_Z   2
loop_
 _symmetry_equiv_pos_site_id
 _symmetry_equiv_pos_as_xyz
  1  'x, y, z'
loop_
 _atom_site_type_symbol
 _atom_site_label
 _atom_site_symmetry_multiplicity
 _atom_site_fract_x
 _atom_site_fract_y
 _atom_site_fract_z
 _atom_site_occupancy
  Zn  Zn0  1  0.61679412  0.50175713  0.49074099  1.0
  Zn  Zn1  1  0.38319522  0.49774594  0.50884018  1.0
  H  H2  1  0.35793227  0.17960306  0.50551867  1.0
  H  H3  1  0.21974184  0.36664342  0.60689539  1.0
  H  H4  1  0.90746745  0.31322910  0.64016123  1.0
  H  H5  1  0.09435200  0.66889996  0.34486788  1.0
  H  H6  1  0.64182507  0.81988232  0.49384980  1.0
  H  H7  1  0.72470800  0.17326083  0.49315203  1.0
  H  H8  1  0.27509011  0.82617545  0.50640297  1.0
  H  H9  1  0.26139227  0.01664714  0.50752186  1.0
  H  H10  1  0.73828804  0.98277194  0.49194422  1.0
  H  H11  1  0.80725890  0.40672432  0.56936297  1.0
  H  H12  1  0.19255060  0.59222688  0.42985368  1.0
  H  H13  1  0.78066270  0.63121923  0.39146747  1.0
  C  C14  1  0.46836944  0.69874740  0.49937670  1.0
  C  C15  1  0.44497456  0.02778674  0.50170270  1.0
  C  C16  1  0.04554018  0.39987850  0.57651940  1.0
  C  C17  1  0.95516439  0.59673758  0.42096669  1.0
  C  C18  1  0.16189773  0.41245788  0.56992522  1.0
  C  C19  1  0.83854457  0.58539525  0.42840965  1.0
  C  C20  1  0.14619035  0.53964484  0.46996736  1.0
  C  C21  1  0.85400943  0.45823126  0.52850418  1.0
  C  C22  1  0.02615741  0.53402427  0.47092765  1.0
  C  C23  1  0.97436076  0.46245560  0.52653210  1.0
  C  C24  1  0.49451429  0.50040848  0.33748037  1.0
  C  C25  1  0.53151776  0.30070017  0.50004362  1.0
  C  C26  1  0.50549066  0.49920950  0.66200457  1.0
  C  C27  1  0.50250283  0.59683778  0.97047179  1.0
  C  C28  1  0.49755087  0.40292382  0.02902336  1.0
  C  C29  1  0.40421355  0.55619756  0.03074944  1.0
  C  C30  1  0.59584234  0.44354496  0.96874500  1.0
  C  C31  1  0.49344170  0.50142191  0.24807041  1.0
  C  C32  1  0.50652933  0.49836639  0.75140810  1.0
  C  C33  1  0.59450713  0.54216155  0.02357624  1.0
  C  C34  1  0.40552270  0.45760027  0.97591709  1.0
  C  C35  1  0.49618533  0.50181096  0.08570016  1.0
  C  C36  1  0.34452153  0.97338766  0.50443969  1.0
  C  C37  1  0.50388473  0.49795048  0.91378545  1.0
  C  C38  1  0.49330130  0.50208381  0.17286861  1.0
  C  C39  1  0.50669794  0.49770345  0.82661086  1.0
  C  C40  1  0.53958089  0.18671577  0.49982348  1.0
  C  C41  1  0.46017557  0.81274987  0.49969846  1.0
  C  C42  1  0.00142534  0.32104605  0.63495427  1.0
  C  C43  1  0.00005709  0.67298964  0.36042919  1.0
  C  C44  1  0.65520537  0.02607519  0.49501703  1.0
  C  C45  1  0.35165848  0.86845343  0.50366859  1.0
  C  C46  1  0.64808884  0.13100620  0.49586498  1.0
  C  C47  1  0.55933584  0.86394115  0.49667221  1.0
  C  C48  1  0.44041239  0.13551385  0.50276360  1.0
  C  C49  1  0.55477714  0.97165756  0.49772117  1.0
  Br  Br50  1  0.27137457  0.63458117  0.07383516  1.0
  Br  Br51  1  0.72872255  0.36527378  0.92568970  1.0
  Br  Br52  1  0.50592446  0.73105531  0.92915935  1.0
  Br  Br53  1  0.49414228  0.26880077  0.07051126  1.0
  Br  Br54  1  0.27500911  0.39908094  0.94190991  1.0
  Br  Br55  1  0.72509604  0.60065574  0.05751200  1.0
  N  N56  1  0.79040901  0.51717851  0.48103226  1.0
  N  N57  1  0.20980493  0.48143406  0.51792810  1.0
  O  O58  1  0.56871056  0.65376606  0.49372088  1.0
  O  O59  1  0.93758423  0.73693214  0.32805840  1.0
  O  O60  1  0.43120973  0.34569872  0.50568900  1.0
  O  O61  1  0.37522055  0.65399526  0.50515275  1.0
  O  O62  1  0.62470312  0.34545197  0.49428418  1.0
  O  O63  1  0.59256349  0.49904949  0.36560777  1.0
  O  O64  1  0.40746711  0.50061856  0.63386955  1.0
  O  O65  1  0.39765009  0.50083845  0.37913592  1.0
  O  O66  1  0.60239304  0.49864577  0.62035766  1.0
  O  O67  1  0.06404653  0.26624730  0.67551696  1.0
