# generated using pymatgen
data_ZnHC12NCl5O4F
_symmetry_space_group_name_H-M   'P 1'
_cell_length_a   10.12197547
_cell_length_b   11.08492136
_cell_length_c   28.51876833
_cell_angle_alpha   89.89935952
_cell_angle_beta   90.86671257
_cell_angle_gamma   89.94609379
_symmetry_Int_Tables_number   1
_chemical_formula_structural   ZnHC12NCl5O4F
_chemical_formula_sum   'Zn4 H4 C48 N4 Cl20 O16 F4'
_cell_volume   3199.47041122
_cell_formula_units_Z   4
loop_
 _symmetry_equiv_pos_site_id
 _symmetry_equiv_pos_as_xyz
  1  'x, y, z'
loop_
 _atom_site_type_symbol
 _atom_site_label
 _atom_site_symmetry_multiplicity
 _atom_site_fract_x
 _atom_site_fract_y
 _atom_site_fract_z
 _atom_site_occupancy
  Zn  Zn0  1  0.35433002  0.51078188  0.49744735  1.0
  Zn  Zn1  1  0.63653174  0.51224439  0.49600277  1.0
  Zn  Zn2  1  0.64510370  0.50820701  0.11947702  1.0
  Zn  Zn3  1  0.36287695  0.50995617  0.12105540  1.0
  H  H4  1  0.72762838  0.53515342  0.97147373  1.0
  H  H5  1  0.30236169  0.50290118  0.97382409  1.0
  H  H6  1  0.69718307  0.50357423  0.64311106  1.0
  H  H7  1  0.27172990  0.53441252  0.64568432  1.0
  C  C8  1  0.51253604  0.27911391  0.49925717  1.0
  C  C9  1  0.48227601  0.52421411  0.58636719  1.0
  C  C10  1  0.50939868  0.74368484  0.49455144  1.0
  C  C11  1  0.47536382  0.46915416  0.40916544  1.0
  C  C12  1  0.48718358  0.27676545  0.11765338  1.0
  C  C13  1  0.51690271  0.52358346  0.03066310  1.0
  C  C14  1  0.48887244  0.74128463  0.12288394  1.0
  C  C15  1  0.52568492  0.46620186  0.20791953  1.0
  C  C16  1  0.06601434  0.57175149  0.46476672  1.0
  C  C17  1  0.92796900  0.45039036  0.53024641  1.0
  C  C18  1  0.92597400  0.57014648  0.46400112  1.0
  C  C19  1  0.06784561  0.44748842  0.52978251  1.0
  C  C20  1  0.51085399  0.88125932  0.49605217  1.0
  C  C21  1  0.51295935  0.14203426  0.49622912  1.0
  C  C22  1  0.63049246  0.94735215  0.49511030  1.0
  C  C23  1  0.39363267  0.07627810  0.49352314  1.0
  C  C24  1  0.63139660  0.07473914  0.49747217  1.0
  C  C25  1  0.39255559  0.94921569  0.49747750  1.0
  C  C26  1  0.51521372  0.51938558  0.97819980  1.0
  C  C27  1  0.63322850  0.52462277  0.95322181  1.0
  C  C28  1  0.62767144  0.51563351  0.90483702  1.0
  C  C29  1  0.50813232  0.50316128  0.87910834  1.0
  C  C30  1  0.39238114  0.49903472  0.90610131  1.0
  C  C31  1  0.39388661  0.50650630  0.95442258  1.0
  C  C32  1  0.50335497  0.49824444  0.82989344  1.0
  C  C33  1  0.49686670  0.49810455  0.78716853  1.0
  C  C34  1  0.49187637  0.50285224  0.73794431  1.0
  C  C35  1  0.60751644  0.49917897  0.71088421  1.0
  C  C36  1  0.60569754  0.50678562  0.66255571  1.0
  C  C37  1  0.48419148  0.51943213  0.63883639  1.0
  C  C38  1  0.36626538  0.52406336  0.66388647  1.0
  C  C39  1  0.37213452  0.51484130  0.71227394  1.0
  C  C40  1  0.48515706  0.43042755  0.35833994  1.0
  C  C41  1  0.51675528  0.42859216  0.25894737  1.0
  C  C42  1  0.37451030  0.41888350  0.32790023  1.0
  C  C43  1  0.62756792  0.41955325  0.28944202  1.0
  C  C44  1  0.39146837  0.41053537  0.27905055  1.0
  C  C45  1  0.61076194  0.41313265  0.33835114  1.0
  C  C46  1  0.93327894  0.56925369  0.15182830  1.0
  C  C47  1  0.07166454  0.44788729  0.08653169  1.0
  C  C48  1  0.07324965  0.56618776  0.15299992  1.0
  C  C49  1  0.93174179  0.44588598  0.08672615  1.0
  C  C50  1  0.48789502  0.87887825  0.12143449  1.0
  C  C51  1  0.48664445  0.13966035  0.12075672  1.0
  C  C52  1  0.36877439  0.94550288  0.12370867  1.0
  C  C53  1  0.60586966  0.07325581  0.12245139  1.0
  C  C54  1  0.36795641  0.07280085  0.12079183  1.0
  C  C55  1  0.60618552  0.94618248  0.11862869  1.0
  N  N56  1  0.13464245  0.50936521  0.49733424  1.0
  N  N57  1  0.85894161  0.51027826  0.49701057  1.0
  N  N58  1  0.86479598  0.50770182  0.11910635  1.0
  N  N59  1  0.14048029  0.50674585  0.11998649  1.0
  Cl  Cl60  1  0.14822728  0.65364248  0.42470906  1.0
  Cl  Cl61  1  0.84713690  0.37794740  0.57333894  1.0
  Cl  Cl62  1  0.84188247  0.64407558  0.42130438  1.0
  Cl  Cl63  1  0.15173330  0.36482791  0.57020169  1.0
  Cl  Cl64  1  0.78233277  0.87923218  0.49045785  1.0
  Cl  Cl65  1  0.24482161  0.14710266  0.48298441  1.0
  Cl  Cl66  1  0.78334147  0.14314930  0.50241196  1.0
  Cl  Cl67  1  0.24156102  0.88243857  0.50630005  1.0
  Cl  Cl68  1  0.21572236  0.41397988  0.34833244  1.0
  Cl  Cl69  1  0.78628651  0.41523798  0.26894392  1.0
  Cl  Cl70  1  0.25825127  0.36977133  0.24457918  1.0
  Cl  Cl71  1  0.74491165  0.37558111  0.37303222  1.0
  Cl  Cl72  1  0.85103819  0.65194770  0.19155709  1.0
  Cl  Cl73  1  0.15283729  0.37519409  0.04363515  1.0
  Cl  Cl74  1  0.15707051  0.63743416  0.19630841  1.0
  Cl  Cl75  1  0.84794172  0.36434901  0.04608554  1.0
  Cl  Cl76  1  0.21784752  0.87772421  0.13093639  1.0
  Cl  Cl77  1  0.75579033  0.14303043  0.13154157  1.0
  Cl  Cl78  1  0.21565182  0.14129757  0.11688064  1.0
  Cl  Cl79  1  0.75591853  0.87843698  0.10829273  1.0
  O  O80  1  0.41391343  0.32966294  0.51741387  1.0
  O  O81  1  0.61334587  0.33383998  0.48340137  1.0
  O  O82  1  0.58919758  0.49688052  0.56625760  1.0
  O  O83  1  0.37351788  0.55322901  0.56586342  1.0
  O  O84  1  0.61589128  0.69063029  0.50696006  1.0
  O  O85  1  0.40487101  0.69102218  0.48072467  1.0
  O  O86  1  0.37103901  0.44386690  0.43164334  1.0
  O  O87  1  0.57192645  0.52964379  0.42526953  1.0
  O  O88  1  0.58579793  0.32746323  0.09953298  1.0
  O  O89  1  0.38632027  0.33152257  0.13345786  1.0
  O  O90  1  0.40994765  0.49620205  0.05074765  1.0
  O  O91  1  0.62562893  0.55212800  0.05120770  1.0
  O  O92  1  0.38212537  0.68882991  0.11051310  1.0
  O  O93  1  0.59344293  0.68813469  0.13651190  1.0
  O  O94  1  0.62987471  0.44094012  0.18535374  1.0
  O  O95  1  0.42850146  0.52604902  0.19177417  1.0
  F  F96  1  0.27515585  0.48722789  0.88301019  1.0
  F  F97  1  0.74143265  0.51948790  0.88043017  1.0
  F  F98  1  0.25846722  0.51803888  0.73674496  1.0
  F  F99  1  0.72492869  0.48769278  0.73391956  1.0
