# generated using pymatgen
data_Zn2H3C22N8(ClF)7
_symmetry_space_group_name_H-M   'P 1'
_cell_length_a   14.90663799
_cell_length_b   15.03025382
_cell_length_c   15.09512015
_cell_angle_alpha   110.09001480
_cell_angle_beta   109.22183611
_cell_angle_gamma   108.51590340
_symmetry_Int_Tables_number   1
_chemical_formula_structural   Zn2H3C22N8(ClF)7
_chemical_formula_sum   'Zn4 H6 C44 N16 Cl14 F14'
_cell_volume   2621.80192122
_cell_formula_units_Z   2
loop_
 _symmetry_equiv_pos_site_id
 _symmetry_equiv_pos_as_xyz
  1  'x, y, z'
loop_
 _atom_site_type_symbol
 _atom_site_label
 _atom_site_symmetry_multiplicity
 _atom_site_fract_x
 _atom_site_fract_y
 _atom_site_fract_z
 _atom_site_occupancy
  Zn  Zn0  1  0.36477011  0.50370934  0.88570615  1.0
  Zn  Zn1  1  0.47739010  0.33544397  0.83167456  1.0
  Zn  Zn2  1  0.62885636  0.48527959  0.07439471  1.0
  Zn  Zn3  1  0.49630731  0.63400447  0.16327624  1.0
  H  H4  1  0.24346670  0.94575376  0.85082270  1.0
  H  H5  1  0.22252549  0.90549612  0.01511921  1.0
  H  H6  1  0.56832070  0.09247948  0.03042133  1.0
  H  H7  1  0.40161024  0.87632336  0.86980829  1.0
  H  H8  1  0.68232328  0.85811968  0.23401687  1.0
  H  H9  1  0.67047741  0.52499691  0.40170685  1.0
  C  C10  1  0.55950172  0.62831728  0.87859693  1.0
  C  C11  1  0.19883207  0.34813975  0.00837446  1.0
  C  C12  1  0.76450892  0.30320053  0.93728509  1.0
  C  C13  1  0.38294920  0.80913874  0.03036343  1.0
  C  C14  1  0.41861652  0.18539662  0.00377054  1.0
  C  C15  1  0.47867075  0.02711321  0.11546714  1.0
  C  C16  1  0.39058885  0.06511321  0.10481714  1.0
  C  C17  1  0.29530128  0.24504547  0.61284362  1.0
  C  C18  1  0.49093058  0.04914356  0.02568688  1.0
  C  C19  1  0.29891616  0.94659267  0.01723978  1.0
  C  C20  1  0.40307938  0.08919882  0.01444705  1.0
  C  C21  1  0.38676224  0.90670339  0.02782823  1.0
  C  C22  1  0.31112386  0.96903159  0.92675461  1.0
  C  C23  1  0.39856633  0.93107643  0.93724049  1.0
  C  C24  1  0.00957396  0.12536879  0.42603269  1.0
  C  C25  1  0.66533835  0.58922891  0.69945549  1.0
  C  C26  1  0.11400463  0.17463838  0.44823810  1.0
  C  C27  1  0.68778571  0.65752934  0.79969986  1.0
  C  C28  1  0.92215438  0.02113827  0.33270336  1.0
  C  C29  1  0.67871721  0.61555175  0.61910139  1.0
  C  C30  1  0.80693209  0.71464021  0.20371476  1.0
  C  C31  1  0.56116426  0.68272214  0.39951604  1.0
  C  C32  1  0.91684712  0.92404511  0.31414104  1.0
  C  C33  1  0.81864183  0.81975416  0.24451247  1.0
  C  C34  1  0.61693859  0.64557543  0.55966508  1.0
  C  C35  1  0.93350158  0.29109536  0.02146022  1.0
  C  C36  1  0.04809405  0.34061133  0.05004539  1.0
  C  C37  1  0.86064549  0.29606166  0.94382936  1.0
  C  C38  1  0.09451613  0.29401107  0.00042989  1.0
  C  C39  1  0.60788735  0.63948966  0.45937083  1.0
  C  C40  1  0.66521965  0.27141391  0.84926128  1.0
  C  C41  1  0.21597713  0.34702563  0.92147128  1.0
  C  C42  1  0.43493145  0.79356386  0.11541689  1.0
  C  C43  1  0.49152025  0.29534111  0.08125285  1.0
  C  C44  1  0.76183598  0.37236996  0.02578198  1.0
  C  C45  1  0.29964450  0.43268798  0.09841436  1.0
  C  C46  1  0.33616416  0.70550298  0.94186650  1.0
  C  C47  1  0.38214135  0.19183594  0.90924292  1.0
  C  C48  1  0.71111866  0.79975241  0.21658394  1.0
  C  C49  1  0.63393288  0.57455439  0.38890501  1.0
  C  C50  1  0.65430865  0.54518983  0.89339822  1.0
  C  C51  1  0.22448346  0.35174591  0.63693388  1.0
  C  C52  1  0.64427659  0.61912043  0.86100962  1.0
  C  C53  1  0.20621329  0.25539722  0.55638233  1.0
  N  N54  1  0.52156177  0.56388243  0.91540281  1.0
  N  N55  1  0.31576370  0.42528060  0.95804713  1.0
  N  N56  1  0.61038482  0.31706417  0.88426642  1.0
  N  N57  1  0.42193040  0.69356735  0.08154538  1.0
  N  N58  1  0.49688943  0.35990871  0.03800554  1.0
  N  N59  1  0.67281028  0.38176697  0.99599476  1.0
  N  N60  1  0.36862841  0.47933203  0.06957815  1.0
  N  N61  1  0.35788559  0.32666560  0.71590303  1.0
  N  N62  1  0.35848299  0.63662131  0.96941255  1.0
  N  N63  1  0.42703121  0.29304465  0.92712301  1.0
  N  N64  1  0.64307580  0.69322126  0.16612915  1.0
  N  N65  1  0.60529601  0.57801171  0.29735206  1.0
  N  N66  1  0.58004933  0.50821556  0.92352375  1.0
  N  N67  1  0.31284685  0.39418201  0.73146860  1.0
  N  N68  1  0.70238789  0.64076927  0.15927739  1.0
  N  N69  1  0.56065287  0.64563130  0.30463276  1.0
  Cl  Cl70  1  0.50392869  0.70442980  0.85072980  1.0
  Cl  Cl71  1  0.75750407  0.79604662  0.85375245  1.0
  Cl  Cl72  1  0.14529316  0.13011347  0.34644022  1.0
  Cl  Cl73  1  0.03242307  0.92476908  0.39189285  1.0
  Cl  Cl74  1  0.53244985  0.68137036  0.60197941  1.0
  Cl  Cl75  1  0.89886118  0.24848798  0.10415854  1.0
  Cl  Cl76  1  0.12089546  0.47785953  0.14619726  1.0
  Cl  Cl77  1  0.32876214  0.14639630  0.57061272  1.0
  Cl  Cl78  1  0.89841462  0.67153051  0.19797114  1.0
  Cl  Cl79  1  0.51158063  0.77048830  0.42915691  1.0
  Cl  Cl80  1  0.61487170  0.18872687  0.71547965  1.0
  Cl  Cl81  1  0.12690180  0.26388516  0.78675458  1.0
  Cl  Cl82  1  0.97275703  0.17491108  0.52282217  1.0
  Cl  Cl83  1  0.60178161  0.44905955  0.65010724  1.0
  F  F84  1  0.56462193  0.05835239  0.21083808  1.0
  F  F85  1  0.03203800  0.18670872  0.92328575  1.0
  F  F86  1  0.88989600  0.31831520  0.87360005  1.0
  F  F87  1  0.49361788  0.86512649  0.22189232  1.0
  F  F88  1  0.55453515  0.33662941  0.18717680  1.0
  F  F89  1  0.83736759  0.42847655  0.13005654  1.0
  F  F90  1  0.33038599  0.46622766  0.20272017  1.0
  F  F91  1  0.38548644  0.13184154  0.18937732  1.0
  F  F92  1  0.27617539  0.67224634  0.83679743  1.0
  F  F93  1  0.31195461  0.10972437  0.80702914  1.0
  F  F94  1  0.72707259  0.51113944  0.89708449  1.0
  F  F95  1  0.16654617  0.40316905  0.62863994  1.0
  F  F96  1  0.83008486  0.02167354  0.27392473  1.0
  F  F97  1  0.74539607  0.58453351  0.58719300  1.0
