# generated using pymatgen
data_ZnH6C17(NO2)4
_symmetry_space_group_name_H-M   'P 1'
_cell_length_a   14.86246310
_cell_length_b   16.15672699
_cell_length_c   17.24744616
_cell_angle_alpha   88.93144347
_cell_angle_beta   85.57880064
_cell_angle_gamma   89.22933154
_symmetry_Int_Tables_number   1
_chemical_formula_structural   ZnH6C17(NO2)4
_chemical_formula_sum   'Zn2 H12 C34 N8 O16'
_cell_volume   4128.26576943
_cell_formula_units_Z   2
loop_
 _symmetry_equiv_pos_site_id
 _symmetry_equiv_pos_as_xyz
  1  'x, y, z'
loop_
 _atom_site_type_symbol
 _atom_site_label
 _atom_site_symmetry_multiplicity
 _atom_site_fract_x
 _atom_site_fract_y
 _atom_site_fract_z
 _atom_site_occupancy
  Zn  Zn0  1  0.59410157  0.49781293  0.50057361  1.0
  Zn  Zn1  1  0.40589835  0.50218930  0.49942697  1.0
  H  H2  1  0.58828949  0.57750705  0.74232253  1.0
  H  H3  1  0.41169963  0.42249825  0.25768008  1.0
  H  H4  1  0.58432175  0.57793578  0.88817079  1.0
  H  H5  1  0.41566740  0.42206581  0.11183125  1.0
  H  H6  1  0.64637240  0.58156746  0.09985656  1.0
  H  H7  1  0.35363252  0.41841558  0.90014376  1.0
  H  H8  1  0.64629648  0.92243655  0.49175324  1.0
  H  H9  1  0.35370074  0.07756569  0.50824698  1.0
  H  H10  1  0.64460905  0.07678098  0.49196379  1.0
  H  H11  1  0.35538815  0.92322127  0.50803527  1.0
  H  H12  1  0.09987291  0.56723760  0.39494272  1.0
  H  H13  1  0.90012781  0.43276027  0.60506073  1.0
  C  C14  1  0.50017913  0.66054470  0.49896124  1.0
  C  C15  1  0.49982347  0.33945754  0.50103797  1.0
  C  C16  1  0.51628807  0.50283766  0.34820708  1.0
  C  C17  1  0.48370921  0.49716024  0.65179317  1.0
  C  C18  1  0.52307362  0.50486918  0.26077745  1.0
  C  C19  1  0.47692372  0.49512623  0.73922455  1.0
  C  C20  1  0.46178420  0.45808683  0.22217092  1.0
  C  C21  1  0.53821034  0.54191293  0.77782896  1.0
  C  C22  1  0.46390324  0.45752721  0.14167382  1.0
  C  C23  1  0.53609135  0.54247007  0.85832665  1.0
  C  C24  1  0.52925466  0.50411723  0.09726220  1.0
  C  C25  1  0.47074542  0.49587385  0.90273845  1.0
  C  C26  1  0.59434422  0.54728213  0.13430297  1.0
  C  C27  1  0.40565795  0.45270585  0.86569869  1.0
  C  C28  1  0.58915425  0.54847704  0.21504478  1.0
  C  C29  1  0.41085065  0.45151032  0.78495724  1.0
  C  C30  1  0.58163785  0.04266120  0.49546950  1.0
  C  C31  1  0.41835938  0.95734041  0.50453073  1.0
  C  C32  1  0.49906736  0.08727016  0.50003539  1.0
  C  C33  1  0.50093053  0.91273208  0.49996478  1.0
  C  C34  1  0.41740749  0.04316507  0.50454185  1.0
  C  C35  1  0.58258973  0.95683717  0.49545838  1.0
  C  C36  1  0.49845197  0.17484746  0.50027276  1.0
  C  C37  1  0.50154519  0.82515481  0.49972457  1.0
  C  C38  1  0.50142431  0.74975308  0.49925107  1.0
  C  C39  1  0.49857694  0.25024855  0.50074767  1.0
  C  C40  1  0.96406634  0.54211289  0.43877790  1.0
  C  C41  1  0.03593369  0.45788560  0.56122503  1.0
  C  C42  1  0.90572096  0.50482777  0.49690188  1.0
  C  C43  1  0.09427903  0.49517196  0.50310046  1.0
  C  C44  1  0.94304428  0.46228875  0.55881310  1.0
  C  C45  1  0.05695574  0.53771036  0.44118982  1.0
  C  C46  1  0.81009092  0.50615361  0.49555250  1.0
  C  C47  1  0.18990975  0.49384735  0.50445035  1.0
  N  N48  1  0.53482740  0.51191633  0.01538642  1.0
  N  N49  1  0.46517200  0.48807537  0.98461428  1.0
  N  N50  1  0.26775355  0.50043325  0.49858659  1.0
  N  N51  1  0.73224571  0.49956836  0.50141405  1.0
  N  N52  1  0.65331804  0.60286416  0.25044690  1.0
  N  N53  1  0.34669364  0.39711827  0.74955287  1.0
  N  N54  1  0.92681763  0.58888131  0.37318857  1.0
  N  N55  1  0.07318373  0.41111658  0.62681309  1.0
  O  O56  1  0.57617080  0.62324970  0.50082757  1.0
  O  O57  1  0.42383174  0.37675320  0.49916932  1.0
  O  O58  1  0.42294326  0.62736844  0.49734448  1.0
  O  O59  1  0.57705941  0.37263254  0.50265705  1.0
  O  O60  1  0.58959487  0.49780983  0.38123166  1.0
  O  O61  1  0.41040312  0.50218682  0.61876970  1.0
  O  O62  1  0.43650918  0.50390057  0.38036888  1.0
  O  O63  1  0.56348737  0.49610043  0.61963083  1.0
  O  O64  1  0.73389195  0.59614150  0.22653755  1.0
  O  O65  1  0.62148652  0.65297058  0.29869809  1.0
  O  O66  1  0.26612072  0.40382602  0.77346747  1.0
  O  O67  1  0.37853092  0.34702308  0.70129359  1.0
  O  O68  1  0.97764827  0.59828156  0.31375040  1.0
  O  O69  1  0.84852705  0.61479883  0.38468192  1.0
  O  O70  1  0.02235046  0.40170646  0.68624807  1.0
  O  O71  1  0.15147832  0.38520830  0.61532341  1.0
