# generated using pymatgen
data_Zn2H41C54N9O14
_symmetry_space_group_name_H-M   'P 1'
_cell_length_a   14.52911937
_cell_length_b   15.96595860
_cell_length_c   23.71639647
_cell_angle_alpha   90.34403852
_cell_angle_beta   90.17884186
_cell_angle_gamma   89.66416149
_symmetry_Int_Tables_number   1
_chemical_formula_structural   Zn2H41C54N9O14
_chemical_formula_sum   'Zn2 H41 C54 N9 O14'
_cell_volume   5501.30386993
_cell_formula_units_Z   1
loop_
 _symmetry_equiv_pos_site_id
 _symmetry_equiv_pos_as_xyz
  1  'x, y, z'
loop_
 _atom_site_type_symbol
 _atom_site_label
 _atom_site_symmetry_multiplicity
 _atom_site_fract_x
 _atom_site_fract_y
 _atom_site_fract_z
 _atom_site_occupancy
  Zn  Zn0  1  0.59208122  0.48810779  0.50097072  1.0
  Zn  Zn1  1  0.40116309  0.50123195  0.49997099  1.0
  H  H2  1  0.56360653  0.29533025  0.05565723  1.0
  H  H3  1  0.63782020  0.07163683  0.47384068  1.0
  H  H4  1  0.36773628  0.91113296  0.52534241  1.0
  H  H5  1  0.64935375  0.92633711  0.46896999  1.0
  H  H6  1  0.58403187  0.08514794  0.57442003  1.0
  H  H7  1  0.46640960  0.06730579  0.59006890  1.0
  H  H8  1  0.93126824  0.36915924  0.51778331  1.0
  H  H9  1  0.07860122  0.38961787  0.48988517  1.0
  H  H10  1  0.05214585  0.59359353  0.42619754  1.0
  H  H11  1  0.90227317  0.54049552  0.41360677  1.0
  H  H12  1  0.08742289  0.48930798  0.41209863  1.0
  H  H13  1  0.64215480  0.50377729  0.32337988  1.0
  H  H14  1  0.93804306  0.43586389  0.42335339  1.0
  H  H15  1  0.05329113  0.57487674  0.58330906  1.0
  H  H16  1  0.89861561  0.58195542  0.57328450  1.0
  H  H17  1  0.43937411  0.69952515  0.94638089  1.0
  H  H18  1  0.44065435  0.70187838  0.05330238  1.0
  H  H19  1  0.34504542  0.48640378  0.78851712  1.0
  H  H20  1  0.33949308  0.48507945  0.68243578  1.0
  H  H21  1  0.63378486  0.49808278  0.67683226  1.0
  H  H22  1  0.64007072  0.50082528  0.78296703  1.0
  H  H23  1  0.64567109  0.50180488  0.21727087  1.0
  H  H24  1  0.34738903  0.50057478  0.31967540  1.0
  H  H25  1  0.66155133  0.97503522  0.61053238  1.0
  H  H26  1  0.65293559  0.87973059  0.58417897  1.0
  H  H27  1  0.50125042  0.94325204  0.64894264  1.0
  H  H28  1  0.42122314  0.91406599  0.60412785  1.0
  H  H29  1  0.58422141  0.22344511  0.96715216  1.0
  H  H30  1  0.56697742  0.27564101  0.90143821  1.0
  H  H31  1  0.04922482  0.72774821  0.55742626  1.0
  H  H32  1  0.81180485  0.65475039  0.49563386  1.0
  H  H33  1  0.18344809  0.42655071  0.57010201  1.0
  H  H34  1  0.10955141  0.35348525  0.58547834  1.0
  H  H35  1  0.34992726  0.49815587  0.21354991  1.0
  H  H36  1  0.88489608  0.39515630  0.60796217  1.0
  H  H37  1  0.99174520  0.43116600  0.61965022  1.0
  H  H38  1  0.55538734  0.91965141  0.42135434  1.0
  H  H39  1  0.39735827  0.90086679  0.45419446  1.0
  H  H40  1  0.55766953  0.06644132  0.41763095  1.0
  H  H41  1  0.38631746  0.04584230  0.44159092  1.0
  H  H42  1  0.34940550  0.05597447  0.51214233  1.0
  C  C43  1  0.48574683  0.33157427  0.49638789  1.0
  C  C44  1  0.47463554  0.57135059  0.87878725  1.0
  C  C45  1  0.40794384  0.48867262  0.76365376  1.0
  C  C46  1  0.48411202  0.49004444  0.61049628  1.0
  C  C47  1  0.40489648  0.48785303  0.70495503  1.0
  C  C48  1  0.48651394  0.49085454  0.67377648  1.0
  C  C49  1  0.57122563  0.49538888  0.70192750  1.0
  C  C50  1  0.57462567  0.49693431  0.76054986  1.0
  C  C51  1  0.49288606  0.49322053  0.79100051  1.0
  C  C52  1  0.58066426  0.50163928  0.24007797  1.0
  C  C53  1  0.57880733  0.50274260  0.29872961  1.0
  C  C54  1  0.54631357  0.35108840  0.03128128  1.0
  C  C55  1  0.49466722  0.50229406  0.32737249  1.0
  C  C56  1  0.41213573  0.50078774  0.29667629  1.0
  C  C57  1  0.41358698  0.49930263  0.23798142  1.0
  C  C58  1  0.53027222  0.65503835  0.50749608  1.0
  C  C59  1  0.49797218  0.49975393  0.21016395  1.0
  C  C60  1  0.57243963  0.04359984  0.46034007  1.0
  C  C61  1  0.40449532  0.03039307  0.48533952  1.0
  C  C62  1  0.41494865  0.93481155  0.49312454  1.0
  C  C63  1  0.57844004  0.94712930  0.46154070  1.0
  C  C64  1  0.53143187  0.74538771  0.50970282  1.0
  C  C65  1  0.54671714  0.34763682  0.97110161  1.0
  C  C66  1  0.49577657  0.07461021  0.50071937  1.0
  C  C67  1  0.51586787  0.91180604  0.50855561  1.0
  C  C68  1  0.54255301  0.95374655  0.56648720  1.0
  C  C69  1  0.52282852  0.04951780  0.56156740  1.0
  C  C70  1  0.52618248  0.82136260  0.51102418  1.0
  C  C71  1  0.48654865  0.16502959  0.49791192  1.0
  C  C72  1  0.49315938  0.50212967  0.39066539  1.0
  C  C73  1  0.48270669  0.24107544  0.49661753  1.0
  C  C74  1  0.06264575  0.43368756  0.52464040  1.0
  C  C75  1  0.95642877  0.42837842  0.53621185  1.0
  C  C76  1  0.52329925  0.42108528  0.94054473  1.0
  C  C77  1  0.04580800  0.52867335  0.44041980  1.0
  C  C78  1  0.94484670  0.49974896  0.44031972  1.0
  C  C79  1  0.08439424  0.52303989  0.50127921  1.0
  C  C80  1  0.90879028  0.50071294  0.50158578  1.0
  C  C81  1  0.93186863  0.58527386  0.53159706  1.0
  C  C82  1  0.03774496  0.59033700  0.53893384  1.0
  C  C83  1  0.81058738  0.48649667  0.50231562  1.0
  C  C84  1  0.18389017  0.53101868  0.49952861  1.0
  C  C85  1  0.47796090  0.57455181  0.12168487  1.0
  C  C86  1  0.52374552  0.42270058  0.12260799  1.0
  C  C87  1  0.50098881  0.49598263  0.97012077  1.0
  C  C88  1  0.52408835  0.42346969  0.05987462  1.0
  C  C89  1  0.50121057  0.49790051  0.03017724  1.0
  C  C90  1  0.47888588  0.57250457  0.05920543  1.0
  C  C91  1  0.07838658  0.67716821  0.53033265  1.0
  C  C92  1  0.88827107  0.65711615  0.49985798  1.0
  C  C93  1  0.47765469  0.57044692  0.94098929  1.0
  C  C94  1  0.45659858  0.64378730  0.97064634  1.0
  C  C95  1  0.45716864  0.64518179  0.02954475  1.0
  C  C96  1  0.52118849  0.41977844  0.87906563  1.0
  N  N97  1  0.49974144  0.49864987  0.14927874  1.0
  N  N98  1  0.49619180  0.49461870  0.85184631  1.0
  N  N99  1  0.73241134  0.47272198  0.50307894  1.0
  N  N100  1  0.26309289  0.52187917  0.49851531  1.0
  N  N101  1  0.64117828  0.94169882  0.57582027  1.0
  N  N102  1  0.49051059  0.91235501  0.61164026  1.0
  N  N103  1  0.56897468  0.27528863  0.94466553  1.0
  N  N104  1  0.11481437  0.41550577  0.57580199  1.0
  N  N105  1  0.93376326  0.43622659  0.59538071  1.0
  O  O106  1  0.56624423  0.36288404  0.49503058  1.0
  O  O107  1  0.54264421  0.35986511  0.15009543  1.0
  O  O108  1  0.53957531  0.35646445  0.85008955  1.0
  O  O109  1  0.45468725  0.63373534  0.85102521  1.0
  O  O110  1  0.14543337  0.68899105  0.50061782  1.0
  O  O111  1  0.93208440  0.71483246  0.47987444  1.0
  O  O112  1  0.40956472  0.37141535  0.49788113  1.0
  O  O113  1  0.56157835  0.48573737  0.58556638  1.0
  O  O114  1  0.40547291  0.49394240  0.58670792  1.0
  O  O115  1  0.60750010  0.61639215  0.50756525  1.0
  O  O116  1  0.45084266  0.62179277  0.50529088  1.0
  O  O117  1  0.57078735  0.50092074  0.41583435  1.0
  O  O118  1  0.41449072  0.50261614  0.41418021  1.0
  O  O119  1  0.45942590  0.63792848  0.14906370  1.0
