# generated using pymatgen
data_Zn4H22C44O21
_symmetry_space_group_name_H-M   'P 1'
_cell_length_a   15.06350045
_cell_length_b   15.17998887
_cell_length_c   17.81118099
_cell_angle_alpha   80.81494063
_cell_angle_beta   80.46531042
_cell_angle_gamma   89.62511261
_symmetry_Int_Tables_number   1
_chemical_formula_structural   Zn4H22C44O21
_chemical_formula_sum   'Zn4 H22 C44 O21'
_cell_volume   3964.18020755
_cell_formula_units_Z   1
loop_
 _symmetry_equiv_pos_site_id
 _symmetry_equiv_pos_as_xyz
  1  'x, y, z'
loop_
 _atom_site_type_symbol
 _atom_site_label
 _atom_site_symmetry_multiplicity
 _atom_site_fract_x
 _atom_site_fract_y
 _atom_site_fract_z
 _atom_site_occupancy
  Zn  Zn0  1  0.43088491  0.44369964  0.42843138  1.0
  Zn  Zn1  1  0.54478777  0.39495237  0.56039272  1.0
  Zn  Zn2  1  0.41886744  0.56559131  0.56299736  1.0
  Zn  Zn3  1  0.59751271  0.57436658  0.44370784  1.0
  H  H4  1  0.69690273  0.66780105  0.93951381  1.0
  H  H5  1  0.99616846  0.66956573  0.49657503  1.0
  H  H6  1  0.98860504  0.29707061  0.54796678  1.0
  H  H7  1  0.14114366  0.72584587  0.48385551  1.0
  H  H8  1  0.14083077  0.37229537  0.52865808  1.0
  H  H9  1  0.60417494  0.13837157  0.50855326  1.0
  H  H10  1  0.73398374  0.94779474  0.52111475  1.0
  H  H11  1  0.51506528  0.55057757  0.79431595  1.0
  H  H12  1  0.26441067  0.03954261  0.44454212  1.0
  H  H13  1  0.66920838  0.76057094  0.50250226  1.0
  H  H14  1  0.40081751  0.30634730  0.72697057  1.0
  H  H15  1  0.84845053  0.59444477  0.50416992  1.0
  H  H16  1  0.47490618  0.47876599  0.19436152  1.0
  H  H17  1  0.67015632  0.64139432  0.83033948  1.0
  H  H18  1  0.42754755  0.40571283  0.13165601  1.0
  H  H19  1  0.33782729  0.16899979  0.45088294  1.0
  H  H20  1  0.38632072  0.85145044  0.48373250  1.0
  H  H21  1  0.36313296  0.31248759  0.05367611  1.0
  H  H22  1  0.72376415  0.69231469  0.06690258  1.0
  H  H23  1  0.68430331  0.66034756  0.21029241  1.0
  H  H24  1  0.32677881  0.22495230  0.89659065  1.0
  H  H25  1  0.84737097  0.24115449  0.55622378  1.0
  C  C26  1  0.72880498  0.46538676  0.52179797  1.0
  C  C27  1  0.44316686  0.42188947  0.06914072  1.0
  C  C28  1  0.40658030  0.36954628  0.02608436  1.0
  C  C29  1  0.26003830  0.50785719  0.50805170  1.0
  C  C30  1  0.42434915  0.38863174  0.94419132  1.0
  C  C31  1  0.47811435  0.46602814  0.90600746  1.0
  C  C32  1  0.38986926  0.33134036  0.90032606  1.0
  C  C33  1  0.40558200  0.34961816  0.82015964  1.0
  C  C34  1  0.48245664  0.48901155  0.82552581  1.0
  C  C35  1  0.82599959  0.45361816  0.52740350  1.0
  C  C36  1  0.16014089  0.51371062  0.51207876  1.0
  C  C37  1  0.64741640  0.62829041  0.17399599  1.0
  C  C38  1  0.02771634  0.60446462  0.50531403  1.0
  C  C39  1  0.11943566  0.59891386  0.50357326  1.0
  C  C40  1  0.10799947  0.43677408  0.52324428  1.0
  C  C41  1  0.47878430  0.25943325  0.48238663  1.0
  C  C42  1  0.01328173  0.44010343  0.52761372  1.0
  C  C43  1  0.97310803  0.52619223  0.51691623  1.0
  C  C44  1  0.87978961  0.52982583  0.51566084  1.0
  C  C45  1  0.86570314  0.36808947  0.54106116  1.0
  C  C46  1  0.95764890  0.36254931  0.54004053  1.0
  C  C47  1  0.47189747  0.16189733  0.48087301  1.0
  C  C48  1  0.52909955  0.52462329  0.16427689  1.0
  C  C49  1  0.52331466  0.82944056  0.49918941  1.0
  C  C50  1  0.61263309  0.96012215  0.50643487  1.0
  C  C51  1  0.60667026  0.86894472  0.50516912  1.0
  C  C52  1  0.44917920  0.88269316  0.48926630  1.0
  C  C53  1  0.51570960  0.73183292  0.50288734  1.0
  C  C54  1  0.45616952  0.97570876  0.48479868  1.0
  C  C55  1  0.53830761  0.01579522  0.49617563  1.0
  C  C56  1  0.54362893  0.10861222  0.49653702  1.0
  C  C57  1  0.39228587  0.12475708  0.46478713  1.0
  C  C58  1  0.38401614  0.03363434  0.46849962  1.0
  C  C59  1  0.55034597  0.53985834  0.08314133  1.0
  C  C60  1  0.45391597  0.45575204  0.69878416  1.0
  C  C61  1  0.55096287  0.54906641  0.29469180  1.0
  C  C62  1  0.57584462  0.56777290  0.20938278  1.0
  C  C63  1  0.44703302  0.43221643  0.78311040  1.0
  C  C64  1  0.66891505  0.64557865  0.09483164  1.0
  C  C65  1  0.62092895  0.60305373  0.04791069  1.0
  C  C66  1  0.50509004  0.49350152  0.03467156  1.0
  C  C67  1  0.52445270  0.51476472  0.95269685  1.0
  C  C68  1  0.59531687  0.58007206  0.92065678  1.0
  C  C69  1  0.64178388  0.62074360  0.96659288  1.0
  O  O70  1  0.49754304  0.49553067  0.49692375  1.0
  O  O71  1  0.45851759  0.38929634  0.66019647  1.0
  O  O72  1  0.59685141  0.59069740  0.33320325  1.0
  O  O73  1  0.45330339  0.53720876  0.66746117  1.0
  O  O74  1  0.48611246  0.49315719  0.32295517  1.0
  O  O75  1  0.34218797  0.25586764  0.93703482  1.0
  O  O76  1  0.81084098  0.29424988  0.55111338  1.0
  O  O77  1  0.17613070  0.67191190  0.49089991  1.0
  O  O78  1  0.69176739  0.99684144  0.51615976  1.0
  O  O79  1  0.30748488  0.99340437  0.45634275  1.0
  O  O80  1  0.68300102  0.82159346  0.51236671  1.0
  O  O81  1  0.42777639  0.31138333  0.44563714  1.0
  O  O82  1  0.37495410  0.28768294  0.78245524  1.0
  O  O83  1  0.61929962  0.59927674  0.84197656  1.0
  O  O84  1  0.59007624  0.68960005  0.48684147  1.0
  O  O85  1  0.67106685  0.41328385  0.56812626  1.0
  O  O86  1  0.29275887  0.53945487  0.55997661  1.0
  O  O87  1  0.71222110  0.52941183  0.47027868  1.0
  O  O88  1  0.30207029  0.47086591  0.45366585  1.0
  O  O89  1  0.53582349  0.28339278  0.52145343  1.0
  O  O90  1  0.43840837  0.69423854  0.52181068  1.0
