# generated using pymatgen
data_EuH24C25S2N3O8
_symmetry_space_group_name_H-M   'P 1'
_cell_length_a   16.12107572
_cell_length_b   16.12112326
_cell_length_c   27.93266317
_cell_angle_alpha   80.16928390
_cell_angle_beta   80.16901484
_cell_angle_gamma   62.96424153
_symmetry_Int_Tables_number   1
_chemical_formula_structural   EuH24C25S2N3O8
_chemical_formula_sum   'Eu4 H96 C100 S8 N12 O32'
_cell_volume   6335.20836564
_cell_formula_units_Z   4
loop_
 _symmetry_equiv_pos_site_id
 _symmetry_equiv_pos_as_xyz
  1  'x, y, z'
loop_
 _atom_site_type_symbol
 _atom_site_label
 _atom_site_symmetry_multiplicity
 _atom_site_fract_x
 _atom_site_fract_y
 _atom_site_fract_z
 _atom_site_occupancy
  Eu  Eu0  1  0.93401198  0.46964389  0.95475864  1.0
  Eu  Eu1  1  0.53035672  0.06598726  0.54524139  1.0
  Eu  Eu2  1  0.06598739  0.53035651  0.04524122  1.0
  Eu  Eu3  1  0.46964358  0.93401244  0.45475880  1.0
  H  H4  1  0.93675198  0.37090742  0.79569257  1.0
  H  H5  1  0.62909248  0.06324785  0.70430699  1.0
  H  H6  1  0.06324799  0.62909158  0.20430772  1.0
  H  H7  1  0.37090781  0.93675185  0.29569249  1.0
  H  H8  1  0.89286787  0.29221984  0.74025276  1.0
  H  H9  1  0.70778066  0.10713206  0.75974705  1.0
  H  H10  1  0.10713212  0.70778055  0.25974704  1.0
  H  H11  1  0.29221964  0.89286764  0.24025314  1.0
  H  H12  1  0.79596060  0.15269693  0.86594354  1.0
  H  H13  1  0.84730260  0.20403913  0.63405633  1.0
  H  H14  1  0.20403844  0.84730277  0.13405642  1.0
  H  H15  1  0.15269707  0.79596057  0.36594357  1.0
  H  H16  1  0.84054166  0.23168668  0.92135125  1.0
  H  H17  1  0.76831322  0.15945792  0.57864864  1.0
  H  H18  1  0.15945801  0.76831302  0.07864900  1.0
  H  H19  1  0.23168645  0.84054178  0.42135125  1.0
  H  H20  1  0.83286979  0.31583766  0.08313629  1.0
  H  H21  1  0.68416257  0.16713059  0.41686357  1.0
  H  H22  1  0.16713020  0.68416274  0.91686350  1.0
  H  H23  1  0.31583742  0.83286981  0.58313623  1.0
  H  H24  1  0.76758322  0.24490834  0.15873559  1.0
  H  H25  1  0.75509216  0.23241655  0.34126394  1.0
  H  H26  1  0.23241614  0.75509206  0.84126391  1.0
  H  H27  1  0.24490814  0.76758314  0.65873590  1.0
  H  H28  1  0.85501823  0.37622644  0.24829562  1.0
  H  H29  1  0.62377322  0.14498155  0.25170476  1.0
  H  H30  1  0.14498175  0.62377256  0.75170467  1.0
  H  H31  1  0.37622614  0.85501885  0.74829546  1.0
  H  H32  1  0.91912181  0.44814380  0.17202842  1.0
  H  H33  1  0.55185496  0.08087876  0.32797162  1.0
  H  H34  1  0.08087910  0.55185450  0.82797149  1.0
  H  H35  1  0.44814441  0.91912164  0.67202895  1.0
  H  H36  1  0.79844355  0.83427339  0.05561785  1.0
  H  H37  1  0.16572631  0.20155626  0.44438242  1.0
  H  H38  1  0.20155675  0.16572631  0.94438234  1.0
  H  H39  1  0.83427399  0.79844344  0.55561813  1.0
  H  H40  1  0.63803851  0.96697155  0.04492304  1.0
  H  H41  1  0.03302735  0.36196114  0.45507731  1.0
  H  H42  1  0.36196179  0.03302815  0.95507715  1.0
  H  H43  1  0.96697232  0.63803856  0.54492294  1.0
  H  H44  1  0.58283745  0.80344042  0.95963836  1.0
  H  H45  1  0.19655973  0.41716213  0.54036178  1.0
  H  H46  1  0.41716253  0.19655858  0.04036193  1.0
  H  H47  1  0.80344057  0.58283756  0.45963806  1.0
  H  H48  1  0.74403820  0.67148391  0.96938309  1.0
  H  H49  1  0.32851582  0.25596231  0.53061736  1.0
  H  H50  1  0.25596210  0.32851578  0.03061746  1.0
  H  H51  1  0.67148418  0.74403809  0.46938279  1.0
  H  H52  1  0.64680045  0.71623297  0.88720291  1.0
  H  H53  1  0.28376731  0.35319896  0.61279706  1.0
  H  H54  1  0.35319985  0.28376672  0.11279729  1.0
  H  H55  1  0.71623206  0.64680144  0.38720316  1.0
  H  H56  1  0.65658690  0.71384198  0.82234748  1.0
  H  H57  1  0.28615782  0.34341399  0.67765201  1.0
  H  H58  1  0.34341402  0.28615771  0.17765229  1.0
  H  H59  1  0.71384187  0.65658711  0.32234810  1.0
  H  H60  1  0.71554970  0.76696761  0.84726914  1.0
  H  H61  1  0.23303232  0.28445075  0.65273037  1.0
  H  H62  1  0.28445030  0.23303279  0.15273065  1.0
  H  H63  1  0.76696767  0.71554965  0.34726942  1.0
  H  H64  1  0.86832552  0.67307551  0.79783413  1.0
  H  H65  1  0.32692381  0.13167564  0.70216615  1.0
  H  H66  1  0.13167572  0.32692349  0.20216604  1.0
  H  H67  1  0.67307525  0.86832546  0.29783438  1.0
  H  H68  1  0.81871299  0.61258209  0.77144107  1.0
  H  H69  1  0.38741795  0.18128840  0.72855875  1.0
  H  H70  1  0.18128700  0.38741831  0.22855908  1.0
  H  H71  1  0.61258237  0.81871270  0.27144095  1.0
  H  H72  1  0.92447680  0.54663359  0.80093718  1.0
  H  H73  1  0.45336625  0.07552383  0.69906289  1.0
  H  H74  1  0.07552317  0.45336541  0.19906276  1.0
  H  H75  1  0.54663311  0.92447657  0.30093733  1.0
  H  H76  1  0.59936776  0.53023994  0.94466178  1.0
  H  H77  1  0.46975965  0.40063213  0.55533875  1.0
  H  H78  1  0.40063191  0.46975976  0.05533847  1.0
  H  H79  1  0.53024034  0.59936827  0.44466140  1.0
  H  H80  1  0.60326780  0.42048911  0.97601673  1.0
  H  H81  1  0.57951079  0.39673184  0.52398331  1.0
  H  H82  1  0.39673249  0.57951059  0.02398311  1.0
  H  H83  1  0.42048888  0.60326786  0.47601659  1.0
  H  H84  1  0.69075652  0.41993677  0.92648493  1.0
  H  H85  1  0.58006411  0.30924309  0.57351527  1.0
  H  H86  1  0.30924348  0.58006363  0.07351522  1.0
  H  H87  1  0.41993619  0.69075660  0.42648457  1.0
  H  H88  1  0.66740763  0.53200507  0.07021074  1.0
  H  H89  1  0.46799440  0.33259259  0.42978931  1.0
  H  H90  1  0.33259330  0.46799462  0.92978904  1.0
  H  H91  1  0.53200497  0.66740781  0.57021055  1.0
  H  H92  1  0.59168993  0.48330118  0.06108250  1.0
  H  H93  1  0.51669816  0.40830982  0.43891764  1.0
  H  H94  1  0.40831037  0.51669852  0.93891769  1.0
  H  H95  1  0.48330184  0.59169057  0.56108216  1.0
  H  H96  1  0.58456448  0.59147057  0.02568094  1.0
  H  H97  1  0.40852830  0.41543610  0.47431930  1.0
  H  H98  1  0.41543612  0.40852842  0.97431894  1.0
  H  H99  1  0.59147169  0.58456430  0.52568049  1.0
  C  C100  1  0.90908834  0.35881878  0.89409350  1.0
  C  C101  1  0.64118087  0.09091234  0.60590637  1.0
  C  C102  1  0.09091132  0.64118092  0.10590675  1.0
  C  C103  1  0.35881849  0.90908805  0.39409313  1.0
  C  C104  1  0.88963679  0.30661712  0.86146309  1.0
  C  C105  1  0.69338263  0.11036333  0.63853679  1.0
  C  C106  1  0.11036319  0.69338187  0.13853684  1.0
  C  C107  1  0.30661704  0.88963637  0.36146310  1.0
  C  C108  1  0.90594926  0.32282374  0.81042966  1.0
  C  C109  1  0.67717616  0.09405082  0.68957057  1.0
  C  C110  1  0.09405135  0.67717526  0.18957057  1.0
  C  C111  1  0.32282384  0.90594957  0.31042958  1.0
  C  C112  1  0.88221526  0.27951849  0.77987857  1.0
  C  C113  1  0.72048151  0.11778492  0.72012126  1.0
  C  C114  1  0.11778503  0.72048121  0.22012127  1.0
  C  C115  1  0.27951879  0.88221478  0.27987857  1.0
  C  C116  1  0.84136667  0.21879270  0.80035852  1.0
  C  C117  1  0.78120735  0.15863379  0.69964162  1.0
  C  C118  1  0.15863363  0.78120700  0.19964168  1.0
  C  C119  1  0.21879358  0.84136591  0.30035851  1.0
  C  C120  1  0.82710377  0.20060040  0.85133007  1.0
  C  C121  1  0.79939918  0.17289671  0.64866974  1.0
  C  C122  1  0.17289652  0.79939930  0.14866976  1.0
  C  C123  1  0.20060112  0.82710299  0.35133009  1.0
  C  C124  1  0.85127926  0.24425062  0.88169881  1.0
  C  C125  1  0.75574932  0.14872086  0.61830103  1.0
  C  C126  1  0.14872041  0.75574908  0.11830144  1.0
  C  C127  1  0.24425098  0.85127883  0.38169881  1.0
  C  C128  1  0.91627598  0.43004974  0.07899995  1.0
  C  C129  1  0.56995028  0.08372377  0.42100004  1.0
  C  C130  1  0.08372369  0.56994996  0.92099995  1.0
  C  C131  1  0.43005035  0.91627662  0.57900005  1.0
  C  C132  1  0.87798820  0.38698750  0.12375405  1.0
  C  C133  1  0.61301222  0.12201157  0.37624596  1.0
  C  C134  1  0.12201210  0.61301220  0.87624615  1.0
  C  C135  1  0.38698745  0.87798813  0.62375394  1.0
  C  C136  1  0.83582726  0.32933539  0.11962176  1.0
  C  C137  1  0.67066481  0.16417268  0.38037816  1.0
  C  C138  1  0.16417240  0.67066431  0.88037814  1.0
  C  C139  1  0.32933518  0.83582771  0.61962163  1.0
  C  C140  1  0.80018858  0.29007997  0.16107479  1.0
  C  C141  1  0.70992001  0.19981080  0.33892520  1.0
  C  C142  1  0.19981109  0.70991973  0.83892511  1.0
  C  C143  1  0.29007966  0.80018890  0.66107469  1.0
  C  C144  1  0.80660419  0.30814506  0.20760497  1.0
  C  C145  1  0.69185467  0.19339570  0.29239465  1.0
  C  C146  1  0.19339548  0.69185464  0.79239457  1.0
  C  C147  1  0.30814500  0.80660400  0.70760525  1.0
  C  C148  1  0.85015468  0.36447096  0.21176673  1.0
  C  C149  1  0.63552882  0.14984536  0.28823324  1.0
  C  C150  1  0.14984562  0.63552874  0.78823310  1.0
  C  C151  1  0.36447022  0.85015434  0.71176672  1.0
  C  C152  1  0.88536412  0.40382455  0.17006752  1.0
  C  C153  1  0.59617532  0.11463574  0.32993247  1.0
  C  C154  1  0.11463586  0.59617445  0.82993242  1.0
  C  C155  1  0.40382467  0.88536465  0.67006732  1.0
  C  C156  1  0.87622897  0.66880895  0.01872670  1.0
  C  C157  1  0.33119094  0.12377091  0.48127361  1.0
  C  C158  1  0.12377040  0.33119145  0.98127351  1.0
  C  C159  1  0.66880938  0.87623019  0.51872680  1.0
  C  C160  1  0.78041254  0.74599432  0.01274514  1.0
  C  C161  1  0.25400581  0.21958760  0.48725532  1.0
  C  C162  1  0.21958776  0.25400537  0.98725541  1.0
  C  C163  1  0.74599418  0.78041280  0.51274447  1.0
  C  C164  1  0.75045463  0.82899806  0.03445683  1.0
  C  C165  1  0.17100170  0.24954561  0.46554308  1.0
  C  C166  1  0.24954566  0.17100164  0.96554300  1.0
  C  C167  1  0.82899829  0.75045479  0.53445707  1.0
  C  C168  1  0.66228960  0.90193614  0.02869133  1.0
  C  C169  1  0.09806391  0.33771065  0.47130875  1.0
  C  C170  1  0.33771102  0.09806426  0.97130876  1.0
  C  C171  1  0.90193608  0.66228974  0.52869105  1.0
  C  C172  1  0.60228488  0.89215744  0.00113013  1.0
  C  C173  1  0.10784163  0.39771569  0.49886971  1.0
  C  C174  1  0.39771542  0.10784226  0.99886971  1.0
  C  C175  1  0.89215836  0.60228471  0.50113008  1.0
  C  C176  1  0.63162036  0.80862533  0.98034820  1.0
  C  C177  1  0.19137537  0.36837887  0.51965186  1.0
  C  C178  1  0.36837901  0.19137507  0.01965237  1.0
  C  C179  1  0.80862493  0.63162083  0.48034797  1.0
  C  C180  1  0.72035977  0.73607561  0.98578236  1.0
  C  C181  1  0.26392375  0.27964102  0.51421749  1.0
  C  C182  1  0.27963990  0.26392409  0.01421789  1.0
  C  C183  1  0.73607594  0.72036007  0.48578227  1.0
  C  C184  1  0.69280842  0.71104868  0.85294078  1.0
  C  C185  1  0.28895154  0.30719122  0.64705910  1.0
  C  C186  1  0.30719188  0.28895101  0.14705905  1.0
  C  C187  1  0.71104845  0.69280918  0.35294105  1.0
  C  C188  1  0.85758111  0.60976866  0.80084451  1.0
  C  C189  1  0.39023162  0.14241942  0.69915568  1.0
  C  C190  1  0.14241888  0.39023174  0.19915528  1.0
  C  C191  1  0.60976807  0.85758168  0.30084443  1.0
  C  C192  1  0.64469644  0.45723256  0.95722101  1.0
  C  C193  1  0.54276773  0.35530301  0.54277901  1.0
  C  C194  1  0.35530323  0.54276714  0.04277889  1.0
  C  C195  1  0.45723226  0.64469739  0.45722043  1.0
  C  C196  1  0.63079130  0.52304681  0.04325116  1.0
  C  C197  1  0.47695301  0.36920868  0.45674927  1.0
  C  C198  1  0.36920963  0.47695288  0.95674897  1.0
  C  C199  1  0.52304635  0.63079172  0.54325059  1.0
  S  S200  1  0.79302418  0.59825971  0.85902137  1.0
  S  S201  1  0.40174114  0.20697603  0.64097850  1.0
  S  S202  1  0.20697675  0.40173998  0.14097876  1.0
  S  S203  1  0.59825915  0.79302367  0.35902134  1.0
  S  S204  1  0.72070362  0.45589033  0.99834035  1.0
  S  S205  1  0.54410998  0.27929686  0.50165946  1.0
  S  S206  1  0.27929605  0.54410937  0.00165955  1.0
  S  S207  1  0.45589002  0.72070354  0.49834033  1.0
  N  N208  1  0.80775291  0.17683422  0.77296542  1.0
  N  N209  1  0.82316580  0.19224821  0.72703428  1.0
  N  N210  1  0.19224739  0.82316548  0.22703441  1.0
  N  N211  1  0.17683513  0.80775149  0.27296585  1.0
  N  N212  1  0.77178275  0.27324143  0.25221784  1.0
  N  N213  1  0.72675786  0.22821727  0.24778217  1.0
  N  N214  1  0.22821786  0.72675756  0.74778203  1.0
  N  N215  1  0.27324181  0.77178243  0.75221772  1.0
  N  N216  1  0.51166688  0.96116913  0.99211052  1.0
  N  N217  1  0.03883075  0.48833323  0.50788951  1.0
  N  N218  1  0.48833342  0.03883057  0.00788968  1.0
  N  N219  1  0.96116955  0.51166647  0.49211033  1.0
  O  O220  1  0.94394833  0.41573516  0.87501942  1.0
  O  O221  1  0.58426420  0.05605182  0.62498057  1.0
  O  O222  1  0.05605040  0.58426524  0.12498050  1.0
  O  O223  1  0.41573547  0.94394788  0.37501933  1.0
  O  O224  1  0.88723145  0.34800222  0.94003971  1.0
  O  O225  1  0.65199854  0.11276735  0.55996026  1.0
  O  O226  1  0.11276792  0.65199818  0.05996051  1.0
  O  O227  1  0.34800019  0.88723305  0.44003966  1.0
  O  O228  1  0.90476558  0.41593038  0.03761162  1.0
  O  O229  1  0.58407034  0.09523360  0.46238835  1.0
  O  O230  1  0.09523379  0.58407002  0.96238860  1.0
  O  O231  1  0.41592996  0.90476610  0.53761149  1.0
  O  O232  1  0.95674923  0.47770877  0.08623759  1.0
  O  O233  1  0.52229154  0.04325095  0.41376197  1.0
  O  O234  1  0.04325139  0.52229163  0.91376214  1.0
  O  O235  1  0.47770752  0.95675015  0.58623821  1.0
  O  O236  1  0.90519321  0.59587193  0.99633386  1.0
  O  O237  1  0.40412787  0.09480661  0.50366637  1.0
  O  O238  1  0.09480679  0.40412846  0.00366665  1.0
  O  O239  1  0.59587181  0.90519449  0.49633339  1.0
  O  O240  1  0.92674042  0.67713491  0.04596682  1.0
  O  O241  1  0.32286363  0.07326041  0.45403420  1.0
  O  O242  1  0.07326052  0.32286479  0.95403438  1.0
  O  O243  1  0.67713637  0.92673998  0.54596560  1.0
  O  O244  1  0.84525928  0.60673295  0.89676327  1.0
  O  O245  1  0.39326654  0.15474103  0.60323703  1.0
  O  O246  1  0.15474102  0.39326675  0.10323657  1.0
  O  O247  1  0.60673346  0.84525937  0.39676312  1.0
  O  O248  1  0.75959544  0.52320957  0.97161920  1.0
  O  O249  1  0.47679137  0.24040408  0.52838068  1.0
  O  O250  1  0.24040393  0.47679083  0.02838066  1.0
  O  O251  1  0.52320862  0.75959632  0.47161911  1.0
