# generated using pymatgen
data_Nd2Co3H36(C2O3)12
_symmetry_space_group_name_H-M   'P 1'
_cell_length_a   15.11296385
_cell_length_b   15.11298444
_cell_length_c   15.51538896
_cell_angle_alpha   89.99998108
_cell_angle_beta   89.99998097
_cell_angle_gamma   60.00005198
_symmetry_Int_Tables_number   1
_chemical_formula_structural   Nd2Co3H36(C2O3)12
_chemical_formula_sum   'Nd4 Co6 H72 C48 O72'
_cell_volume   3068.97538753
_cell_formula_units_Z   2
loop_
 _symmetry_equiv_pos_site_id
 _symmetry_equiv_pos_as_xyz
  1  'x, y, z'
loop_
 _atom_site_type_symbol
 _atom_site_label
 _atom_site_symmetry_multiplicity
 _atom_site_fract_x
 _atom_site_fract_y
 _atom_site_fract_z
 _atom_site_occupancy
  Nd  Nd0  1  0.66666667  0.66666667  0.74999993  1.0
  Nd  Nd1  1  0.33333333  0.33333333  0.75000052  1.0
  Nd  Nd2  1  0.33333333  0.33333333  0.25000016  1.0
  Nd  Nd3  1  0.66666667  0.66666667  0.25000022  1.0
  Co  Co4  1  0.00000065  0.49999948  0.00000001  1.0
  Co  Co5  1  0.49999946  0.50000028  0.99999993  1.0
  Co  Co6  1  0.49999960  0.00000007  0.00000001  1.0
  Co  Co7  1  0.49999996  0.50000058  0.50000045  1.0
  Co  Co8  1  0.00000021  0.50000018  0.49999973  1.0
  Co  Co9  1  0.50000020  0.00000002  0.50000037  1.0
  H  H10  1  0.91943394  0.36575407  0.76059007  1.0
  H  H11  1  0.36575341  0.71481255  0.76058946  1.0
  H  H12  1  0.71481225  0.91943376  0.76059001  1.0
  H  H13  1  0.08056640  0.63424592  0.76059000  1.0
  H  H14  1  0.63424523  0.28518819  0.76058997  1.0
  H  H15  1  0.28518743  0.08056623  0.76059006  1.0
  H  H16  1  0.28518741  0.63424594  0.73940970  1.0
  H  H17  1  0.08056564  0.28518816  0.73940979  1.0
  H  H18  1  0.63424602  0.08056625  0.73940974  1.0
  H  H19  1  0.71481293  0.36575406  0.73940984  1.0
  H  H20  1  0.91943405  0.71481183  0.73941039  1.0
  H  H21  1  0.36575433  0.91943374  0.73940981  1.0
  H  H22  1  0.08056646  0.63424598  0.23941003  1.0
  H  H23  1  0.63424529  0.28518825  0.23940999  1.0
  H  H24  1  0.28518749  0.08056628  0.23941008  1.0
  H  H25  1  0.91943372  0.36575336  0.23940945  1.0
  H  H26  1  0.36575413  0.71481261  0.23941013  1.0
  H  H27  1  0.71481231  0.91943382  0.23941004  1.0
  H  H28  1  0.71481233  0.36575411  0.26059039  1.0
  H  H29  1  0.91943372  0.71481265  0.26058966  1.0
  H  H30  1  0.36575439  0.91943378  0.26059036  1.0
  H  H31  1  0.28518747  0.63424599  0.26059026  1.0
  H  H32  1  0.08056570  0.28518820  0.26058970  1.0
  H  H33  1  0.63424607  0.08056631  0.26059029  1.0
  H  H34  1  0.84049408  0.35914583  0.84370820  1.0
  H  H35  1  0.35914551  0.80035961  0.84370757  1.0
  H  H36  1  0.80035998  0.84049492  0.84370749  1.0
  H  H37  1  0.15950558  0.64085414  0.84370811  1.0
  H  H38  1  0.64085481  0.19964036  0.84370746  1.0
  H  H39  1  0.19963969  0.15950504  0.84370753  1.0
  H  H40  1  0.19963935  0.64085417  0.65629224  1.0
  H  H41  1  0.15950453  0.19964035  0.65629232  1.0
  H  H42  1  0.64085455  0.15950587  0.65629225  1.0
  H  H43  1  0.80036035  0.35914585  0.65629235  1.0
  H  H44  1  0.84049479  0.80036043  0.65629227  1.0
  H  H45  1  0.35914543  0.84049491  0.65629234  1.0
  H  H46  1  0.15950566  0.64085421  0.15629189  1.0
  H  H47  1  0.64085528  0.19963967  0.15629253  1.0
  H  H48  1  0.19963910  0.15950513  0.15629261  1.0
  H  H49  1  0.84049350  0.35914591  0.15629199  1.0
  H  H50  1  0.35914559  0.80035968  0.15629199  1.0
  H  H51  1  0.80036005  0.84049500  0.15629256  1.0
  H  H52  1  0.80036039  0.35914588  0.34370786  1.0
  H  H53  1  0.84049521  0.80035970  0.34370778  1.0
  H  H54  1  0.35914585  0.84049418  0.34370785  1.0
  H  H55  1  0.19963939  0.64085420  0.34370775  1.0
  H  H56  1  0.15950419  0.19964114  0.34370782  1.0
  H  H57  1  0.64085459  0.15950590  0.34370775  1.0
  H  H58  1  0.17407403  0.36594702  0.05171383  1.0
  H  H59  1  0.36594698  0.45998035  0.05171378  1.0
  H  H60  1  0.45997896  0.17407320  0.05171381  1.0
  H  H61  1  0.82592686  0.63405235  0.05171384  1.0
  H  H62  1  0.63405259  0.54001903  0.05171388  1.0
  H  H63  1  0.54002022  0.82592694  0.05171385  1.0
  H  H64  1  0.54002129  0.63405229  0.44828596  1.0
  H  H65  1  0.82592820  0.54001900  0.44828593  1.0
  H  H66  1  0.63405335  0.82592690  0.44828656  1.0
  H  H67  1  0.45997912  0.36594777  0.44828585  1.0
  H  H68  1  0.17407222  0.45998105  0.44828589  1.0
  H  H69  1  0.36594707  0.17407315  0.44828655  1.0
  H  H70  1  0.82592676  0.63405225  0.94828627  1.0
  H  H71  1  0.63405248  0.54001893  0.94828567  1.0
  H  H72  1  0.54002078  0.82592684  0.94828628  1.0
  H  H73  1  0.17407392  0.36594693  0.94828626  1.0
  H  H74  1  0.36594716  0.45998101  0.94828621  1.0
  H  H75  1  0.45997952  0.17407310  0.94828624  1.0
  H  H76  1  0.45997845  0.36594776  0.55171414  1.0
  H  H77  1  0.17407259  0.45998027  0.55171417  1.0
  H  H78  1  0.36594706  0.17407313  0.55171354  1.0
  H  H79  1  0.54002128  0.63405228  0.55171424  1.0
  H  H80  1  0.82592781  0.54001975  0.55171421  1.0
  H  H81  1  0.63405334  0.82592689  0.55171355  1.0
  C  C82  1  0.87107033  0.48204857  0.85877129  1.0
  C  C83  1  0.48204766  0.64688132  0.85877133  1.0
  C  C84  1  0.64688244  0.87106740  0.85877126  1.0
  C  C85  1  0.12893037  0.51795063  0.85877124  1.0
  C  C86  1  0.51795040  0.35311788  0.85877185  1.0
  C  C87  1  0.35311798  0.12893103  0.85877127  1.0
  C  C88  1  0.35311871  0.51795067  0.64122913  1.0
  C  C89  1  0.12893040  0.35311864  0.64122790  1.0
  C  C90  1  0.51794990  0.12893259  0.64122852  1.0
  C  C91  1  0.64688166  0.48204934  0.64122924  1.0
  C  C92  1  0.87106931  0.64688137  0.64122854  1.0
  C  C93  1  0.48204933  0.87106971  0.64122856  1.0
  C  C94  1  0.12893046  0.51795070  0.14122816  1.0
  C  C95  1  0.51795048  0.35311796  0.14122877  1.0
  C  C96  1  0.35311806  0.12893112  0.14122883  1.0
  C  C97  1  0.87106937  0.48204942  0.14122885  1.0
  C  C98  1  0.48204907  0.64688139  0.14122889  1.0
  C  C99  1  0.64688186  0.87106748  0.14122947  1.0
  C  C100  1  0.64688169  0.48204938  0.35877097  1.0
  C  C101  1  0.87106935  0.64688140  0.35877091  1.0
  C  C102  1  0.48204936  0.87106974  0.35877158  1.0
  C  C103  1  0.35311875  0.51795069  0.35877085  1.0
  C  C104  1  0.12892910  0.35311868  0.35877156  1.0
  C  C105  1  0.51794993  0.12893263  0.35877024  1.0
  C  C106  1  0.85213511  0.41149820  0.80178337  1.0
  C  C107  1  0.41149756  0.73636626  0.80178274  1.0
  C  C108  1  0.73636625  0.85213591  0.80178267  1.0
  C  C109  1  0.14786456  0.58850178  0.80178329  1.0
  C  C110  1  0.58850212  0.26363371  0.80178327  1.0
  C  C111  1  0.26363342  0.14786407  0.80178334  1.0
  C  C112  1  0.26363301  0.58850256  0.69821706  1.0
  C  C113  1  0.14786427  0.26363293  0.69821714  1.0
  C  C114  1  0.58850181  0.14786486  0.69821708  1.0
  C  C115  1  0.73636735  0.41149744  0.69821653  1.0
  C  C116  1  0.85213543  0.73636707  0.69821646  1.0
  C  C117  1  0.41149751  0.85213589  0.69821716  1.0
  C  C118  1  0.14786463  0.58850185  0.19821673  1.0
  C  C119  1  0.58850257  0.26363301  0.19821671  1.0
  C  C120  1  0.26363283  0.14786413  0.19821742  1.0
  C  C121  1  0.85213556  0.41149750  0.19821680  1.0
  C  C122  1  0.41149791  0.73636709  0.19821682  1.0
  C  C123  1  0.73636632  0.85213598  0.19821675  1.0
  C  C124  1  0.73636740  0.41149748  0.30178303  1.0
  C  C125  1  0.85213547  0.73636712  0.30178296  1.0
  C  C126  1  0.41149793  0.85213518  0.30178301  1.0
  C  C127  1  0.26363305  0.58850261  0.30178356  1.0
  C  C128  1  0.14786393  0.26363374  0.30178299  1.0
  C  C129  1  0.58850224  0.14786414  0.30178358  1.0
  O  O130  1  0.80565307  0.57797136  0.85602949  1.0
  O  O131  1  0.57797153  0.61637453  0.85602823  1.0
  O  O132  1  0.61637821  0.80565063  0.85603077  1.0
  O  O133  1  0.19434659  0.42202861  0.85602945  1.0
  O  O134  1  0.42202862  0.38362313  0.85603007  1.0
  O  O135  1  0.38362288  0.19434780  0.85603010  1.0
  O  O136  1  0.38362413  0.42202940  0.64397157  1.0
  O  O137  1  0.19434796  0.38362315  0.64396968  1.0
  O  O138  1  0.42202890  0.19434936  0.64396903  1.0
  O  O139  1  0.61637558  0.57797061  0.64397167  1.0
  O  O140  1  0.80565241  0.61637687  0.64396970  1.0
  O  O141  1  0.57797137  0.80565218  0.64396971  1.0
  O  O142  1  0.19434772  0.42202792  0.14397189  1.0
  O  O143  1  0.42202870  0.38362321  0.14396928  1.0
  O  O144  1  0.38362296  0.19434788  0.14396997  1.0
  O  O145  1  0.80565353  0.57797068  0.14397129  1.0
  O  O146  1  0.57797123  0.61637538  0.14397132  1.0
  O  O147  1  0.61637857  0.80565147  0.14396870  1.0
  O  O148  1  0.61637562  0.57797064  0.35602852  1.0
  O  O149  1  0.80565387  0.61637537  0.35602913  1.0
  O  O150  1  0.57797140  0.80565222  0.35603042  1.0
  O  O151  1  0.38362416  0.42202943  0.35602842  1.0
  O  O152  1  0.19434619  0.38362546  0.35602846  1.0
  O  O153  1  0.42202893  0.19434939  0.35603103  1.0
  O  O154  1  0.94966888  0.43876160  0.90491450  1.0
  O  O155  1  0.43876121  0.61156944  0.90491391  1.0
  O  O156  1  0.61156880  0.94966929  0.90491448  1.0
  O  O157  1  0.05033077  0.56123835  0.90491447  1.0
  O  O158  1  0.56123806  0.38843127  0.90491441  1.0
  O  O159  1  0.38843019  0.05033066  0.90491450  1.0
  O  O160  1  0.38843087  0.56123917  0.59508460  1.0
  O  O161  1  0.05033105  0.38843127  0.59508533  1.0
  O  O162  1  0.56123815  0.05033071  0.59508530  1.0
  O  O163  1  0.61156951  0.43876085  0.59508475  1.0
  O  O164  1  0.94966933  0.61156875  0.59508531  1.0
  O  O165  1  0.43876157  0.94966931  0.59508598  1.0
  O  O166  1  0.05033361  0.56123691  0.09508495  1.0
  O  O167  1  0.56123853  0.38843060  0.09508554  1.0
  O  O168  1  0.38843066  0.05032999  0.09508562  1.0
  O  O169  1  0.94967001  0.43876094  0.09508498  1.0
  O  O170  1  0.43876130  0.61156953  0.09508504  1.0
  O  O171  1  0.61156747  0.94967090  0.09508560  1.0
  O  O172  1  0.61156887  0.43876088  0.40491549  1.0
  O  O173  1  0.94967002  0.61156877  0.40491476  1.0
  O  O174  1  0.43876198  0.94966856  0.40491415  1.0
  O  O175  1  0.38843127  0.56123843  0.40491535  1.0
  O  O176  1  0.05033041  0.38843129  0.40491414  1.0
  O  O177  1  0.56123817  0.05033073  0.40491476  1.0
  O  O178  1  0.76444794  0.47110440  0.74999995  1.0
  O  O179  1  0.47110474  0.76444798  0.74999995  1.0
  O  O180  1  0.76444758  0.76444801  0.74999990  1.0
  O  O181  1  0.23555279  0.52889482  0.74999986  1.0
  O  O182  1  0.52889561  0.23555200  0.75000050  1.0
  O  O183  1  0.23555210  0.23555198  0.74999991  1.0
  O  O184  1  0.23555284  0.52889488  0.25000015  1.0
  O  O185  1  0.52889500  0.23555206  0.25000015  1.0
  O  O186  1  0.23555216  0.23555204  0.25000020  1.0
  O  O187  1  0.76444800  0.47110445  0.25000023  1.0
  O  O188  1  0.47110479  0.76444804  0.24999959  1.0
  O  O189  1  0.76444764  0.76444806  0.25000019  1.0
  O  O190  1  0.13964208  0.35842883  0.00000001  1.0
  O  O191  1  0.35842832  0.50193101  0.99999996  1.0
  O  O192  1  0.50193025  0.13964075  0.99999999  1.0
  O  O193  1  0.86035882  0.64157056  0.00000001  1.0
  O  O194  1  0.64157154  0.49806915  0.00000007  1.0
  O  O195  1  0.49806999  0.86035864  0.00000004  1.0
  O  O196  1  0.49807113  0.64157048  0.50000043  1.0
  O  O197  1  0.86035979  0.49806911  0.50000039  1.0
  O  O198  1  0.64157151  0.86035935  0.50000037  1.0
  O  O199  1  0.50192861  0.35842956  0.49999967  1.0
  O  O200  1  0.13964061  0.50193094  0.49999970  1.0
  O  O201  1  0.35842851  0.13964145  0.49999973  1.0
