# generated using pymatgen
data_ZnH5C10NO4
_symmetry_space_group_name_H-M   'P 1'
_cell_length_a   10.60478365
_cell_length_b   11.87762141
_cell_length_c   13.78339459
_cell_angle_alpha   90.00218130
_cell_angle_beta   81.92520835
_cell_angle_gamma   90.00023625
_symmetry_Int_Tables_number   1
_chemical_formula_structural   ZnH5C10NO4
_chemical_formula_sum   'Zn2 H10 C20 N2 O8'
_cell_volume   1718.93796669
_cell_formula_units_Z   2
loop_
 _symmetry_equiv_pos_site_id
 _symmetry_equiv_pos_as_xyz
  1  'x, y, z'
loop_
 _atom_site_type_symbol
 _atom_site_label
 _atom_site_symmetry_multiplicity
 _atom_site_fract_x
 _atom_site_fract_y
 _atom_site_fract_z
 _atom_site_occupancy
  Zn  Zn0  1  0.62790173  0.50115794  0.50196883  1.0
  Zn  Zn1  1  0.37209317  0.50115232  0.49803891  1.0
  H  H2  1  0.66406739  0.65559654  0.89407440  1.0
  H  H3  1  0.33394530  0.44497536  0.12367641  1.0
  H  H4  1  0.75071201  0.64475164  0.99534290  1.0
  H  H5  1  0.82278610  0.60319033  0.87637253  1.0
  H  H6  1  0.75305504  0.43252946  0.97698779  1.0
  H  H7  1  0.66604591  0.44500264  0.87632623  1.0
  H  H8  1  0.33588528  0.65556848  0.10595219  1.0
  H  H9  1  0.24923880  0.64471291  0.00468063  1.0
  H  H10  1  0.17717140  0.60314310  0.12365329  1.0
  H  H11  1  0.24693329  0.43248732  0.02301909  1.0
  C  C12  1  0.50002113  0.71978308  0.50000106  1.0
  C  C13  1  0.43518199  0.48654602  0.88300588  1.0
  C  C14  1  0.50002126  0.84124931  0.49997983  1.0
  C  C15  1  0.50003611  0.16094644  0.49996201  1.0
  C  C16  1  0.50002896  0.94428762  0.49996405  1.0
  C  C17  1  0.50003809  0.05792918  0.49996084  1.0
  C  C18  1  0.06500395  0.50144806  0.49621091  1.0
  C  C19  1  0.93498434  0.50145323  0.50379099  1.0
  C  C20  1  0.68222727  0.48384868  0.94589180  1.0
  C  C21  1  0.73299314  0.60404751  0.92696880  1.0
  C  C22  1  0.31775235  0.48381659  0.05412492  1.0
  C  C23  1  0.50003592  0.28240931  0.49997492  1.0
  C  C24  1  0.26697201  0.60400428  0.07305263  1.0
  C  C25  1  0.54875038  0.49737841  0.31067647  1.0
  C  C26  1  0.45125597  0.49736214  0.68932852  1.0
  C  C27  1  0.43434319  0.49188269  0.79459181  1.0
  C  C28  1  0.56564980  0.49189860  0.20541727  1.0
  C  C29  1  0.44097794  0.48199264  0.98435002  1.0
  C  C30  1  0.55899799  0.48200102  0.01565396  1.0
  C  C31  1  0.56480150  0.48656226  0.11700328  1.0
  N  N32  1  0.17541008  0.50122585  0.48971113  1.0
  N  N33  1  0.82458290  0.50124100  0.51029753  1.0
  O  O34  1  0.60209934  0.67197694  0.51747183  1.0
  O  O35  1  0.39130325  0.33009070  0.51484631  1.0
  O  O36  1  0.39791809  0.67196821  0.48254576  1.0
  O  O37  1  0.60874641  0.33009045  0.48512769  1.0
  O  O38  1  0.64592305  0.51755781  0.35320466  1.0
  O  O39  1  0.35406329  0.51754183  0.64680015  1.0
  O  O40  1  0.43466276  0.48119574  0.35253845  1.0
  O  O41  1  0.56533121  0.48120332  0.64746873  1.0
