# generated using pymatgen
data_Al3H9C31O14
_symmetry_space_group_name_H-M   'P 1'
_cell_length_a   12.36095742
_cell_length_b   12.41832675
_cell_length_c   27.05793226
_cell_angle_alpha   82.05517581
_cell_angle_beta   89.83807875
_cell_angle_gamma   60.43940993
_symmetry_Int_Tables_number   1
_chemical_formula_structural   Al3H9C31O14
_chemical_formula_sum   'Al6 H18 C62 O28'
_cell_volume   3567.82949015
_cell_formula_units_Z   2
loop_
 _symmetry_equiv_pos_site_id
 _symmetry_equiv_pos_as_xyz
  1  'x, y, z'
loop_
 _atom_site_type_symbol
 _atom_site_label
 _atom_site_symmetry_multiplicity
 _atom_site_fract_x
 _atom_site_fract_y
 _atom_site_fract_z
 _atom_site_occupancy
  Al  Al0  1  0.40382749  0.18778685  0.48602846  1.0
  Al  Al1  1  0.40876010  0.92412014  0.50255443  1.0
  Al  Al2  1  0.65420053  0.92046047  0.50310345  1.0
  Al  Al3  1  0.92010488  0.16070918  0.01944117  1.0
  Al  Al4  1  0.66093897  0.42103132  0.00399994  1.0
  Al  Al5  1  0.89927021  0.43126549  0.00357253  1.0
  H  H6  1  0.30372181  0.18079733  0.80145737  1.0
  H  H7  1  0.60063975  0.51642562  0.22689021  1.0
  H  H8  1  0.71942989  0.79083134  0.19474334  1.0
  H  H9  1  0.70745338  0.81925946  0.28418229  1.0
  H  H10  1  0.47082559  0.28231727  0.69851781  1.0
  H  H11  1  0.46990480  0.31590561  0.78762785  1.0
  H  H12  1  0.86512660  0.05558909  0.80808397  1.0
  H  H13  1  0.95785591  0.22482805  0.69095197  1.0
  H  H14  1  0.58812502  0.54522013  0.31630126  1.0
  H  H15  1  0.92400632  0.26103115  0.77913053  1.0
  H  H16  1  0.33791047  0.14336629  0.71333473  1.0
  H  H17  1  0.04090478  0.98920873  0.76324435  1.0
  H  H18  1  0.00628022  0.86631871  0.77912405  1.0
  H  H19  1  0.09696882  0.86462921  0.72793593  1.0
  H  H20  1  0.88247515  0.93081284  0.69498564  1.0
  H  H21  1  0.91585265  0.05143457  0.67961205  1.0
  H  H22  1  0.28224475  0.39265790  0.50240529  1.0
  H  H23  1  0.00121083  0.95556616  0.00354908  1.0
  C  C24  1  0.27998493  0.10157146  0.41837254  1.0
  C  C25  1  0.69085572  0.73741540  0.22151739  1.0
  C  C26  1  0.68436081  0.75306536  0.27141886  1.0
  C  C27  1  0.64707481  0.68399324  0.30617511  1.0
  C  C28  1  0.66063058  0.65195255  0.20485019  1.0
  C  C29  1  0.66917077  0.63362113  0.15416908  1.0
  C  C30  1  0.63787021  0.70275448  0.35680003  1.0
  C  C31  1  0.67810710  0.61482928  0.11085368  1.0
  C  C32  1  0.67780778  0.21724578  0.13628621  1.0
  C  C33  1  0.66850912  0.20045036  0.18148256  1.0
  C  C34  1  0.66174398  0.18183818  0.23106588  1.0
  C  C35  1  0.60281307  0.77154436  0.44607750  1.0
  C  C36  1  0.65915223  0.16413833  0.27695856  1.0
  C  C37  1  0.65485078  0.14347181  0.32663551  1.0
  C  C38  1  0.64965466  0.12326287  0.37201385  1.0
  C  C39  1  0.10413148  0.22573630  0.13221333  1.0
  C  C40  1  0.13176884  0.20398456  0.17740991  1.0
  C  C41  1  0.15894097  0.18142383  0.22695219  1.0
  C  C42  1  0.18075002  0.16140297  0.27277523  1.0
  C  C43  1  0.20637492  0.14079253  0.32236589  1.0
  C  C44  1  0.23153285  0.12249063  0.36764732  1.0
  C  C45  1  0.67855905  0.62516009  0.87392780  1.0
  C  C46  1  0.62384346  0.09699921  0.42265040  1.0
  C  C47  1  0.66672429  0.64738910  0.82800132  1.0
  C  C48  1  0.65536175  0.66935119  0.77778092  1.0
  C  C49  1  0.64666799  0.68703530  0.73155319  1.0
  C  C50  1  0.63592544  0.70941143  0.68132760  1.0
  C  C51  1  0.62492583  0.73235373  0.63540586  1.0
  C  C52  1  0.65179662  0.11585081  0.61054699  1.0
  C  C53  1  0.55647106  0.23311324  0.72303702  1.0
  C  C54  1  0.55577763  0.25165189  0.77237381  1.0
  C  C55  1  0.77984152  0.10438456  0.78341075  1.0
  C  C56  1  0.78241227  0.08477712  0.73389303  1.0
  C  C57  1  0.26020801  0.10381858  0.55863634  1.0
  C  C58  1  0.66818009  0.15017176  0.70341368  1.0
  C  C59  1  0.66799855  0.18680298  0.80322235  1.0
  C  C60  1  0.67048062  0.20505146  0.85354470  1.0
  C  C61  1  0.66286239  0.13118947  0.65339604  1.0
  C  C62  1  0.67569661  0.22078909  0.89675827  1.0
  C  C63  1  0.20294076  0.13207268  0.60497603  1.0
  C  C64  1  0.03321766  0.21525239  0.71525945  1.0
  C  C65  1  0.01425802  0.23583625  0.76445768  1.0
  C  C66  1  0.22845722  0.19037786  0.77707889  1.0
  C  C67  1  0.24749539  0.16940665  0.72799131  1.0
  C  C68  1  0.60142596  0.78182080  0.58281814  1.0
  C  C69  1  0.15046305  0.18056949  0.69642894  1.0
  C  C70  1  0.11182439  0.22280781  0.79621647  1.0
  C  C71  1  0.09278039  0.23904284  0.84684960  1.0
  C  C72  1  0.17445868  0.15558161  0.64691404  1.0
  C  C73  1  0.07438525  0.24971995  0.89061948  1.0
  C  C74  1  0.70888476  0.23889894  0.08607506  1.0
  C  C75  1  0.70151553  0.56850713  0.06414077  1.0
  C  C76  1  0.04946692  0.25323481  0.08211453  1.0
  C  C77  1  0.69822360  0.24545151  0.94480189  1.0
  C  C78  1  0.70636061  0.57452545  0.92635048  1.0
  C  C79  1  0.61803356  0.09692640  0.56316059  1.0
  C  C80  1  0.03322124  0.26026465  0.94039605  1.0
  C  C81  1  0.62790550  0.72218907  0.40003168  1.0
  C  C82  1  0.61689678  0.59847142  0.28953600  1.0
  C  C83  1  0.62365557  0.58266830  0.23964916  1.0
  C  C84  1  0.90028600  0.99704497  0.71184354  1.0
  C  C85  1  0.01720069  0.92562646  0.74769793  1.0
  O  O86  1  0.52514698  0.17978635  0.43782764  1.0
  O  O87  1  0.49826481  0.80536104  0.56173369  1.0
  O  O88  1  0.68339467  0.80374537  0.56237041  1.0
  O  O89  1  0.69989505  0.00055383  0.54464696  1.0
  O  O90  1  0.48984558  0.00826193  0.49746824  1.0
  O  O91  1  0.03314561  0.17044149  0.06688510  1.0
  O  O92  1  0.81924367  0.16604159  0.07653519  1.0
  O  O93  1  0.62345596  0.33294159  0.05609688  1.0
  O  O94  1  0.62457378  0.53845947  0.04741682  1.0
  O  O95  1  0.80014007  0.55423758  0.04345372  1.0
  O  O96  1  0.01677242  0.36319170  0.05781257  1.0
  O  O97  1  0.30928539  0.17956264  0.42973124  1.0
  O  O98  1  0.00720181  0.17846417  0.96013394  1.0
  O  O99  1  0.79758463  0.16469477  0.97056227  1.0
  O  O100  1  0.61667030  0.35196108  0.95685858  1.0
  O  O101  1  0.62770703  0.55041087  0.94842258  1.0
  O  O102  1  0.81124798  0.55170474  0.94567544  1.0
  O  O103  1  0.02149903  0.35435983  0.95989177  1.0
  O  O104  1  0.82538613  0.34012529  0.00854614  1.0
  O  O105  1  0.29325772  0.00318868  0.44712415  1.0
  O  O106  1  0.49814882  0.79667244  0.46406298  1.0
  O  O107  1  0.68363647  0.79343480  0.46491186  1.0
  O  O108  1  0.70160578  0.98843804  0.44732932  1.0
  O  O109  1  0.50875225  0.17392797  0.54421556  1.0
  O  O110  1  0.28685009  0.18220226  0.53558819  1.0
  O  O111  1  0.28520848  0.99807014  0.54568751  1.0
  O  O112  1  0.32659410  0.35132933  0.47512145  1.0
  O  O113  1  0.00724784  0.99731112  0.03014392  1.0
