# generated using pymatgen
data_ZnH12C15(NO)4
_symmetry_space_group_name_H-M   'P 1'
_cell_length_a   9.83483736
_cell_length_b   10.96348067
_cell_length_c   13.98006731
_cell_angle_alpha   86.43561321
_cell_angle_beta   82.34313597
_cell_angle_gamma   87.23617176
_symmetry_Int_Tables_number   1
_chemical_formula_structural   ZnH12C15(NO)4
_chemical_formula_sum   'Zn2 H24 C30 N8 O8'
_cell_volume   1489.84164909
_cell_formula_units_Z   2
loop_
 _symmetry_equiv_pos_site_id
 _symmetry_equiv_pos_as_xyz
  1  'x, y, z'
loop_
 _atom_site_type_symbol
 _atom_site_label
 _atom_site_symmetry_multiplicity
 _atom_site_fract_x
 _atom_site_fract_y
 _atom_site_fract_z
 _atom_site_occupancy
  Zn  Zn0  1  0.65164061  0.51700604  0.49959207  1.0
  Zn  Zn1  1  0.35122855  0.53089141  0.51098454  1.0
  H  H2  1  0.65332620  0.55061776  0.98217320  1.0
  H  H3  1  0.81825407  0.18690353  0.66198506  1.0
  H  H4  1  0.73829177  0.28438253  0.57695569  1.0
  H  H5  1  0.67885966  0.29131374  0.70207805  1.0
  H  H6  1  0.80565145  0.52772321  0.24823692  1.0
  H  H7  1  0.92144668  0.34960549  0.18973645  1.0
  H  H8  1  0.92000610  0.34018536  0.31757892  1.0
  H  H9  1  0.07030200  0.38601212  0.24006701  1.0
  H  H10  1  0.29657922  0.96410150  0.70859737  1.0
  H  H11  1  0.12487581  0.92661128  0.60549093  1.0
  H  H12  1  0.14470196  0.80345566  0.69411719  1.0
  H  H13  1  0.88228492  0.67750594  0.32528312  1.0
  H  H14  1  0.22245748  0.79143764  0.57255787  1.0
  H  H15  1  0.66712345  0.79472731  0.32095783  1.0
  H  H16  1  0.91087687  0.84458388  0.23595273  1.0
  H  H17  1  0.81814514  0.96564462  0.17797297  1.0
  H  H18  1  0.78013832  0.81111128  0.16555779  1.0
  H  H19  1  0.17232545  0.56094484  0.27724832  1.0
  H  H20  1  0.12775792  0.71026871  0.32062525  1.0
  H  H21  1  0.35721753  0.46154422  0.03015072  1.0
  H  H22  1  0.33315187  0.14019919  0.61656137  1.0
  H  H23  1  0.81417561  0.13477776  0.38591201  1.0
  H  H24  1  0.11790626  0.45103874  0.64652545  1.0
  H  H25  1  0.92688903  0.35695587  0.71032532  1.0
  C  C26  1  0.52332040  0.75438502  0.51985310  1.0
  C  C27  1  0.72861237  0.94386801  0.37949941  1.0
  C  C28  1  0.07968843  0.55849543  0.42992152  1.0
  C  C29  1  0.52217390  0.54850403  0.31831184  1.0
  C  C30  1  0.06744243  0.47602933  0.58271754  1.0
  C  C31  1  0.92950646  0.44263807  0.58000715  1.0
  C  C32  1  0.94334530  0.53451743  0.42915585  1.0
  C  C33  1  0.94319401  0.59114320  0.32482727  1.0
  C  C34  1  0.10140213  0.61365867  0.32795756  1.0
  C  C35  1  0.49573277  0.29174514  0.49728436  1.0
  C  C36  1  0.45393161  0.50013513  0.69320835  1.0
  C  C37  1  0.53798871  0.54418289  0.21461174  1.0
  C  C38  1  0.45302147  0.48936548  0.79677851  1.0
  C  C39  1  0.45153435  0.48796028  0.98452038  1.0
  C  C40  1  0.55827358  0.52504767  0.02720150  1.0
  C  C41  1  0.54950029  0.53448238  0.12736560  1.0
  C  C42  1  0.45443859  0.48636954  0.88409579  1.0
  C  C43  1  0.77036927  0.27829400  0.64914897  1.0
  C  C44  1  0.95744200  0.39316882  0.24977633  1.0
  C  C45  1  0.19621997  0.85420552  0.63038597  1.0
  C  C46  1  0.68969263  0.14700448  0.27565022  1.0
  C  C47  1  0.80905157  0.87510111  0.21591190  1.0
  C  C48  1  0.60686937  0.95933479  0.45891757  1.0
  C  C49  1  0.85799914  0.90230206  0.41669140  1.0
  C  C50  1  0.51467726  0.89077027  0.52180012  1.0
  C  C51  1  0.41451666  0.95982112  0.58195103  1.0
  C  C52  1  0.41263470  0.08879764  0.57172506  1.0
  C  C53  1  0.50475815  0.15562049  0.50561143  1.0
  C  C54  1  0.60318773  0.08580139  0.44991855  1.0
  C  C55  1  0.72148628  0.09365127  0.36798163  1.0
  N  N56  1  0.14338219  0.53351871  0.50846827  1.0
  N  N57  1  0.86180927  0.48000785  0.50266626  1.0
  N  N58  1  0.86949522  0.37125426  0.65523659  1.0
  N  N59  1  0.90960371  0.52128239  0.24808880  1.0
  N  N60  1  0.32266028  0.90349700  0.65612546  1.0
  N  N61  1  0.66576480  0.19258778  0.20179078  1.0
  N  N62  1  0.70005368  0.88000774  0.29799296  1.0
  N  N63  1  0.96266342  0.86785407  0.44146855  1.0
  O  O64  1  0.64103314  0.70164153  0.52268733  1.0
  O  O65  1  0.41312821  0.70378770  0.50960849  1.0
  O  O66  1  0.62856847  0.57442715  0.35584039  1.0
  O  O67  1  0.40446988  0.52547867  0.36311078  1.0
  O  O68  1  0.60708403  0.34455798  0.46493402  1.0
  O  O69  1  0.38042159  0.34417928  0.52418712  1.0
  O  O70  1  0.57099440  0.48571394  0.64280488  1.0
  O  O71  1  0.33919860  0.52267784  0.66196237  1.0
