# generated using pymatgen
data_Zn2H24C50SN2O21
_symmetry_space_group_name_H-M   'P 1'
_cell_length_a   16.51957002
_cell_length_b   17.88737611
_cell_length_c   33.13448588
_cell_angle_alpha   89.75864947
_cell_angle_beta   90.57652340
_cell_angle_gamma   89.99208545
_symmetry_Int_Tables_number   1
_chemical_formula_structural   Zn2H24C50SN2O21
_chemical_formula_sum   'Zn4 H48 C100 S2 N4 O42'
_cell_volume   9790.38494308
_cell_formula_units_Z   2
loop_
 _symmetry_equiv_pos_site_id
 _symmetry_equiv_pos_as_xyz
  1  'x, y, z'
loop_
 _atom_site_type_symbol
 _atom_site_label
 _atom_site_symmetry_multiplicity
 _atom_site_fract_x
 _atom_site_fract_y
 _atom_site_fract_z
 _atom_site_occupancy
  Zn  Zn0  1  0.41591660  0.49858279  0.50052855  1.0
  Zn  Zn1  1  0.58471815  0.50143302  0.50112972  1.0
  Zn  Zn2  1  0.58380731  0.49586552  0.96183270  1.0
  Zn  Zn3  1  0.41497951  0.49851865  0.96121623  1.0
  H  H4  1  0.71595206  0.41618567  0.54142572  1.0
  H  H5  1  0.86770756  0.41111185  0.54093751  1.0
  H  H6  1  0.71141032  0.58415841  0.45471572  1.0
  H  H7  1  0.28903033  0.39928692  0.53531009  1.0
  H  H8  1  0.28392009  0.59612199  0.46865339  1.0
  H  H9  1  0.13172903  0.59564937  0.46592386  1.0
  H  H10  1  0.36976953  0.25772140  0.50716272  1.0
  H  H11  1  0.37435976  0.11893237  0.50435900  1.0
  H  H12  1  0.62902489  0.26492159  0.49632101  1.0
  H  H13  1  0.36402919  0.73726225  0.49324309  1.0
  H  H14  1  0.62418106  0.73973859  0.49958027  1.0
  H  H15  1  0.62206363  0.87893772  0.49813173  1.0
  H  H16  1  0.63684790  0.49796093  0.63165665  1.0
  H  H17  1  0.70805616  0.50095986  0.69787223  1.0
  H  H18  1  0.37827290  0.49663943  0.62529979  1.0
  H  H19  1  0.36300301  0.49847150  0.83072806  1.0
  H  H20  1  0.29179721  0.50164402  0.76449126  1.0
  H  H21  1  0.62158714  0.49573200  0.83708551  1.0
  H  H22  1  0.62751235  0.48893952  0.09182752  1.0
  H  H23  1  0.62465127  0.49428203  0.16703650  1.0
  H  H24  1  0.36773670  0.50327193  0.08827519  1.0
  H  H25  1  0.63225419  0.50713157  0.37424509  1.0
  H  H26  1  0.37247114  0.49284918  0.37046163  1.0
  H  H27  1  0.37580843  0.49628625  0.29519906  1.0
  H  H28  1  0.28372830  0.41371783  0.92080532  1.0
  H  H29  1  0.13192644  0.40905456  0.92113812  1.0
  H  H30  1  0.28835752  0.58059048  0.00737166  1.0
  H  H31  1  0.71073710  0.39704232  0.92710854  1.0
  H  H32  1  0.71575002  0.59336448  0.99330900  1.0
  H  H33  1  0.86794981  0.59299630  0.99594233  1.0
  H  H34  1  0.63033162  0.25545081  0.95372817  1.0
  H  H35  1  0.62613952  0.11655354  0.95615355  1.0
  H  H36  1  0.37107478  0.26182452  0.96471573  1.0
  H  H37  1  0.63565125  0.73416398  0.96885889  1.0
  H  H38  1  0.37552670  0.73732020  0.96231616  1.0
  H  H39  1  0.37803471  0.87651055  0.96283380  1.0
  H  H40  1  0.96892555  0.55335103  0.44179016  1.0
  H  H41  1  0.02693793  0.41045469  0.53930444  1.0
  H  H42  1  0.61750338  0.02368134  0.49035307  1.0
  H  H43  1  0.37943031  0.97857584  0.49208863  1.0
  H  H44  1  0.38204515  0.51532480  0.21854978  1.0
  H  H45  1  0.61867096  0.51580543  0.24378977  1.0
  H  H46  1  0.03071977  0.55008315  0.02014942  1.0
  H  H47  1  0.97277929  0.40870208  0.92274803  1.0
  H  H48  1  0.38322054  0.02040496  0.96976462  1.0
  H  H49  1  0.62104474  0.97548142  0.96838786  1.0
  H  H50  1  0.70515742  0.59224117  0.82230586  1.0
  H  H51  1  0.29494128  0.59279140  0.63962700  1.0
  C  C52  1  0.49731536  0.35411841  0.50227687  1.0
  C  C53  1  0.50898758  0.50050828  0.57944742  1.0
  C  C54  1  0.49536925  0.64572574  0.49834147  1.0
  C  C55  1  0.50078065  0.49946052  0.42227349  1.0
  C  C56  1  0.50255332  0.35140266  0.95914801  1.0
  C  C57  1  0.49083831  0.49990968  0.88291238  1.0
  C  C58  1  0.50415457  0.64293861  0.96429448  1.0
  C  C59  1  0.49895983  0.49482362  0.04009917  1.0
  C  C60  1  0.75130847  0.45259941  0.52188645  1.0
  C  C61  1  0.83507465  0.45020056  0.52146015  1.0
  C  C62  1  0.87741240  0.49910936  0.49568690  1.0
  C  C63  1  0.83251346  0.54886527  0.47072009  1.0
  C  C64  1  0.74811805  0.54674409  0.47344815  1.0
  C  C65  1  0.96311007  0.49715853  0.49652655  1.0
  C  C66  1  0.03694633  0.49341921  0.49900494  1.0
  C  C67  1  0.12266689  0.49282894  0.50085932  1.0
  C  C68  1  0.16777883  0.43623954  0.52098111  1.0
  C  C69  1  0.25218573  0.44205734  0.52044805  1.0
  C  C70  1  0.24862329  0.55191493  0.48286460  1.0
  C  C71  1  0.16477500  0.55131475  0.48155831  1.0
  C  C72  1  0.49918031  0.27027927  0.50158280  1.0
  C  C73  1  0.42737941  0.22874363  0.50409853  1.0
  C  C74  1  0.43011655  0.15133682  0.50258680  1.0
  C  C75  1  0.50471549  0.11325397  0.49887105  1.0
  C  C76  1  0.57780488  0.15517218  0.49697053  1.0
  C  C77  1  0.57305356  0.23306887  0.49817281  1.0
  C  C78  1  0.50211367  0.03417430  0.49729420  1.0
  C  C79  1  0.49492159  0.96591440  0.49606400  1.0
  C  C80  1  0.49134777  0.88682144  0.49554076  1.0
  C  C81  1  0.41740249  0.84602630  0.49388421  1.0
  C  C82  1  0.42085853  0.76799535  0.49443590  1.0
  C  C83  1  0.49428241  0.72957167  0.49677443  1.0
  C  C84  1  0.56699726  0.76998588  0.49796774  1.0
  C  C85  1  0.56558945  0.84746111  0.49718675  1.0
  C  C86  1  0.57906581  0.49801163  0.64725312  1.0
  C  C87  1  0.57693103  0.49759971  0.68954411  1.0
  C  C88  1  0.64989870  0.49909130  0.71311144  1.0
  C  C89  1  0.43253361  0.49895934  0.64413575  1.0
  C  C90  1  0.42729689  0.49866409  0.68634168  1.0
  C  C91  1  0.35198143  0.50048438  0.70806419  1.0
  C  C92  1  0.42079048  0.49826706  0.81511384  1.0
  C  C93  1  0.42293840  0.49789239  0.77283067  1.0
  C  C94  1  0.34995589  0.49963775  0.74925974  1.0
  C  C95  1  0.56734586  0.49847717  0.81824471  1.0
  C  C96  1  0.57258280  0.49831344  0.77603980  1.0
  C  C97  1  0.64788870  0.49996936  0.75430442  1.0
  C  C98  1  0.50726795  0.49912254  0.62474601  1.0
  C  C99  1  0.50079747  0.49786146  0.70971778  1.0
  C  C100  1  0.49260026  0.49890490  0.83762134  1.0
  C  C101  1  0.49909187  0.49784644  0.75266293  1.0
  C  C102  1  0.49791353  0.49621434  0.08534933  1.0
  C  C103  1  0.57031104  0.49331462  0.10771530  1.0
  C  C104  1  0.56849056  0.49614317  0.14950573  1.0
  C  C105  1  0.49405319  0.50118353  0.17004228  1.0
  C  C106  1  0.42033537  0.50349316  0.14747854  1.0
  C  C107  1  0.42424394  0.50119347  0.10543268  1.0
  C  C108  1  0.49706752  0.50302465  0.21270103  1.0
  C  C109  1  0.50361490  0.50361100  0.24962181  1.0
  C  C110  1  0.50643800  0.50306601  0.29230307  1.0
  C  C111  1  0.58002093  0.50591029  0.31495244  1.0
  C  C112  1  0.57586173  0.50473984  0.35702574  1.0
  C  C113  1  0.50203967  0.50027366  0.37702755  1.0
  C  C114  1  0.42977225  0.49685662  0.35459149  1.0
  C  C115  1  0.43187384  0.49863031  0.31279022  1.0
  C  C116  1  0.24839735  0.44998728  0.94027736  1.0
  C  C117  1  0.16460785  0.44780801  0.94062500  1.0
  C  C118  1  0.12231992  0.49646385  0.96633870  1.0
  C  C119  1  0.16722202  0.54576299  0.99132851  1.0
  C  C120  1  0.25163258  0.54348940  0.98865612  1.0
  C  C121  1  0.03660662  0.49472043  0.96545014  1.0
  C  C122  1  0.96276668  0.49111203  0.96299921  1.0
  C  C123  1  0.87705178  0.49050424  0.96118069  1.0
  C  C124  1  0.83197711  0.43403918  0.94120711  1.0
  C  C125  1  0.74757175  0.43972342  0.94183931  1.0
  C  C126  1  0.75108138  0.54928226  0.97919076  1.0
  C  C127  1  0.83492719  0.54876433  0.98042166  1.0
  C  C128  1  0.50089942  0.26755801  0.95941178  1.0
  C  C129  1  0.57280296  0.22624854  0.95671912  1.0
  C  C130  1  0.57028361  0.14878624  0.95802416  1.0
  C  C131  1  0.49579506  0.11047270  0.96169689  1.0
  C  C132  1  0.42257941  0.15219457  0.96374142  1.0
  C  C133  1  0.42712931  0.23012523  0.96272716  1.0
  C  C134  1  0.49853822  0.03139986  0.96324221  1.0
  C  C135  1  0.50548780  0.96309923  0.96461420  1.0
  C  C136  1  0.50878672  0.88403671  0.96553498  1.0
  C  C137  1  0.58259791  0.84304321  0.96746785  1.0
  C  C138  1  0.57891315  0.76503693  0.96746216  1.0
  C  C139  1  0.50539434  0.72679073  0.96536518  1.0
  C  C140  1  0.43280292  0.76740540  0.96380243  1.0
  C  C141  1  0.43442013  0.84487724  0.96405819  1.0
  C  C142  1  0.86633136  0.60620712  0.44196357  1.0
  C  C143  1  0.13479226  0.36815984  0.54232098  1.0
  C  C144  1  0.66216791  0.12357885  0.49392268  1.0
  C  C145  1  0.33340881  0.87900892  0.49157344  1.0
  C  C146  1  0.33619227  0.50798789  0.16465298  1.0
  C  C147  1  0.66424353  0.50973827  0.29782860  1.0
  C  C148  1  0.13345704  0.60268670  0.02007820  1.0
  C  C149  1  0.86502702  0.36626158  0.91991790  1.0
  C  C150  1  0.33830683  0.12033369  0.96681497  1.0
  C  C151  1  0.66670100  0.87576399  0.96950439  1.0
  S  S152  1  0.74277319  0.50851719  0.78002637  1.0
  S  S153  1  0.25713285  0.50917682  0.68229417  1.0
  N  N154  1  0.70889439  0.50027987  0.49828013  1.0
  N  N155  1  0.29132521  0.49798793  0.50202503  1.0
  N  N156  1  0.29082486  0.49726790  0.96389587  1.0
  N  N157  1  0.70841386  0.49544683  0.96019909  1.0
  O  O158  1  0.42899753  0.38503800  0.50824479  1.0
  O  O159  1  0.56408119  0.38785964  0.49656394  1.0
  O  O160  1  0.57724397  0.49020884  0.56282250  1.0
  O  O161  1  0.44185684  0.51220074  0.56126676  1.0
  O  O162  1  0.56327580  0.61478160  0.50585294  1.0
  O  O163  1  0.42824530  0.61226014  0.49225068  1.0
  O  O164  1  0.43332439  0.48609293  0.43912087  1.0
  O  O165  1  0.56778891  0.51253715  0.44017188  1.0
  O  O166  1  0.57089675  0.38261898  0.95352768  1.0
  O  O167  1  0.43564769  0.38479871  0.96485800  1.0
  O  O168  1  0.42250872  0.48953346  0.89949147  1.0
  O  O169  1  0.55793501  0.51131637  0.90111475  1.0
  O  O170  1  0.43613484  0.61207374  0.95711348  1.0
  O  O171  1  0.57125916  0.60935859  0.97040139  1.0
  O  O172  1  0.56640319  0.48175838  0.02322344  1.0
  O  O173  1  0.43173713  0.50736522  0.02221271  1.0
  O  O174  1  0.94371379  0.59765445  0.42943541  1.0
  O  O175  1  0.82549410  0.65846825  0.43007341  1.0
  O  O176  1  0.05455100  0.36601347  0.55029105  1.0
  O  O177  1  0.17884243  0.31666915  0.55216325  1.0
  O  O178  1  0.67080349  0.04847382  0.49039850  1.0
  O  O179  1  0.72193944  0.16353443  0.49458268  1.0
  O  O180  1  0.32575156  0.95447392  0.49094193  1.0
  O  O181  1  0.27309645  0.83975609  0.49021183  1.0
  O  O182  1  0.32840218  0.51462802  0.20522095  1.0
  O  O183  1  0.27594167  0.50590187  0.14315648  1.0
  O  O184  1  0.67223876  0.51532704  0.25719251  1.0
  O  O185  1  0.72439417  0.50801538  0.31940295  1.0
  O  O186  1  0.05604355  0.59406510  0.03258037  1.0
  O  O187  1  0.17438345  0.65467653  0.03199098  1.0
  O  O188  1  0.94522702  0.36434249  0.91185048  1.0
  O  O189  1  0.82107456  0.31480505  0.91018652  1.0
  O  O190  1  0.32986598  0.04508908  0.96992197  1.0
  O  O191  1  0.27844647  0.16019588  0.96653030  1.0
  O  O192  1  0.67463734  0.95119569  0.96961655  1.0
  O  O193  1  0.72686270  0.83630023  0.97106091  1.0
  O  O194  1  0.73702241  0.59302967  0.79750609  1.0
  O  O195  1  0.80600995  0.51161629  0.75084550  1.0
  O  O196  1  0.74632289  0.45766055  0.81387089  1.0
  O  O197  1  0.26306215  0.59366832  0.66441941  1.0
  O  O198  1  0.19388879  0.51242079  0.71145461  1.0
  O  O199  1  0.25353487  0.45829317  0.64869683  1.0
