# generated using pymatgen
data_ZnH16C25N2O5
_symmetry_space_group_name_H-M   'P 1'
_cell_length_a   14.63227599
_cell_length_b   14.63228516
_cell_length_c   16.46944600
_cell_angle_alpha   100.99527141
_cell_angle_beta   100.99515007
_cell_angle_gamma   119.16075888
_symmetry_Int_Tables_number   1
_chemical_formula_structural   ZnH16C25N2O5
_chemical_formula_sum   'Zn4 H64 C100 N8 O20'
_cell_volume   2852.43365041
_cell_formula_units_Z   4
loop_
 _symmetry_equiv_pos_site_id
 _symmetry_equiv_pos_as_xyz
  1  'x, y, z'
loop_
 _atom_site_type_symbol
 _atom_site_label
 _atom_site_symmetry_multiplicity
 _atom_site_fract_x
 _atom_site_fract_y
 _atom_site_fract_z
 _atom_site_occupancy
  Zn  Zn0  1  0.41455911  0.42623863  0.14189615  1.0
  Zn  Zn1  1  0.57376146  0.58544149  0.35810348  1.0
  Zn  Zn2  1  0.58544164  0.57376178  0.85810521  1.0
  Zn  Zn3  1  0.42623815  0.41455809  0.64189573  1.0
  H  H4  1  0.22453283  0.19647863  0.01910542  1.0
  H  H5  1  0.80352155  0.77546794  0.48089299  1.0
  H  H6  1  0.77546722  0.80352179  0.98089339  1.0
  H  H7  1  0.19647801  0.22453413  0.51910602  1.0
  H  H8  1  0.10900915  0.11039746  0.85891346  1.0
  H  H9  1  0.88960276  0.89099114  0.64108643  1.0
  H  H10  1  0.89099135  0.88960378  0.14108679  1.0
  H  H11  1  0.11039684  0.10900844  0.35891399  1.0
  H  H12  1  0.29200858  0.43650759  0.83609474  1.0
  H  H13  1  0.56349230  0.70799077  0.66390446  1.0
  H  H14  1  0.70799287  0.56349283  0.16390492  1.0
  H  H15  1  0.43650615  0.29200799  0.33609441  1.0
  H  H16  1  0.39528973  0.50901355  0.99611944  1.0
  H  H17  1  0.49098656  0.60470950  0.50388035  1.0
  H  H18  1  0.60471147  0.49098769  0.00388032  1.0
  H  H19  1  0.50901534  0.39529174  0.49612074  1.0
  H  H20  1  0.15834003  0.29105522  0.70912066  1.0
  H  H21  1  0.70894450  0.84165970  0.79087857  1.0
  H  H22  1  0.84166027  0.70894437  0.29087806  1.0
  H  H23  1  0.29105510  0.15833988  0.20912185  1.0
  H  H24  1  0.97145768  0.21391737  0.61735770  1.0
  H  H25  1  0.78608222  0.02854132  0.88264112  1.0
  H  H26  1  0.02854237  0.78608304  0.38264233  1.0
  H  H27  1  0.21391694  0.97145744  0.11735727  1.0
  H  H28  1  0.09540264  0.97073891  0.64784328  1.0
  H  H29  1  0.02926059  0.90459707  0.85215602  1.0
  H  H30  1  0.90459696  0.02926067  0.35215714  1.0
  H  H31  1  0.97073831  0.09540251  0.14784246  1.0
  H  H32  1  0.10045508  0.82727244  0.54349092  1.0
  H  H33  1  0.17272684  0.89954396  0.95650869  1.0
  H  H34  1  0.89954427  0.17272797  0.45650959  1.0
  H  H35  1  0.82727161  0.10045479  0.04348957  1.0
  H  H36  1  0.69260503  0.37337339  0.12263037  1.0
  H  H37  1  0.62662513  0.30739349  0.37736771  1.0
  H  H38  1  0.30739502  0.62662702  0.87737209  1.0
  H  H39  1  0.37337333  0.69260527  0.62263056  1.0
  H  H40  1  0.78803344  0.27059389  0.11680301  1.0
  H  H41  1  0.72940627  0.21196641  0.38319659  1.0
  H  H42  1  0.21196776  0.72940735  0.88319978  1.0
  H  H43  1  0.27059288  0.78803234  0.61680057  1.0
  H  H44  1  0.51873894  0.00274542  0.16133121  1.0
  H  H45  1  0.99725535  0.48126137  0.33866919  1.0
  H  H46  1  0.48125976  0.99725251  0.83866757  1.0
  H  H47  1  0.00274610  0.51873904  0.66133047  1.0
  H  H48  1  0.42321839  0.10509579  0.16454367  1.0
  H  H49  1  0.89490411  0.57678116  0.33545664  1.0
  H  H50  1  0.57678101  0.89490213  0.83545522  1.0
  H  H51  1  0.10509619  0.42321843  0.66454390  1.0
  H  H52  1  0.76546599  0.06381673  0.29159534  1.0
  H  H53  1  0.93618307  0.23453313  0.20840512  1.0
  H  H54  1  0.23453362  0.93618285  0.70840508  1.0
  H  H55  1  0.06381653  0.76546645  0.79159469  1.0
  H  H56  1  0.69341678  0.88402950  0.32384833  1.0
  H  H57  1  0.11597002  0.30658265  0.17615178  1.0
  H  H58  1  0.30658237  0.11596926  0.67615127  1.0
  H  H59  1  0.88402889  0.69341693  0.82384852  1.0
  H  H60  1  0.50577615  0.70285331  0.05040283  1.0
  H  H61  1  0.29714698  0.49422503  0.44959711  1.0
  H  H62  1  0.49422644  0.29714794  0.94959716  1.0
  H  H63  1  0.70285193  0.50577455  0.55040319  1.0
  H  H64  1  0.57804791  0.88138376  0.01838344  1.0
  H  H65  1  0.11861733  0.42195298  0.48161669  1.0
  H  H66  1  0.42195468  0.11861749  0.98161655  1.0
  H  H67  1  0.88138182  0.57804577  0.51838291  1.0
  C  C68  1  0.23423742  0.24615071  0.97597865  1.0
  C  C69  1  0.75385016  0.76576331  0.52402143  1.0
  C  C70  1  0.76576377  0.75385053  0.02402172  1.0
  C  C71  1  0.24614919  0.23423710  0.47597787  1.0
  C  C72  1  0.17128458  0.19897337  0.88766137  1.0
  C  C73  1  0.80102526  0.82871472  0.61233810  1.0
  C  C74  1  0.82871572  0.80102622  0.11233856  1.0
  C  C75  1  0.19897295  0.17128486  0.38766147  1.0
  C  C76  1  0.19031030  0.26707237  0.83511450  1.0
  C  C77  1  0.73292804  0.80968941  0.66488600  1.0
  C  C78  1  0.80969089  0.73292887  0.16488647  1.0
  C  C79  1  0.26707086  0.19031017  0.33511430  1.0
  C  C80  1  0.27148231  0.38062903  0.87447605  1.0
  C  C81  1  0.61936931  0.72851736  0.62552352  1.0
  C  C82  1  0.72851893  0.61936973  0.12552390  1.0
  C  C83  1  0.38063118  0.27148388  0.37447734  1.0
  C  C84  1  0.33067378  0.42159797  0.96318825  1.0
  C  C85  1  0.57840096  0.66932608  0.53681143  1.0
  C  C86  1  0.66932767  0.57840244  0.03681202  1.0
  C  C87  1  0.42159724  0.33067350  0.46318814  1.0
  C  C88  1  0.13422551  0.22663872  0.74057831  1.0
  C  C89  1  0.77336121  0.86577397  0.75942087  1.0
  C  C90  1  0.86577524  0.77336169  0.25942123  1.0
  C  C91  1  0.22663795  0.13422479  0.24057812  1.0
  C  C92  1  0.97442427  0.15143583  0.57187849  1.0
  C  C93  1  0.84856425  0.02557502  0.92812162  1.0
  C  C94  1  0.02557533  0.84856375  0.42812193  1.0
  C  C95  1  0.15143535  0.97442456  0.07187759  1.0
  C  C96  1  0.02074814  0.09730691  0.60508601  1.0
  C  C97  1  0.90269172  0.97924987  0.89491329  1.0
  C  C98  1  0.97925147  0.90269267  0.39491380  1.0
  C  C99  1  0.09730628  0.02074805  0.10508597  1.0
  C  C100  1  0.02150559  0.01194747  0.54622450  1.0
  C  C101  1  0.98805133  0.97849335  0.95377490  1.0
  C  C102  1  0.97849446  0.98805294  0.45377553  1.0
  C  C103  1  0.01194598  0.02150457  0.04622363  1.0
  C  C104  1  0.06503730  0.95263349  0.57737703  1.0
  C  C105  1  0.04736533  0.93496119  0.92262257  1.0
  C  C106  1  0.93496230  0.04736609  0.42262339  1.0
  C  C107  1  0.95263268  0.06503673  0.07737608  1.0
  C  C108  1  0.06786889  0.87332421  0.51908211  1.0
  C  C109  1  0.12667579  0.93213026  0.98091772  1.0
  C  C110  1  0.93213071  0.12667537  0.48091831  1.0
  C  C111  1  0.87332336  0.06786849  0.01908127  1.0
  C  C112  1  0.49239625  0.30379995  0.14586866  1.0
  C  C113  1  0.69619912  0.50760306  0.35412977  1.0
  C  C114  1  0.50760450  0.69620046  0.85413391  1.0
  C  C115  1  0.30380253  0.49239901  0.64586960  1.0
  C  C116  1  0.55182370  0.24557384  0.14409413  1.0
  C  C117  1  0.75442523  0.44817499  0.35590469  1.0
  C  C118  1  0.44817750  0.75442740  0.85590745  1.0
  C  C119  1  0.24557462  0.55182377  0.64409442  1.0
  C  C120  1  0.65479223  0.29193898  0.13052128  1.0
  C  C121  1  0.70805985  0.34520619  0.36947679  1.0
  C  C122  1  0.34520852  0.70806143  0.86948130  1.0
  C  C123  1  0.29193905  0.65479339  0.63052108  1.0
  C  C124  1  0.70802435  0.23519819  0.12723940  1.0
  C  C125  1  0.76480090  0.29197485  0.37275935  1.0
  C  C126  1  0.29197710  0.76480222  0.87276269  1.0
  C  C127  1  0.23519710  0.70802307  0.62723870  1.0
  C  C128  1  0.65885644  0.13122488  0.13873231  1.0
  C  C129  1  0.86877501  0.34114311  0.36126779  1.0
  C  C130  1  0.34114202  0.86877387  0.86126778  1.0
  C  C131  1  0.13122504  0.65885730  0.63873224  1.0
  C  C132  1  0.55623443  0.08353999  0.15238420  1.0
  C  C133  1  0.91645988  0.44376530  0.34761598  1.0
  C  C134  1  0.44376562  0.91646042  0.84761643  1.0
  C  C135  1  0.08353972  0.55623428  0.65238383  1.0
  C  C136  1  0.50346599  0.14095743  0.15451091  1.0
  C  C137  1  0.85904281  0.49653325  0.34548876  1.0
  C  C138  1  0.49653222  0.85904215  0.84548988  1.0
  C  C139  1  0.14095794  0.50346716  0.65451078  1.0
  C  C140  1  0.67471194  0.98071270  0.15373007  1.0
  C  C141  1  0.01928717  0.32528804  0.34627031  1.0
  C  C142  1  0.32528950  0.01928772  0.84627020  1.0
  C  C143  1  0.98071128  0.67471071  0.65372977  1.0
  C  C144  1  0.70837883  0.98382677  0.23984712  1.0
  C  C145  1  0.01617365  0.29162100  0.26015391  1.0
  C  C146  1  0.29162192  0.01617364  0.76015364  1.0
  C  C147  1  0.98382526  0.70837858  0.73984640  1.0
  C  C148  1  0.66816515  0.88433297  0.25734696  1.0
  C  C149  1  0.11566730  0.33183476  0.24265278  1.0
  C  C150  1  0.33183445  0.11566661  0.74265225  1.0
  C  C151  1  0.88433206  0.66816565  0.75734713  1.0
  C  C152  1  0.59475561  0.78268185  0.18942909  1.0
  C  C153  1  0.21731815  0.40524564  0.31057141  1.0
  C  C154  1  0.40524584  0.21731856  0.81057117  1.0
  C  C155  1  0.78268050  0.59475477  0.68942838  1.0
  C  C156  1  0.56236441  0.78171623  0.10327341  1.0
  C  C157  1  0.21828390  0.43763706  0.39672657  1.0
  C  C158  1  0.43763678  0.21828501  0.89672635  1.0
  C  C159  1  0.78171476  0.56236334  0.60327322  1.0
  C  C160  1  0.60245876  0.88081742  0.08496177  1.0
  C  C161  1  0.11918391  0.39754233  0.41503902  1.0
  C  C162  1  0.39754428  0.11918465  0.91503844  1.0
  C  C163  1  0.88081499  0.60245725  0.58496129  1.0
  C  C164  1  0.55380777  0.67676091  0.20990464  1.0
  C  C165  1  0.32323860  0.44619319  0.29009445  1.0
  C  C166  1  0.44619252  0.32323868  0.79009469  1.0
  C  C167  1  0.67675961  0.55380639  0.70990452  1.0
  N  N168  1  0.31293377  0.35589938  0.01340842  1.0
  N  N169  1  0.64409963  0.68706604  0.48659031  1.0
  N  N170  1  0.68706723  0.64410021  0.98659102  1.0
  N  N171  1  0.35589992  0.31293603  0.51340870  1.0
  N  N172  1  0.06747708  0.12303529  0.69517801  1.0
  N  N173  1  0.87696471  0.93252191  0.80482107  1.0
  N  N174  1  0.93252297  0.87696512  0.30482202  1.0
  N  N175  1  0.12303444  0.06747684  0.19517792  1.0
  O  O176  1  0.54283980  0.40499832  0.14525665  1.0
  O  O177  1  0.59499919  0.45715877  0.35473658  1.0
  O  O178  1  0.45716279  0.59500293  0.85474638  1.0
  O  O179  1  0.40500156  0.54284164  0.64526235  1.0
  O  O180  1  0.39366561  0.25453590  0.14640888  1.0
  O  O181  1  0.74546552  0.60633507  0.35359327  1.0
  O  O182  1  0.60633514  0.74546451  0.85359248  1.0
  O  O183  1  0.25453503  0.39366368  0.64640656  1.0
  O  O184  1  0.71735467  0.08073434  0.13620064  1.0
  O  O185  1  0.91926566  0.28264595  0.36380016  1.0
  O  O186  1  0.28264608  0.91926607  0.86379951  1.0
  O  O187  1  0.08073325  0.71735363  0.63620014  1.0
  O  O188  1  0.59174216  0.68627912  0.28950272  1.0
  O  O189  1  0.31372209  0.40825950  0.21049857  1.0
  O  O190  1  0.40825903  0.31372212  0.71049825  1.0
  O  O191  1  0.68627682  0.59174008  0.78950112  1.0
  O  O192  1  0.48563313  0.58621535  0.14681932  1.0
  O  O193  1  0.41378555  0.51436874  0.35318135  1.0
  O  O194  1  0.51436832  0.41378507  0.85318094  1.0
  O  O195  1  0.58621405  0.48563084  0.64681846  1.0
