# generated using pymatgen
data_Al3H4C42I5N5O14
_symmetry_space_group_name_H-M   'P 1'
_cell_length_a   13.01017120
_cell_length_b   13.37235891
_cell_length_c   28.44492984
_cell_angle_alpha   90.04393231
_cell_angle_beta   90.35188161
_cell_angle_gamma   118.90585235
_symmetry_Int_Tables_number   1
_chemical_formula_structural   Al3H4C42I5N5O14
_chemical_formula_sum   'Al6 H8 C84 I10 N10 O28'
_cell_volume   4332.09349676
_cell_formula_units_Z   2
loop_
 _symmetry_equiv_pos_site_id
 _symmetry_equiv_pos_as_xyz
  1  'x, y, z'
loop_
 _atom_site_type_symbol
 _atom_site_label
 _atom_site_symmetry_multiplicity
 _atom_site_fract_x
 _atom_site_fract_y
 _atom_site_fract_z
 _atom_site_occupancy
  Al  Al0  1  0.16843679  0.58653102  0.50025476  1.0
  Al  Al1  1  0.92020376  0.58325233  0.50140083  1.0
  Al  Al2  1  0.91719479  0.35709564  0.50069591  1.0
  Al  Al3  1  0.16720543  0.07516071  0.99914382  1.0
  Al  Al4  1  0.40622609  0.31654646  0.00016210  1.0
  Al  Al5  1  0.42571923  0.10194644  0.99946578  1.0
  H  H6  1  0.74850952  0.54918736  0.21264026  1.0
  H  H7  1  0.54842613  0.41527115  0.78717242  1.0
  H  H8  1  0.57380487  0.42467641  0.70002738  1.0
  H  H9  1  0.17160381  0.15848052  0.78521599  1.0
  H  H10  1  0.02554813  0.75684522  0.80539739  1.0
  H  H11  1  0.30740000  0.48962959  0.21115779  1.0
  H  H12  1  0.35958153  0.67752147  0.46982364  1.0
  H  H13  1  0.97401252  0.99593673  0.02646827  1.0
  C  C14  1  0.08542616  0.70504345  0.43252601  1.0
  C  C15  1  0.74208419  0.39376530  0.38685813  1.0
  C  C16  1  0.56465709  0.29302075  0.23971601  1.0
  C  C17  1  0.66137743  0.34923138  0.19976925  1.0
  C  C18  1  0.64567329  0.25590916  0.26760659  1.0
  C  C19  1  0.70206416  0.37296914  0.29583180  1.0
  C  C20  1  0.74136952  0.31052920  0.22826988  1.0
  C  C21  1  0.79902724  0.42826530  0.25592062  1.0
  C  C22  1  0.63749234  0.33288455  0.15104495  1.0
  C  C23  1  0.72405672  0.38510319  0.34463942  1.0
  C  C24  1  0.09598683  0.34506041  0.38843260  1.0
  C  C25  1  0.78479838  0.41287304  0.43455392  1.0
  C  C26  1  0.05536515  0.22254893  0.27209209  1.0
  C  C27  1  0.07824126  0.21854861  0.22397465  1.0
  C  C28  1  0.23662520  0.41551676  0.22804264  1.0
  C  C29  1  0.21579247  0.41881205  0.27586752  1.0
  C  C30  1  0.12478600  0.32267380  0.29875046  1.0
  C  C31  1  0.16882377  0.31608795  0.20164266  1.0
  C  C32  1  0.19177671  0.31076575  0.15366719  1.0
  C  C33  1  0.10576920  0.32946929  0.34694322  1.0
  C  C34  1  0.21053879  0.30116517  0.11254568  1.0
  C  C35  1  0.10336384  0.75112203  0.38556081  1.0
  C  C36  1  0.07810129  0.37699217  0.43477407  1.0
  C  C37  1  0.25446406  0.82750955  0.27804824  1.0
  C  C38  1  0.27702637  0.84704824  0.22955347  1.0
  C  C39  1  0.07239431  0.79770450  0.21497729  1.0
  C  C40  1  0.05001545  0.77840977  0.26337137  1.0
  C  C41  1  0.14098555  0.79508117  0.29555010  1.0
  C  C42  1  0.18752667  0.83639439  0.19775376  1.0
  C  C43  1  0.21516628  0.86882115  0.15043133  1.0
  C  C44  1  0.11841958  0.77340751  0.34384807  1.0
  C  C45  1  0.23964902  0.90573696  0.11057493  1.0
  C  C46  1  0.72269503  0.37218202  0.60958712  1.0
  C  C47  1  0.09033581  0.71666589  0.56551475  1.0
  C  C48  1  0.73952271  0.29741629  0.72896963  1.0
  C  C49  1  0.72734746  0.29455949  0.77794584  1.0
  C  C50  1  0.60190283  0.38319212  0.77046558  1.0
  C  C51  1  0.61548924  0.38790053  0.72218793  1.0
  C  C52  1  0.68417029  0.34559989  0.70062305  1.0
  C  C53  1  0.65678294  0.33638460  0.79914183  1.0
  C  C54  1  0.63336562  0.32584712  0.84789028  1.0
  C  C55  1  0.70198046  0.35655393  0.65150800  1.0
  C  C56  1  0.60436775  0.31364132  0.88907626  1.0
  C  C57  1  0.12034006  0.35449391  0.61007946  1.0
  C  C58  1  0.77726536  0.39954727  0.56431030  1.0
  C  C59  1  0.17272061  0.42265667  0.72761289  1.0
  C  C60  1  0.18607455  0.42015883  0.77670475  1.0
  C  C61  1  0.17245359  0.23222410  0.76862927  1.0
  C  C62  1  0.15974642  0.23519659  0.72014510  1.0
  C  C63  1  0.15902746  0.33022954  0.69863027  1.0
  C  C64  1  0.18570849  0.32361617  0.79740985  1.0
  C  C65  1  0.19916096  0.31659594  0.84627754  1.0
  C  C66  1  0.13988630  0.33652914  0.65021490  1.0
  C  C67  1  0.21123800  0.30310849  0.88782925  1.0
  C  C68  1  0.12073963  0.77489582  0.61001582  1.0
  C  C69  1  0.09173155  0.38877268  0.56604610  1.0
  C  C70  1  0.07532267  0.77558006  0.73238495  1.0
  C  C71  1  0.09660654  0.79592479  0.78017409  1.0
  C  C72  1  0.30615485  0.91675723  0.76490129  1.0
  C  C73  1  0.28365986  0.89964858  0.71653318  1.0
  C  C74  1  0.16752968  0.82807816  0.69938818  1.0
  C  C75  1  0.21148473  0.86677153  0.79709241  1.0
  C  C76  1  0.22919631  0.88958964  0.84581516  1.0
  C  C77  1  0.14455545  0.80412553  0.65101394  1.0
  C  C78  1  0.24086213  0.91304170  0.88760605  1.0
  C  C79  1  0.23830641  0.27731538  0.06645769  1.0
  C  C80  1  0.62191658  0.41061697  0.26686105  1.0
  C  C81  1  0.55801521  0.28195215  0.06367244  1.0
  C  C82  1  0.26172275  0.96419792  0.06608771  1.0
  C  C83  1  0.23287339  0.27286600  0.93396946  1.0
  C  C84  1  0.55184519  0.28654479  0.93466202  1.0
  C  C85  1  0.26251972  0.96327198  0.93363281  1.0
  C  C86  1  0.71797025  0.46504614  0.22816352  1.0
  C  C87  1  0.61089942  0.31340621  0.10963683  1.0
  C  C88  1  0.28960049  0.51810733  0.30277523  1.0
  C  C89  1  0.34478625  0.84133616  0.31002717  1.0
  C  C90  1  0.39001624  0.87750059  0.21133231  1.0
  C  C91  1  0.93421070  0.73337714  0.28118652  1.0
  C  C92  1  0.16959488  0.51784804  0.70680155  1.0
  C  C93  1  0.19787354  0.51323310  0.80486173  1.0
  C  C94  1  0.92250087  0.48933682  0.26351805  1.0
  C  C95  1  0.80792569  0.26452867  0.20710785  1.0
  C  C96  1  0.96147103  0.12630093  0.29399169  1.0
  C  C97  1  0.01219724  0.11649448  0.19756116  1.0
  I  I98  1  0.93803997  0.76812813  0.16783217  1.0
  I  I99  1  0.83608585  0.23191623  0.69468402  1.0
  I  I100  1  0.80762924  0.22711515  0.82229032  1.0
  I  I101  1  0.53100243  0.48771094  0.29678871  1.0
  I  I102  1  0.13906979  0.09706644  0.67905570  1.0
  I  I103  1  0.90435045  0.66078517  0.70997642  1.0
  I  I104  1  0.47591745  0.01257696  0.79262440  1.0
  I  I105  1  0.41742540  0.97756653  0.66685558  1.0
  I  I106  1  0.59727394  0.09993918  0.29988105  1.0
  I  I107  1  0.38524553  0.18753673  0.22549122  1.0
  N  N108  1  0.35438402  0.59806373  0.32473327  1.0
  N  N109  1  0.42026441  0.85694905  0.33641732  1.0
  N  N110  1  0.48154267  0.90057919  0.19562697  1.0
  N  N111  1  0.83955586  0.68989315  0.29672139  1.0
  N  N112  1  0.16625716  0.59619152  0.69039416  1.0
  N  N113  1  0.20693582  0.59029800  0.82733825  1.0
  N  N114  1  0.02416902  0.53225360  0.26886215  1.0
  N  N115  1  0.86679836  0.23290712  0.18856022  1.0
  N  N116  1  0.88332605  0.04780719  0.31167963  1.0
  N  N117  1  0.96052265  0.03262643  0.17567675  1.0
  O  O118  1  0.15484249  0.47207299  0.45060001  1.0
  O  O119  1  0.80301866  0.49664597  0.54676839  1.0
  O  O120  1  0.80197777  0.32593324  0.54618053  1.0
  O  O121  1  0.99318965  0.31725186  0.54706700  1.0
  O  O122  1  0.00003932  0.50754952  0.50051756  1.0
  O  O123  1  0.18494173  0.99038868  0.05302088  1.0
  O  O124  1  0.16630300  0.18407367  0.04744454  1.0
  O  O125  1  0.33790090  0.35266767  0.04979342  1.0
  O  O126  1  0.53102767  0.35165676  0.04364307  1.0
  O  O127  1  0.53659424  0.18442156  0.04766414  1.0
  O  O128  1  0.35778002  0.98753826  0.04489329  1.0
  O  O129  1  0.15860623  0.67489450  0.44635120  1.0
  O  O130  1  0.18207334  0.97658370  0.95233424  1.0
  O  O131  1  0.16811785  0.17089059  0.94626243  1.0
  O  O132  1  0.31964904  0.35124554  0.95731839  1.0
  O  O133  1  0.51503894  0.35288213  0.95101912  1.0
  O  O134  1  0.54049919  0.19622387  0.95468399  1.0
  O  O135  1  0.36564182  0.99551574  0.95141457  1.0
  O  O136  1  0.33482990  0.16599206  0.00008401  1.0
  O  O137  1  0.99522728  0.69432533  0.45496021  1.0
  O  O138  1  0.80607686  0.50754300  0.45369602  1.0
  O  O139  1  0.80409701  0.33655671  0.45300686  1.0
  O  O140  1  0.98108963  0.30622565  0.45476088  1.0
  O  O141  1  0.16350489  0.48689808  0.55157891  1.0
  O  O142  1  0.16303419  0.69098241  0.54756953  1.0
  O  O143  1  0.98802020  0.69115498  0.54842460  1.0
  O  O144  1  0.32136581  0.65614636  0.50002942  1.0
  O  O145  1  0.01433981  0.99390829  0.99833987  1.0
