# generated using pymatgen
data_Al6H41C84N9(O7F3)4
_symmetry_space_group_name_H-M   'P 1'
_cell_length_a   12.61220398
_cell_length_b   12.79744083
_cell_length_c   27.77242905
_cell_angle_alpha   88.62154623
_cell_angle_beta   88.09251825
_cell_angle_gamma   61.29006562
_symmetry_Int_Tables_number   1
_chemical_formula_structural   Al6H41C84N9(O7F3)4
_chemical_formula_sum   'Al6 H41 C84 N9 O28 F12'
_cell_volume   3929.15903459
_cell_formula_units_Z   1
loop_
 _symmetry_equiv_pos_site_id
 _symmetry_equiv_pos_as_xyz
  1  'x, y, z'
loop_
 _atom_site_type_symbol
 _atom_site_label
 _atom_site_symmetry_multiplicity
 _atom_site_fract_x
 _atom_site_fract_y
 _atom_site_fract_z
 _atom_site_occupancy
  Al  Al0  1  0.39598358  0.40976705  0.50738899  1.0
  Al  Al1  1  0.42028691  0.64747465  0.50214407  1.0
  Al  Al2  1  0.64855972  0.41664227  0.50243581  1.0
  Al  Al3  1  0.93488893  0.90746803  0.01598005  1.0
  Al  Al4  1  0.67710546  0.91712179  0.01667409  1.0
  Al  Al5  1  0.89785764  0.67597075  0.01516880  1.0
  H  H6  1  0.45064742  0.82702520  0.79102002  1.0
  H  H7  1  0.69275999  0.96986145  0.78279590  1.0
  H  H8  1  0.22460250  0.45245826  0.78442396  1.0
  H  H9  1  0.03923947  0.61073282  0.72206414  1.0
  H  H10  1  0.38880696  0.51323450  0.73594189  1.0
  H  H11  1  0.32552002  0.70105097  0.80244177  1.0
  H  H12  1  0.14423645  0.85750220  0.73978559  1.0
  H  H13  1  0.97664178  0.79541081  0.78881290  1.0
  H  H14  1  0.68503783  0.88747850  0.15150670  1.0
  H  H15  1  0.72090191  0.51348423  0.22264770  1.0
  H  H16  1  0.73515724  0.53292263  0.13359062  1.0
  H  H17  1  0.72727687  0.33676117  0.36678132  1.0
  H  H18  1  0.51218453  0.59908421  0.75361193  1.0
  H  H19  1  0.84069470  0.14255559  0.22395786  1.0
  H  H20  1  0.86693879  0.07717172  0.13870589  1.0
  H  H21  1  0.53794885  0.11104547  0.30050434  1.0
  H  H22  1  0.11860668  0.56455649  0.40223248  1.0
  H  H23  1  0.96688699  0.86692640  0.15212586  1.0
  H  H24  1  0.29652717  0.69919503  0.26874640  1.0
  H  H25  1  0.85140699  0.53727013  0.72694735  1.0
  H  H26  1  0.85717348  0.17067874  0.78683348  1.0
  H  H27  1  0.40786278  0.17342374  0.74830598  1.0
  H  H28  1  0.44915937  0.19924993  0.69372548  1.0
  H  H29  1  0.41757342  0.90450518  0.36819884  1.0
  H  H30  1  0.45074741  0.82359354  0.42199384  1.0
  H  H31  1  0.53023588  0.96738449  0.71485760  1.0
  H  H32  1  0.59112341  0.87303813  0.66820878  1.0
  H  H33  1  0.69400727  0.87292204  0.28151512  1.0
  H  H34  1  0.68256461  0.95545052  0.23059569  1.0
  H  H35  1  0.48372120  0.12087524  0.10017212  1.0
  H  H36  1  0.39388392  0.18397017  0.15258525  1.0
  H  H37  1  0.00332067  0.85533670  0.28222025  1.0
  H  H38  1  0.92543856  0.94121973  0.23475707  1.0
  H  H39  1  0.00591439  0.56753102  0.28294415  1.0
  H  H40  1  0.00400688  0.53009119  0.34155719  1.0
  H  H41  1  0.77287019  0.40061565  0.79737513  1.0
  H  H42  1  0.70770492  0.48256838  0.84650667  1.0
  H  H43  1  0.94902176  0.93323666  0.73314883  1.0
  H  H44  1  0.86782245  0.95596836  0.68408688  1.0
  H  H45  1  0.31698415  0.28747784  0.48394336  1.0
  H  H46  1  0.07844137  0.95911114  0.04199276  1.0
  C  C47  1  0.27300085  0.62179336  0.57078029  1.0
  C  C48  1  0.62242003  0.61982068  0.62050943  1.0
  C  C49  1  0.72749622  0.72630152  0.76129079  1.0
  C  C50  1  0.65828611  0.70698539  0.80672197  1.0
  C  C51  1  0.76253672  0.60181902  0.74125516  1.0
  C  C52  1  0.64269829  0.65720458  0.71173859  1.0
  C  C53  1  0.69594212  0.57891347  0.78537347  1.0
  C  C54  1  0.57292447  0.63683776  0.75655544  1.0
  C  C55  1  0.66870305  0.72478093  0.85596384  1.0
  C  C56  1  0.63264640  0.63501728  0.66298688  1.0
  C  C57  1  0.77951709  0.07462981  0.73779242  1.0
  C  C58  1  0.59855904  0.59581252  0.57307391  1.0
  C  C59  1  0.77756086  0.16760402  0.77422774  1.0
  C  C60  1  0.70782393  0.10050299  0.90117541  1.0
  C  C61  1  0.64654879  0.22161066  0.61734543  1.0
  C  C62  1  0.68555655  0.05528837  0.77167378  1.0
  C  C63  1  0.68557003  0.14802292  0.80840273  1.0
  C  C64  1  0.57717073  0.15750747  0.74432705  1.0
  C  C65  1  0.66931731  0.17723939  0.71021493  1.0
  C  C66  1  0.57673079  0.25085657  0.78071735  1.0
  C  C67  1  0.66964147  0.26865057  0.74737280  1.0
  C  C68  1  0.69550673  0.12682310  0.85856807  1.0
  C  C69  1  0.61327636  0.27628167  0.57051628  1.0
  C  C70  1  0.65886396  0.19765075  0.66019379  1.0
  C  C71  1  0.10312424  0.62994355  0.74042466  1.0
  C  C72  1  0.20575633  0.54259272  0.77414621  1.0
  C  C73  1  0.11695350  0.65933230  0.90374379  1.0
  C  C74  1  0.22695661  0.65603271  0.61901084  1.0
  C  C75  1  0.06838946  0.73449947  0.77598473  1.0
  C  C76  1  0.17068911  0.64680460  0.81116370  1.0
  C  C77  1  0.16039058  0.76807790  0.75010430  1.0
  C  C78  1  0.19473904  0.66403557  0.71309551  1.0
  C  C79  1  0.26243592  0.68071566  0.78404660  1.0
  C  C80  1  0.29146583  0.60809304  0.43250983  1.0
  C  C81  1  0.29722153  0.57616456  0.74825545  1.0
  C  C82  1  0.14750179  0.64808104  0.86126763  1.0
  C  C83  1  0.21024005  0.66485671  0.66256100  1.0
  C  C84  1  0.65257343  0.63839026  0.39186585  1.0
  C  C85  1  0.57423576  0.74807361  0.36796645  1.0
  C  C86  1  0.59561555  0.75837127  0.31824835  1.0
  C  C87  1  0.68855983  0.67219034  0.29028797  1.0
  C  C88  1  0.76738829  0.56783302  0.31555680  1.0
  C  C89  1  0.75133964  0.55238503  0.36413871  1.0
  C  C90  1  0.69890207  0.79062576  0.21775569  1.0
  C  C91  1  0.62107846  0.60796467  0.43962209  1.0
  C  C92  1  0.69392209  0.80503223  0.16736061  1.0
  C  C93  1  0.72194224  0.60537067  0.15703932  1.0
  C  C94  1  0.71609209  0.59438878  0.20682861  1.0
  C  C95  1  0.70189484  0.68595800  0.23783269  1.0
  C  C96  1  0.70605872  0.71387812  0.13737502  1.0
  C  C97  1  0.62110325  0.24888689  0.38320587  1.0
  C  C98  1  0.68551065  0.28749782  0.35217893  1.0
  C  C99  1  0.69307173  0.26590831  0.30332202  1.0
  C  C100  1  0.64156082  0.20238698  0.28245830  1.0
  C  C101  1  0.57959049  0.16149849  0.31402999  1.0
  C  C102  1  0.60031345  0.28957491  0.43413531  1.0
  C  C103  1  0.56932583  0.18522899  0.36290266  1.0
  C  C104  1  0.56215140  0.17663657  0.20471251  1.0
  C  C105  1  0.57208468  0.14308534  0.15580457  1.0
  C  C106  1  0.78109637  0.10555703  0.15806779  1.0
  C  C107  1  0.76676554  0.14099140  0.20548926  1.0
  C  C108  1  0.65535488  0.17521734  0.23059166  1.0
  C  C109  1  0.68766863  0.10255869  0.13277438  1.0
  C  C110  1  0.24474283  0.62622361  0.38270776  1.0
  C  C111  1  0.15464937  0.59652137  0.37256981  1.0
  C  C112  1  0.11114892  0.60634465  0.32587557  1.0
  C  C113  1  0.60448419  0.78628486  0.73197008  1.0
  C  C114  1  0.16351490  0.64352638  0.28789934  1.0
  C  C115  1  0.25459696  0.67200569  0.29781087  1.0
  C  C116  1  0.29339672  0.66407317  0.34444223  1.0
  C  C117  1  0.04659528  0.76966748  0.21767323  1.0
  C  C118  1  0.02193240  0.77969362  0.16846838  1.0
  C  C119  1  0.13722559  0.56677619  0.15875534  1.0
  C  C120  1  0.16585271  0.55694400  0.20731772  1.0
  C  C121  1  0.12338393  0.65554707  0.23741783  1.0
  C  C122  1  0.06631388  0.67980477  0.13883172  1.0
  C  C123  1  0.73261201  0.04598367  0.94822637  1.0
  C  C124  1  0.53915642  0.76203130  0.77651442  1.0
  C  C125  1  0.70903031  0.74394268  0.94754520  1.0
  C  C126  1  0.05672374  0.69480525  0.94990991  1.0
  C  C127  1  0.71801095  0.04834578  0.08448617  1.0
  C  C128  1  0.71243578  0.73441277  0.08467547  1.0
  C  C129  1  0.03058697  0.70218255  0.08734789  1.0
  C  C130  1  0.68042205  0.73167376  0.89909382  1.0
  N  N131  1  0.47900040  0.14942886  0.72454698  1.0
  N  N132  1  0.47962355  0.84161356  0.38986014  1.0
  N  N133  1  0.55090416  0.88551173  0.70151855  1.0
  N  N134  1  0.70694978  0.87408723  0.24541667  1.0
  N  N135  1  0.47447348  0.14869341  0.13467660  1.0
  N  N136  1  0.00264871  0.87007423  0.24613037  1.0
  N  N137  1  0.01593693  0.58461028  0.31750220  1.0
  N  N138  1  0.75318877  0.47710062  0.81481156  1.0
  N  N139  1  0.88452495  0.99612858  0.71191684  1.0
  O  O140  1  0.50643732  0.30891129  0.55842041  1.0
  O  O141  1  0.52124174  0.68411942  0.46067309  1.0
  O  O142  1  0.68916063  0.50498746  0.45781402  1.0
  O  O143  1  0.68031599  0.31292181  0.45114199  1.0
  O  O144  1  0.48953750  0.49110238  0.50362039  1.0
  O  O145  1  0.03360547  0.79636436  0.96456056  1.0
  O  O146  1  0.83496210  0.01548982  0.96523917  1.0
  O  O147  1  0.64803660  0.02859109  0.96767542  1.0
  O  O148  1  0.63479619  0.83716920  0.97098369  1.0
  O  O149  1  0.81000043  0.66245497  0.96316967  1.0
  O  O150  1  0.02655585  0.62204003  0.97166206  1.0
  O  O151  1  0.29986670  0.51716262  0.55894440  1.0
  O  O152  1  0.02445958  0.79532686  0.06807226  1.0
  O  O153  1  0.82486294  0.00927874  0.06845965  1.0
  O  O154  1  0.63426912  0.03830760  0.06184990  1.0
  O  O155  1  0.64146534  0.83884422  0.06840577  1.0
  O  O156  1  0.79373321  0.65057637  0.05899885  1.0
  O  O157  1  0.00223605  0.62976987  0.06731714  1.0
  O  O158  1  0.83567364  0.83258091  0.01576883  1.0
  O  O159  1  0.28833568  0.69788977  0.54398693  1.0
  O  O160  1  0.49890568  0.67265775  0.55457905  1.0
  O  O161  1  0.67566827  0.49789889  0.55338988  1.0
  O  O162  1  0.69387060  0.29186290  0.54628483  1.0
  O  O163  1  0.50402723  0.30539525  0.45548163  1.0
  O  O164  1  0.29702391  0.51994698  0.45593739  1.0
  O  O165  1  0.32465434  0.68209006  0.44791438  1.0
  O  O166  1  0.31056314  0.33502736  0.51152297  1.0
  O  O167  1  0.02287381  0.97958201  0.01589084  1.0
  F  F168  1  0.47583913  0.33912377  0.80254655  1.0
  F  F169  1  0.51097100  0.86071783  0.29640060  1.0
  F  F170  1  0.86566838  0.48060370  0.29213386  1.0
  F  F171  1  0.83592301  0.44967656  0.38432546  1.0
  F  F172  1  0.45104816  0.21224576  0.22631768  1.0
  F  F173  1  0.75113246  0.31169065  0.27457768  1.0
  F  F174  1  0.50914495  0.14195039  0.39107018  1.0
  F  F175  1  0.24018569  0.44680488  0.22554529  1.0
  F  F176  1  0.18477517  0.46654608  0.13175102  1.0
  F  F177  1  0.38655162  0.68750019  0.35162499  1.0
  F  F178  1  0.80709037  0.77097712  0.76386279  1.0
  F  F179  1  0.66059361  0.37615517  0.73364131  1.0
