# generated using pymatgen
data_ZnH13C10N5O4
_symmetry_space_group_name_H-M   'P 1'
_cell_length_a   8.99396511
_cell_length_b   9.67657794
_cell_length_c   11.59587097
_cell_angle_alpha   109.64824509
_cell_angle_beta   89.99976895
_cell_angle_gamma   89.99987888
_symmetry_Int_Tables_number   1
_chemical_formula_structural   ZnH13C10N5O4
_chemical_formula_sum   'Zn2 H26 C20 N10 O8'
_cell_volume   950.43707919
_cell_formula_units_Z   2
loop_
 _symmetry_equiv_pos_site_id
 _symmetry_equiv_pos_as_xyz
  1  'x, y, z'
loop_
 _atom_site_type_symbol
 _atom_site_label
 _atom_site_symmetry_multiplicity
 _atom_site_fract_x
 _atom_site_fract_y
 _atom_site_fract_z
 _atom_site_occupancy
  Zn  Zn0  1  0.58446530  0.20427393  0.07436317  1.0
  Zn  Zn1  1  0.08446708  0.79572754  0.92563932  1.0
  H  H2  1  0.58317728  0.59254734  0.92640769  1.0
  H  H3  1  0.08317002  0.40745507  0.07359073  1.0
  H  H4  1  0.45712142  0.41088977  0.24867700  1.0
  H  H5  1  0.95712627  0.58911160  0.75132686  1.0
  H  H6  1  0.44271853  0.25971116  0.27934363  1.0
  H  H7  1  0.94271651  0.74029022  0.72065942  1.0
  H  H8  1  0.73666570  0.52432603  0.55791302  1.0
  H  H9  1  0.23666190  0.47567256  0.44208392  1.0
  H  H10  1  0.57982998  0.91974946  0.16622212  1.0
  H  H11  1  0.07983285  0.08024861  0.83377605  1.0
  H  H12  1  0.90502911  0.08418767  0.98568271  1.0
  H  H13  1  0.40502984  0.91581269  0.01431847  1.0
  H  H14  1  0.70712566  0.67040517  0.15587541  1.0
  H  H15  1  0.20712788  0.32959149  0.84412544  1.0
  H  H16  1  0.90440018  0.67045481  0.14863046  1.0
  H  H17  1  0.40440236  0.32954551  0.85136984  1.0
  H  H18  1  0.49308434  0.43984834  0.69297247  1.0
  H  H19  1  0.99307936  0.56015713  0.30702801  1.0
  H  H20  1  0.53058469  0.62928104  0.73717280  1.0
  H  H21  1  0.03057653  0.37072149  0.26282408  1.0
  H  H22  1  0.91046902  0.53442721  0.93490997  1.0
  H  H23  1  0.41046277  0.46557219  0.06509526  1.0
  H  H24  1  0.68943244  0.46768538  0.34009237  1.0
  H  H25  1  0.18943181  0.53231225  0.65990361  1.0
  H  H26  1  0.70850877  0.28823104  0.34589066  1.0
  H  H27  1  0.20850885  0.71176871  0.65410581  1.0
  C  C28  1  0.68031860  0.92414007  0.11569939  1.0
  C  C29  1  0.18032344  0.07585771  0.88430011  1.0
  C  C30  1  0.54812406  0.41856022  0.47425296  1.0
  C  C31  1  0.04811846  0.58143480  0.52574797  1.0
  C  C32  1  0.84616337  0.00904854  0.02102038  1.0
  C  C33  1  0.34616218  0.99095102  0.97898337  1.0
  C  C34  1  0.78274594  0.40391763  0.01507294  1.0
  C  C35  1  0.28274011  0.59607422  0.98492212  1.0
  C  C36  1  0.80244639  0.67750267  0.09850690  1.0
  C  C37  1  0.30244721  0.32250027  0.90149613  1.0
  C  C38  1  0.58077637  0.52004002  0.69535079  1.0
  C  C39  1  0.08077106  0.47996346  0.30464705  1.0
  C  C40  1  0.79256520  0.82155235  0.07829912  1.0
  C  C41  1  0.29256737  0.17844726  0.92170136  1.0
  C  C42  1  0.80191388  0.54238561  0.97962104  1.0
  C  C43  1  0.30191011  0.45761397  0.02037941  1.0
  C  C44  1  0.62711519  0.37476325  0.35006197  1.0
  C  C45  1  0.12711438  0.62523573  0.64993542  1.0
  C  C46  1  0.71065438  0.50108835  0.77363362  1.0
  C  C47  1  0.21065277  0.49891039  0.22636517  1.0
  N  N48  1  0.68880157  0.55552643  0.89490054  1.0
  N  N49  1  0.18879739  0.44447562  0.10509744  1.0
  N  N50  1  0.51845376  0.32060331  0.25037687  1.0
  N  N51  1  0.01845564  0.67939724  0.74962386  1.0
  N  N52  1  0.89759794  0.87687542  0.01761292  1.0
  N  N53  1  0.39759882  0.12312499  0.98238916  1.0
  N  N54  1  0.71486291  0.04242566  0.07926937  1.0
  N  N55  1  0.21486767  0.95757210  0.92073260  1.0
  N  N56  1  0.63016873  0.49460519  0.57126072  1.0
  N  N57  1  0.13016160  0.50539380  0.42873752  1.0
  O  O58  1  0.64911976  0.35320131  0.00461312  1.0
  O  O59  1  0.14912265  0.64680336  0.99539343  1.0
  O  O60  1  0.82954319  0.44224782  0.72490074  1.0
  O  O61  1  0.32954007  0.55775271  0.27509813  1.0
  O  O62  1  0.41690166  0.37930967  0.48154332  1.0
  O  O63  1  0.91689432  0.62068964  0.51846014  1.0
  O  O64  1  0.89160667  0.35346791  0.05543847  1.0
  O  O65  1  0.39160649  0.64653126  0.94455899  1.0
