# generated using pymatgen
data_Zn4H12C40O17F8
_symmetry_space_group_name_H-M   'P 1'
_cell_length_a   23.88985251
_cell_length_b   23.89013456
_cell_length_c   23.88854853
_cell_angle_alpha   66.34412669
_cell_angle_beta   72.57736942
_cell_angle_gamma   107.41989700
_symmetry_Int_Tables_number   1
_chemical_formula_structural   Zn4H12C40O17F8
_chemical_formula_sum   'Zn8 H24 C80 O34 F16'
_cell_volume   10452.87148718
_cell_formula_units_Z   2
loop_
 _symmetry_equiv_pos_site_id
 _symmetry_equiv_pos_as_xyz
  1  'x, y, z'
loop_
 _atom_site_type_symbol
 _atom_site_label
 _atom_site_symmetry_multiplicity
 _atom_site_fract_x
 _atom_site_fract_y
 _atom_site_fract_z
 _atom_site_occupancy
  Zn  Zn0  1  0.05700272  0.09962638  0.45736457  1.0
  Zn  Zn1  1  0.05700127  0.95737478  0.48562071  1.0
  Zn  Zn2  1  0.94299283  0.95736361  0.59963953  1.0
  Zn  Zn3  1  0.94300844  0.98563516  0.45736081  1.0
  Zn  Zn4  1  0.94299862  0.40037345  0.04263292  1.0
  Zn  Zn5  1  0.05700823  0.54263466  0.90036034  1.0
  Zn  Zn6  1  0.94299790  0.54262563  0.01437488  1.0
  Zn  Zn7  1  0.05698943  0.51436700  0.04263920  1.0
  H  H8  1  0.92297761  0.20840237  0.90242010  1.0
  H  H9  1  0.07700957  0.40242027  0.70836990  1.0
  H  H10  1  0.92298139  0.09758274  0.79162441  1.0
  H  H11  1  0.07696703  0.29161439  0.59756300  1.0
  H  H12  1  0.07702831  0.67463636  0.21455925  1.0
  H  H13  1  0.92298894  0.71461563  0.17457898  1.0
  H  H14  1  0.07697005  0.78535326  0.32544784  1.0
  H  H15  1  0.92298221  0.82540132  0.28540415  1.0
  H  H16  1  0.61080522  0.20839340  0.21462422  1.0
  H  H17  1  0.61080317  0.40242441  0.17457850  1.0
  H  H18  1  0.38920066  0.09757749  0.32542932  1.0
  H  H19  1  0.38918969  0.29158900  0.28545810  1.0
  H  H20  1  0.38920318  0.71465204  0.70838453  1.0
  H  H21  1  0.38918296  0.67457738  0.90244321  1.0
  H  H22  1  0.61081605  0.82543102  0.59755689  1.0
  H  H23  1  0.61079744  0.78542619  0.79160067  1.0
  H  H24  1  0.91964033  0.08248409  0.33715730  1.0
  H  H25  1  0.08036328  0.41751910  0.16283932  1.0
  H  H26  1  0.91963627  0.25679612  0.16284451  1.0
  H  H27  1  0.08036685  0.24320602  0.33715352  1.0
  H  H28  1  0.91963424  0.83714735  0.74322249  1.0
  H  H29  1  0.08036946  0.66285147  0.75677404  1.0
  H  H30  1  0.91964172  0.66283324  0.91753006  1.0
  H  H31  1  0.08036227  0.83716715  0.58246450  1.0
  C  C32  1  0.18100749  0.09048926  0.40950354  1.0
  C  C33  1  0.99999577  0.86010883  0.63989359  1.0
  C  C34  1  0.99998246  0.09049077  0.59051281  1.0
  C  C35  1  0.81899440  0.90950368  0.59049322  1.0
  C  C36  1  0.00000656  0.13989451  0.36010433  1.0
  C  C37  1  0.99999348  0.90948816  0.40950135  1.0
  C  C38  1  0.00000723  0.40951329  0.90948105  1.0
  C  C39  1  0.00000749  0.63988999  0.86010139  1.0
  C  C40  1  0.81899132  0.40950274  0.09051099  1.0
  C  C41  1  0.99999183  0.59051148  0.09049760  1.0
  C  C42  1  0.99999705  0.36010868  0.13989271  1.0
  C  C43  1  0.18100555  0.59051149  0.90950726  1.0
  C  C44  1  0.00000408  0.19587277  0.30412690  1.0
  C  C45  1  0.99999901  0.30412987  0.19587068  1.0
  C  C46  1  0.95628078  0.17943060  0.27685013  1.0
  C  C47  1  0.04372306  0.32057309  0.22314706  1.0
  C  C48  1  0.95627906  0.23313036  0.22314940  1.0
  C  C49  1  0.04372498  0.26687282  0.27684709  1.0
  C  C50  1  0.99999995  0.80412952  0.69586925  1.0
  C  C51  1  0.00000394  0.69586877  0.80412533  1.0
  C  C52  1  0.95627833  0.77684453  0.76687868  1.0
  C  C53  1  0.04372580  0.72315429  0.73311605  1.0
  C  C54  1  0.95628157  0.72314426  0.82057664  1.0
  C  C55  1  0.04372281  0.77685509  0.67941696  1.0
  C  C56  1  0.99999826  0.37213299  0.87211218  1.0
  C  C57  1  0.95769672  0.29975674  0.90618102  1.0
  C  C58  1  0.95692313  0.26411537  0.87258420  1.0
  C  C59  1  0.99999267  0.30057720  0.80055882  1.0
  C  C60  1  0.04306515  0.37259191  0.76409086  1.0
  C  C61  1  0.04229758  0.40619532  0.79972638  1.0
  C  C62  1  0.99998399  0.26525315  0.76524201  1.0
  C  C63  1  0.99997858  0.23475624  0.73474684  1.0
  C  C64  1  0.99997739  0.19943321  0.69942862  1.0
  C  C65  1  0.95691713  0.12741322  0.73590188  1.0
  C  C66  1  0.95768670  0.09381033  0.70026597  1.0
  C  C67  1  0.99997602  0.12787477  0.62787941  1.0
  C  C68  1  0.04226014  0.20025892  0.59380387  1.0
  C  C69  1  0.04303424  0.23589663  0.62740283  1.0
  C  C70  1  0.00001145  0.62790689  0.12784947  1.0
  C  C71  1  0.04231661  0.63615185  0.15791984  1.0
  C  C72  1  0.04308370  0.67052072  0.19279073  1.0
  C  C73  1  0.00000295  0.69945440  0.19940977  1.0
  C  C74  1  0.95693600  0.69284766  0.17046055  1.0
  C  C75  1  0.95770942  0.65798426  0.13608456  1.0
  C  C76  1  0.99999435  0.73476231  0.23474432  1.0
  C  C77  1  0.99998462  0.76523787  0.26525507  1.0
  C  C78  1  0.99998071  0.80054889  0.30058630  1.0
  C  C79  1  0.04303640  0.80713791  0.32954973  1.0
  C  C80  1  0.04226177  0.84199870  0.36392923  1.0
  C  C81  1  0.99997823  0.87209899  0.37214460  1.0
  C  C82  1  0.95768724  0.86387330  0.34205727  1.0
  C  C83  1  0.95691689  0.82950496  0.30718630  1.0
  C  C84  1  0.74424366  0.37212785  0.12787928  1.0
  C  C85  1  0.70593059  0.29974888  0.15797131  1.0
  C  C86  1  0.63668967  0.26410917  0.19284193  1.0
  C  C87  1  0.60113426  0.30057231  0.19944070  1.0
  C  C88  1  0.63668926  0.37259347  0.17047434  1.0
  C  C89  1  0.70593021  0.40619519  0.13609866  1.0
  C  C90  1  0.53049206  0.26524782  0.23477276  1.0
  C  C91  1  0.46950601  0.23474718  0.26527637  1.0
  C  C92  1  0.39886407  0.19941854  0.30060541  1.0
  C  C93  1  0.36331313  0.12740527  0.32954689  1.0
  C  C94  1  0.29407092  0.09379990  0.36392189  1.0
  C  C95  1  0.25575530  0.12786250  0.37215679  1.0
  C  C96  1  0.29406660  0.20023567  0.34209105  1.0
  C  C97  1  0.36330869  0.23587693  0.30722239  1.0
  C  C98  1  0.25575513  0.62789055  0.87213380  1.0
  C  C99  1  0.29407352  0.65799522  0.79974410  1.0
  C  C100  1  0.36331493  0.69286108  0.76410702  1.0
  C  C101  1  0.39886336  0.69944921  0.80057693  1.0
  C  C102  1  0.36330380  0.67047985  0.87260518  1.0
  C  C103  1  0.29406342  0.63610639  0.90620600  1.0
  C  C104  1  0.46950544  0.73477628  0.76525100  1.0
  C  C105  1  0.53049288  0.76527329  0.73474297  1.0
  C  C106  1  0.60113573  0.80059254  0.69941615  1.0
  C  C107  1  0.63669485  0.82954105  0.62739299  1.0
  C  C108  1  0.70593486  0.86391087  0.59379248  1.0
  C  C109  1  0.74424536  0.87214286  0.62786134  1.0
  C  C110  1  0.70592791  0.84206581  0.70024394  1.0
  C  C111  1  0.63668465  0.80719786  0.73588284  1.0
  O  O112  1  0.99999886  0.99999857  0.49999964  1.0
  O  O113  1  0.15203406  0.12706769  0.41198989  1.0
  O  O114  1  0.04002374  0.88392069  0.57605439  1.0
  O  O115  1  0.96090320  0.02495234  0.62708718  1.0
  O  O116  1  0.15203830  0.02495070  0.43596038  1.0
  O  O117  1  0.03908224  0.12706481  0.52495925  1.0
  O  O118  1  0.95996845  0.88391004  0.65611904  1.0
  O  O119  1  0.84796072  0.91199439  0.62706630  1.0
  O  O120  1  0.95998313  0.07606333  0.38390877  1.0
  O  O121  1  0.84797111  0.93597792  0.52493389  1.0
  O  O122  1  0.04003085  0.15611211  0.38391214  1.0
  O  O123  1  0.03907250  0.91200108  0.43596162  1.0
  O  O124  1  0.96092430  0.93597135  0.41199048  1.0
  O  O125  1  0.00000026  0.50000077  0.99999931  1.0
  O  O126  1  0.96092563  0.37293396  0.97503920  1.0
  O  O127  1  0.04003641  0.61609034  0.84387651  1.0
  O  O128  1  0.84796172  0.47504392  0.06405023  1.0
  O  O129  1  0.03908473  0.47505172  0.87290764  1.0
  O  O130  1  0.84796521  0.37293010  0.08800504  1.0
  O  O131  1  0.95997728  0.61607709  0.92394127  1.0
  O  O132  1  0.96092115  0.58801053  0.06402604  1.0
  O  O133  1  0.04002048  0.42393987  0.11608701  1.0
  O  O134  1  0.03905178  0.56401838  0.08801871  1.0
  O  O135  1  0.95997072  0.34388951  0.11608739  1.0
  O  O136  1  0.15203769  0.58799472  0.87293833  1.0
  O  O137  1  0.15202899  0.56404610  0.97506386  1.0
  O  O138  1  0.91337029  0.11356046  0.29981355  1.0
  O  O139  1  0.08663356  0.38644325  0.20018362  1.0
  O  O140  1  0.91336854  0.21318323  0.20018957  1.0
  O  O141  1  0.08663570  0.28681943  0.29980749  1.0
  O  O142  1  0.91336800  0.79980177  0.78683626  1.0
  O  O143  1  0.08663565  0.70019600  0.71315945  1.0
  O  O144  1  0.91337258  0.70017849  0.88645624  1.0
  O  O145  1  0.08663204  0.79982138  0.61353792  1.0
  F  F146  1  0.91476153  0.26120752  0.97523710  1.0
  F  F147  1  0.08523193  0.47524407  0.76116589  1.0
  F  F148  1  0.91476535  0.02475838  0.73882926  1.0
  F  F149  1  0.08517038  0.23881398  0.52474209  1.0
  F  F150  1  0.08525805  0.61004664  0.15352805  1.0
  F  F151  1  0.91478235  0.65360973  0.10996293  1.0
  F  F152  1  0.08517282  0.84635184  0.39007256  1.0
  F  F153  1  0.91476197  0.88999831  0.34642834  1.0
  F  F154  1  0.73642801  0.26119475  0.15360607  1.0
  F  F155  1  0.73642486  0.47524683  0.10996182  1.0
  F  F156  1  0.26357913  0.02475355  0.39003777  1.0
  F  F157  1  0.26356717  0.23878347  0.34648244  1.0
  F  F158  1  0.26358193  0.65364758  0.76118113  1.0
  F  F159  1  0.26356266  0.60996540  0.97526593  1.0
  F  F160  1  0.73643683  0.89003361  0.52473652  1.0
  F  F161  1  0.73641758  0.84644628  0.73880070  1.0
