# generated using pymatgen
data_Cd3H52C78N8O13
_symmetry_space_group_name_H-M   'P 1'
_cell_length_a   14.83548988
_cell_length_b   15.59189061
_cell_length_c   19.25649706
_cell_angle_alpha   112.84856621
_cell_angle_beta   111.58198617
_cell_angle_gamma   92.46265795
_symmetry_Int_Tables_number   1
_chemical_formula_structural   Cd3H52C78N8O13
_chemical_formula_sum   'Cd6 H104 C156 N16 O26'
_cell_volume   3726.20165032
_cell_formula_units_Z   2
loop_
 _symmetry_equiv_pos_site_id
 _symmetry_equiv_pos_as_xyz
  1  'x, y, z'
loop_
 _atom_site_type_symbol
 _atom_site_label
 _atom_site_symmetry_multiplicity
 _atom_site_fract_x
 _atom_site_fract_y
 _atom_site_fract_z
 _atom_site_occupancy
  Cd  Cd0  1  0.75253186  0.26264077  0.06384491  1.0
  Cd  Cd1  1  0.18861651  0.19877187  0.93612129  1.0
  Cd  Cd2  1  0.96506640  0.81397139  0.17987176  1.0
  Cd  Cd3  1  0.28515694  0.63425287  0.82019700  1.0
  Cd  Cd4  1  0.03651374  0.27478315  0.07601613  1.0
  Cd  Cd5  1  0.46072322  0.19884160  0.92403616  1.0
  H  H6  1  0.80996440  0.97066160  0.14213824  1.0
  H  H7  1  0.16792791  0.82851555  0.85784250  1.0
  H  H8  1  0.80367692  0.44697134  0.03020325  1.0
  H  H9  1  0.27316250  0.41672693  0.96974494  1.0
  H  H10  1  0.09504292  0.64380243  0.16182596  1.0
  H  H11  1  0.43319925  0.48209993  0.83823003  1.0
  H  H12  1  0.05058837  0.07030009  0.08823798  1.0
  H  H13  1  0.46224182  0.98220685  0.91174136  1.0
  H  H14  1  0.93316834  0.33535933  0.19985985  1.0
  H  H15  1  0.23342083  0.13539639  0.80014720  1.0
  H  H16  1  0.94052274  0.22343688  0.15661550  1.0
  H  H17  1  0.28401169  0.06681238  0.84343718  1.0
  H  H18  1  0.53425661  0.19637393  0.79106393  1.0
  H  H19  1  0.24301320  0.40558461  0.20906552  1.0
  H  H20  1  0.48129293  0.15290477  0.64286134  1.0
  H  H21  1  0.33845761  0.51040336  0.35725053  1.0
  H  H22  1  0.78667362  0.23204637  0.68683897  1.0
  H  H23  1  0.59972340  0.54467420  0.31299364  1.0
  H  H24  1  0.83825822  0.28093599  0.83731474  1.0
  H  H25  1  0.50075925  0.44306714  0.16255126  1.0
  H  H26  1  0.46217831  0.21360883  0.54944780  1.0
  H  H27  1  0.41276824  0.66403083  0.45048381  1.0
  H  H28  1  0.51117585  0.08407040  0.32841583  1.0
  H  H29  1  0.68266702  0.75551237  0.67158251  1.0
  H  H30  1  0.72641146  0.10477860  0.55974073  1.0
  H  H31  1  0.66666667  0.54492152  0.44019476  1.0
  H  H32  1  0.64508594  0.10999524  0.31170391  1.0
  H  H33  1  0.83323775  0.79825532  0.68825971  1.0
  H  H34  1  0.74844801  0.03568258  0.23943552  1.0
  H  H35  1  0.00897291  0.79626317  0.76047628  1.0
  H  H36  1  0.85092982  0.89571482  0.39790254  1.0
  H  H37  1  0.95304460  0.49776133  0.60214210  1.0
  H  H38  1  0.74821630  0.97104209  0.47218214  1.0
  H  H39  1  0.77605639  0.49876892  0.52788232  1.0
  H  H40  1  0.34243121  0.03408248  0.27690948  1.0
  H  H41  1  0.56541796  0.75700207  0.72304015  1.0
  H  H42  1  0.21072873  0.07831881  0.18232243  1.0
  H  H43  1  0.52836285  0.89589699  0.81765095  1.0
  H  H44  1  0.26696026  0.35479290  0.38133672  1.0
  H  H45  1  0.38533528  0.97320016  0.61851743  1.0
  H  H46  1  0.40264376  0.31208966  0.47647373  1.0
  H  H47  1  0.42587341  0.83529087  0.52342921  1.0
  H  H48  1  0.01472649  0.10018041  0.78953228  1.0
  H  H49  1  0.72529655  0.31096033  0.21065596  1.0
  H  H50  1  0.92461491  0.99007487  0.64091152  1.0
  H  H51  1  0.78365878  0.34935591  0.35925852  1.0
  H  H52  1  0.66732848  0.92982705  0.68244347  1.0
  H  H53  1  0.48490718  0.24728276  0.31758062  1.0
  H  H54  1  0.76128546  0.03701147  0.83290648  1.0
  H  H55  1  0.42848926  0.20413125  0.16716746  1.0
  H  H56  1  0.85597796  0.82129556  0.54982791  1.0
  H  H57  1  0.80600672  0.27141800  0.45025613  1.0
  H  H58  1  0.58361871  0.71878860  0.32847896  1.0
  H  H59  1  0.75502466  0.39044977  0.67160530  1.0
  H  H60  1  0.60034670  0.93836893  0.55597541  1.0
  H  H61  1  0.54442255  0.38259017  0.44410269  1.0
  H  H62  1  0.43173140  0.68076037  0.30921212  1.0
  H  H63  1  0.62237246  0.37182013  0.69079508  1.0
  H  H64  1  0.25502708  0.68074687  0.24281348  1.0
  H  H65  1  0.51212676  0.43825138  0.75716499  1.0
  H  H66  1  0.31174477  0.98007138  0.39975574  1.0
  H  H67  1  0.41197699  0.58055827  0.60024509  1.0
  H  H68  1  0.49052399  0.98095207  0.46856368  1.0
  H  H69  1  0.52188950  0.51261620  0.53145129  1.0
  H  H70  1  0.67973377  0.69165561  0.26983085  1.0
  H  H71  1  0.90985760  0.42159489  0.73020734  1.0
  H  H72  1  0.73361096  0.55548421  0.18559184  1.0
  H  H73  1  0.04805845  0.36962336  0.81434813  1.0
  H  H74  1  0.92392400  0.53524619  0.40547216  1.0
  H  H75  1  0.01812220  0.12958538  0.59426941  1.0
  H  H76  1  0.86699153  0.66706459  0.49018252  1.0
  H  H77  1  0.87642845  0.17675595  0.50972988  1.0
  H  H78  1  0.79726594  0.14342488  0.18849906  1.0
  H  H79  1  0.10879388  0.95485706  0.81150874  1.0
  H  H80  1  0.69559894  0.02659943  0.92894770  1.0
  H  H81  1  0.26678976  0.09772239  0.07102839  1.0
  H  H82  1  0.71634913  0.86755976  0.85302790  1.0
  H  H83  1  0.36331107  0.01459373  0.14710370  1.0
  H  H84  1  0.70884172  0.69607205  0.77343790  1.0
  H  H85  1  0.43527389  0.92254038  0.22657890  1.0
  H  H86  1  0.74370144  0.59003784  0.84307437  1.0
  H  H87  1  0.40057978  0.74691059  0.15686768  1.0
  H  H88  1  0.77383656  0.82046214  0.07053274  1.0
  H  H89  1  0.20338955  0.75003293  0.92946128  1.0
  H  H90  1  0.71555505  0.48591632  0.91049879  1.0
  H  H91  1  0.30489213  0.57539088  0.08945642  1.0
  H  H92  1  0.89954160  0.59960855  0.16687218  1.0
  H  H93  1  0.23245356  0.43272191  0.83308534  1.0
  H  H94  1  0.10334212  0.51048003  0.20686978  1.0
  H  H95  1  0.39648191  0.30371811  0.79331827  1.0
  H  H96  1  0.00981481  0.37697297  0.94780211  1.0
  H  H97  1  0.56184936  0.42951997  0.05241339  1.0
  H  H98  1  0.98793516  0.47021415  0.86875595  1.0
  H  H99  1  0.61914644  0.60171926  0.13134144  1.0
  H  H100  1  0.95243957  0.56881232  0.79061656  1.0
  H  H101  1  0.66173475  0.77843788  0.20936602  1.0
  H  H102  1  0.95817368  0.74027072  0.86193810  1.0
  H  H103  1  0.59601104  0.87849776  0.13805658  1.0
  H  H104  1  0.06668041  0.72368445  0.09536807  1.0
  H  H105  1  0.47114051  0.62849280  0.90470201  1.0
  H  H106  1  0.03406567  0.92187859  0.95744265  1.0
  H  H107  1  0.57629233  0.96476426  0.04269626  1.0
  H  H108  1  0.01819719  0.02300557  0.18959866  1.0
  H  H109  1  0.32859580  0.83350644  0.81032698  1.0
  C  C110  1  0.71815906  0.26091599  0.91223033  1.0
  C  C111  1  0.30560745  0.34852134  0.08775517  1.0
  C  C112  1  0.68937470  0.24257684  0.82416215  1.0
  C  C113  1  0.36495804  0.41830589  0.17577542  1.0
  C  C114  1  0.58911884  0.20717393  0.76872855  1.0
  C  C115  1  0.32023305  0.43851841  0.23129394  1.0
  C  C116  1  0.55959650  0.18210805  0.68498151  1.0
  C  C117  1  0.37452390  0.49721919  0.31501899  1.0
  C  C118  1  0.62995447  0.18963179  0.65374876  1.0
  C  C119  1  0.47615595  0.53578667  0.34615398  1.0
  C  C120  1  0.73080056  0.22530908  0.70968462  1.0
  C  C121  1  0.52098519  0.51523313  0.29016658  1.0
  C  C122  1  0.76014906  0.25320456  0.79423908  1.0
  C  C123  1  0.46569637  0.45859067  0.20561321  1.0
  C  C124  1  0.59710626  0.16050688  0.56412254  1.0
  C  C125  1  0.53300815  0.59626955  0.43578207  1.0
  C  C126  1  0.50697249  0.17723532  0.51813821  1.0
  C  C127  1  0.48882388  0.65889019  0.48181051  1.0
  C  C128  1  0.47513469  0.14973351  0.43300879  1.0
  C  C129  1  0.54208781  0.71651584  0.56693732  1.0
  C  C130  1  0.53488825  0.10469848  0.39441719  1.0
  C  C131  1  0.64045266  0.71009635  0.60554846  1.0
  C  C132  1  0.62551921  0.08837851  0.43889413  1.0
  C  C133  1  0.68663117  0.64934708  0.56104155  1.0
  C  C134  1  0.65573105  0.11632043  0.52393019  1.0
  C  C135  1  0.63182915  0.59226403  0.47598493  1.0
  C  C136  1  0.68822280  0.04485600  0.39665369  1.0
  C  C137  1  0.79159206  0.64812091  0.60329439  1.0
  C  C138  1  0.68919361  0.06235813  0.33053028  1.0
  C  C139  1  0.85858240  0.73180356  0.66944127  1.0
  C  C140  1  0.74783062  0.02125482  0.29021272  1.0
  C  C141  1  0.95755150  0.73103144  0.70974613  1.0
  C  C142  1  0.80586711  0.96048321  0.31389428  1.0
  C  C143  1  0.99196918  0.64660554  0.68607039  1.0
  C  C144  1  0.80598088  0.94348633  0.38026740  1.0
  C  C145  1  0.92574673  0.56318136  0.61976286  1.0
  C  C146  1  0.74857506  0.98584238  0.42148739  1.0
  C  C147  1  0.82711821  0.56426202  0.57854919  1.0
  C  C148  1  0.86451159  0.91166155  0.26808465  1.0
  C  C149  1  0.09641805  0.64360498  0.73187143  1.0
  C  C150  1  0.38473734  0.17107378  0.38254935  1.0
  C  C151  1  0.50209622  0.78832886  0.61737929  1.0
  C  C152  1  0.32740135  0.10513643  0.29979673  1.0
  C  C153  1  0.52754576  0.80519451  0.70015272  1.0
  C  C154  1  0.25228737  0.12950082  0.24678726  1.0
  C  C155  1  0.50545814  0.88258294  0.75316447  1.0
  C  C156  1  0.23112117  0.22035221  0.27530118  1.0
  C  C157  1  0.45576055  0.94491312  0.72463919  1.0
  C  C158  1  0.28407177  0.28451243  0.35920252  1.0
  C  C159  1  0.42468465  0.92511802  0.64071598  1.0
  C  C160  1  0.35952950  0.26007695  0.41229752  1.0
  C  C161  1  0.44703251  0.84753675  0.58763334  1.0
  C  C162  1  0.15819738  0.25113735  0.21688643  1.0
  C  C163  1  0.44137356  0.03419318  0.78304922  1.0
  C  C164  1  0.94773739  0.14186130  0.91089904  1.0
  C  C165  1  0.53689960  0.23111685  0.08916965  1.0
  C  C166  1  0.89470887  0.07372899  0.82144563  1.0
  C  C167  1  0.57335910  0.25239154  0.17861817  1.0
  C  C168  1  0.93982044  0.06025041  0.76663045  1.0
  C  C169  1  0.67325159  0.29384715  0.23349005  1.0
  C  C170  1  0.88877557  0.99878350  0.68284185  1.0
  C  C171  1  0.70592529  0.31608510  0.31727488  1.0
  C  C172  1  0.78981499  0.95106987  0.65109449  1.0
  C  C173  1  0.63868910  0.30008908  0.34898060  1.0
  C  C174  1  0.74416868  0.96598391  0.70604624  1.0
  C  C175  1  0.53812081  0.25992025  0.29397969  1.0
  C  C176  1  0.79636028  0.02537760  0.79021351  1.0
  C  C177  1  0.50625168  0.23516677  0.20983752  1.0
  C  C178  1  0.73430236  0.88739934  0.56186970  1.0
  C  C179  1  0.67236120  0.32560120  0.43819183  1.0
  C  C180  1  0.77912276  0.82376470  0.51757345  1.0
  C  C181  1  0.76142145  0.30619018  0.48250621  1.0
  C  C182  1  0.72538579  0.76172917  0.43326669  1.0
  C  C183  1  0.79203624  0.32848490  0.56681227  1.0
  C  C184  1  0.62652715  0.76684466  0.39375070  1.0
  C  C185  1  0.73271530  0.37318096  0.60632608  1.0
  C  C186  1  0.58009127  0.82990611  0.43636094  1.0
  C  C187  1  0.64369626  0.39365084  0.56369432  1.0
  C  C188  1  0.63499107  0.88957721  0.52095792  1.0
  C  C189  1  0.61403007  0.36875977  0.47911423  1.0
  C  C190  1  0.47473285  0.83097872  0.39410803  1.0
  C  C191  1  0.58057025  0.43707907  0.60588603  1.0
  C  C192  1  0.40671055  0.74721214  0.32907955  1.0
  C  C193  1  0.57751328  0.41840206  0.67090649  1.0
  C  C194  1  0.30657339  0.74692273  0.29186696  1.0
  C  C195  1  0.51461588  0.45535691  0.70811756  1.0
  C  C196  1  0.27150693  0.83068985  0.31731646  1.0
  C  C197  1  0.45406718  0.51363770  0.68266664  1.0
  C  C198  1  0.33919826  0.91486597  0.38109407  1.0
  C  C199  1  0.45805085  0.53401332  0.61891163  1.0
  C  C200  1  0.43902537  0.91479228  0.41933422  1.0
  C  C201  1  0.51967373  0.49571607  0.58069816  1.0
  C  C202  1  0.16452714  0.83242918  0.27737743  1.0
  C  C203  1  0.38701344  0.55529548  0.72261906  1.0
  C  C204  1  0.76778501  0.68882844  0.38613571  1.0
  C  C205  1  0.88151201  0.30258939  0.61386176  1.0
  C  C206  1  0.73248627  0.65710683  0.29988950  1.0
  C  C207  1  0.93247917  0.35697763  0.70010960  1.0
  C  C208  1  0.76245222  0.58172833  0.25258037  1.0
  C  C209  1  0.00978393  0.32890155  0.74735795  1.0
  C  C210  1  0.83047111  0.53608453  0.28958979  1.0
  C  C211  1  0.04071440  0.24624546  0.71026038  1.0
  C  C212  1  0.87014136  0.56980515  0.37606676  1.0
  C  C213  1  0.99382764  0.19355359  0.62377009  1.0
  C  C214  1  0.83869570  0.64477552  0.42352695  1.0
  C  C215  1  0.91494377  0.22114380  0.57637520  1.0
  C  C216  1  0.85323042  0.44975570  0.23438024  1.0
  C  C217  1  0.11871626  0.21512494  0.76544360  1.0
  C  C218  1  0.77631609  0.09315544  0.12444905  1.0
  C  C219  1  0.15199395  0.96867202  0.87556008  1.0
  C  C220  1  0.72497356  0.02927732  0.99042027  1.0
  C  C221  1  0.23468123  0.03885853  0.00959485  1.0
  C  C222  1  0.74933635  0.95727365  0.01485681  1.0
  C  C223  1  0.23455071  0.94241088  0.98517230  1.0
  C  C224  1  0.74592520  0.85677771  0.96791914  1.0
  C  C225  1  0.27807974  0.88888696  0.03212554  1.0
  C  C226  1  0.72716258  0.82035376  0.88348393  1.0
  C  C227  1  0.34375510  0.93690745  0.11655560  1.0
  C  C228  1  0.72353667  0.72427896  0.83892790  1.0
  C  C229  1  0.38458395  0.88530724  0.16106435  1.0
  C  C230  1  0.74223529  0.66387556  0.87782173  1.0
  C  C231  1  0.36432424  0.78601717  0.12216665  1.0
  C  C232  1  0.76351647  0.69918048  0.96255759  1.0
  C  C233  1  0.30093985  0.73661024  0.03741693  1.0
  C  C234  1  0.76222759  0.79474417  0.00596454  1.0
  C  C235  1  0.25633833  0.78880714  0.99403386  1.0
  C  C236  1  0.78901459  0.63789125  0.00512205  1.0
  C  C237  1  0.28386755  0.63275339  0.99486278  1.0
  C  C238  1  0.76210482  0.53970501  0.97254132  1.0
  C  C239  1  0.28947213  0.56713673  0.02742497  1.0
  C  C240  1  0.85715785  0.59730991  0.10653341  1.0
  C  C241  1  0.25046090  0.49077262  0.89341905  1.0
  C  C242  1  0.08193552  0.50025552  0.14341567  1.0
  C  C243  1  0.43851264  0.35701946  0.85673957  1.0
  C  C244  1  0.03367169  0.43470368  0.00925729  1.0
  C  C245  1  0.52432281  0.42570708  0.99091312  1.0
  C  C246  1  0.04792450  0.53244511  0.03471974  1.0
  C  C247  1  0.51305539  0.49793241  0.96538525  1.0
  C  C248  1  0.02866358  0.58942041  0.98797580  1.0
  C  C249  1  0.54048550  0.60164490  0.01209101  1.0
  C  C250  1  0.99650195  0.54672831  0.90140703  1.0
  C  C251  1  0.59498116  0.64553922  0.09864335  1.0
  C  C252  1  0.97516985  0.60188738  0.85752589  1.0
  C  C253  1  0.61756674  0.74457675  0.14247335  1.0
  C  C254  1  0.98038075  0.69924974  0.89781961  1.0
  C  C255  1  0.58236896  0.80161438  0.10219066  1.0
  C  C256  1  0.01025848  0.74296421  0.98400353  1.0
  C  C257  1  0.52607156  0.75914618  0.01602577  1.0
  C  C258  1  0.03770824  0.68799579  0.02809990  1.0
  C  C259  1  0.50940548  0.66007996  0.97196129  1.0
  C  C260  1  0.01279494  0.84361609  0.02891509  1.0
  C  C261  1  0.48373680  0.81491445  0.97112940  1.0
  C  C262  1  0.02494543  0.91892041  0.00973302  1.0
  C  C263  1  0.51504890  0.90940559  0.99029724  1.0
  C  C264  1  0.01731757  0.97350581  0.13116045  1.0
  C  C265  1  0.38605641  0.84248003  0.86881286  1.0
  N  N266  1  0.74222013  0.11300429  0.05901908  1.0
  N  N267  1  0.18333881  0.05395680  0.94098066  1.0
  N  N268  1  0.78104154  0.00037339  0.10024761  1.0
  N  N269  1  0.18091838  0.90010691  0.89977174  1.0
  N  N270  1  0.84932155  0.67262928  0.08953787  1.0
  N  N271  1  0.25973729  0.58310030  0.91045169  1.0
  N  N272  1  0.80538961  0.51609346  0.03717261  1.0
  N  N273  1  0.26800055  0.47888931  0.96276738  1.0
  N  N274  1  0.05459671  0.41616787  0.07729477  1.0
  N  N275  1  0.47724145  0.33909690  0.92289322  1.0
  N  N276  1  0.07934824  0.57153770  0.12016248  1.0
  N  N277  1  0.45911911  0.45154089  0.87993207  1.0
  N  N278  1  0.00707771  0.87973868  0.10521565  1.0
  N  N279  1  0.40177130  0.77469447  0.89479491  1.0
  N  N280  1  0.02760392  0.99951052  0.07474937  1.0
  N  N281  1  0.45269339  0.92492806  0.92523944  1.0
  O  O282  1  0.79849974  0.31877947  0.96992628  1.0
  O  O283  1  0.32804197  0.34871617  0.02996220  1.0
  O  O284  1  0.65923093  0.21391800  0.92652412  1.0
  O  O285  1  0.23260694  0.28711949  0.07360397  1.0
  O  O286  1  0.90518073  0.84758574  0.28350459  1.0
  O  O287  1  0.12163971  0.56410308  0.71662319  1.0
  O  O288  1  0.87147651  0.93504783  0.21241830  1.0
  O  O289  1  0.15907718  0.72269854  0.78740446  1.0
  O  O290  1  0.14836406  0.33583596  0.24021607  1.0
  O  O291  1  0.40820693  0.09552027  0.75966593  1.0
  O  O292  1  0.10836110  0.18704177  0.14009112  1.0
  O  O293  1  0.46848549  0.04701606  0.85988722  1.0
  O  O294  1  0.91145703  0.14276422  0.96144188  1.0
  O  O295  1  0.45004597  0.18154194  0.03860925  1.0
  O  O296  1  0.02846896  0.20118959  0.93518620  1.0
  O  O297  1  0.59339291  0.26617292  0.06492557  1.0
  O  O298  1  0.13699296  0.91003378  0.29184329  1.0
  O  O299  1  0.34485015  0.61832782  0.70808834  1.0
  O  O300  1  0.10165070  0.75078772  0.22650030  1.0
  O  O301  1  0.37522886  0.52463704  0.77362830  1.0
  O  O302  1  0.92188403  0.41274705  0.26665267  1.0
  O  O303  1  0.15511279  0.14588844  0.73315844  1.0
  O  O304  1  0.79842236  0.41740899  0.15621599  1.0
  O  O305  1  0.14211833  0.26095276  0.84363374  1.0
  O  O306  1  0.92548259  0.27716787  0.14377757  1.0
  O  O307  1  0.28180510  0.13336874  0.85620920  1.0
