# generated using pymatgen
data_ZnH16C20(NO2)2
_symmetry_space_group_name_H-M   'P 1'
_cell_length_a   10.21517375
_cell_length_b   15.37414230
_cell_length_c   18.25010917
_cell_angle_alpha   89.99999664
_cell_angle_beta   90.00000806
_cell_angle_gamma   91.05756592
_symmetry_Int_Tables_number   1
_chemical_formula_structural   ZnH16C20(NO2)2
_chemical_formula_sum   'Zn4 H64 C80 N8 O16'
_cell_volume   2865.68292056
_cell_formula_units_Z   4
loop_
 _symmetry_equiv_pos_site_id
 _symmetry_equiv_pos_as_xyz
  1  'x, y, z'
loop_
 _atom_site_type_symbol
 _atom_site_label
 _atom_site_symmetry_multiplicity
 _atom_site_fract_x
 _atom_site_fract_y
 _atom_site_fract_z
 _atom_site_occupancy
  Zn  Zn0  1  0.90299169  0.96161781  0.30894008  1.0
  Zn  Zn1  1  0.59700892  0.53838303  0.80893983  1.0
  Zn  Zn2  1  0.09700908  0.03838296  0.69105943  1.0
  Zn  Zn3  1  0.40299087  0.46161774  0.19105914  1.0
  H  H4  1  0.64034432  0.74859519  0.26324665  1.0
  H  H5  1  0.85965530  0.75140566  0.76324696  1.0
  H  H6  1  0.35965643  0.25140493  0.73675341  1.0
  H  H7  1  0.14034447  0.24859446  0.23675310  1.0
  H  H8  1  0.23453385  0.68505386  0.29858286  1.0
  H  H9  1  0.26546600  0.81494611  0.79858261  1.0
  H  H10  1  0.76546686  0.31494496  0.70141720  1.0
  H  H11  1  0.73453476  0.18505401  0.20141745  1.0
  H  H12  1  0.20970734  0.82193457  0.37082626  1.0
  H  H13  1  0.29029255  0.67806605  0.87082602  1.0
  H  H14  1  0.79029244  0.17806555  0.62917435  1.0
  H  H15  1  0.70970920  0.32193472  0.12917404  1.0
  H  H16  1  0.40521831  0.92029211  0.39143984  1.0
  H  H17  1  0.09478060  0.57970850  0.89144014  1.0
  H  H18  1  0.59478144  0.07970735  0.60856022  1.0
  H  H19  1  0.90521822  0.42029227  0.10855992  1.0
  H  H20  1  0.13248682  0.03996712  0.39483052  1.0
  H  H21  1  0.36751019  0.46003161  0.89482917  1.0
  H  H22  1  0.86751096  0.96003170  0.60517009  1.0
  H  H23  1  0.63248958  0.53996851  0.10517034  1.0
  H  H24  1  0.27490803  0.98827422  0.49895645  1.0
  H  H25  1  0.22508991  0.51172574  0.99895621  1.0
  H  H26  1  0.72509076  0.01172590  0.50104361  1.0
  H  H27  1  0.77490987  0.48827438  0.00104330  1.0
  H  H28  1  0.00692896  0.76957397  0.52192234  1.0
  H  H29  1  0.49307174  0.73042407  0.02192206  1.0
  H  H30  1  0.99307077  0.23042485  0.47807772  1.0
  H  H31  1  0.50692899  0.26957540  0.97807800  1.0
  H  H32  1  0.87522404  0.83177719  0.42101174  1.0
  H  H33  1  0.62477457  0.66822104  0.92101203  1.0
  H  H34  1  0.12477472  0.16822163  0.57898777  1.0
  H  H35  1  0.37522618  0.33177908  0.07898803  1.0
  H  H36  1  0.34896002  0.84105098  0.54952657  1.0
  H  H37  1  0.15103975  0.65894835  0.04952682  1.0
  H  H38  1  0.65103974  0.15894849  0.45047294  1.0
  H  H39  1  0.84896098  0.34105112  0.95047379  1.0
  H  H40  1  0.25024590  0.87639518  0.62176065  1.0
  H  H41  1  0.24975388  0.62360415  0.12176091  1.0
  H  H42  1  0.74975387  0.12360494  0.37823886  1.0
  H  H43  1  0.75024685  0.37639532  0.87823915  1.0
  H  H44  1  0.20951705  0.70145488  0.54115840  1.0
  H  H45  1  0.29048274  0.79854511  0.04115865  1.0
  H  H46  1  0.79048176  0.29854589  0.45884166  1.0
  H  H47  1  0.70951898  0.20145436  0.95884196  1.0
  H  H48  1  0.11982369  0.73569601  0.61777218  1.0
  H  H49  1  0.38017609  0.76430332  0.11777244  1.0
  H  H50  1  0.88017510  0.26430411  0.38222733  1.0
  H  H51  1  0.61982560  0.23569550  0.88222762  1.0
  H  H52  1  0.18736977  0.57938140  0.64910899  1.0
  H  H53  1  0.31263004  0.92061859  0.14910924  1.0
  H  H54  1  0.81262902  0.42061872  0.35088998  1.0
  H  H55  1  0.68736973  0.07938153  0.85089083  1.0
  H  H56  1  0.34116621  0.50142889  0.73226959  1.0
  H  H57  1  0.15883462  0.99857174  0.23226928  1.0
  H  H58  1  0.65883258  0.49857123  0.26772992  1.0
  H  H59  1  0.84116613  0.00142838  0.76773024  1.0
  H  H60  1  0.60357155  0.70946700  0.73212220  1.0
  H  H61  1  0.89642706  0.79053320  0.23212246  1.0
  H  H62  1  0.39642626  0.29053312  0.26787786  1.0
  H  H63  1  0.10357367  0.20946627  0.76787815  1.0
  H  H64  1  0.46030523  0.79739628  0.65057912  1.0
  H  H65  1  0.03969459  0.70260370  0.15057936  1.0
  H  H66  1  0.53969259  0.20260384  0.34942149  1.0
  H  H67  1  0.96030713  0.29739577  0.84942180  1.0
  C  C68  1  0.65117969  0.89986430  0.34170591  1.0
  C  C69  1  0.84881993  0.60013589  0.84170622  1.0
  C  C70  1  0.34882006  0.10013517  0.65829416  1.0
  C  C71  1  0.15117900  0.39986879  0.15829275  1.0
  C  C72  1  0.53442468  0.84085792  0.32883968  1.0
  C  C73  1  0.96557496  0.65914292  0.82883945  1.0
  C  C74  1  0.46557704  0.15914155  0.67116093  1.0
  C  C75  1  0.03442485  0.34085850  0.17116061  1.0
  C  C76  1  0.54644427  0.76511972  0.28712979  1.0
  C  C77  1  0.95355536  0.73488113  0.78712956  1.0
  C  C78  1  0.45355647  0.23487975  0.71287136  1.0
  C  C79  1  0.04644539  0.26511899  0.21287050  1.0
  C  C80  1  0.43903441  0.70886733  0.27655396  1.0
  C  C81  1  0.06096545  0.79113329  0.77655369  1.0
  C  C82  1  0.56096342  0.29113344  0.72344719  1.0
  C  C83  1  0.93903822  0.20886618  0.22344582  1.0
  C  C84  1  0.31744123  0.72950990  0.30710994  1.0
  C  C85  1  0.18255864  0.77049072  0.80710968  1.0
  C  C86  1  0.68255855  0.27049022  0.69289012  1.0
  C  C87  1  0.81744209  0.22950875  0.19289038  1.0
  C  C88  1  0.30451089  0.80575128  0.34772504  1.0
  C  C89  1  0.19548801  0.69424933  0.84772533  1.0
  C  C90  1  0.69548890  0.19424949  0.65227393  1.0
  C  C91  1  0.80451274  0.30575079  0.15227363  1.0
  C  C92  1  0.41261148  0.86095995  0.35911675  1.0
  C  C93  1  0.08738937  0.63904002  0.85911704  1.0
  C  C94  1  0.58738732  0.13904017  0.64088221  1.0
  C  C95  1  0.91261336  0.36096075  0.14088138  1.0
  C  C96  1  0.45769474  0.62608073  0.23476682  1.0
  C  C97  1  0.04230607  0.87391924  0.73476709  1.0
  C  C98  1  0.54230599  0.37391874  0.76523324  1.0
  C  C99  1  0.95769468  0.12608088  0.26523297  1.0
  C  C100  1  0.10969131  0.98083608  0.42569990  1.0
  C  C101  1  0.39030661  0.51916388  0.92569912  1.0
  C  C102  1  0.89030747  0.01916339  0.57430126  1.0
  C  C103  1  0.60969316  0.48083624  0.07430039  1.0
  C  C104  1  0.18822607  0.95099770  0.48207984  1.0
  C  C105  1  0.31177283  0.54900161  0.98207906  1.0
  C  C106  1  0.81177371  0.04900242  0.51792077  1.0
  C  C107  1  0.68822693  0.45099786  0.01792046  1.0
  C  C108  1  0.15701440  0.87205084  0.51713114  1.0
  C  C109  1  0.34298533  0.62794720  0.01713085  1.0
  C  C110  1  0.84298436  0.12794798  0.48286947  1.0
  C  C111  1  0.65701541  0.37205227  0.98286921  1.0
  C  C112  1  0.04015791  0.82980486  0.49602332  1.0
  C  C113  1  0.45984101  0.67019510  0.99602473  1.0
  C  C114  1  0.95984091  0.17019591  0.50397510  1.0
  C  C115  1  0.54015972  0.32980437  0.00397533  1.0
  C  C116  1  0.96533927  0.86384160  0.43977602  1.0
  C  C117  1  0.53466230  0.63615728  0.93977630  1.0
  C  C118  1  0.03466145  0.13615722  0.56022404  1.0
  C  C119  1  0.46533845  0.36384284  0.06022376  1.0
  C  C120  1  0.24943918  0.83476158  0.57249081  1.0
  C  C121  1  0.25056059  0.66523775  0.07249107  1.0
  C  C122  1  0.75056059  0.16523854  0.42750870  1.0
  C  C123  1  0.74943916  0.33476172  0.92750899  1.0
  C  C124  1  0.21728426  0.74042020  0.59192577  1.0
  C  C125  1  0.28271552  0.75957914  0.09192602  1.0
  C  C126  1  0.78271552  0.25957992  0.40807430  1.0
  C  C127  1  0.71728521  0.24042033  0.90807459  1.0
  C  C128  1  0.31117030  0.69512402  0.64183287  1.0
  C  C129  1  0.18882947  0.80487466  0.14183311  1.0
  C  C130  1  0.68882849  0.30487610  0.35816719  1.0
  C  C131  1  0.81117126  0.19512481  0.85816750  1.0
  C  C132  1  0.27925425  0.61070164  0.66582122  1.0
  C  C133  1  0.22074557  0.88929834  0.16582091  1.0
  C  C134  1  0.72074357  0.38929848  0.33417884  1.0
  C  C135  1  0.77925518  0.11070178  0.83417860  1.0
  C  C136  1  0.36301473  0.56690053  0.71200725  1.0
  C  C137  1  0.13698510  0.93309945  0.21200693  1.0
  C  C138  1  0.63698407  0.43309959  0.28799226  1.0
  C  C139  1  0.86301565  0.06690067  0.78799258  1.0
  C  C140  1  0.50985402  0.68372396  0.71226643  1.0
  C  C141  1  0.99014459  0.81627624  0.21226670  1.0
  C  C142  1  0.49014379  0.31627616  0.28773309  1.0
  C  C143  1  0.00985615  0.18372323  0.78773391  1.0
  C  C144  1  0.42971623  0.73173430  0.66631108  1.0
  C  C145  1  0.07028360  0.76826633  0.16631132  1.0
  C  C146  1  0.57028158  0.26826582  0.33368898  1.0
  C  C147  1  0.92971811  0.23173314  0.83368984  1.0
  N  N148  1  0.00059777  0.93707955  0.40385948  1.0
  N  N149  1  0.49940011  0.56291912  0.90385926  1.0
  N  N150  1  0.99940099  0.06291927  0.59614003  1.0
  N  N151  1  0.50059966  0.43708100  0.09614026  1.0
  N  N152  1  0.47746850  0.60278287  0.73498027  1.0
  N  N153  1  0.02253233  0.89721775  0.23497994  1.0
  N  N154  1  0.52253029  0.39721725  0.26501980  1.0
  N  N155  1  0.97746940  0.10278237  0.76502012  1.0
  O  O156  1  0.75642740  0.87725916  0.30649023  1.0
  O  O157  1  0.74357221  0.62274103  0.80649053  1.0
  O  O158  1  0.24357137  0.12274031  0.69350928  1.0
  O  O159  1  0.25642854  0.37725909  0.19350953  1.0
  O  O160  1  0.64437966  0.96406636  0.38335826  1.0
  O  O161  1  0.85561999  0.53593447  0.88335802  1.0
  O  O162  1  0.35562109  0.03593376  0.61664126  1.0
  O  O163  1  0.14437785  0.46406630  0.11664368  1.0
  O  O164  1  0.35538468  0.57454843  0.23089067  1.0
  O  O165  1  0.14461615  0.92545220  0.73089041  1.0
  O  O166  1  0.64461509  0.42545169  0.76910939  1.0
  O  O167  1  0.85538658  0.07454857  0.26910911  1.0
  O  O168  1  0.56665926  0.60882197  0.20703165  1.0
  O  O169  1  0.93334033  0.89117823  0.70703140  1.0
  O  O170  1  0.43334050  0.39117750  0.79296787  1.0
  O  O171  1  0.06666044  0.10882254  0.29296811  1.0
