# generated using pymatgen
data_Zn6H29C41S2NO30
_symmetry_space_group_name_H-M   'P 1'
_cell_length_a   18.59364556
_cell_length_b   18.70221977
_cell_length_c   18.88537276
_cell_angle_alpha   109.41035547
_cell_angle_beta   108.94012066
_cell_angle_gamma   109.45481472
_symmetry_Int_Tables_number   1
_chemical_formula_structural   Zn6H29C41S2NO30
_chemical_formula_sum   'Zn6 H29 C41 S2 N1 O30'
_cell_volume   5092.97674094
_cell_formula_units_Z   1
loop_
 _symmetry_equiv_pos_site_id
 _symmetry_equiv_pos_as_xyz
  1  'x, y, z'
loop_
 _atom_site_type_symbol
 _atom_site_label
 _atom_site_symmetry_multiplicity
 _atom_site_fract_x
 _atom_site_fract_y
 _atom_site_fract_z
 _atom_site_occupancy
  Zn  Zn0  1  0.92975571  0.49882533  0.93550037  1.0
  Zn  Zn1  1  0.05830796  0.49903012  0.05338604  1.0
  Zn  Zn2  1  0.49663290  0.04885259  0.06133442  1.0
  Zn  Zn3  1  0.49265869  0.92754074  0.93168987  1.0
  Zn  Zn4  1  0.07195368  0.06082769  0.49656096  1.0
  Zn  Zn5  1  0.94587014  0.93896896  0.50161767  1.0
  H  H6  1  0.35795902  0.81181124  0.11385991  1.0
  H  H7  1  0.07669149  0.30481707  0.85357389  1.0
  H  H8  1  0.72334727  0.12495225  0.97269120  1.0
  H  H9  1  0.69963518  0.27411464  0.07493869  1.0
  H  H10  1  0.72065429  0.29347555  0.93485293  1.0
  H  H11  1  0.01066137  0.79687024  0.29251419  1.0
  H  H12  1  0.07719921  0.64465216  0.31444508  1.0
  H  H13  1  0.93668025  0.65370648  0.18027009  1.0
  H  H14  1  0.74952459  0.95496077  0.32962082  1.0
  H  H15  1  0.24132550  0.63891599  0.97287302  1.0
  H  H16  1  0.87167010  0.04033290  0.26922423  1.0
  H  H17  1  0.65238448  0.99549112  0.24072096  1.0
  H  H18  1  0.71226519  0.92167429  0.11339352  1.0
  H  H19  1  0.29907933  0.02047047  0.61852523  1.0
  H  H20  1  0.19017345  0.98901749  0.70910908  1.0
  H  H21  1  0.36654102  0.95069004  0.69628715  1.0
  H  H22  1  0.32543238  0.05056917  0.82986768  1.0
  H  H23  1  0.22642863  0.70840437  0.85857821  1.0
  H  H24  1  0.08068316  0.71904018  0.86992980  1.0
  H  H25  1  0.19729579  0.89086465  0.01326438  1.0
  H  H26  1  0.21163232  0.81927632  0.12532461  1.0
  H  H27  1  0.96870696  0.15097112  0.72247936  1.0
  H  H28  1  0.95369001  0.34130188  0.73396141  1.0
  H  H29  1  0.93290587  0.31183787  0.03621949  1.0
  H  H30  1  0.97834290  0.24893592  0.11863950  1.0
  H  H31  1  0.88712208  0.14942197  0.02781413  1.0
  H  H32  1  0.87579331  0.20789558  0.11599533  1.0
  H  H33  1  0.01032413  0.58060418  0.40492090  1.0
  H  H34  1  0.89415881  0.30109476  0.55802022  1.0
  C  C35  1  0.03119257  0.39635701  0.89995161  1.0
  C  C36  1  0.20613720  0.83402421  0.00345233  1.0
  C  C37  1  0.21579111  0.79592700  0.06620983  1.0
  C  C38  1  0.15132309  0.70062421  0.98614280  1.0
  C  C39  1  0.98614157  0.24122193  0.67841299  1.0
  C  C40  1  0.97893251  0.16543335  0.67396879  1.0
  C  C41  1  0.98914682  0.30751126  0.74900534  1.0
  C  C42  1  0.03485116  0.33104999  0.83235017  1.0
  C  C43  1  0.73600542  0.19212210  0.00303884  1.0
  C  C44  1  0.68832896  0.20841337  0.03983402  1.0
  C  C45  1  0.80647662  0.25887662  0.00367049  1.0
  C  C46  1  0.08392296  0.62934090  0.98476647  1.0
  C  C47  1  0.78783450  0.30732401  0.96593808  1.0
  C  C48  1  0.01326929  0.71999929  0.35070761  1.0
  C  C49  1  0.00180880  0.78500618  0.34269268  1.0
  C  C50  1  0.02940765  0.66393006  0.29001344  1.0
  C  C51  1  0.98738042  0.63795457  0.20560862  1.0
  C  C52  1  0.60546600  0.95192806  0.07871361  1.0
  C  C53  1  0.36276507  0.89480943  0.00369428  1.0
  C  C54  1  0.40042492  0.98832114  0.86092641  1.0
  C  C55  1  0.61988588  0.13610747  0.03657401  1.0
  C  C56  1  0.14994431  0.02321525  0.61050308  1.0
  C  C57  1  0.00422747  0.58885847  0.13962902  1.0
  C  C58  1  0.98151584  0.09685887  0.60830413  1.0
  C  C59  1  0.91543302  0.01262440  0.37503482  1.0
  C  C60  1  0.99004295  0.85230738  0.39880279  1.0
  C  C61  1  0.76510525  0.97748406  0.28714113  1.0
  C  C62  1  0.84877547  0.00990037  0.30357319  1.0
  C  C63  1  0.69557455  0.97589049  0.22189692  1.0
  C  C64  1  0.67732519  0.94916269  0.13943750  1.0
  C  C65  1  0.28328237  0.00872167  0.66594359  1.0
  C  C66  1  0.21212368  0.00979280  0.66880860  1.0
  C  C67  1  0.33622186  0.98644717  0.72089392  1.0
  C  C68  1  0.85214959  0.37182794  0.96151547  1.0
  C  C69  1  0.34971603  0.00960156  0.80165509  1.0
  C  C70  1  0.23244616  0.69549285  0.98094792  1.0
  C  C71  1  0.29529658  0.78961203  0.05975535  1.0
  C  C72  1  0.28561583  0.82755912  0.99560218  1.0
  C  C73  1  0.22244425  0.73291103  0.91762697  1.0
  C  C74  1  0.14240657  0.73937821  0.92406869  1.0
  C  C75  1  0.90733182  0.21510931  0.07674959  1.0
  S  S76  1  0.00984692  0.70095540  0.43716816  1.0
  S  S77  1  0.99149947  0.26471637  0.59410007  1.0
  N  N78  1  0.88622410  0.26609482  0.03878981  1.0
  O  O79  1  0.97937758  0.42440774  0.87688591  1.0
  O  O80  1  0.57853817  0.90554273  0.99769805  1.0
  O  O81  1  0.39620839  0.97433646  0.06256881  1.0
  O  O82  1  0.39251192  0.86937975  0.95424294  1.0
  O  O83  1  0.41748614  0.02795199  0.93865261  1.0
  O  O84  1  0.42450466  0.93240192  0.83263838  1.0
  O  O85  1  0.58926335  0.15759500  0.08788983  1.0
  O  O86  1  0.59584904  0.05837219  0.98486545  1.0
  O  O87  1  0.17578704  0.07079407  0.57794083  1.0
  O  O88  1  0.07147562  0.98421977  0.59524162  1.0
  O  O89  1  0.03563072  0.12130590  0.58297766  1.0
  O  O90  1  0.08204154  0.41981897  0.97867120  1.0
  O  O91  1  0.92958237  0.01777679  0.58532443  1.0
  O  O92  1  0.99629593  0.06315576  0.40002432  1.0
  O  O93  1  0.88988406  0.96624388  0.40741008  1.0
  O  O94  1  0.03535955  0.92832143  0.41299818  1.0
  O  O95  1  0.93634630  0.83082604  0.42670933  1.0
  O  O96  1  0.00261167  0.59881386  0.93281706  1.0
  O  O97  1  0.11251225  0.60217862  0.03530045  1.0
  O  O98  1  0.96004957  0.57521257  0.06457667  1.0
  O  O99  1  0.06100994  0.56383495  0.16060875  1.0
  O  O100  1  0.82683518  0.40674204  0.91607949  1.0
  O  O101  1  0.93383766  0.39391910  0.00279578  1.0
  O  O102  1  0.57545337  0.99918592  0.10889441  1.0
  O  O103  1  0.06786605  0.78104269  0.51709587  1.0
  O  O104  1  0.92001610  0.64650093  0.41126020  1.0
  O  O105  1  0.05681338  0.64163966  0.43754241  1.0
  O  O106  1  0.08168157  0.31434197  0.61953423  1.0
  O  O107  1  0.92854215  0.18881702  0.51073202  1.0
  O  O108  1  0.95500588  0.33336973  0.60412216  1.0
