# generated using pymatgen
data_AlH21C27(NO)6
_symmetry_space_group_name_H-M   'P 1'
_cell_length_a   3.98085497
_cell_length_b   27.83302384
_cell_length_c   27.85132545
_cell_angle_alpha   60.04521986
_cell_angle_beta   89.77968937
_cell_angle_gamma   89.65109426
_symmetry_Int_Tables_number   1
_chemical_formula_structural   AlH21C27(NO)6
_chemical_formula_sum   'Al3 H63 C81 N18 O18'
_cell_volume   2673.63870726
_cell_formula_units_Z   3
loop_
 _symmetry_equiv_pos_site_id
 _symmetry_equiv_pos_as_xyz
  1  'x, y, z'
loop_
 _atom_site_type_symbol
 _atom_site_label
 _atom_site_symmetry_multiplicity
 _atom_site_fract_x
 _atom_site_fract_y
 _atom_site_fract_z
 _atom_site_occupancy
  Al  Al0  1  0.99985019  0.00011580  0.49996063  1.0
  Al  Al1  1  0.04280595  0.33365898  0.83316208  1.0
  Al  Al2  1  0.95167062  0.66704329  0.16635447  1.0
  H  H3  1  0.49454135  0.00021604  0.92252555  1.0
  H  H4  1  0.48494438  0.91111114  0.83344298  1.0
  H  H5  1  0.50148530  0.08930181  0.74453007  1.0
  H  H6  1  0.21526425  0.07443956  0.90751424  1.0
  H  H7  1  0.83014225  0.14519544  0.76035400  1.0
  H  H8  1  0.77217777  0.92636889  0.98124193  1.0
  H  H9  1  0.16365043  0.85469571  0.90555053  1.0
  H  H10  1  0.18656053  0.92684842  0.76039138  1.0
  H  H11  1  0.79911998  0.07359316  0.68703582  1.0
  H  H12  1  0.49302355  0.42265953  0.07750491  1.0
  H  H13  1  0.49437582  0.24449873  0.16618528  1.0
  H  H14  1  0.48916591  0.33341608  0.25554926  1.0
  H  H15  1  0.78040498  0.48077421  0.09286743  1.0
  H  H16  1  0.16571716  0.40607671  0.24005148  1.0
  H  H17  1  0.20573603  0.40763180  0.01882407  1.0
  H  H18  1  0.82301397  0.26025808  0.09397385  1.0
  H  H19  1  0.80195755  0.18698861  0.23930089  1.0
  H  H20  1  0.18193930  0.26054023  0.31273960  1.0
  H  H21  1  0.50507622  0.57714074  0.50000418  1.0
  H  H22  1  0.50571499  0.75526154  0.41055608  1.0
  H  H23  1  0.51505078  0.66672648  0.58864563  1.0
  H  H24  1  0.22294493  0.51901015  0.57363750  1.0
  H  H25  1  0.83337347  0.59421795  0.64559694  1.0
  H  H26  1  0.78783170  0.59206285  0.42550112  1.0
  H  H27  1  0.17093589  0.73947297  0.35514239  1.0
  H  H28  1  0.20504996  0.81316408  0.42598666  1.0
  H  H29  1  0.81911147  0.73959556  0.57283591  1.0
  H  H30  1  0.00049092  0.26908403  0.76153864  1.0
  H  H31  1  0.03679209  0.23383992  0.72811581  1.0
  H  H32  1  0.09566470  0.19946211  0.90798369  1.0
  H  H33  1  0.04693550  0.13120919  0.94136310  1.0
  H  H34  1  0.89713973  0.80142192  0.10633207  1.0
  H  H35  1  0.94326132  0.86974702  0.07147795  1.0
  H  H36  1  0.99874928  0.73060514  0.03050511  1.0
  H  H37  1  0.96277706  0.76570049  0.96195567  1.0
  H  H38  1  0.10175264  0.92142198  0.63610923  1.0
  H  H39  1  0.98695361  0.89468442  0.70428319  1.0
  H  H40  1  0.89161539  0.07874275  0.55758013  1.0
  H  H41  1  0.00264223  0.10554537  0.59903829  1.0
  H  H42  1  0.00070335  0.53132737  0.23900194  1.0
  H  H43  1  0.96519693  0.46276347  0.27268227  1.0
  H  H44  1  0.90672651  0.60594008  0.09273578  1.0
  H  H45  1  0.95508456  0.57086087  0.05941112  1.0
  H  H46  1  0.08471881  0.40803002  0.89350298  1.0
  H  H47  1  0.03416368  0.44138465  0.92849490  1.0
  H  H48  1  0.99446530  0.26176633  0.96873669  1.0
  H  H49  1  0.02922380  0.22802150  0.03729802  1.0
  H  H50  1  0.89691628  0.05766619  0.36372853  1.0
  H  H51  1  0.00901515  0.09902101  0.29545357  1.0
  H  H52  1  0.09706946  0.13634692  0.44247988  1.0
  H  H53  1  0.98054260  0.20451415  0.40097339  1.0
  H  H54  1  0.99352327  0.46935405  0.77001845  1.0
  H  H55  1  0.02985443  0.53791011  0.73490060  1.0
  H  H56  1  0.09345080  0.39422023  0.69870937  1.0
  H  H57  1  0.04753052  0.42906490  0.63038535  1.0
  H  H58  1  0.90376552  0.59197159  0.30031667  1.0
  H  H59  1  0.95427091  0.55830573  0.36851895  1.0
  H  H60  1  0.99536233  0.73841927  0.23133305  1.0
  H  H61  1  0.96006004  0.77177115  0.26665786  1.0
  H  H62  1  0.10980246  0.94263891  0.42102552  1.0
  H  H63  1  0.99942266  0.90125567  0.39411508  1.0
  H  H64  1  0.90313701  0.86392945  0.57829334  1.0
  H  H65  1  0.01935284  0.79571991  0.60489510  1.0
  C  C66  1  0.50413310  0.92489381  0.49977363  1.0
  C  C67  1  0.49725475  0.00008265  0.57521267  1.0
  C  C68  1  0.49785465  0.07538071  0.42474817  1.0
  C  C69  1  0.54527320  0.25829653  0.83371723  1.0
  C  C70  1  0.53982933  0.33417875  0.90797722  1.0
  C  C71  1  0.54211614  0.40857629  0.75805795  1.0
  C  C72  1  0.45034806  0.74218641  0.09151896  1.0
  C  C73  1  0.45455048  0.59193848  0.16628413  1.0
  C  C74  1  0.45133787  0.66640931  0.24173296  1.0
  C  C75  1  0.48031190  0.94956070  0.88412887  1.0
  C  C76  1  0.49412304  0.00020900  0.88340049  1.0
  C  C77  1  0.50776153  0.05083687  0.83357449  1.0
  C  C78  1  0.50490874  0.05015328  0.78361559  1.0
  C  C79  1  0.49259479  0.00021178  0.78285300  1.0
  C  C80  1  0.48154007  0.95025786  0.83346675  1.0
  C  C81  1  0.36855168  0.15870915  0.87682077  1.0
  C  C82  1  0.36451641  0.10859388  0.87635191  1.0
  C  C83  1  0.52077317  0.10378140  0.83384649  1.0
  C  C84  1  0.69015585  0.14941915  0.79179591  1.0
  C  C85  1  0.70857629  0.19965252  0.79196605  1.0
  C  C86  1  0.54283999  0.20435962  0.83440394  1.0
  C  C87  1  0.62514591  0.89201174  0.98434759  1.0
  C  C88  1  0.62360956  0.84186083  0.03482242  1.0
  C  C89  1  0.45228938  0.79595742  0.03819967  1.0
  C  C90  1  0.28730414  0.80041637  0.99130392  1.0
  C  C91  1  0.30311343  0.85069781  0.94099896  1.0
  C  C92  1  0.46940175  0.89660905  0.93725862  1.0
  C  C93  1  0.32957944  0.95826722  0.72541068  1.0
  C  C94  1  0.32212712  0.95787389  0.67528433  1.0
  C  C95  1  0.49511548  0.00016891  0.62759486  1.0
  C  C96  1  0.66651811  0.04251860  0.63299269  1.0
  C  C97  1  0.65629235  0.04221997  0.68345434  1.0
  C  C98  1  0.49249905  0.00024769  0.72978918  1.0
  C  C99  1  0.50236795  0.33361480  0.11569903  1.0
  C  C100  1  0.49222706  0.38350076  0.11657832  1.0
  C  C101  1  0.48202152  0.38419741  0.16651668  1.0
  C  C102  1  0.48313451  0.33349614  0.21638856  1.0
  C  C103  1  0.49114965  0.28284719  0.21696335  1.0
  C  C104  1  0.49994877  0.28361264  0.16626844  1.0
  C  C105  1  0.63183106  0.53468392  0.12376851  1.0
  C  C106  1  0.63262226  0.48416593  0.12409444  1.0
  C  C107  1  0.47417627  0.43732761  0.16648491  1.0
  C  C108  1  0.30699168  0.44132691  0.20866263  1.0
  C  C109  1  0.29153712  0.49170923  0.20859788  1.0
  C  C110  1  0.45819003  0.53840878  0.16614460  1.0
  C  C111  1  0.35509106  0.37643146  0.01552731  1.0
  C  C112  1  0.35843378  0.37694140  0.96493927  1.0
  C  C113  1  0.53436233  0.33460091  0.96132375  1.0
  C  C114  1  0.70065308  0.29204177  0.00814993  1.0
  C  C115  1  0.68235504  0.29176466  0.05858376  1.0
  C  C116  1  0.51286774  0.33389056  0.06249146  1.0
  C  C117  1  0.65783138  0.18343676  0.27430445  1.0
  C  C118  1  0.66899335  0.13302926  0.32451268  1.0
  C  C119  1  0.49534877  0.12771440  0.37225283  1.0
  C  C120  1  0.31954391  0.17541730  0.36684749  1.0
  C  C121  1  0.32666217  0.22551487  0.31631704  1.0
  C  C122  1  0.49154690  0.22979277  0.26995887  1.0
  C  C123  1  0.49572948  0.66615896  0.44921993  1.0
  C  C124  1  0.50702965  0.61634296  0.49990540  1.0
  C  C125  1  0.51949899  0.61577524  0.55046486  1.0
  C  C126  1  0.51974401  0.66655295  0.54959399  1.0
  C  C127  1  0.51146290  0.71713432  0.49958755  1.0
  C  C128  1  0.50046555  0.71622671  0.44974415  1.0
  C  C129  1  0.36874591  0.46542675  0.65836045  1.0
  C  C130  1  0.36933879  0.51580830  0.60813879  1.0
  C  C131  1  0.52709600  0.56272717  0.60352767  1.0
  C  C132  1  0.69250354  0.55892404  0.64956516  1.0
  C  C133  1  0.70620144  0.50870399  0.69993812  1.0
  C  C134  1  0.54003693  0.46192971  0.70435400  1.0
  C  C135  1  0.63762492  0.62332952  0.39141059  1.0
  C  C136  1  0.63194179  0.62298445  0.34126597  1.0
  C  C137  1  0.45597803  0.66550734  0.29573865  1.0
  C  C138  1  0.29013567  0.70791662  0.30058846  1.0
  C  C139  1  0.31055741  0.70801407  0.35080428  1.0
  C  C140  1  0.48154542  0.66585836  0.39632928  1.0
  C  C141  1  0.34763662  0.81670480  0.45742392  1.0
  C  C142  1  0.33653557  0.86718042  0.45717035  1.0
  C  C143  1  0.50790973  0.87253089  0.49956666  1.0
  C  C144  1  0.68232072  0.82479463  0.54182233  1.0
  C  C145  1  0.67534342  0.77463272  0.54142595  1.0
  C  C146  1  0.51197628  0.77028381  0.49944456  1.0
  N  N147  1  0.87660137  0.24481145  0.74956706  1.0
  N  N148  1  0.21221266  0.16248616  0.91972701  1.0
  N  N149  1  0.77942996  0.83828290  0.08126618  1.0
  N  N150  1  0.12248856  0.75498198  0.99418537  1.0
  N  N151  1  0.16294005  0.91452103  0.67444787  1.0
  N  N152  1  0.82766065  0.08578093  0.58890775  1.0
  N  N153  1  0.12508946  0.49490516  0.25107484  1.0
  N  N154  1  0.79003199  0.58091655  0.08098909  1.0
  N  N155  1  0.20044222  0.41981201  0.91858603  1.0
  N  N156  1  0.86948312  0.24964375  0.00503581  1.0
  N  N157  1  0.83310412  0.08892017  0.32539714  1.0
  N  N158  1  0.15777584  0.17468424  0.41098620  1.0
  N  N159  1  0.87000422  0.50576865  0.74550445  1.0
  N  N160  1  0.21137528  0.41911086  0.66195825  1.0
  N  N161  1  0.78814710  0.58010037  0.33730098  1.0
  N  N162  1  0.12001154  0.75035728  0.25557172  1.0
  N  N163  1  0.17438927  0.91133895  0.41392112  1.0
  N  N164  1  0.84252058  0.82558700  0.58514292  1.0
  O  O165  1  0.26576036  0.06581085  0.46108582  1.0
  O  O166  1  0.27064985  0.96105915  0.47320522  1.0
  O  O167  1  0.26687105  0.97333953  0.56562692  1.0
  O  O168  1  0.73190933  0.03923768  0.43426134  1.0
  O  O169  1  0.72945951  0.02675375  0.53903955  1.0
  O  O170  1  0.73455545  0.93444966  0.52656753  1.0
  O  O171  1  0.30582430  0.39945449  0.79290400  1.0
  O  O172  1  0.30965170  0.29330119  0.80777256  1.0
  O  O173  1  0.30638268  0.30829259  0.89880890  1.0
  O  O174  1  0.77897000  0.37361966  0.76751648  1.0
  O  O175  1  0.77624663  0.35949716  0.87323016  1.0
  O  O176  1  0.78064125  0.26786185  0.85897490  1.0
  O  O177  1  0.21557296  0.64127415  0.23214646  1.0
  O  O178  1  0.21384949  0.73276436  0.12636660  1.0
  O  O179  1  0.21821402  0.62685980  0.14074918  1.0
  O  O180  1  0.68545777  0.69247661  0.20666858  1.0
  O  O181  1  0.68935262  0.60119955  0.19190576  1.0
  O  O182  1  0.68690573  0.70723312  0.10065288  1.0
