# generated using pymatgen
data_Sn2H18C13O5
_symmetry_space_group_name_H-M   'P 1'
_cell_length_a   9.35748983
_cell_length_b   18.88945041
_cell_length_c   18.89031294
_cell_angle_alpha   117.31761685
_cell_angle_beta   99.51170377
_cell_angle_gamma   99.50775590
_symmetry_Int_Tables_number   1
_chemical_formula_structural   Sn2H18C13O5
_chemical_formula_sum   'Sn12 H108 C78 O30'
_cell_volume   2812.99395605
_cell_formula_units_Z   6
loop_
 _symmetry_equiv_pos_site_id
 _symmetry_equiv_pos_as_xyz
  1  'x, y, z'
loop_
 _atom_site_type_symbol
 _atom_site_label
 _atom_site_symmetry_multiplicity
 _atom_site_fract_x
 _atom_site_fract_y
 _atom_site_fract_z
 _atom_site_occupancy
  Sn  Sn0  1  0.32737007  0.93681499  0.44126855  1.0
  Sn  Sn1  1  0.23795893  0.66871703  0.66706328  1.0
  Sn  Sn2  1  0.39040222  0.50441780  0.06313430  1.0
  Sn  Sn3  1  0.56928959  0.99842888  0.33119813  1.0
  Sn  Sn4  1  0.88611318  0.55878585  0.49545234  1.0
  Sn  Sn5  1  0.57068554  0.33284069  0.00165553  1.0
  Sn  Sn6  1  0.67262675  0.06318547  0.55873104  1.0
  Sn  Sn7  1  0.76204872  0.33127910  0.33293786  1.0
  Sn  Sn8  1  0.60959970  0.49558205  0.93686595  1.0
  Sn  Sn9  1  0.43071079  0.00157220  0.66880204  1.0
  Sn  Sn10  1  0.11388627  0.44121338  0.50454743  1.0
  Sn  Sn11  1  0.42931468  0.66715792  0.99834295  1.0
  H  H12  1  0.09783149  0.91945877  0.69841931  1.0
  H  H13  1  0.96277821  0.85983106  0.71897880  1.0
  H  H14  1  0.73385419  0.77942221  0.62778092  1.0
  H  H15  1  0.54441755  0.72340796  0.49457742  1.0
  H  H16  1  0.61918278  0.73425016  0.37763578  1.0
  H  H17  1  0.88625466  0.80800327  0.40179931  1.0
  H  H18  1  0.46259404  0.64610416  0.59346896  1.0
  H  H19  1  0.52401771  0.74666055  0.68620994  1.0
  H  H20  1  0.39838051  0.73167246  0.59516590  1.0
  H  H21  1  0.06715403  0.72316387  0.77130578  1.0
  H  H22  1  0.24025275  0.71750613  0.82444417  1.0
  H  H23  1  0.08924735  0.62476982  0.75613637  1.0
  H  H24  1  0.42295820  0.80469984  0.35342613  1.0
  H  H25  1  0.38588802  0.80393358  0.44386196  1.0
  H  H26  1  0.23305576  0.76958004  0.35376468  1.0
  H  H27  1  0.10584790  0.00913381  0.43560599  1.0
  H  H28  1  0.27178196  0.06722955  0.42992259  1.0
  H  H29  1  0.15700499  0.97298070  0.33963189  1.0
  H  H30  1  0.17858097  0.77898863  0.08045023  1.0
  H  H31  1  0.10305329  0.85912300  0.14009787  1.0
  H  H32  1  0.95482246  0.84833908  0.22058999  1.0
  H  H33  1  0.82141616  0.77103509  0.27649723  1.0
  H  H34  1  0.88508057  0.64314590  0.26545882  1.0
  H  H35  1  0.07839573  0.59362365  0.19167810  1.0
  H  H36  1  0.81638338  0.94731841  0.35381745  1.0
  H  H37  1  0.77728846  0.93951625  0.25325029  1.0
  H  H38  1  0.66649083  0.86350084  0.26827872  1.0
  H  H39  1  0.34402692  0.04822624  0.27680586  1.0
  H  H40  1  0.52272556  0.10704943  0.28244393  1.0
  H  H41  1  0.46449673  0.13144120  0.37519243  1.0
  H  H42  1  0.61830228  0.54872990  0.19518332  1.0
  H  H43  1  0.58201005  0.63994682  0.19596141  1.0
  H  H44  1  0.46369356  0.58426243  0.23042172  1.0
  H  H45  1  0.09656830  0.42654008  0.99092608  1.0
  H  H46  1  0.20424644  0.36266352  0.93278497  1.0
  H  H47  1  0.18384301  0.36666063  0.02706429  1.0
  H  H48  1  0.39941858  0.30155121  0.22113097  1.0
  H  H49  1  0.24383722  0.28100685  0.14092909  1.0
  H  H50  1  0.10606725  0.37227802  0.15172969  1.0
  H  H51  1  0.04999268  0.50550167  0.22900918  1.0
  H  H52  1  0.24175160  0.62236428  0.35681579  1.0
  H  H53  1  0.48461706  0.59811342  0.40632710  1.0
  H  H54  1  0.86897898  0.40645126  0.05260208  1.0
  H  H55  1  0.83766839  0.31369853  0.06041877  1.0
  H  H56  1  0.80307236  0.40473139  0.13644312  1.0
  H  H57  1  0.29563658  0.22852340  0.95171705  1.0
  H  H58  1  0.41575665  0.17547922  0.89299390  1.0
  H  H59  1  0.33305783  0.24380209  0.86857420  1.0
  H  H60  1  0.07008515  0.64651453  0.45127887  1.0
  H  H61  1  0.94252719  0.55606568  0.36000336  1.0
  H  H62  1  0.87993385  0.64621969  0.41566054  1.0
  H  H63  1  0.67023777  0.56440186  0.57338290  1.0
  H  H64  1  0.84179460  0.57013056  0.63721704  1.0
  H  H65  1  0.81730020  0.66041327  0.63326646  1.0
  H  H66  1  0.90216827  0.08054108  0.30158077  1.0
  H  H67  1  0.03722371  0.14016879  0.28102198  1.0
  H  H68  1  0.26614526  0.22057702  0.37221938  1.0
  H  H69  1  0.45558174  0.27659312  0.50542318  1.0
  H  H70  1  0.38081558  0.26574907  0.62236390  1.0
  H  H71  1  0.11374587  0.19199596  0.59820108  1.0
  H  H72  1  0.53740680  0.35389569  0.40653068  1.0
  H  H73  1  0.47598421  0.25333930  0.31378978  1.0
  H  H74  1  0.60161956  0.26832801  0.40483449  1.0
  H  H75  1  0.93284650  0.27683535  0.22869408  1.0
  H  H76  1  0.75974701  0.28249372  0.17555644  1.0
  H  H77  1  0.91075318  0.37522941  0.24386349  1.0
  H  H78  1  0.57704001  0.19530125  0.64657386  1.0
  H  H79  1  0.61411019  0.19606750  0.55613750  1.0
  H  H80  1  0.76694323  0.23042042  0.64623562  1.0
  H  H81  1  0.89414861  0.99086604  0.56439329  1.0
  H  H82  1  0.72821594  0.93277091  0.57007709  1.0
  H  H83  1  0.84299260  0.02701915  0.66036748  1.0
  H  H84  1  0.82141878  0.22101122  0.91954985  1.0
  H  H85  1  0.89694476  0.14087561  0.85990097  1.0
  H  H86  1  0.04517513  0.15166077  0.77940832  1.0
  H  H87  1  0.17858252  0.22896476  0.72350276  1.0
  H  H88  1  0.11491981  0.35685519  0.73454135  1.0
  H  H89  1  0.92160604  0.40637806  0.80832405  1.0
  H  H90  1  0.18361421  0.05268144  0.64618245  1.0
  H  H91  1  0.22271021  0.06048360  0.74674970  1.0
  H  H92  1  0.33350893  0.13649900  0.73172189  1.0
  H  H93  1  0.65597284  0.95177360  0.72319422  1.0
  H  H94  1  0.47727342  0.89295104  0.71755690  1.0
  H  H95  1  0.53550333  0.86855927  0.62480849  1.0
  H  H96  1  0.38169639  0.45126995  0.80481561  1.0
  H  H97  1  0.41799033  0.36005427  0.80403876  1.0
  H  H98  1  0.53630760  0.41573803  0.76957822  1.0
  H  H99  1  0.90343037  0.57345977  0.00907285  1.0
  H  H100  1  0.79575471  0.63733695  0.06721550  1.0
  H  H101  1  0.81615876  0.63334107  0.97293681  1.0
  H  H102  1  0.60058303  0.69844802  0.77886845  1.0
  H  H103  1  0.75616331  0.71899237  0.85906918  1.0
  H  H104  1  0.89393297  0.62772058  0.84826932  1.0
  H  H105  1  0.95000785  0.49449755  0.77099068  1.0
  H  H106  1  0.75824862  0.37763433  0.64318375  1.0
  H  H107  1  0.51538378  0.40188643  0.59367253  1.0
  H  H108  1  0.13102279  0.59355045  0.94739902  1.0
  H  H109  1  0.16232951  0.68630194  0.93958039  1.0
  H  H110  1  0.19692693  0.59526969  0.86355643  1.0
  H  H111  1  0.70436380  0.77147769  0.04828312  1.0
  H  H112  1  0.58424620  0.82452249  0.10700676  1.0
  H  H113  1  0.66694085  0.75619776  0.13142473  1.0
  H  H114  1  0.92991461  0.35348532  0.54872067  1.0
  H  H115  1  0.05747365  0.44393417  0.63999681  1.0
  H  H116  1  0.12006590  0.35378015  0.58433954  1.0
  H  H117  1  0.32976384  0.43559736  0.42661651  1.0
  H  H118  1  0.15820733  0.42986929  0.36278321  1.0
  H  H119  1  0.18270173  0.33958658  0.36673379  1.0
  C  C120  1  0.13170858  0.80346862  0.67718018  1.0
  C  C121  1  0.02720861  0.85658877  0.67419132  1.0
  C  C122  1  0.91880977  0.82336422  0.59076906  1.0
  C  C123  1  0.76813807  0.78416391  0.57730439  1.0
  C  C124  1  0.66074823  0.75247676  0.50194136  1.0
  C  C125  1  0.70202468  0.75931525  0.43709071  1.0
  C  C126  1  0.85034590  0.79946442  0.44989178  1.0
  C  C127  1  0.95943618  0.83114356  0.52541462  1.0
  C  C128  1  0.11482152  0.87496083  0.53312602  1.0
  C  C129  1  0.43114100  0.70231148  0.63120615  1.0
  C  C130  1  0.14667552  0.68602870  0.76785673  1.0
  C  C131  1  0.34425675  0.81276109  0.39157309  1.0
  C  C132  1  0.19912025  0.00523752  0.40719333  1.0
  C  C133  1  0.32836676  0.87377329  0.19645104  1.0
  C  C134  1  0.17080946  0.81759919  0.14331217  1.0
  C  C135  1  0.09576551  0.76739364  0.17656165  1.0
  C  C136  1  0.98434220  0.79309781  0.21579340  1.0
  C  C137  1  0.90860844  0.74932321  0.24737774  1.0
  C  C138  1  0.94287158  0.67756475  0.24042209  1.0
  C  C139  1  0.05106281  0.65028138  0.20028255  1.0
  C  C140  1  0.12852417  0.69422153  0.16870168  1.0
  C  C141  1  0.24005777  0.65814595  0.12490150  1.0
  C  C142  1  0.72872127  0.92888000  0.29760007  1.0
  C  C143  1  0.46069200  0.08193061  0.31393694  1.0
  C  C144  1  0.53155873  0.57884716  0.18716920  1.0
  C  C145  1  0.19365852  0.40194777  0.99478078  1.0
  C  C146  1  0.45453591  0.32274895  0.12637070  1.0
  C  C147  1  0.35304535  0.32579632  0.18249795  1.0
  C  C148  1  0.32804410  0.40920748  0.23266374  1.0
  C  C149  1  0.19085729  0.42272471  0.20695277  1.0
  C  C150  1  0.15891620  0.49809661  0.25070825  1.0
  C  C151  1  0.26506547  0.56289313  0.32240731  1.0
  C  C152  1  0.40056210  0.55005183  0.34968937  1.0
  C  C153  1  0.43407164  0.47452072  0.30581180  1.0
  C  C154  1  0.58181965  0.46683356  0.34184152  1.0
  C  C155  1  0.79975613  0.36868344  0.07104723  1.0
  C  C156  1  0.37868214  0.23203299  0.91809158  1.0
  C  C157  1  0.95322619  0.60838414  0.42108214  1.0
  C  C158  1  0.79192727  0.59285964  0.59793048  1.0
  C  C159  1  0.86829273  0.19652999  0.32281999  1.0
  C  C160  1  0.97279270  0.14340984  0.32580885  1.0
  C  C161  1  0.08118860  0.17663501  0.40923168  1.0
  C  C162  1  0.23186060  0.21583594  0.42269612  1.0
  C  C163  1  0.33925153  0.24752309  0.49805978  1.0
  C  C164  1  0.29797477  0.24068398  0.56291012  1.0
  C  C165  1  0.14965308  0.20053605  0.55010905  1.0
  C  C166  1  0.04056249  0.16885629  0.47458643  1.0
  C  C167  1  0.88517854  0.12503964  0.46687542  1.0
  C  C168  1  0.56886093  0.29768837  0.36879251  1.0
  C  C169  1  0.85332501  0.31397052  0.23214260  1.0
  C  C170  1  0.65574146  0.18723999  0.60842690  1.0
  C  C171  1  0.80087579  0.99476357  0.59280649  1.0
  C  C172  1  0.67163361  0.12622779  0.80354860  1.0
  C  C173  1  0.82919029  0.18240065  0.85668738  1.0
  C  C174  1  0.90423347  0.23260682  0.82343865  1.0
  C  C175  1  0.01565539  0.20690204  0.78420703  1.0
  C  C176  1  0.09138915  0.25067664  0.75262057  1.0
  C  C177  1  0.05712493  0.32243509  0.75957666  1.0
  C  C178  1  0.94893757  0.34971971  0.79971815  1.0
  C  C179  1  0.87147729  0.30577956  0.83129964  1.0
  C  C180  1  0.75994230  0.34185452  0.87509888  1.0
  C  C181  1  0.27127633  0.07111984  0.70239983  1.0
  C  C182  1  0.53930590  0.91806985  0.68606380  1.0
  C  C183  1  0.46844164  0.42115393  0.81283096  1.0
  C  C184  1  0.80634185  0.59805332  0.00521992  1.0
  C  C185  1  0.54546586  0.67725275  0.87363198  1.0
  C  C186  1  0.64695441  0.67420353  0.81750106  1.0
  C  C187  1  0.67195752  0.59079175  0.76733568  1.0
  C  C188  1  0.80914293  0.57727390  0.79304678  1.0
  C  C189  1  0.84108572  0.50190324  0.74929200  1.0
  C  C190  1  0.73493506  0.43710610  0.67759202  1.0
  C  C191  1  0.59943982  0.44994802  0.65031035  1.0
  C  C192  1  0.56592920  0.52547913  0.69418784  1.0
  C  C193  1  0.41818057  0.53316505  0.65815803  1.0
  C  C194  1  0.20024208  0.63131764  0.92895223  1.0
  C  C195  1  0.62131716  0.76796810  0.08190850  1.0
  C  C196  1  0.04677465  0.39161571  0.57891750  1.0
  C  C197  1  0.20807357  0.40714021  0.40207021  1.0
  O  O198  1  0.08608089  0.72516485  0.62007498  1.0
  O  O199  1  0.24965155  0.83266181  0.73472171  1.0
  O  O200  1  0.22632696  0.88248867  0.58736719  1.0
  O  O201  1  0.12530139  0.90341030  0.48382437  1.0
  O  O202  1  0.45674693  0.00378816  0.56340966  1.0
  O  O203  1  0.36090197  0.89500334  0.27476665  1.0
  O  O204  1  0.41718815  0.90217524  0.16732325  1.0
  O  O205  1  0.34415454  0.70489690  0.11749699  1.0
  O  O206  1  0.22187608  0.58036554  0.09632246  1.0
  O  O207  1  0.45287589  0.55948625  0.99606082  1.0
  O  O208  1  0.46597595  0.37983997  0.10513042  1.0
  O  O209  1  0.51487484  0.26519432  0.09800514  1.0
  O  O210  1  0.63908224  0.41263267  0.29513401  1.0
  O  O211  1  0.64170481  0.51618582  0.41957338  1.0
  O  O212  1  0.89328780  0.43664231  0.44055758  1.0
  O  O213  1  0.91392041  0.27483376  0.37992412  1.0
  O  O214  1  0.75034790  0.16733742  0.26527859  1.0
  O  O215  1  0.77367140  0.11751056  0.41263249  1.0
  O  O216  1  0.87469728  0.09658955  0.51617562  1.0
  O  O217  1  0.54325175  0.99621168  0.43658980  1.0
  O  O218  1  0.63909887  0.10499651  0.72523298  1.0
  O  O219  1  0.58281424  0.09782771  0.83267634  1.0
  O  O220  1  0.65584584  0.29510418  0.88250318  1.0
  O  O221  1  0.77812073  0.41963493  0.90367766  1.0
  O  O222  1  0.54712464  0.44051297  0.00393904  1.0
  O  O223  1  0.53402443  0.62016112  0.89487134  1.0
  O  O224  1  0.48512523  0.73480615  0.90199577  1.0
  O  O225  1  0.36091829  0.58736656  0.70486638  1.0
  O  O226  1  0.35829526  0.48381464  0.58042648  1.0
  O  O227  1  0.10671351  0.56335630  0.55944312  1.0
