# generated using pymatgen
data_Zn3H20C30(O3F)4
_symmetry_space_group_name_H-M   'P 1'
_cell_length_a   19.47579663
_cell_length_b   19.47586479
_cell_length_c   19.47611372
_cell_angle_alpha   68.25885592
_cell_angle_beta   74.97818035
_cell_angle_gamma   111.74017926
_symmetry_Int_Tables_number   1
_chemical_formula_structural   Zn3H20C30(O3F)4
_chemical_formula_sum   'Zn6 H40 C60 O24 F8'
_cell_volume   5661.40417426
_cell_formula_units_Z   2
loop_
 _symmetry_equiv_pos_site_id
 _symmetry_equiv_pos_as_xyz
  1  'x, y, z'
loop_
 _atom_site_type_symbol
 _atom_site_label
 _atom_site_symmetry_multiplicity
 _atom_site_fract_x
 _atom_site_fract_y
 _atom_site_fract_z
 _atom_site_occupancy
  Zn  Zn0  1  0.00000220  0.44053163  0.55946631  1.0
  Zn  Zn1  1  0.55415858  0.00000071  0.44584218  1.0
  Zn  Zn2  1  0.44583623  0.00000184  0.55416191  1.0
  Zn  Zn3  1  0.55946987  0.55946968  0.99999731  1.0
  Zn  Zn4  1  0.00000464  0.55947045  0.44052464  1.0
  Zn  Zn5  1  0.44053421  0.44053050  0.99999658  1.0
  H  H6  1  0.02336080  0.58019190  0.67351194  1.0
  H  H7  1  0.35029887  0.58497956  0.95345855  1.0
  H  H8  1  0.74629664  0.41980763  0.55683154  1.0
  H  H9  1  0.63954309  0.34169618  0.59955886  1.0
  H  H10  1  0.67865913  0.37046060  0.66391571  1.0
  H  H11  1  0.65941950  0.22690468  0.69138242  1.0
  H  H12  1  0.76532112  0.30376214  0.64969767  1.0
  H  H13  1  0.32648797  0.30312780  0.25370699  1.0
  H  H14  1  0.29785214  0.23910743  0.36045950  1.0
  H  H15  1  0.30820131  0.34258120  0.32133785  1.0
  H  H16  1  0.43252089  0.35081552  0.34057255  1.0
  H  H17  1  0.05874528  0.65830620  0.70215035  1.0
  H  H18  1  0.46155817  0.41502448  0.23467278  1.0
  H  H19  1  0.25370274  0.69687156  0.32649245  1.0
  H  H20  1  0.36045784  0.76089752  0.29784880  1.0
  H  H21  1  0.32133788  0.65742116  0.30820161  1.0
  H  H22  1  0.34058182  0.64919607  0.43251450  1.0
  H  H23  1  0.23468053  0.58498244  0.46155849  1.0
  H  H24  1  0.67350652  0.41980686  0.02335885  1.0
  H  H25  1  0.70215078  0.34169567  0.05874455  1.0
  H  H26  1  0.69179707  0.37045764  0.96562333  1.0
  H  H27  1  0.56748299  0.22690236  0.08171549  1.0
  H  H28  1  0.96562183  0.62953826  0.69179858  1.0
  H  H29  1  0.53843694  0.30375841  0.04654422  1.0
  H  H30  1  0.97663943  0.30312979  0.44316962  1.0
  H  H31  1  0.94125403  0.23910324  0.40044279  1.0
  H  H32  1  0.03437784  0.34257728  0.33608700  1.0
  H  H33  1  0.91829349  0.35080992  0.30861578  1.0
  H  H34  1  0.95346229  0.41502150  0.35030427  1.0
  H  H35  1  0.55682836  0.58019069  0.74630018  1.0
  H  H36  1  0.59955391  0.65830286  0.63954802  1.0
  H  H37  1  0.66391203  0.62953406  0.67866373  1.0
  H  H38  1  0.69138458  0.77309138  0.65942205  1.0
  H  H39  1  0.08170765  0.77309268  0.56748353  1.0
  H  H40  1  0.64969724  0.69623235  0.76532426  1.0
  H  H41  1  0.04653698  0.69623302  0.53844378  1.0
  H  H42  1  0.44316873  0.69686400  0.97663862  1.0
  H  H43  1  0.40044325  0.76089376  0.94125589  1.0
  H  H44  1  0.33608447  0.65741891  0.03437787  1.0
  H  H45  1  0.30861562  0.64919914  0.91828856  1.0
  C  C46  1  0.11745003  0.61744647  0.50000185  1.0
  C  C47  1  0.60947531  0.50000871  0.89054020  1.0
  C  C48  1  0.66557812  0.35884259  0.02878541  1.0
  C  C49  1  0.92111956  0.34780176  0.36516400  1.0
  C  C50  1  0.97121214  0.30563363  0.38763215  1.0
  C  C51  1  0.63483646  0.71371592  0.71296475  1.0
  C  C52  1  0.61236673  0.64115531  0.69326621  1.0
  C  C53  1  0.07888096  0.71371724  0.57331848  1.0
  C  C54  1  0.02878722  0.64115767  0.66557899  1.0
  C  C55  1  0.36516184  0.65220000  0.92111752  1.0
  C  C56  1  0.38762989  0.69436148  0.97121341  1.0
  C  C57  1  0.71296290  0.28628183  0.63483629  1.0
  C  C58  1  0.89054310  0.50000898  0.60944616  1.0
  C  C59  1  0.69326308  0.35884155  0.61237059  1.0
  C  C60  1  0.42668265  0.34780386  0.28703431  1.0
  C  C61  1  0.33442233  0.30563579  0.30673812  1.0
  C  C62  1  0.28703914  0.65220185  0.42668125  1.0
  C  C63  1  0.30673728  0.69436616  0.33442258  1.0
  C  C64  1  0.57331813  0.28628103  0.07888281  1.0
  C  C65  1  0.39052765  0.49998877  0.10945464  1.0
  C  C66  1  0.10946218  0.49999450  0.39054828  1.0
  C  C67  1  0.17000804  0.50000181  0.33000108  1.0
  C  C68  1  0.67001305  0.50000335  0.82999819  1.0
  C  C69  1  0.83000016  0.50000270  0.66999421  1.0
  C  C70  1  0.49999881  0.61744838  0.88254905  1.0
  C  C71  1  0.32998723  0.49999119  0.17000022  1.0
  C  C72  1  0.22163822  0.49999926  0.27835555  1.0
  C  C73  1  0.72163586  0.49999980  0.77835429  1.0
  C  C74  1  0.77835906  0.49999977  0.72164023  1.0
  C  C75  1  0.27836029  0.50000143  0.22164053  1.0
  C  C76  1  0.88255144  0.38255628  0.49999520  1.0
  C  C77  1  0.16638884  0.73244362  0.53414502  1.0
  C  C78  1  0.43394452  0.70053606  0.83361092  1.0
  C  C79  1  0.73341156  0.26755632  0.56605473  1.0
  C  C80  1  0.46585477  0.29946835  0.26658809  1.0
  C  C81  1  0.26659362  0.70053838  0.46584984  1.0
  C  C82  1  0.53414796  0.26755931  0.16638832  1.0
  C  C83  1  0.83361213  0.29946539  0.43394504  1.0
  C  C84  1  0.50000129  0.38255355  0.11744881  1.0
  C  C85  1  0.56605486  0.73244238  0.73341050  1.0
  C  C86  1  0.23202334  0.79533884  0.53323838  1.0
  C  C87  1  0.43668486  0.76526449  0.76797642  1.0
  C  C88  1  0.67142481  0.20466012  0.56331505  1.0
  C  C89  1  0.46676304  0.23474181  0.32857776  1.0
  C  C90  1  0.32858082  0.76526644  0.46675827  1.0
  C  C91  1  0.53323576  0.20466233  0.23202442  1.0
  C  C92  1  0.76797644  0.23473703  0.43668545  1.0
  C  C93  1  0.56331550  0.79533960  0.67142333  1.0
  C  C94  1  0.31435273  0.81435254  0.50000170  1.0
  C  C95  1  0.50000158  0.81435595  0.68564711  1.0
  C  C96  1  0.68564746  0.18564645  0.49999973  1.0
  C  C97  1  0.49999886  0.18564863  0.31435432  1.0
  C  C98  1  0.49999773  0.88281483  0.61719176  1.0
  C  C99  1  0.61718487  0.11719002  0.50000154  1.0
  C  C100  1  0.49999296  0.11718780  0.38281659  1.0
  C  C101  1  0.38280803  0.88281147  0.50000547  1.0
  C  C102  1  0.18606897  0.68606740  0.49999991  1.0
  C  C103  1  0.49999951  0.68606771  0.81393200  1.0
  C  C104  1  0.81393275  0.31393312  0.49999999  1.0
  C  C105  1  0.50000034  0.31393510  0.18606623  1.0
  O  O106  1  0.08420331  0.53941345  0.55832079  1.0
  O  O107  1  0.54478634  0.64251846  0.91579559  1.0
  O  O108  1  0.90226370  0.46058708  0.45521091  1.0
  O  O109  1  0.44168429  0.35748373  0.09773259  1.0
  O  O110  1  0.09773555  0.64251573  0.44168389  1.0
  O  O111  1  0.55832231  0.46058515  0.08419937  1.0
  O  O112  1  0.91579901  0.35748451  0.54478073  1.0
  O  O113  1  0.45521293  0.53941632  0.90226402  1.0
  O  O114  1  0.09326754  0.45584716  0.46628248  1.0
  O  O115  1  0.63742914  0.55954927  0.90673193  1.0
  O  O116  1  0.07787310  0.54414061  0.36259527  1.0
  O  O117  1  0.53373999  0.44046804  0.92212854  1.0
  O  O118  1  0.92213289  0.55954808  0.53371304  1.0
  O  O119  1  0.46626340  0.54413530  0.09325987  1.0
  O  O120  1  0.90673841  0.44046549  0.63739688  1.0
  O  O121  1  0.36257601  0.45584136  0.07786847  1.0
  O  O122  1  0.47031881  0.92527559  0.63636556  1.0
  O  O123  1  0.54504623  0.10668635  0.52967967  1.0
  O  O124  1  0.43835794  0.07472996  0.45495540  1.0
  O  O125  1  0.36363259  0.89331706  0.56163907  1.0
  O  O126  1  0.56163873  0.10668635  0.36363227  1.0
  O  O127  1  0.63637181  0.07473154  0.47031283  1.0
  O  O128  1  0.52968618  0.89331630  0.54504563  1.0
  O  O129  1  0.45495597  0.92527058  0.43836061  1.0
  F  F130  1  0.21451174  0.84186223  0.56471027  1.0
  F  F131  1  0.37264943  0.77922547  0.78548225  1.0
  F  F132  1  0.59342921  0.15812697  0.62735251  1.0
  F  F133  1  0.43530021  0.22078868  0.40656928  1.0
  F  F134  1  0.40657968  0.77923256  0.43528359  1.0
  F  F135  1  0.56469970  0.15812641  0.21452462  1.0
  F  F136  1  0.78548666  0.22077583  0.37265065  1.0
  F  F137  1  0.62735105  0.84186614  0.59342732  1.0
