# generated using pymatgen
data_Zn4H20C44O29
_symmetry_space_group_name_H-M   'P 1'
_cell_length_a   23.69974312
_cell_length_b   23.69956424
_cell_length_c   23.69855062
_cell_angle_alpha   114.16426677
_cell_angle_beta   107.18117342
_cell_angle_gamma   107.17562145
_symmetry_Int_Tables_number   1
_chemical_formula_structural   Zn4H20C44O29
_chemical_formula_sum   'Zn8 H40 C88 O58'
_cell_volume   10194.34101217
_cell_formula_units_Z   2
loop_
 _symmetry_equiv_pos_site_id
 _symmetry_equiv_pos_as_xyz
  1  'x, y, z'
loop_
 _atom_site_type_symbol
 _atom_site_label
 _atom_site_symmetry_multiplicity
 _atom_site_fract_x
 _atom_site_fract_y
 _atom_site_fract_z
 _atom_site_occupancy
  Zn  Zn0  1  0.94028061  0.89963773  0.45633884  1.0
  Zn  Zn1  1  0.94028598  0.04064035  0.48392567  1.0
  Zn  Zn2  1  0.05973379  0.04366760  0.60036359  1.0
  Zn  Zn3  1  0.05970952  0.01605702  0.45934825  1.0
  Zn  Zn4  1  0.05671021  0.60035709  0.04065084  1.0
  Zn  Zn5  1  0.94329127  0.45935212  0.89962624  1.0
  Zn  Zn6  1  0.05669657  0.45633189  0.01605475  1.0
  Zn  Zn7  1  0.94330735  0.48394053  0.04365976  1.0
  H  H8  1  0.07851286  0.73064733  0.96403760  1.0
  H  H9  1  0.92149261  0.53599488  0.76935593  1.0
  H  H10  1  0.07202950  0.96787820  0.73005535  1.0
  H  H11  1  0.92805426  0.76999107  0.53214592  1.0
  H  H12  1  0.92148316  0.38549278  0.15211664  1.0
  H  H13  1  0.07850459  0.34786342  0.11449567  1.0
  H  H14  1  0.92802270  0.15804413  0.39587052  1.0
  H  H15  1  0.07199194  0.10413494  0.34196996  1.0
  H  H16  1  0.26215611  0.72999629  0.15803273  1.0
  H  H17  1  0.26216134  0.53212117  0.10413482  1.0
  H  H18  1  0.73336370  0.96400129  0.38549457  1.0
  H  H19  1  0.73337984  0.76936649  0.34788626  1.0
  H  H20  1  0.73781424  0.34194364  0.76995178  1.0
  H  H21  1  0.73786496  0.39587662  0.96786437  1.0
  H  H22  1  0.26662682  0.11449137  0.53598402  1.0
  H  H23  1  0.26663076  0.15213820  0.73064629  1.0
  H  H24  1  0.16277331  0.89815221  0.35348397  1.0
  H  H25  1  0.95535630  0.60187948  0.26465632  1.0
  H  H26  1  0.04464438  0.80928336  0.14650489  1.0
  H  H27  1  0.83721967  0.69069193  0.23535815  1.0
  H  H28  1  0.16276422  0.26461519  0.80931104  1.0
  H  H29  1  0.95535248  0.35347828  0.69069069  1.0
  H  H30  1  0.04464881  0.23537138  0.89814702  1.0
  H  H31  1  0.83720879  0.14651435  0.60182320  1.0
  H  H32  1  0.91677801  0.62120307  0.67664976  1.0
  H  H33  1  0.08323873  0.82335991  0.87883431  1.0
  H  H34  1  0.92571200  0.67663725  0.61676003  1.0
  H  H35  1  0.07436659  0.88326270  0.82340304  1.0
  H  H36  1  0.08316406  0.25979737  0.20434696  1.0
  H  H37  1  0.91670446  0.29548360  0.24002511  1.0
  H  H38  1  0.07440018  0.19116679  0.25102943  1.0
  H  H39  1  0.92574785  0.24913580  0.30899014  1.0
  H  H40  1  0.44013770  0.61673496  0.19104000  1.0
  H  H41  1  0.44012896  0.82334803  0.24900011  1.0
  H  H42  1  0.55545923  0.67665815  0.25995696  1.0
  H  H43  1  0.55544601  0.87880020  0.29564037  1.0
  H  H44  1  0.55989361  0.30891764  0.88326700  1.0
  H  H45  1  0.55984051  0.25091967  0.67661047  1.0
  H  H46  1  0.44455204  0.24010771  0.82336305  1.0
  H  H47  1  0.44454102  0.20439681  0.62120146  1.0
  C  C48  1  0.81540252  0.90770393  0.40769401  1.0
  C  C49  1  0.99998824  0.13730921  0.63730896  1.0
  C  C50  1  0.00003100  0.90989594  0.59013296  1.0
  C  C51  1  0.18459932  0.09230689  0.59228751  1.0
  C  C52  1  0.00000264  0.86268173  0.36267436  1.0
  C  C53  1  0.99999689  0.09011109  0.40986241  1.0
  C  C54  1  0.00000063  0.59230271  0.90770721  1.0
  C  C55  1  0.00000265  0.36267505  0.86267155  1.0
  C  C56  1  0.18024102  0.59010045  0.09012596  1.0
  C  C57  1  0.00000172  0.40770499  0.09230528  1.0
  C  C58  1  0.00000699  0.63732248  0.13732593  1.0
  C  C59  1  0.81976087  0.40986943  0.90986653  1.0
  C  C60  1  0.99999839  0.80446003  0.30445408  1.0
  C  C61  1  0.99999533  0.69554257  0.19553785  1.0
  C  C62  1  0.04262720  0.82053910  0.27660497  1.0
  C  C63  1  0.95607029  0.67944963  0.22209219  1.0
  C  C64  1  0.04392189  0.76601984  0.22337666  1.0
  C  C65  1  0.95736608  0.73398141  0.27790207  1.0
  C  C66  1  0.99999445  0.19553015  0.69553922  1.0
  C  C67  1  0.99999345  0.30444542  0.80444154  1.0
  C  C68  1  0.04262117  0.22208052  0.76601440  1.0
  C  C69  1  0.95606865  0.27660797  0.73396137  1.0
  C  C70  1  0.04392150  0.27789712  0.82054166  1.0
  C  C71  1  0.95735323  0.22336565  0.67943826  1.0
  C  C72  1  0.00000072  0.62982319  0.87017841  1.0
  C  C73  1  0.04429181  0.70201178  0.90800344  1.0
  C  C74  1  0.04428142  0.73692940  0.87309148  1.0
  C  C75  1  0.00000889  0.70019974  0.79982395  1.0
  C  C76  1  0.95573917  0.62693349  0.76308274  1.0
  C  C77  1  0.95572023  0.59200974  0.79798727  1.0
  C  C78  1  0.00001746  0.73565135  0.76437552  1.0
  C  C79  1  0.00003253  0.76660679  0.73342572  1.0
  C  C80  1  0.00003364  0.80204328  0.69798501  1.0
  C  C81  1  0.04096295  0.87614320  0.73558750  1.0
  C  C82  1  0.04089062  0.91108681  0.70070420  1.0
  C  C83  1  0.00003296  0.87238750  0.62765540  1.0
  C  C84  1  0.95918193  0.79933988  0.58894057  1.0
  C  C85  1  0.95910814  0.76445371  0.62388179  1.0
  C  C86  1  0.00000020  0.37017656  0.12982454  1.0
  C  C87  1  0.95570841  0.36369634  0.15771507  1.0
  C  C88  1  0.95571530  0.32878458  0.19263129  1.0
  C  C89  1  0.99998540  0.29979391  0.20017160  1.0
  C  C90  1  0.04425518  0.30733081  0.17117976  1.0
  C  C91  1  0.04428270  0.34227039  0.13629092  1.0
  C  C92  1  0.99999564  0.26434955  0.23562562  1.0
  C  C93  1  0.00001666  0.23342011  0.26660174  1.0
  C  C94  1  0.00001877  0.19798678  0.30204595  1.0
  C  C95  1  0.95909153  0.19465679  0.33521051  1.0
  C  C96  1  0.95915122  0.15982839  0.37021151  1.0
  C  C97  1  0.99999716  0.12762537  0.37234763  1.0
  C  C98  1  0.04086483  0.12979598  0.34018660  1.0
  C  C99  1  0.04095712  0.16482576  0.30539224  1.0
  C  C100  1  0.25526940  0.62760928  0.12763041  1.0
  C  C101  1  0.28960500  0.70065555  0.15981718  1.0
  C  C102  1  0.35943755  0.73554586  0.19463053  1.0
  C  C103  1  0.39593859  0.69795821  0.19797497  1.0
  C  C104  1  0.35943648  0.62385456  0.16480207  1.0
  C  C105  1  0.28960662  0.58891103  0.12979087  1.0
  C  C106  1  0.46681185  0.73339108  0.23341941  1.0
  C  C107  1  0.52871773  0.76434833  0.26437875  1.0
  C  C108  1  0.59962063  0.79980523  0.29983370  1.0
  C  C109  1  0.63614692  0.87306545  0.32882300  1.0
  C  C110  1  0.70597906  0.90798898  0.36371079  1.0
  C  C111  1  0.74035368  0.87017465  0.37017605  1.0
  C  C112  1  0.70598309  0.79799343  0.34229312  1.0
  C  C113  1  0.63615337  0.76307489  0.30737557  1.0
  C  C114  1  0.74473341  0.37236161  0.87235811  1.0
  C  C115  1  0.71037945  0.34016409  0.79930974  1.0
  C  C116  1  0.64055390  0.30534576  0.76442955  1.0
  C  C117  1  0.60406093  0.30201816  0.80203461  1.0
  C  C118  1  0.64058251  0.33519472  0.87613665  1.0
  C  C119  1  0.71040698  0.37020917  0.91106970  1.0
  C  C120  1  0.53318738  0.26657332  0.76660510  1.0
  C  C121  1  0.47128165  0.23562507  0.73565407  1.0
  C  C122  1  0.40037910  0.20017656  0.70019754  1.0
  C  C123  1  0.36384382  0.17117865  0.62692438  1.0
  C  C124  1  0.29401989  0.13628796  0.59200965  1.0
  C  C125  1  0.25964867  0.12982211  0.62982190  1.0
  C  C126  1  0.29402140  0.15771973  0.70201520  1.0
  C  C127  1  0.36384969  0.19264090  0.73693042  1.0
  C  C128  1  0.08279549  0.89524657  0.29744788  1.0
  C  C129  1  0.90221277  0.60474339  0.18755574  1.0
  C  C130  1  0.09778351  0.78534442  0.20253332  1.0
  C  C131  1  0.91720271  0.71465505  0.31244396  1.0
  C  C132  1  0.08278847  0.18754513  0.78535377  1.0
  C  C133  1  0.90220700  0.29745333  0.71462444  1.0
  C  C134  1  0.09778573  0.31244020  0.89525720  1.0
  C  C135  1  0.91718879  0.20252151  0.60472085  1.0
  O  O136  1  0.99999865  0.99999371  0.49999639  1.0
  O  O137  1  0.84458154  0.87230098  0.41682391  1.0
  O  O138  1  0.94884751  0.10268634  0.57697909  1.0
  O  O139  1  0.03659542  0.97675299  0.62798576  1.0
  O  O140  1  0.84458243  0.97227790  0.42774238  1.0
  O  O141  1  0.96345383  0.87202517  0.52325687  1.0
  O  O142  1  0.05113679  0.12812001  0.65384493  1.0
  O  O143  1  0.15543047  0.08319307  0.62770863  1.0
  O  O144  1  0.05114122  0.92300707  0.39730143  1.0
  O  O145  1  0.15541821  0.07224825  0.52771215  1.0
  O  O146  1  0.94885509  0.84615183  0.37186285  1.0
  O  O147  1  0.96343123  0.09140678  0.44016113  1.0
  O  O148  1  0.03655719  0.05981177  0.40856783  1.0
  O  O149  1  0.99999822  0.49999755  0.99999431  1.0
  O  O150  1  0.04451743  0.62769781  0.97228716  1.0
  O  O151  1  0.97428598  0.39729726  0.84614849  1.0
  O  O152  1  0.15123211  0.52324741  0.05981913  1.0
  O  O153  1  0.95546956  0.52771802  0.87229064  1.0
  O  O154  1  0.15123639  0.62797253  0.09143042  1.0
  O  O155  1  0.02570539  0.37185562  0.92300322  1.0
  O  O156  1  0.04452938  0.41682757  0.07224962  1.0
  O  O157  1  0.97429875  0.57699070  0.12813531  1.0
  O  O158  1  0.95548105  0.42776028  0.08318180  1.0
  O  O159  1  0.02571639  0.65384037  0.10269925  1.0
  O  O160  1  0.84876887  0.40858126  0.87201317  1.0
  O  O161  1  0.84877517  0.44016912  0.97673674  1.0
  O  O162  1  0.15004872  0.92778115  0.33924984  1.0
  O  O163  1  0.05642494  0.92231489  0.27263040  1.0
  O  O164  1  0.91150876  0.57224972  0.22230419  1.0
  O  O165  1  0.85033072  0.57765307  0.13411189  1.0
  O  O166  1  0.08850108  0.81079311  0.16073660  1.0
  O  O167  1  0.14966113  0.78378454  0.22733888  1.0
  O  O168  1  0.84994775  0.68919610  0.27772048  1.0
  O  O169  1  0.94357275  0.71622429  0.36589358  1.0
  O  O170  1  0.15004186  0.22226292  0.81081720  1.0
  O  O171  1  0.05642239  0.13409783  0.78378599  1.0
  O  O172  1  0.91149154  0.33925538  0.68917954  1.0
  O  O173  1  0.85032830  0.27265879  0.71618418  1.0
  O  O174  1  0.08850407  0.27771316  0.92777327  1.0
  O  O175  1  0.14966621  0.36587443  0.92233537  1.0
  O  O176  1  0.84993062  0.16073615  0.57219330  1.0
  O  O177  1  0.94356103  0.22732432  0.57765200  1.0
  O  O178  1  0.91223832  0.58906667  0.69280667  1.0
  O  O179  1  0.08777971  0.80718984  0.91095856  1.0
  O  O180  1  0.91874740  0.69338188  0.58519924  1.0
  O  O181  1  0.08131892  0.91481980  0.80666818  1.0
  O  O182  1  0.08773856  0.28054513  0.17679652  1.0
  O  O183  1  0.91220185  0.32312288  0.21937610  1.0
  O  O184  1  0.08133454  0.16653211  0.27469801  1.0
  O  O185  1  0.91873541  0.22536723  0.33352571  1.0
  O  O186  1  0.39183909  0.58518268  0.16648860  1.0
  O  O187  1  0.39182447  0.80660604  0.22531663  1.0
  O  O188  1  0.60375640  0.69281974  0.28063270  1.0
  O  O189  1  0.60374222  0.91093194  0.32320213  1.0
  O  O190  1  0.60819505  0.33351193  0.91482345  1.0
  O  O191  1  0.60814241  0.27463123  0.69335439  1.0
  O  O192  1  0.39625891  0.21941220  0.80719998  1.0
  O  O193  1  0.39625026  0.17680941  0.58906148  1.0
