# generated using pymatgen
data_AlH12C21S3(NO5)3
_symmetry_space_group_name_H-M   'P 1'
_cell_length_a   4.29834260
_cell_length_b   27.60635826
_cell_length_c   27.60633681
_cell_angle_alpha   119.99993696
_cell_angle_beta   90.00001518
_cell_angle_gamma   89.99908735
_symmetry_Int_Tables_number   1
_chemical_formula_structural   AlH12C21S3(NO5)3
_chemical_formula_sum   'Al2 H24 C42 S6 N6 O30'
_cell_volume   2836.93795375
_cell_formula_units_Z   2
loop_
 _symmetry_equiv_pos_site_id
 _symmetry_equiv_pos_as_xyz
  1  'x, y, z'
loop_
 _atom_site_type_symbol
 _atom_site_label
 _atom_site_symmetry_multiplicity
 _atom_site_fract_x
 _atom_site_fract_y
 _atom_site_fract_z
 _atom_site_occupancy
  Al  Al0  1  0.03466926  0.99999801  0.49999893  1.0
  Al  Al1  1  0.03458435  0.33333170  0.16666705  1.0
  H  H2  1  0.47685421  0.48464586  0.30505245  1.0
  H  H3  1  0.41648381  0.58882524  0.35687985  1.0
  H  H4  1  0.47361728  0.58917154  0.20139635  1.0
  H  H5  1  0.47360730  0.74415798  0.46526014  1.0
  H  H6  1  0.41645719  0.74450529  0.30977895  1.0
  H  H7  1  0.47684961  0.84868533  0.36160632  1.0
  H  H8  1  0.47687121  0.19494737  0.17959376  1.0
  H  H9  1  0.41645534  0.14311719  0.23194371  1.0
  H  H10  1  0.47356724  0.29860258  0.38777568  1.0
  H  H11  1  0.47361319  0.03472995  0.27889139  1.0
  H  H12  1  0.41647641  0.19021384  0.43472442  1.0
  H  H13  1  0.47686983  0.13838382  0.48707153  1.0
  H  H14  1  0.47686928  0.32041099  0.01535772  1.0
  H  H15  1  0.41647059  0.26806058  0.91117775  1.0
  H  H16  1  0.47358197  0.11222778  0.91082945  1.0
  H  H17  1  0.47359485  0.22110394  0.75583660  1.0
  H  H18  1  0.41643892  0.06527091  0.75548674  1.0
  H  H19  1  0.47686478  0.01292271  0.65131100  1.0
  H  H20  1  0.03101722  0.43558615  0.10485641  1.0
  H  H21  1  0.03109643  0.89773563  0.56181285  1.0
  H  H22  1  0.03100091  0.39514866  0.33074023  1.0
  H  H23  1  0.03104295  0.93818232  0.33593001  1.0
  H  H24  1  0.03105406  0.16925947  0.06440773  1.0
  H  H25  1  0.03104331  0.16406313  0.60225289  1.0
  C  C26  1  0.53193502  0.05364028  0.58259457  1.0
  C  C27  1  0.53193954  0.91740665  0.47104719  1.0
  C  C28  1  0.53191288  0.02895552  0.44635528  1.0
  C  C29  1  0.53185555  0.41592896  0.19561995  1.0
  C  C30  1  0.53184965  0.30438050  0.22030699  1.0
  C  C31  1  0.53189497  0.27969239  0.08407399  1.0
  C  C32  1  0.49912583  0.47822410  0.22403588  1.0
  C  C33  1  0.46937570  0.50780733  0.28258556  1.0
  C  C34  1  0.43499209  0.56550232  0.31144644  1.0
  C  C35  1  0.43288277  0.59480781  0.28188795  1.0
  C  C36  1  0.46291204  0.56580388  0.22354461  1.0
  C  C37  1  0.49582534  0.50780859  0.19489002  1.0
  C  C38  1  0.46294849  0.76752233  0.44311420  1.0
  C  C39  1  0.43290112  0.73852227  0.38476845  1.0
  C  C40  1  0.43502832  0.76782984  0.35521499  1.0
  C  C41  1  0.46943401  0.82551760  0.38407805  1.0
  C  C42  1  0.49922544  0.85509948  0.44261836  1.0
  C  C43  1  0.49593501  0.82552379  0.47177007  1.0
  C  C44  1  0.49914783  0.27596139  0.25419256  1.0
  C  C45  1  0.46939287  0.21741246  0.22522603  1.0
  C  C46  1  0.43499740  0.18855459  0.25405674  1.0
  C  C47  1  0.43288351  0.21810683  0.31291657  1.0
  C  C48  1  0.46288514  0.27645505  0.34226019  1.0
  C  C49  1  0.49580331  0.30511007  0.31291873  1.0
  C  C50  1  0.46294288  0.05687667  0.32441118  1.0
  C  C51  1  0.43290509  0.11522332  0.35374786  1.0
  C  C52  1  0.43502074  0.14477973  0.41261014  1.0
  C  C53  1  0.46942155  0.11592257  0.44144591  1.0
  C  C54  1  0.49920343  0.05736721  0.41247506  1.0
  C  C55  1  0.49588963  0.02822197  0.35374483  1.0
  C  C56  1  0.49915378  0.24581318  0.02177235  1.0
  C  C57  1  0.46940004  0.27477500  0.99218959  1.0
  C  C58  1  0.43501378  0.24594811  0.93450022  1.0
  C  C59  1  0.43288570  0.18708370  0.90519155  1.0
  C  C60  1  0.46290578  0.15774052  0.93419437  1.0
  C  C61  1  0.49582401  0.18708399  0.99219274  1.0
  C  C62  1  0.46293956  0.17558832  0.73246916  1.0
  C  C63  1  0.43288066  0.14624816  0.76147529  1.0
  C  C64  1  0.43499143  0.08738542  0.73216710  1.0
  C  C65  1  0.46940844  0.05855297  0.67447676  1.0
  C  C66  1  0.49920446  0.08751919  0.64489353  1.0
  C  C67  1  0.49590487  0.14624808  0.67447530  1.0
  S  S68  1  0.58269527  0.47565789  0.12186471  1.0
  S  S69  1  0.58276691  0.85766290  0.54479538  1.0
  S  S70  1  0.58262140  0.37813991  0.35379674  1.0
  S  S71  1  0.58272214  0.95519593  0.31286979  1.0
  S  S72  1  0.58265851  0.14620253  0.02434452  1.0
  S  S73  1  0.58276180  0.18712956  0.64233354  1.0
  N  N74  1  0.42240365  0.65369232  0.30685803  1.0
  N  N75  1  0.42232328  0.67963946  0.35980176  1.0
  N  N76  1  0.42237146  0.19313759  0.34683181  1.0
  N  N77  1  0.42238577  0.14019383  0.31983434  1.0
  N  N78  1  0.42234610  0.15317099  0.84630788  1.0
  N  N79  1  0.42238425  0.18016426  0.82035994  1.0
  O  O80  1  0.30657414  0.99745323  0.44319147  1.0
  O  O81  1  0.30664101  0.05680197  0.55426018  1.0
  O  O82  1  0.30663966  0.94573247  0.50253980  1.0
  O  O83  1  0.77482454  0.04070483  0.47626790  1.0
  O  O84  1  0.77483920  0.93555889  0.45929403  1.0
  O  O85  1  0.77487203  0.02373043  0.56443858  1.0
  O  O86  1  0.30657343  0.27652600  0.11240748  1.0
  O  O87  1  0.30653291  0.38759216  0.16412184  1.0
  O  O88  1  0.30656120  0.33587182  0.22347147  1.0
  O  O89  1  0.77478010  0.30959392  0.10222656  1.0
  O  O90  1  0.77476943  0.29262747  0.19040339  1.0
  O  O91  1  0.77478268  0.39776838  0.20737293  1.0
  O  O92  1  0.30922846  0.44796156  0.08764985  1.0
  O  O93  1  0.73098986  0.51674589  0.11247282  1.0
  O  O94  1  0.80244987  0.42739216  0.11285122  1.0
  O  O95  1  0.30933223  0.88534717  0.57900710  1.0
  O  O96  1  0.73111923  0.81656689  0.55417059  1.0
  O  O97  1  0.80252125  0.90593294  0.55381828  1.0
  O  O98  1  0.30917705  0.41235261  0.36030116  1.0
  O  O99  1  0.73085956  0.38753791  0.40427909  1.0
  O  O100  1  0.80241492  0.38714374  0.31454312  1.0
  O  O101  1  0.30925801  0.92098205  0.30634811  1.0
  O  O102  1  0.73104718  0.94580841  0.26239307  1.0
  O  O103  1  0.80247711  0.94617299  0.35211893  1.0
  O  O104  1  0.30924185  0.13969797  0.05205071  1.0
  O  O105  1  0.73087508  0.09571516  0.98325318  1.0
  O  O106  1  0.80245290  0.18545332  0.07259631  1.0
  O  O107  1  0.30927463  0.19365676  0.61464554  1.0
  O  O108  1  0.73110714  0.23759857  0.68341983  1.0
  O  O109  1  0.80249264  0.14787511  0.59405602  1.0
