# generated using pymatgen
data_ZnH24C43(N2O3)2
_symmetry_space_group_name_H-M   'P 1'
_cell_length_a   15.87307564
_cell_length_b   17.21490942
_cell_length_c   28.05520126
_cell_angle_alpha   90.06827907
_cell_angle_beta   91.82196544
_cell_angle_gamma   92.38624379
_symmetry_Int_Tables_number   1
_chemical_formula_structural   ZnH24C43(N2O3)2
_chemical_formula_sum   'Zn2 H48 C86 N8 O12'
_cell_volume   7655.63930808
_cell_formula_units_Z   2
loop_
 _symmetry_equiv_pos_site_id
 _symmetry_equiv_pos_as_xyz
  1  'x, y, z'
loop_
 _atom_site_type_symbol
 _atom_site_label
 _atom_site_symmetry_multiplicity
 _atom_site_fract_x
 _atom_site_fract_y
 _atom_site_fract_z
 _atom_site_occupancy
  Zn  Zn0  1  0.58780843  0.49842388  0.50206348  1.0
  Zn  Zn1  1  0.41201192  0.50201853  0.49843332  1.0
  H  H2  1  0.40251715  0.55892680  0.25163882  1.0
  H  H3  1  0.40279216  0.42643399  0.74410159  1.0
  H  H4  1  0.54924746  0.69215098  0.12622907  1.0
  H  H5  1  0.55593192  0.31244152  0.87597692  1.0
  H  H6  1  0.61253919  0.57503946  0.64950779  1.0
  H  H7  1  0.61817872  0.43913956  0.35609470  1.0
  H  H8  1  0.61993692  0.58357434  0.73867599  1.0
  H  H9  1  0.62867761  0.43104202  0.26722335  1.0
  H  H10  1  0.50349435  0.69725603  0.88070968  1.0
  H  H11  1  0.51914587  0.30213756  0.12047416  1.0
  H  H12  1  0.51606426  0.69804626  0.96889377  1.0
  H  H13  1  0.52863961  0.30284251  0.03256106  1.0
  H  H14  1  0.54799380  0.69745787  0.03798718  1.0
  H  H15  1  0.55797807  0.30729312  0.96425050  1.0
  H  H16  1  0.61500245  0.25100594  0.50426031  1.0
  H  H17  1  0.38302517  0.74673929  0.48762961  1.0
  H  H18  1  0.60943272  0.10524146  0.49442892  1.0
  H  H19  1  0.38769868  0.89246773  0.47760310  1.0
  H  H20  1  0.65824389  0.89345718  0.47760138  1.0
  H  H21  1  0.34279942  0.10900382  0.46394640  1.0
  H  H22  1  0.65310438  0.74742708  0.48754655  1.0
  H  H23  1  0.34873079  0.25518237  0.47415438  1.0
  H  H24  1  0.72668570  0.59315402  0.46280597  1.0
  H  H25  1  0.27166506  0.39292948  0.52188670  1.0
  H  H26  1  0.12765896  0.61989307  0.45833989  1.0
  H  H27  1  0.87424932  0.39614971  0.55617252  1.0
  H  H28  1  0.28656893  0.61595856  0.46677304  1.0
  H  H29  1  0.71454153  0.39650712  0.54716630  1.0
  H  H30  1  0.45730131  0.67176925  0.37382040  1.0
  H  H31  1  0.34287148  0.75604969  0.39711453  1.0
  H  H32  1  0.19213190  0.71451418  0.38016862  1.0
  H  H33  1  0.15781307  0.58754309  0.33977065  1.0
  H  H34  1  0.27332668  0.50443063  0.31497003  1.0
  H  H35  1  0.46656037  0.33774009  0.61090660  1.0
  H  H36  1  0.35932721  0.24272790  0.57715998  1.0
  H  H37  1  0.20808053  0.25108535  0.59789095  1.0
  H  H38  1  0.16622792  0.35472460  0.65339721  1.0
  H  H39  1  0.27400578  0.45004526  0.68700533  1.0
  H  H40  1  0.95281931  0.66864514  0.52582121  1.0
  H  H41  1  0.02419492  0.78067783  0.48597776  1.0
  H  H42  1  0.00789979  0.79657928  0.39780833  1.0
  H  H43  1  0.91744994  0.70110732  0.35039322  1.0
  H  H44  1  0.84548886  0.58950843  0.39054712  1.0
  H  H45  1  0.06182125  0.40616724  0.58795598  1.0
  H  H46  1  0.99156095  0.27966322  0.60952943  1.0
  H  H47  1  0.99158483  0.16752362  0.55327167  1.0
  H  H48  1  0.06361169  0.18223010  0.47588328  1.0
  H  H49  1  0.13576129  0.30812841  0.45544925  1.0
  C  C50  1  0.51321089  0.65282660  0.49571060  1.0
  C  C51  1  0.48677750  0.34755241  0.49633679  1.0
  C  C52  1  0.50221959  0.50200883  0.40692396  1.0
  C  C53  1  0.50219053  0.49822272  0.59327895  1.0
  C  C54  1  0.53528011  0.56816145  0.18159276  1.0
  C  C55  1  0.53354458  0.43417807  0.82007900  1.0
  C  C56  1  0.51920114  0.42266381  0.17933542  1.0
  C  C57  1  0.50927583  0.57706533  0.82180420  1.0
  C  C58  1  0.57714803  0.46039759  0.28332895  1.0
  C  C59  1  0.57081777  0.54789043  0.72024392  1.0
  C  C60  1  0.57111611  0.46482299  0.33254775  1.0
  C  C61  1  0.56641118  0.54314087  0.67073781  1.0
  C  C62  1  0.44226308  0.53617435  0.32428218  1.0
  C  C63  1  0.44249016  0.45512873  0.67323794  1.0
  C  C64  1  0.44870952  0.53098809  0.27468967  1.0
  C  C65  1  0.44731040  0.46075877  0.72312483  1.0
  C  C66  1  0.51561016  0.49426769  0.25460942  1.0
  C  C67  1  0.51098942  0.50589929  0.74620880  1.0
  C  C68  1  0.53360486  0.49787652  0.10270934  1.0
  C  C69  1  0.52964071  0.50405789  0.89896528  1.0
  C  C70  1  0.53770045  0.56826394  0.12897133  1.0
  C  C71  1  0.53698721  0.43442143  0.87282281  1.0
  C  C72  1  0.54449450  0.63883869  0.10513445  1.0
  C  C73  1  0.54860237  0.36499711  0.89688691  1.0
  C  C74  1  0.52682680  0.42585046  0.12694011  1.0
  C  C75  1  0.51805681  0.57493250  0.87450429  1.0
  C  C76  1  0.50468231  0.50224646  0.35347176  1.0
  C  C77  1  0.50312681  0.49749555  0.64686128  1.0
  C  C78  1  0.53073621  0.57427519  0.97573025  1.0
  C  C79  1  0.53594672  0.42795207  0.02598360  1.0
  C  C80  1  0.54046869  0.42999791  0.97398944  1.0
  C  C81  1  0.53741340  0.57294404  0.02784423  1.0
  C  C82  1  0.53378720  0.50279582  0.94997975  1.0
  C  C83  1  0.53589632  0.49960427  0.05177345  1.0
  C  C84  1  0.52019585  0.64308143  0.95003945  1.0
  C  C85  1  0.53031390  0.35814071  0.05149781  1.0
  C  C86  1  0.51307595  0.64349020  0.90026687  1.0
  C  C87  1  0.52501335  0.35686894  0.10110882  1.0
  C  C88  1  0.54368280  0.64097458  0.05535734  1.0
  C  C89  1  0.54966658  0.36293124  0.94666639  1.0
  C  C90  1  0.51760390  0.73911527  0.48830314  1.0
  C  C91  1  0.48224210  0.26102614  0.48989911  1.0
  C  C92  1  0.44265831  0.77982017  0.48496588  1.0
  C  C93  1  0.55597988  0.21896969  0.49532076  1.0
  C  C94  1  0.44501303  0.85978389  0.47942956  1.0
  C  C95  1  0.55321906  0.13895466  0.48972008  1.0
  C  C96  1  0.52351103  0.90065181  0.47729488  1.0
  C  C97  1  0.47570499  0.09950963  0.47831929  1.0
  C  C98  1  0.59850924  0.86008497  0.47948291  1.0
  C  C99  1  0.40188572  0.14129151  0.47263659  1.0
  C  C100  1  0.59554500  0.77973961  0.48500963  1.0
  C  C101  1  0.40521623  0.22163299  0.47833593  1.0
  C  C102  1  0.23682022  0.44235988  0.50880068  1.0
  C  C103  1  0.76251357  0.55006643  0.48238862  1.0
  C  C104  1  0.14857096  0.43919179  0.50722091  1.0
  C  C105  1  0.85070747  0.55523521  0.48456961  1.0
  C  C106  1  0.10927012  0.50590414  0.48951236  1.0
  C  C107  1  0.89083568  0.49739475  0.51164922  1.0
  C  C108  1  0.15817610  0.56967517  0.47355166  1.0
  C  C109  1  0.84270569  0.44018585  0.53515797  1.0
  C  C110  1  0.24521456  0.56762318  0.47788000  1.0
  C  C111  1  0.75551826  0.43992361  0.53016852  1.0
  C  C112  1  0.37303306  0.58248929  0.34263640  1.0
  C  C113  1  0.39161375  0.65321937  0.36637484  1.0
  C  C114  1  0.32698896  0.70055809  0.37955109  1.0
  C  C115  1  0.24269067  0.67734340  0.36994019  1.0
  C  C116  1  0.22348911  0.60639078  0.34702671  1.0
  C  C117  1  0.28827153  0.55964989  0.33309745  1.0
  C  C118  1  0.37765194  0.40059579  0.65117251  1.0
  C  C119  1  0.40055762  0.34174236  0.62005015  1.0
  C  C120  1  0.34011542  0.28814633  0.60117339  1.0
  C  C121  1  0.25553586  0.29259416  0.61293580  1.0
  C  C122  1  0.23210080  0.35080631  0.64402338  1.0
  C  C123  1  0.29267110  0.40415325  0.66312826  1.0
  C  C124  1  0.89526798  0.62114895  0.46072174  1.0
  C  C125  1  0.94553705  0.67566833  0.48730018  1.0
  C  C126  1  0.98575029  0.73849283  0.46484209  1.0
  C  C127  1  0.97634384  0.74755921  0.41545627  1.0
  C  C128  1  0.92554054  0.69411522  0.38886961  1.0
  C  C129  1  0.88479156  0.63146458  0.41136832  1.0
  C  C130  1  0.10291952  0.36550301  0.52030211  1.0
  C  C131  1  0.06167226  0.35696447  0.56356060  1.0
  C  C132  1  0.02231000  0.28590379  0.57543529  1.0
  C  C133  1  0.02271117  0.22287556  0.54401361  1.0
  C  C134  1  0.06339066  0.23096172  0.50076486  1.0
  C  C135  1  0.10381085  0.30170325  0.48917044  1.0
  N  N136  1  0.52272321  0.49478693  0.20351783  1.0
  N  N137  1  0.51717834  0.50582489  0.79764865  1.0
  N  N138  1  0.53371826  0.98235789  0.47579129  1.0
  N  N139  1  0.46531843  0.01797114  0.47449025  1.0
  N  N140  1  0.28347151  0.50485160  0.49530409  1.0
  N  N141  1  0.71665744  0.49430127  0.50425949  1.0
  N  N142  1  0.02108789  0.50931968  0.48252529  1.0
  N  N143  1  0.97937036  0.49451817  0.51897491  1.0
  O  O144  1  0.58276239  0.61878618  0.49976576  1.0
  O  O145  1  0.41740343  0.38206782  0.49562524  1.0
  O  O146  1  0.43979019  0.62025399  0.49722071  1.0
  O  O147  1  0.56015953  0.37986813  0.50185354  1.0
  O  O148  1  0.57343417  0.49996616  0.42919283  1.0
  O  O149  1  0.43117135  0.50011881  0.57122950  1.0
  O  O150  1  0.43054932  0.50224975  0.42570200  1.0
  O  O151  1  0.57414392  0.49874272  0.57430280  1.0
  O  O152  1  0.54298740  0.62811366  0.20551648  1.0
  O  O153  1  0.54390699  0.37525799  0.79651282  1.0
  O  O154  1  0.49539851  0.63713493  0.79971187  1.0
  O  O155  1  0.50952283  0.36116564  0.20118786  1.0
