# generated using pymatgen
data_Hf3H15C23NO16
_symmetry_space_group_name_H-M   'P 1'
_cell_length_a   7.79037969
_cell_length_b   18.18900285
_cell_length_c   23.02793369
_cell_angle_alpha   89.40804346
_cell_angle_beta   82.76053865
_cell_angle_gamma   89.77120752
_symmetry_Int_Tables_number   1
_chemical_formula_structural   Hf3H15C23NO16
_chemical_formula_sum   'Hf6 H30 C46 N2 O32'
_cell_volume   3236.84350514
_cell_formula_units_Z   2
loop_
 _symmetry_equiv_pos_site_id
 _symmetry_equiv_pos_as_xyz
  1  'x, y, z'
loop_
 _atom_site_type_symbol
 _atom_site_label
 _atom_site_symmetry_multiplicity
 _atom_site_fract_x
 _atom_site_fract_y
 _atom_site_fract_z
 _atom_site_occupancy
  Hf  Hf0  1  0.98552912  0.89952258  0.07404772  1.0
  Hf  Hf1  1  0.03734381  0.11037822  0.93088806  1.0
  Hf  Hf2  1  0.76401370  0.06574407  0.05997782  1.0
  Hf  Hf3  1  0.25196743  0.94315019  0.94355571  1.0
  Hf  Hf4  1  0.80472718  0.94170555  0.94107180  1.0
  Hf  Hf5  1  0.21663659  0.07102767  0.06261435  1.0
  H  H6  1  0.02911933  0.82506593  0.95345002  1.0
  H  H7  1  0.67762568  0.09287495  0.94603922  1.0
  H  H8  1  0.39034523  0.08655323  0.94513683  1.0
  H  H9  1  0.96240146  0.02967884  0.15136705  1.0
  H  H10  1  0.66300824  0.81752898  0.86495956  1.0
  H  H11  1  0.58496907  0.16504650  0.14253937  1.0
  H  H12  1  0.08249177  0.18659673  0.12040948  1.0
  H  H13  1  0.93740483  0.84047472  0.86056026  1.0
  H  H14  1  0.39516560  0.82815049  0.86879298  1.0
  H  H15  1  0.51430709  0.89619184  0.98287740  1.0
  H  H16  1  0.33074813  0.18844705  0.14125520  1.0
  H  H17  1  0.75982173  0.96975249  0.83148171  1.0
  H  H18  1  0.97514513  0.12402861  0.82248407  1.0
  H  H19  1  0.05343136  0.88577720  0.18358202  1.0
  H  H20  1  0.40443984  0.00464202  0.14402263  1.0
  H  H21  1  0.30418048  0.89271845  0.83453246  1.0
  H  H22  1  0.80219415  0.05294346  0.85647177  1.0
  H  H23  1  0.50282126  0.01265696  0.01982395  1.0
  H  H24  1  0.54582398  0.77301759  0.91159465  1.0
  H  H25  1  0.46824928  0.23282194  0.10004570  1.0
  H  H26  1  0.64878971  0.08871665  0.17257249  1.0
  H  H27  1  0.21884342  0.96120060  0.14676492  1.0
  H  H28  1  0.19789308  0.50326424  0.99280773  1.0
  H  H29  1  0.82531639  0.50429659  0.01809629  1.0
  H  H30  1  0.12830673  0.77387272  0.21413500  1.0
  H  H31  1  0.82201738  0.80086193  0.28110427  1.0
  H  H32  1  0.84966508  0.20511305  0.77639828  1.0
  H  H33  1  0.15718608  0.18214906  0.70830587  1.0
  H  H34  1  0.80514619  0.97972270  0.50244208  1.0
  H  H35  1  0.17994788  0.00153397  0.48794674  1.0
  C  C36  1  0.74759249  0.78273537  0.02001989  1.0
  C  C37  1  0.25652212  0.78193019  0.01504350  1.0
  C  C38  1  0.65031163  0.92425726  0.16839300  1.0
  C  C39  1  0.77741149  0.22726049  0.99947231  1.0
  C  C40  1  0.27110411  0.22617114  0.98453096  1.0
  C  C41  1  0.34430168  0.06013261  0.83229793  1.0
  C  C42  1  0.41809931  0.57047196  0.00461886  1.0
  C  C43  1  0.59905770  0.57076436  0.01110023  1.0
  C  C44  1  0.68867979  0.50410381  0.01247577  1.0
  C  C45  1  0.60472889  0.43721857  0.00676254  1.0
  C  C46  1  0.42479666  0.43694084  0.99906657  1.0
  C  C47  1  0.33459740  0.50360526  0.99836315  1.0
  C  C48  1  0.23377350  0.85099182  0.27314416  1.0
  C  C49  1  0.10680483  0.80784315  0.25277546  1.0
  C  C50  1  0.94814710  0.82234147  0.28724896  1.0
  C  C51  1  0.97619051  0.87249363  0.33062773  1.0
  C  C52  1  0.75047908  0.12430416  0.71910716  1.0
  C  C53  1  0.87398351  0.17036971  0.73826046  1.0
  C  C54  1  0.03273994  0.15812584  0.70320492  1.0
  C  C55  1  0.00759821  0.10665754  0.66045305  1.0
  C  C56  1  0.60655593  0.95990163  0.44791180  1.0
  C  C57  1  0.42469982  0.96584378  0.44390421  1.0
  C  C58  1  0.31771047  0.99640032  0.49121851  1.0
  C  C59  1  0.37857946  0.02120054  0.54251790  1.0
  C  C60  1  0.56023427  0.01482118  0.54665203  1.0
  C  C61  1  0.66737671  0.98474648  0.49919760  1.0
  C  C62  1  0.64319243  0.03804835  0.59454715  1.0
  C  C63  1  0.73805847  0.05687793  0.62995714  1.0
  C  C64  1  0.25420279  0.05106324  0.58592860  1.0
  C  C65  1  0.13120011  0.07596187  0.61839676  1.0
  C  C66  1  0.34167788  0.94123427  0.39642149  1.0
  C  C67  1  0.24722546  0.92037326  0.36153290  1.0
  C  C68  1  0.85361333  0.90432916  0.37240359  1.0
  C  C69  1  0.73074398  0.92980926  0.40460869  1.0
  C  C70  1  0.33488078  0.63966006  0.00605772  1.0
  C  C71  1  0.29462977  0.70443007  0.00943134  1.0
  C  C72  1  0.73663989  0.30449546  0.00598662  1.0
  C  C73  1  0.68876787  0.36834860  0.00722680  1.0
  C  C74  1  0.30851138  0.30354025  0.98787443  1.0
  C  C75  1  0.34804785  0.36780039  0.99234767  1.0
  C  C76  1  0.67663494  0.64006273  0.01593847  1.0
  C  C77  1  0.71300108  0.70501936  0.01790483  1.0
  C  C78  1  0.46630356  0.08172955  0.78262154  1.0
  C  C79  1  0.59095008  0.10309726  0.74920994  1.0
  C  C80  1  0.52505231  0.89286810  0.21351119  1.0
  C  C81  1  0.39631341  0.87069337  0.24443502  1.0
  N  N82  1  0.15550106  0.88865112  0.32299887  1.0
  N  N83  1  0.82992600  0.08742734  0.66905535  1.0
  O  O84  1  0.11978876  0.89526853  0.14566303  1.0
  O  O85  1  0.82473291  0.80414479  0.06210471  1.0
  O  O86  1  0.78477674  0.88697964  0.15140166  1.0
  O  O87  1  0.33026658  0.82453409  0.97512992  1.0
  O  O88  1  0.61504753  0.98728746  0.14780103  1.0
  O  O89  1  0.15146798  0.80116752  0.05863098  1.0
  O  O90  1  0.70042716  0.82284223  0.97917942  1.0
  O  O91  1  0.80597287  0.95950638  0.03193197  1.0
  O  O92  1  0.02066963  0.87509517  0.96774814  1.0
  O  O93  1  0.96303078  0.02037488  0.10984858  1.0
  O  O94  1  0.18629231  0.95998018  0.03178120  1.0
  O  O95  1  0.52219058  0.94220613  0.95966006  1.0
  O  O96  1  0.55594130  0.78566549  0.86986294  1.0
  O  O97  1  0.03716856  0.99726122  0.92126030  1.0
  O  O98  1  0.76568094  0.06449876  0.96252759  1.0
  O  O99  1  0.00354711  0.10208751  0.02179461  1.0
  O  O100  1  0.28576379  0.06115167  0.96128620  1.0
  O  O101  1  0.49601297  0.05456284  0.04727609  1.0
  O  O102  1  0.71143075  0.18435648  0.04042285  1.0
  O  O103  1  0.87102308  0.20904557  0.95285880  1.0
  O  O104  1  0.27957962  0.01282637  0.14136617  1.0
  O  O105  1  0.20263230  0.20507300  0.94009097  1.0
  O  O106  1  0.68646108  0.12469573  0.14186554  1.0
  O  O107  1  0.15473858  0.14525991  0.12916557  1.0
  O  O108  1  0.44523497  0.21560355  0.14064840  1.0
  O  O109  1  0.31100159  0.18576100  0.02615922  1.0
  O  O110  1  0.89897290  0.11953605  0.85917259  1.0
  O  O111  1  0.28240269  0.86143493  0.86946100  1.0
  O  O112  1  0.23628146  0.10937712  0.85219485  1.0
  O  O113  1  0.35851006  0.99585542  0.85398632  1.0
  O  O114  1  0.83553000  0.87114991  0.86957892  1.0
  O  O115  1  0.73123822  0.00334892  0.86402483  1.0
