# generated using pymatgen
data_AlH12C21(NO3)3
_symmetry_space_group_name_H-M   'P 1'
_cell_length_a   3.98218456
_cell_length_b   27.87693901
_cell_length_c   27.87680216
_cell_angle_alpha   120.00000632
_cell_angle_beta   90.00038660
_cell_angle_gamma   89.99889818
_symmetry_Int_Tables_number   1
_chemical_formula_structural   AlH12C21(NO3)3
_chemical_formula_sum   'Al2 H24 C42 N6 O18'
_cell_volume   2680.03228564
_cell_formula_units_Z   2
loop_
 _symmetry_equiv_pos_site_id
 _symmetry_equiv_pos_as_xyz
  1  'x, y, z'
loop_
 _atom_site_type_symbol
 _atom_site_label
 _atom_site_symmetry_multiplicity
 _atom_site_fract_x
 _atom_site_fract_y
 _atom_site_fract_z
 _atom_site_occupancy
  Al  Al0  1  0.97291238  0.49999925  0.00000187  1.0
  Al  Al1  1  0.97291763  0.83333420  0.66666903  1.0
  H  H2  1  0.17632021  0.69772536  0.50936804  1.0
  H  H3  1  0.19110445  0.64938634  0.40533820  1.0
  H  H4  1  0.75251848  0.78667876  0.41542856  1.0
  H  H5  1  0.75248063  0.54666112  0.25124824  1.0
  H  H6  1  0.19109386  0.68395716  0.26133557  1.0
  H  H7  1  0.17632648  0.63561546  0.15730532  1.0
  H  H8  1  0.17630662  0.81164073  0.80227692  1.0
  H  H9  1  0.19109486  0.75595572  0.85062090  1.0
  H  H10  1  0.75252077  0.62874647  0.71332910  1.0
  H  H11  1  0.75248594  0.70458253  0.95334722  1.0
  H  H12  1  0.19109850  0.57738067  0.81604989  1.0
  H  H13  1  0.17629989  0.52169078  0.86438858  1.0
  H  H14  1  0.17632220  0.99063611  0.68835691  1.0
  H  H15  1  0.19112921  0.09466585  0.74404170  1.0
  H  H16  1  0.75252311  0.08457621  0.87125061  1.0
  H  H17  1  0.75249785  0.24875864  0.79541238  1.0
  H  H18  1  0.19110852  0.23866899  0.92262032  1.0
  H  H19  1  0.17631444  0.34269818  0.97830983  1.0
  H  H20  1  0.82309694  0.84889321  0.56093421  1.0
  H  H21  1  0.82309603  0.48444814  0.10574090  1.0
  H  H22  1  0.82309056  0.71203906  0.65111255  1.0
  H  H23  1  0.82307730  0.62129116  0.01555967  1.0
  H  H24  1  0.82309099  0.93906997  0.78796126  1.0
  H  H25  1  0.82308942  0.39426417  0.87870806  1.0
  C  C26  1  0.46841008  0.41415375  0.95365096  1.0
  C  C27  1  0.46840466  0.53949801  0.08584902  1.0
  C  C28  1  0.46838129  0.54634766  0.96050478  1.0
  C  C29  1  0.46840380  0.79383732  0.58082214  1.0
  C  C30  1  0.46840708  0.78698274  0.70616513  1.0
  C  C31  1  0.46841094  0.91918069  0.71301771  1.0
  C  C32  1  0.47834856  0.76652123  0.52035204  1.0
  C  C33  1  0.30958708  0.71568585  0.48792651  1.0
  C  C34  1  0.31546877  0.68903292  0.43076931  1.0
  C  C35  1  0.47631030  0.71546947  0.40505885  1.0
  C  C36  1  0.63076298  0.76690283  0.43606237  1.0
  C  C37  1  0.64793158  0.79172415  0.49372616  1.0
  C  C38  1  0.63074164  0.56643889  0.23061242  1.0
  C  C39  1  0.47629352  0.61787334  0.26161727  1.0
  C  C40  1  0.31546487  0.64430949  0.23590440  1.0
  C  C41  1  0.30960175  0.61765637  0.17874679  1.0
  C  C42  1  0.47834597  0.56681910  0.14632200  1.0
  C  C43  1  0.64791850  0.54161388  0.17294780  1.0
  C  C44  1  0.47833412  0.75382685  0.73348065  1.0
  C  C45  1  0.30958251  0.77223666  0.78431772  1.0
  C  C46  1  0.31546635  0.74173657  0.81097215  1.0
  C  C47  1  0.47632317  0.68958984  0.78453984  1.0
  C  C48  1  0.63077378  0.66915978  0.73310498  1.0
  C  C49  1  0.64793245  0.70199720  0.70827848  1.0
  C  C50  1  0.63073091  0.66417198  0.93356975  1.0
  C  C51  1  0.47628575  0.64374398  0.88213456  1.0
  C  C52  1  0.31545732  0.59159673  0.85569817  1.0
  C  C53  1  0.30958128  0.56109019  0.88234971  1.0
  C  C54  1  0.47833530  0.57950192  0.93318677  1.0
  C  C55  1  0.64790766  0.63132910  0.95839044  1.0
  C  C56  1  0.47835444  0.97965252  0.74617062  1.0
  C  C57  1  0.30961457  0.01207656  0.72775566  1.0
  C  C58  1  0.31550267  0.06923536  0.75825926  1.0
  C  C59  1  0.47632339  0.09494566  0.81040648  1.0
  C  C60  1  0.63077131  0.06394284  0.83083935  1.0
  C  C61  1  0.64793838  0.00627735  0.79799874  1.0
  C  C62  1  0.63076268  0.26939397  0.83582618  1.0
  C  C63  1  0.47631482  0.23838842  0.85625416  1.0
  C  C64  1  0.31546538  0.26410218  0.90840311  1.0
  C  C65  1  0.30958857  0.32125597  0.93890671  1.0
  C  C66  1  0.47833256  0.35368265  0.92049597  1.0
  C  C67  1  0.64792853  0.32705577  0.86866595  1.0
  N  N68  1  0.48628995  0.69285100  0.34700404  1.0
  N  N69  1  0.48625769  0.64048972  0.31967083  1.0
  N  N70  1  0.48627536  0.65415571  0.80715897  1.0
  N  N71  1  0.48627487  0.67918343  0.85952038  1.0
  N  N72  1  0.48630477  0.15300100  0.84584629  1.0
  N  N73  1  0.48627727  0.18033574  0.82081973  1.0
  O  O74  1  0.69994285  0.55542380  0.99701992  1.0
  O  O75  1  0.69997189  0.44159015  0.94457331  1.0
  O  O76  1  0.69996783  0.50298232  0.05841218  1.0
  O  O77  1  0.23451931  0.51077406  0.94865252  1.0
  O  O78  1  0.23452919  0.55134609  0.06212608  1.0
  O  O79  1  0.23455524  0.43787667  0.98922550  1.0
  O  O80  1  0.69996679  0.89174174  0.72209440  1.0
  O  O81  1  0.69996081  0.83035155  0.60826093  1.0
  O  O82  1  0.69997323  0.77790735  0.66965277  1.0
  O  O83  1  0.23453256  0.89545915  0.67744535  1.0
  O  O84  1  0.23454087  0.82255642  0.71801626  1.0
  O  O85  1  0.23453852  0.78198501  0.60454394  1.0
  O  O86  1  0.81851626  0.83976137  0.52160857  1.0
  O  O87  1  0.81850837  0.49357671  0.14506572  1.0
  O  O88  1  0.81852243  0.68184295  0.66024233  1.0
  O  O89  1  0.81849467  0.65148507  0.00642906  1.0
  O  O90  1  0.81851366  0.97839681  0.81815630  1.0
  O  O91  1  0.81850344  0.35493883  0.84851096  1.0
