# generated using pymatgen
data_Zn4H11C21NO13
_symmetry_space_group_name_H-M   'P 1'
_cell_length_a   10.93707577
_cell_length_b   10.96667934
_cell_length_c   13.24271832
_cell_angle_alpha   102.58983439
_cell_angle_beta   101.02807682
_cell_angle_gamma   98.45536215
_symmetry_Int_Tables_number   1
_chemical_formula_structural   Zn4H11C21NO13
_chemical_formula_sum   'Zn4 H11 C21 N1 O13'
_cell_volume   1491.73439090
_cell_formula_units_Z   1
loop_
 _symmetry_equiv_pos_site_id
 _symmetry_equiv_pos_as_xyz
  1  'x, y, z'
loop_
 _atom_site_type_symbol
 _atom_site_label
 _atom_site_symmetry_multiplicity
 _atom_site_fract_x
 _atom_site_fract_y
 _atom_site_fract_z
 _atom_site_occupancy
  Zn  Zn0  1  0.42178827  0.61536226  0.59141437  1.0
  Zn  Zn1  1  0.61221940  0.42076958  0.59105600  1.0
  Zn  Zn2  1  0.60121709  0.59947747  0.42722269  1.0
  Zn  Zn3  1  0.36948573  0.36677770  0.39442561  1.0
  H  H4  1  0.57415513  0.57523862  0.10671946  1.0
  H  H5  1  0.60977682  0.04282544  0.59480993  1.0
  H  H6  1  0.04209699  0.61460306  0.59928799  1.0
  H  H7  1  0.60363971  0.24735801  0.96410605  1.0
  H  H8  1  0.52710624  0.02894030  0.84614478  1.0
  H  H9  1  0.34890012  0.98724305  0.68726883  1.0
  H  H10  1  0.24431991  0.16511132  0.64857048  1.0
  H  H11  1  0.32057310  0.38342712  0.76679260  1.0
  H  H12  1  0.40057942  0.31005631  0.05461272  1.0
  H  H13  1  0.96522273  0.38521384  0.40126759  1.0
  H  H14  1  0.38154903  0.96281188  0.39975648  1.0
  C  C15  1  0.83880487  0.53243381  0.52667843  1.0
  C  C16  1  0.47069622  0.16268654  0.47644101  1.0
  C  C17  1  0.16428625  0.47284865  0.47804799  1.0
  C  C18  1  0.46565860  0.43477743  0.21632319  1.0
  C  C19  1  0.54545729  0.54993541  0.78546944  1.0
  C  C20  1  0.54959374  0.56284968  0.90176608  1.0
  C  C21  1  0.51584502  0.46090460  0.94238356  1.0
  C  C22  1  0.52660933  0.83867389  0.52360879  1.0
  C  C23  1  0.45958225  0.40150936  0.10073679  1.0
  C  C24  1  0.52074146  0.48335048  0.05540590  1.0
  C  C25  1  0.02536959  0.46119913  0.46699837  1.0
  C  C26  1  0.45798112  0.02364757  0.46428228  1.0
  C  C27  1  0.46858536  0.33050197  0.87248990  1.0
  C  C28  1  0.52473404  0.22919361  0.89504024  1.0
  C  C29  1  0.48204683  0.10662478  0.82836527  1.0
  C  C30  1  0.38155006  0.08323026  0.73928599  1.0
  C  C31  1  0.32371869  0.18304740  0.71731840  1.0
  C  C32  1  0.36705133  0.30599043  0.78323180  1.0
  C  C33  1  0.58465215  0.69019836  0.96575872  1.0
  C  C34  1  0.97769804  0.54032248  0.53422841  1.0
  C  C35  1  0.53565230  0.97726689  0.53063818  1.0
  N  N36  1  0.61642625  0.79621358  0.01599263  1.0
  O  O37  1  0.50137555  0.50050041  0.50129525  1.0
  O  O38  1  0.56606589  0.23555475  0.54545660  1.0
  O  O39  1  0.58805910  0.78036505  0.46300698  1.0
  O  O40  1  0.78248127  0.58999398  0.46386092  1.0
  O  O41  1  0.38383866  0.19723984  0.41608458  1.0
  O  O42  1  0.19893569  0.39397462  0.40796915  1.0
  O  O43  1  0.54434678  0.53523946  0.27336817  1.0
  O  O44  1  0.60652298  0.47195880  0.74214975  1.0
  O  O45  1  0.48133214  0.62113077  0.74294383  1.0
  O  O46  1  0.39058772  0.35948903  0.24904609  1.0
  O  O47  1  0.79120650  0.47027828  0.58522579  1.0
  O  O48  1  0.45960998  0.79281716  0.58041837  1.0
  O  O49  1  0.23723758  0.55988466  0.55553671  1.0
