# generated using pymatgen
data_Zn2H19C22N3O8
_symmetry_space_group_name_H-M   'P 1'
_cell_length_a   9.85405665
_cell_length_b   11.03477165
_cell_length_c   11.14434170
_cell_angle_alpha   97.96109968
_cell_angle_beta   91.90037591
_cell_angle_gamma   97.10950748
_symmetry_Int_Tables_number   1
_chemical_formula_structural   Zn2H19C22N3O8
_chemical_formula_sum   'Zn2 H19 C22 N3 O8'
_cell_volume   1189.33784791
_cell_formula_units_Z   1
loop_
 _symmetry_equiv_pos_site_id
 _symmetry_equiv_pos_as_xyz
  1  'x, y, z'
loop_
 _atom_site_type_symbol
 _atom_site_label
 _atom_site_symmetry_multiplicity
 _atom_site_fract_x
 _atom_site_fract_y
 _atom_site_fract_z
 _atom_site_occupancy
  Zn  Zn0  1  0.35976565  0.47746536  0.49830677  1.0
  Zn  Zn1  1  0.64658801  0.50997259  0.50576281  1.0
  H  H2  1  0.61582695  0.10898046  0.35582063  1.0
  H  H3  1  0.40174741  0.53922763  0.90437411  1.0
  H  H4  1  0.87131665  0.48760428  0.33019435  1.0
  H  H5  1  0.91131070  0.54737462  0.59352209  1.0
  H  H6  1  0.38199517  0.22587950  0.71732107  1.0
  H  H7  1  0.28502845  0.11441220  0.87866707  1.0
  H  H8  1  0.28221975  0.88605018  0.86354448  1.0
  H  H9  1  0.38108123  0.77065284  0.68940647  1.0
  H  H10  1  0.61889708  0.88141671  0.34473951  1.0
  H  H11  1  0.69581156  0.52929766  0.12405303  1.0
  H  H12  1  0.70371108  0.49490235  0.89912574  1.0
  H  H13  1  0.07744142  0.64144579  0.30341872  1.0
  H  H14  1  0.23919072  0.62809834  0.36438024  1.0
  H  H15  1  0.14856051  0.30568108  0.57868976  1.0
  H  H16  1  0.09841836  0.43451236  0.67070938  1.0
  H  H17  1  0.98124281  0.34740853  0.55438716  1.0
  H  H18  1  0.32177809  0.30835806  0.12071819  1.0
  H  H19  1  0.28053378  0.44817832  0.08031738  1.0
  H  H20  1  0.36776205  0.35184284  0.97622144  1.0
  C  C21  1  0.51037280  0.52653518  0.73680563  1.0
  C  C22  1  0.43913006  0.06328880  0.60846884  1.0
  C  C23  1  0.50204847  0.12480983  0.51562049  1.0
  C  C24  1  0.56632339  0.05936315  0.42396704  1.0
  C  C25  1  0.56774240  0.93132260  0.41767697  1.0
  C  C26  1  0.50440654  0.86823273  0.50366408  1.0
  C  C27  1  0.60111011  0.49504419  0.06931692  1.0
  C  C28  1  0.49421562  0.44795175  0.12987297  1.0
  C  C29  1  0.60546999  0.50264454  0.94082574  1.0
  C  C30  1  0.50065296  0.52362227  0.86859994  1.0
  C  C31  1  0.07952876  0.51844327  0.42382433  1.0
  C  C32  1  0.50152235  0.25998949  0.51197230  1.0
  C  C33  1  0.92695288  0.50846157  0.41923232  1.0
  C  C34  1  0.50976180  0.45976865  0.26568242  1.0
  C  C35  1  0.50636948  0.73162292  0.49541611  1.0
  C  C36  1  0.38164603  0.12651087  0.71061550  1.0
  C  C37  1  0.32700261  0.06382891  0.80031501  1.0
  C  C38  1  0.32577882  0.93468073  0.79207430  1.0
  C  C39  1  0.38096332  0.87014228  0.69477078  1.0
  C  C40  1  0.43983224  0.93217016  0.60156156  1.0
  C  C41  1  0.08931448  0.38345520  0.57789592  1.0
  C  C42  1  0.35929184  0.38523653  0.07272643  1.0
  N  N43  1  0.15102742  0.46286884  0.49424966  1.0
  N  N44  1  0.85597595  0.52677832  0.51208987  1.0
  N  N45  1  0.13799687  0.59131480  0.34618580  1.0
  O  O46  1  0.39953850  0.54113124  0.68005988  1.0
  O  O47  1  0.62387107  0.51218889  0.68851895  1.0
  O  O48  1  0.39012587  0.30491759  0.53396755  1.0
  O  O49  1  0.61227881  0.31975902  0.48437210  1.0
  O  O50  1  0.40067468  0.42953610  0.31907474  1.0
  O  O51  1  0.62651570  0.50117559  0.31881930  1.0
  O  O52  1  0.39359771  0.66218631  0.46330744  1.0
  O  O53  1  0.61876821  0.69475378  0.52157819  1.0
