# generated using pymatgen
data_AlH10C19O7
_symmetry_space_group_name_H-M   'P 1'
_cell_length_a   6.65801874
_cell_length_b   21.44477240
_cell_length_c   25.55370780
_cell_angle_alpha   95.80721689
_cell_angle_beta   89.95521907
_cell_angle_gamma   89.98650368
_symmetry_Int_Tables_number   1
_chemical_formula_structural   AlH10C19O7
_chemical_formula_sum   'Al4 H40 C76 O28'
_cell_volume   3629.82489039
_cell_formula_units_Z   4
loop_
 _symmetry_equiv_pos_site_id
 _symmetry_equiv_pos_as_xyz
  1  'x, y, z'
loop_
 _atom_site_type_symbol
 _atom_site_label
 _atom_site_symmetry_multiplicity
 _atom_site_fract_x
 _atom_site_fract_y
 _atom_site_fract_z
 _atom_site_occupancy
  Al  Al0  1  0.21298214  0.74807352  0.74803960  1.0
  Al  Al1  1  0.80167296  0.24867152  0.24844158  1.0
  Al  Al2  1  0.71298292  0.75199520  0.75198596  1.0
  Al  Al3  1  0.30169617  0.25127738  0.25148804  1.0
  H  H4  1  0.94624795  0.62626707  0.41086933  1.0
  H  H5  1  0.76837641  0.38556211  0.57726224  1.0
  H  H6  1  0.44835176  0.87366817  0.08910640  1.0
  H  H7  1  0.26633418  0.11433389  0.92294783  1.0
  H  H8  1  0.07158954  0.62871694  0.58997748  1.0
  H  H9  1  0.06117209  0.36903812  0.41180885  1.0
  H  H10  1  0.57193291  0.87137716  0.90983393  1.0
  H  H11  1  0.56035997  0.13097203  0.08810030  1.0
  H  H12  1  0.79614563  0.54809930  0.71918910  1.0
  H  H13  1  0.00418466  0.46186656  0.27108145  1.0
  H  H14  1  0.29449744  0.95187485  0.78094548  1.0
  H  H15  1  0.50602294  0.03806727  0.22887339  1.0
  H  H16  1  0.98222177  0.56440734  0.32532699  1.0
  H  H17  1  0.75975254  0.44629856  0.66342774  1.0
  H  H18  1  0.48379713  0.93556630  0.17461825  1.0
  H  H19  1  0.25762104  0.05364646  0.83678805  1.0
  H  H20  1  0.70172633  0.97747949  0.58772678  1.0
  H  H21  1  0.30413335  0.09804250  0.46599733  1.0
  H  H22  1  0.20176507  0.52249631  0.91232752  1.0
  H  H23  1  0.80437391  0.40192638  0.03395959  1.0
  H  H24  1  0.68372867  0.90487481  0.65811203  1.0
  H  H25  1  0.32207240  0.16605682  0.39244540  1.0
  H  H26  1  0.18384508  0.59512813  0.84197571  1.0
  H  H27  1  0.82195745  0.33388440  0.10751119  1.0
  H  H28  1  0.26102093  0.89106630  0.53369769  1.0
  H  H29  1  0.75913241  0.01467182  0.39906778  1.0
  H  H30  1  0.76081664  0.60889735  0.96626200  1.0
  H  H31  1  0.25921566  0.48540488  0.10102007  1.0
  H  H32  1  0.87785796  0.64422459  0.54461970  1.0
  H  H33  1  0.82888337  0.36839390  0.44285722  1.0
  H  H34  1  0.37904044  0.85571321  0.95542209  1.0
  H  H35  1  0.32770701  0.13149204  0.05729606  1.0
  H  H36  1  0.21867461  0.75727497  0.60951316  1.0
  H  H37  1  0.79325471  0.08830162  0.27512403  1.0
  H  H38  1  0.71830302  0.74269044  0.89033833  1.0
  H  H39  1  0.29320644  0.41222392  0.22505996  1.0
  H  H40  1  0.47563431  0.73093794  0.68117479  1.0
  H  H41  1  0.56002471  0.28734125  0.31325779  1.0
  H  H42  1  0.97517618  0.76841200  0.81897540  1.0
  H  H43  1  0.06060765  0.21258730  0.18669224  1.0
  C  C44  1  0.45842194  0.68048352  0.81928024  1.0
  C  C45  1  0.55136398  0.32268326  0.18304443  1.0
  C  C46  1  0.95829426  0.81953968  0.68076395  1.0
  C  C47  1  0.05182173  0.17728764  0.31691017  1.0
  C  C48  1  0.45692916  0.84562180  0.80916548  1.0
  C  C49  1  0.54801493  0.15247504  0.19290591  1.0
  C  C50  1  0.95762134  0.65444207  0.69078911  1.0
  C  C51  1  0.04697773  0.34749897  0.30698860  1.0
  C  C52  1  0.02966050  0.40933539  0.33943958  1.0
  C  C53  1  0.93432776  0.59423007  0.65667340  1.0
  C  C54  1  0.53042383  0.09062491  0.16049389  1.0
  C  C55  1  0.43371487  0.90581388  0.84331122  1.0
  C  C56  1  0.99050657  0.52108808  0.34424458  1.0
  C  C57  1  0.81881543  0.48748913  0.64685177  1.0
  C  C58  1  0.49196615  0.97889145  0.15571611  1.0
  C  C59  1  0.31717916  0.01246619  0.85327758  1.0
  C  C60  1  0.00633487  0.46429112  0.31398808  1.0
  C  C61  1  0.84233088  0.54321196  0.67804011  1.0
  C  C62  1  0.50790544  0.03566175  0.18597492  1.0
  C  C63  1  0.34100951  0.95677631  0.82204474  1.0
  C  C64  1  0.02376933  0.41165024  0.39388189  1.0
  C  C65  1  0.98610324  0.59020040  0.60381208  1.0
  C  C66  1  0.52357245  0.08833766  0.10605920  1.0
  C  C67  1  0.48595690  0.90986250  0.89612430  1.0
  C  C68  1  0.98415842  0.46863573  0.42567197  1.0
  C  C69  1  0.93669716  0.53638324  0.56907996  1.0
  C  C70  1  0.48422017  0.03134062  0.07429519  1.0
  C  C71  1  0.43619976  0.96361045  0.93092591  1.0
  C  C72  1  0.98065257  0.52493946  0.39988218  1.0
  C  C73  1  0.86490709  0.48253861  0.59239661  1.0
  C  C74  1  0.48161594  0.97503754  0.10008117  1.0
  C  C75  1  0.36367364  0.01742585  0.90769918  1.0
  C  C76  1  0.94631180  0.47312932  0.48173459  1.0
  C  C77  1  0.95352625  0.53268124  0.51233542  1.0
  C  C78  1  0.44592096  0.02683851  0.01827296  1.0
  C  C79  1  0.45353401  0.96730196  0.98766156  1.0
  C  C80  1  0.95233859  0.58783327  0.48421771  1.0
  C  C81  1  0.87552415  0.42040200  0.50752330  1.0
  C  C82  1  0.45325537  0.91214190  0.01576415  1.0
  C  C83  1  0.37434371  0.07952216  0.99257810  1.0
  C  C84  1  0.96007413  0.58345558  0.43024087  1.0
  C  C85  1  0.83263678  0.42579815  0.56038158  1.0
  C  C86  1  0.46137441  0.91650626  0.06973297  1.0
  C  C87  1  0.33104171  0.07411827  0.93975936  1.0
  C  C88  1  0.82031625  0.94324763  0.59168954  1.0
  C  C89  1  0.18853812  0.09514256  0.43567805  1.0
  C  C90  1  0.32031778  0.55673124  0.90836902  1.0
  C  C91  1  0.68872307  0.40486227  0.06431280  1.0
  C  C92  1  0.80975790  0.90274343  0.63077339  1.0
  C  C93  1  0.19895736  0.13296294  0.39468581  1.0
  C  C94  1  0.30977674  0.59725046  0.86929377  1.0
  C  C95  1  0.69894514  0.36702390  0.10529492  1.0
  C  C96  1  0.96193720  0.85882015  0.63595206  1.0
  C  C97  1  0.04917900  0.13026937  0.35612683  1.0
  C  C98  1  0.46188173  0.64117821  0.86408235  1.0
  C  C99  1  0.54913124  0.36977575  0.14390522  1.0
  C  C100  1  0.12445077  0.85428922  0.60018748  1.0
  C  C101  1  0.89094561  0.08655693  0.35760672  1.0
  C  C102  1  0.62431900  0.64569026  0.89980260  1.0
  C  C103  1  0.39095083  0.41354908  0.14248787  1.0
  C  C104  1  0.13594725  0.89540214  0.56137837  1.0
  C  C105  1  0.88071979  0.04868346  0.39885014  1.0
  C  C106  1  0.63583088  0.60457345  0.93860326  1.0
  C  C107  1  0.38086582  0.45140447  0.10124598  1.0
  C  C108  1  0.98491167  0.94048285  0.55668243  1.0
  C  C109  1  0.02696880  0.05301776  0.43878238  1.0
  C  C110  1  0.48490149  0.55947448  0.94331905  1.0
  C  C111  1  0.52715263  0.44700491  0.06124915  1.0
  C  C112  1  0.99805661  0.98112882  0.51635444  1.0
  C  C113  1  0.01270929  0.01474538  0.48077428  1.0
  C  C114  1  0.49808418  0.51884638  0.98366097  1.0
  C  C115  1  0.51287514  0.48524281  0.01924401  1.0
  C  C116  1  0.27630835  0.80301881  0.59879368  1.0
  C  C117  1  0.74392005  0.07474436  0.31389828  1.0
  C  C118  1  0.77600379  0.69698353  0.90113142  1.0
  C  C119  1  0.24372062  0.42544428  0.18620918  1.0
  O  O120  1  0.63167134  0.82304055  0.79978443  1.0
  O  O121  1  0.38218250  0.17863592  0.20661408  1.0
  O  O122  1  0.13245558  0.67673028  0.70044104  1.0
  O  O123  1  0.88102615  0.32188473  0.29272704  1.0
  O  O124  1  0.28916569  0.69300296  0.79986260  1.0
  O  O125  1  0.72107812  0.30096305  0.19517920  1.0
  O  O126  1  0.78904994  0.80736472  0.70040954  1.0
  O  O127  1  0.22192876  0.19835434  0.30433966  1.0
  O  O128  1  0.29194764  0.82126665  0.79246683  1.0
  O  O129  1  0.72160451  0.17439628  0.20461774  1.0
  O  O130  1  0.79253648  0.67907528  0.70721208  1.0
  O  O131  1  0.22048781  0.32505088  0.29583303  1.0
  O  O132  1  0.12921799  0.80112745  0.69580431  1.0
  O  O133  1  0.88103377  0.19430482  0.30070837  1.0
  O  O134  1  0.62954457  0.69854997  0.80402932  1.0
  O  O135  1  0.38046420  0.30624638  0.19965122  1.0
  O  O136  1  0.46577657  0.74451457  0.71839815  1.0
  O  O137  1  0.55372845  0.25760947  0.28206729  1.0
  O  O138  1  0.96566175  0.75551425  0.78163258  1.0
  O  O139  1  0.05390156  0.24233105  0.21786959  1.0
  O  O140  1  0.92825338  0.64698845  0.50899399  1.0
  O  O141  1  0.83170721  0.36364461  0.48051012  1.0
  O  O142  1  0.42977878  0.85296950  0.99100066  1.0
  O  O143  1  0.33022409  0.13624378  0.01964216  1.0
  O  O144  1  0.44980604  0.80824897  0.58391754  1.0
  O  O145  1  0.58159384  0.04878984  0.31863488  1.0
  O  O146  1  0.94944867  0.69181103  0.91600453  1.0
  O  O147  1  0.08100433  0.45117648  0.18140046  1.0
