# generated using pymatgen
data_Al4H15C37NO20
_symmetry_space_group_name_H-M   'P 1'
_cell_length_a   6.69110111
_cell_length_b   18.19471750
_cell_length_c   20.81788090
_cell_angle_alpha   72.07310777
_cell_angle_beta   89.70195181
_cell_angle_gamma   89.87462546
_symmetry_Int_Tables_number   1
_chemical_formula_structural   Al4H15C37NO20
_chemical_formula_sum   'Al4 H15 C37 N1 O20'
_cell_volume   2411.34559762
_cell_formula_units_Z   1
loop_
 _symmetry_equiv_pos_site_id
 _symmetry_equiv_pos_as_xyz
  1  'x, y, z'
loop_
 _atom_site_type_symbol
 _atom_site_label
 _atom_site_symmetry_multiplicity
 _atom_site_fract_x
 _atom_site_fract_y
 _atom_site_fract_z
 _atom_site_occupancy
  Al  Al0  1  0.86652991  0.50013236  0.49727644  1.0
  Al  Al1  1  0.36587919  0.49908365  0.49789879  1.0
  Al  Al2  1  0.36142364  0.00004665  0.99824487  1.0
  Al  Al3  1  0.86137238  0.00002250  0.99803228  1.0
  H  H4  1  0.80381699  0.24259611  0.17795400  1.0
  H  H5  1  0.40284069  0.17146631  0.24483143  1.0
  H  H6  1  0.38440531  0.25261494  0.32192071  1.0
  H  H7  1  0.29008335  0.70757538  0.71172323  1.0
  H  H8  1  0.28988751  0.78763545  0.79005169  1.0
  H  H9  1  0.93343762  0.79142941  0.78593379  1.0
  H  H10  1  0.93371311  0.71140147  0.70758732  1.0
  H  H11  1  0.63431504  0.32059892  0.22222259  1.0
  H  H12  1  0.52654787  0.39529463  0.28287327  1.0
  H  H13  1  0.77498411  0.42775333  0.28807503  1.0
  H  H14  1  0.68545914  0.34295045  0.34948912  1.0
  H  H15  1  0.61804826  0.39897231  0.53060499  1.0
  H  H16  1  0.11700660  0.59274756  0.50444833  1.0
  H  H17  1  0.61116874  0.09359757  0.00361229  1.0
  H  H18  1  0.11164084  0.89855915  0.01919253  1.0
  C  C19  1  0.61429061  0.60457219  0.39341092  1.0
  C  C20  1  0.61578837  0.57845087  0.57315725  1.0
  C  C21  1  0.11585962  0.39315973  0.60274425  1.0
  C  C22  1  0.11679705  0.42211225  0.42252410  1.0
  C  C23  1  0.93121387  0.24556620  0.20957137  1.0
  C  C24  1  0.10306280  0.20343254  0.20568645  1.0
  C  C25  1  0.27038177  0.20568002  0.24663317  1.0
  C  C26  1  0.25911572  0.25061100  0.28920368  1.0
  C  C27  1  0.08732581  0.29490936  0.29334736  1.0
  C  C28  1  0.91643899  0.29201489  0.25284460  1.0
  C  C29  1  0.10791148  0.15866272  0.16079741  1.0
  C  C30  1  0.09579535  0.33978068  0.33767018  1.0
  C  C31  1  0.11576092  0.37758687  0.37657840  1.0
  C  C32  1  0.10936301  0.12084364  0.12162580  1.0
  C  C33  1  0.11269679  0.16729563  0.83091731  1.0
  C  C34  1  0.11250658  0.22044970  0.77793042  1.0
  C  C35  1  0.11275701  0.27899342  0.71933771  1.0
  C  C36  1  0.11310517  0.33194196  0.66620853  1.0
  C  C37  1  0.61402123  0.66656835  0.33039611  1.0
  C  C38  1  0.61266671  0.71994965  0.27755911  1.0
  C  C39  1  0.61159547  0.77868665  0.21908113  1.0
  C  C40  1  0.61078027  0.83170511  0.16599579  1.0
  C  C41  1  0.42992468  0.77061593  0.77173616  1.0
  C  C42  1  0.61167609  0.79466550  0.79301394  1.0
  C  C43  1  0.79355784  0.77271237  0.76944467  1.0
  C  C44  1  0.79368070  0.72833166  0.72597186  1.0
  C  C45  1  0.61192971  0.70442015  0.70454165  1.0
  C  C46  1  0.43005919  0.72621265  0.72826564  1.0
  C  C47  1  0.61178187  0.83986559  0.83744621  1.0
  C  C48  1  0.61234200  0.65983279  0.65956640  1.0
  C  C49  1  0.61362569  0.62198059  0.62040409  1.0
  C  C50  1  0.61241508  0.87854413  0.87591667  1.0
  C  C51  1  0.61178970  0.92311882  0.92229741  1.0
  C  C52  1  0.61131119  0.89306450  0.10255467  1.0
  C  C53  1  0.11086676  0.07755001  0.07433298  1.0
  C  C54  1  0.11160633  0.10554693  0.89410708  1.0
  C  C55  1  0.68088562  0.37643686  0.29565068  1.0
  N  N56  1  0.74183433  0.33094051  0.25240492  1.0
  O  O57  1  0.44619929  0.56304700  0.55272301  1.0
  O  O58  1  0.78428522  0.58270632  0.41940611  1.0
  O  O59  1  0.94608100  0.44301356  0.43843111  1.0
  O  O60  1  0.78730426  0.56034958  0.55562515  1.0
  O  O61  1  0.94648284  0.41552749  0.57608822  1.0
  O  O62  1  0.44419472  0.57854855  0.41708016  1.0
  O  O63  1  0.61696907  0.45377396  0.50633902  1.0
  O  O64  1  0.28769578  0.41800718  0.57946571  1.0
  O  O65  1  0.28589302  0.43644175  0.44407717  1.0
  O  O66  1  0.11644586  0.54543851  0.49223717  1.0
  O  O67  1  0.78242389  0.91730288  0.07816216  1.0
  O  O68  1  0.44128944  0.94129815  0.94027157  1.0
  O  O69  1  0.28139851  0.08272216  0.91981918  1.0
  O  O70  1  0.44098439  0.91593166  0.07709752  1.0
  O  O71  1  0.28192278  0.05957751  0.05632509  1.0
  O  O72  1  0.78146098  0.93938600  0.94178868  1.0
  O  O73  1  0.61134070  0.04555898  0.99258841  1.0
  O  O74  1  0.94125910  0.06202211  0.05397730  1.0
  O  O75  1  0.94067851  0.08095718  0.91809504  1.0
  O  O76  1  0.11151417  0.95446521  0.00557051  1.0
