# generated using pymatgen
data_ZnH6C8O5
_symmetry_space_group_name_H-M   'P 1'
_cell_length_a   6.50751903
_cell_length_b   12.61208809
_cell_length_c   15.55104359
_cell_angle_alpha   90.00001887
_cell_angle_beta   90.00010785
_cell_angle_gamma   75.88746745
_symmetry_Int_Tables_number   1
_chemical_formula_structural   ZnH6C8O5
_chemical_formula_sum   'Zn4 H24 C32 O20'
_cell_volume   1237.80586788
_cell_formula_units_Z   4
loop_
 _symmetry_equiv_pos_site_id
 _symmetry_equiv_pos_as_xyz
  1  'x, y, z'
loop_
 _atom_site_type_symbol
 _atom_site_label
 _atom_site_symmetry_multiplicity
 _atom_site_fract_x
 _atom_site_fract_y
 _atom_site_fract_z
 _atom_site_occupancy
  Zn  Zn0  1  0.79741088  0.57203123  0.49502484  1.0
  Zn  Zn1  1  0.70258601  0.92797218  0.99502792  1.0
  Zn  Zn2  1  0.20258970  0.42796849  0.50497501  1.0
  Zn  Zn3  1  0.29741305  0.07203408  0.00497579  1.0
  H  H4  1  0.14044759  0.16853618  0.31284317  1.0
  H  H5  1  0.35956130  0.33146233  0.81283802  1.0
  H  H6  1  0.85955492  0.83146599  0.68715861  1.0
  H  H7  1  0.64043001  0.66852433  0.18714961  1.0
  H  H8  1  0.01442302  0.06026248  0.19807910  1.0
  H  H9  1  0.48558620  0.43973438  0.69807215  1.0
  H  H10  1  0.98558256  0.93973968  0.80191947  1.0
  H  H11  1  0.51440550  0.56025473  0.30191677  1.0
  H  H12  1  0.38897054  0.27245218  0.21565881  1.0
  H  H13  1  0.11102913  0.22754224  0.71564699  1.0
  H  H14  1  0.61102965  0.72754835  0.78434811  1.0
  H  H15  1  0.88896644  0.77245503  0.28434707  1.0
  H  H16  1  0.51459723  0.38295039  0.32800954  1.0
  H  H17  1  0.98540451  0.11704496  0.82800254  1.0
  H  H18  1  0.48540373  0.61704851  0.67199867  1.0
  H  H19  1  0.01459760  0.88295476  0.17199538  1.0
  H  H20  1  0.49365872  0.73195115  0.52657501  1.0
  H  H21  1  0.00633630  0.76805457  0.02657619  1.0
  H  H22  1  0.50634608  0.26804938  0.47342549  1.0
  H  H23  1  0.99365814  0.23195169  0.97343009  1.0
  H  H24  1  0.39826969  0.62861360  0.52098562  1.0
  H  H25  1  0.10172723  0.87139130  0.02098690  1.0
  H  H26  1  0.60173396  0.37138611  0.47901745  1.0
  H  H27  1  0.89827105  0.12861333  0.97901488  1.0
  C  C28  1  0.97611654  0.19039516  0.29141862  1.0
  C  C29  1  0.52388968  0.30960344  0.79141509  1.0
  C  C30  1  0.02389595  0.80960536  0.70858381  1.0
  C  C31  1  0.47609934  0.69039140  0.20857511  1.0
  C  C32  1  0.90558173  0.12977877  0.22815723  1.0
  C  C33  1  0.59442310  0.37021901  0.72815249  1.0
  C  C34  1  0.09441886  0.87022749  0.77184583  1.0
  C  C35  1  0.40557130  0.62977091  0.27184093  1.0
  C  C36  1  0.69345696  0.15935512  0.20095189  1.0
  C  C37  1  0.80655123  0.34064510  0.70094477  1.0
  C  C38  1  0.30654670  0.84064787  0.79904925  1.0
  C  C39  1  0.19344012  0.65935463  0.29905058  1.0
  C  C40  1  0.91186459  0.34891980  0.39442198  1.0
  C  C41  1  0.58814204  0.15108208  0.89441977  1.0
  C  C42  1  0.08816173  0.65107417  0.60558109  1.0
  C  C43  1  0.41184394  0.84892256  0.10557944  1.0
  C  C44  1  0.61955855  0.09641816  0.13078486  1.0
  C  C45  1  0.88045206  0.40357960  0.63078167  1.0
  C  C46  1  0.38043974  0.90358973  0.86921885  1.0
  C  C47  1  0.11955734  0.59641439  0.36921690  1.0
  C  C48  1  0.83580310  0.28186069  0.32775889  1.0
  C  C49  1  0.66420173  0.21813792  0.82775548  1.0
  C  C50  1  0.16419632  0.71813821  0.67224418  1.0
  C  C51  1  0.33580345  0.78185853  0.17223795  1.0
  C  C52  1  0.55278524  0.25008174  0.23769921  1.0
  C  C53  1  0.94721732  0.24991441  0.73769155  1.0
  C  C54  1  0.44721227  0.74992126  0.76230708  1.0
  C  C55  1  0.05278363  0.75008122  0.26230637  1.0
  C  C56  1  0.62350792  0.31139725  0.30044680  1.0
  C  C57  1  0.87649641  0.18859891  0.80044229  1.0
  C  C58  1  0.37649880  0.68859920  0.69955948  1.0
  C  C59  1  0.12350033  0.81140245  0.19955692  1.0
  O  O60  1  0.77060320  0.42914598  0.42721393  1.0
  O  O61  1  0.72939932  0.07085836  0.92721634  1.0
  O  O62  1  0.22940236  0.57084965  0.57279492  1.0
  O  O63  1  0.27060512  0.92914952  0.07279637  1.0
  O  O64  1  0.10509451  0.32413958  0.41590570  1.0
  O  O65  1  0.39490556  0.17586222  0.91590378  1.0
  O  O66  1  0.89490186  0.67586586  0.58408708  1.0
  O  O67  1  0.60509001  0.82413178  0.08408450  1.0
  O  O68  1  0.42794665  0.13042191  0.10536269  1.0
  O  O69  1  0.07205800  0.36958067  0.60536371  1.0
  O  O70  1  0.57207739  0.86958677  0.89463331  1.0
  O  O71  1  0.92791605  0.63041991  0.39463164  1.0
  O  O72  1  0.49513759  0.66809833  0.49106292  1.0
  O  O73  1  0.00486034  0.83190825  0.99106452  1.0
  O  O74  1  0.50486568  0.33190547  0.50893629  1.0
  O  O75  1  0.99513564  0.16809474  0.00893855  1.0
  O  O76  1  0.75364380  0.01393721  0.10074127  1.0
  O  O77  1  0.74635978  0.48605892  0.60073540  1.0
  O  O78  1  0.24635753  0.98605761  0.89926630  1.0
  O  O79  1  0.25362660  0.51395144  0.39926445  1.0
