# generated using pymatgen
data_Zn2H25C37N8O3
_symmetry_space_group_name_H-M   'P 1'
_cell_length_a   19.63382735
_cell_length_b   19.68750842
_cell_length_c   20.02443160
_cell_angle_alpha   68.74360580
_cell_angle_beta   73.69463552
_cell_angle_gamma   111.08105984
_symmetry_Int_Tables_number   1
_chemical_formula_structural   Zn2H25C37N8O3
_chemical_formula_sum   'Zn4 H50 C74 N16 O6'
_cell_volume   5930.98783157
_cell_formula_units_Z   2
loop_
 _symmetry_equiv_pos_site_id
 _symmetry_equiv_pos_as_xyz
  1  'x, y, z'
loop_
 _atom_site_type_symbol
 _atom_site_label
 _atom_site_symmetry_multiplicity
 _atom_site_fract_x
 _atom_site_fract_y
 _atom_site_fract_z
 _atom_site_occupancy
  Zn  Zn0  1  0.10267563  0.60979424  0.99798531  1.0
  Zn  Zn1  1  0.88827574  0.38936710  0.99999618  1.0
  Zn  Zn2  1  0.98633791  0.59832923  0.90622652  1.0
  Zn  Zn3  1  0.00248146  0.40114299  0.09228034  1.0
  H  H4  1  0.99394490  0.64951653  0.45213023  1.0
  H  H5  1  0.06991948  0.19656441  0.78086532  1.0
  H  H6  1  0.24611927  0.22632815  0.87305540  1.0
  H  H7  1  0.07435119  0.07450776  0.77576360  1.0
  H  H8  1  0.72127165  0.19206952  0.14714772  1.0
  H  H9  1  0.26282424  0.63686722  0.86302976  1.0
  H  H10  1  0.85591007  0.62337634  0.02193030  1.0
  H  H11  1  0.12857024  0.36748784  0.16441550  1.0
  H  H12  1  0.86380445  0.35739529  0.25651409  1.0
  H  H13  1  0.96810577  0.64193151  0.73602882  1.0
  H  H14  1  0.71835363  0.34835471  0.13830283  1.0
  H  H15  1  0.80279160  0.35268252  0.54317787  1.0
  H  H16  1  0.25879367  0.64204405  0.04799866  1.0
  H  H17  1  0.99983488  0.63271445  0.13469155  1.0
  H  H18  1  0.85844351  0.36907370  0.85077239  1.0
  H  H19  1  0.88056447  0.20526096  0.25991293  1.0
  H  H20  1  0.10367615  0.60871168  0.74987708  1.0
  H  H21  1  0.02130846  0.79561426  0.83029329  1.0
  H  H22  1  0.15488755  0.39887567  0.97546123  1.0
  H  H23  1  0.84544968  0.59167103  0.44110475  1.0
  H  H24  1  0.95127452  0.41075336  0.55425714  1.0
  H  H25  1  0.21297771  0.87967599  0.92998909  1.0
  H  H26  1  0.49993781  0.95029110  0.36800107  1.0
  H  H27  1  0.00062716  0.30854999  0.84705306  1.0
  H  H28  1  0.67256442  0.36734280  0.59580346  1.0
  H  H29  1  0.68933992  0.47233192  0.55434978  1.0
  H  H30  1  0.61357650  0.44132886  0.69618166  1.0
  H  H31  1  0.54930690  0.36821162  0.67690314  1.0
  H  H32  1  0.59613808  0.33630310  0.73716206  1.0
  H  H33  1  0.10484361  0.52383447  0.44320921  1.0
  H  H34  1  0.12369006  0.62945895  0.40502292  1.0
  H  H35  1  0.20379480  0.66618010  0.26223644  1.0
  H  H36  1  0.24663338  0.62820120  0.32440471  1.0
  H  H37  1  0.50099223  0.78455637  0.62287253  1.0
  H  H38  1  0.18415777  0.56053259  0.29943119  1.0
  H  H39  1  0.44354876  0.66832261  0.21244780  1.0
  H  H40  1  0.36067086  0.59465942  0.20894389  1.0
  H  H41  1  0.38819370  0.71022726  0.08055094  1.0
  H  H42  1  0.37184474  0.73752016  0.15710116  1.0
  H  H43  1  0.47414676  0.78539989  0.07895088  1.0
  H  H44  1  0.55160578  0.37675676  0.10295324  1.0
  H  H45  1  0.44535674  0.31321788  0.13046446  1.0
  H  H46  1  0.43715709  0.18678541  0.23656542  1.0
  H  H47  1  0.51395745  0.22756542  0.13685111  1.0
  H  H48  1  0.36900208  0.82351107  0.48684578  1.0
  H  H49  1  0.54367759  0.25088852  0.20605276  1.0
  H  H50  1  0.63206073  0.91126817  0.50408293  1.0
  H  H51  1  0.59887575  0.62126814  0.12589791  1.0
  H  H52  1  0.34371445  0.35855591  0.21561119  1.0
  H  H53  1  0.25092643  0.10445185  0.86745620  1.0
  C  C54  1  0.13868928  0.79637727  0.91885640  1.0
  C  C55  1  0.97315781  0.52853786  0.43901082  1.0
  C  C56  1  0.86879503  0.55156323  0.46674241  1.0
  C  C57  1  0.92784252  0.45070085  0.52847276  1.0
  C  C58  1  0.89240428  0.48933892  0.30394889  1.0
  C  C59  1  0.91387591  0.51104463  0.68970974  1.0
  C  C60  1  0.84513888  0.41843967  0.52360575  1.0
  C  C61  1  0.95153209  0.58380616  0.47165415  1.0
  C  C62  1  0.88943833  0.49581065  0.43354917  1.0
  C  C63  1  0.90713457  0.50645979  0.56172605  1.0
  C  C64  1  0.88504296  0.49114577  0.36579843  1.0
  C  C65  1  0.01718107  0.35737255  0.91081271  1.0
  C  C66  1  0.91345267  0.51045794  0.62907443  1.0
  C  C67  1  0.42682859  0.84238220  0.49014501  1.0
  C  C68  1  0.57448114  0.89173340  0.50027547  1.0
  C  C69  1  0.77118137  0.20918724  0.16263570  1.0
  C  C70  1  0.21237583  0.62471184  0.84797580  1.0
  C  C71  1  0.42555978  0.79542084  0.56364813  1.0
  C  C72  1  0.57519318  0.94043798  0.42778633  1.0
  C  C73  1  0.50123923  0.82074481  0.56667196  1.0
  C  C74  1  0.49998258  0.91341974  0.42381639  1.0
  C  C75  1  0.35008070  0.72930666  0.63454673  1.0
  C  C76  1  0.77253726  0.16280098  0.23452945  1.0
  C  C77  1  0.64779779  0.01609014  0.36114097  1.0
  C  C78  1  0.70760747  0.08381173  0.30302908  1.0
  C  C79  1  0.28520702  0.68035568  0.69834560  1.0
  C  C80  1  0.54291250  0.56311632  0.14651938  1.0
  C  C81  1  0.39929530  0.41603684  0.19695972  1.0
  C  C82  1  0.54346211  0.48684992  0.16713292  1.0
  C  C83  1  0.40036723  0.49352074  0.17099030  1.0
  C  C84  1  0.46883762  0.41212714  0.19512610  1.0
  C  C85  1  0.47325698  0.56726117  0.14812041  1.0
  C  C86  1  0.61716231  0.48513327  0.15459041  1.0
  C  C87  1  0.21397432  0.63708397  0.77339727  1.0
  C  C88  1  0.33380522  0.49769713  0.15989638  1.0
  C  C89  1  0.27994221  0.50115962  0.14221016  1.0
  C  C90  1  0.68108980  0.48347374  0.13443124  1.0
  C  C91  1  0.20896158  0.19322495  0.85133465  1.0
  C  C92  1  0.11214949  0.10814695  0.79671665  1.0
  C  C93  1  0.83439954  0.55681003  0.04243130  1.0
  C  C94  1  0.15013542  0.43486650  0.13131846  1.0
  C  C95  1  0.15546113  0.21839573  0.83017703  1.0
  C  C96  1  0.16068291  0.07882098  0.82398082  1.0
  C  C97  1  0.10973321  0.17651245  0.79966126  1.0
  C  C98  1  0.75464749  0.48463746  0.09930480  1.0
  C  C99  1  0.21146029  0.12489319  0.84832156  1.0
  C  C100  1  0.14236750  0.27801727  0.84642758  1.0
  C  C101  1  0.15273370  0.00148360  0.83275911  1.0
  C  C102  1  0.13566341  0.92937822  0.84877945  1.0
  C  C103  1  0.12370837  0.31923780  0.87327454  1.0
  C  C104  1  0.90323352  0.42557729  0.21414326  1.0
  C  C105  1  0.94103570  0.57430312  0.77660377  1.0
  C  C106  1  0.76399090  0.41599018  0.10184641  1.0
  C  C107  1  0.21678492  0.57528033  0.07187617  1.0
  C  C108  1  0.97258145  0.56646756  0.15152771  1.0
  C  C109  1  0.21986227  0.50380413  0.11820348  1.0
  C  C110  1  0.88427208  0.43470048  0.83565871  1.0
  C  C111  1  0.85244064  0.21563052  0.22047646  1.0
  C  C112  1  0.13117422  0.61058773  0.78972792  1.0
  C  C113  1  0.05668092  0.78604369  0.86208728  1.0
  C  C114  1  0.10560637  0.38869837  0.95879293  1.0
  C  C115  1  0.11288632  0.84502219  0.87243330  1.0
  C  C116  1  0.08944925  0.35628535  0.90907507  1.0
  C  C117  1  0.67984282  0.41917350  0.60815845  1.0
  C  C118  1  0.60523962  0.38946334  0.68419818  1.0
  C  C119  1  0.11619650  0.57923653  0.39014464  1.0
  C  C120  1  0.91606988  0.49270966  0.22903280  1.0
  C  C121  1  0.19212543  0.61032467  0.31448771  1.0
  C  C122  1  0.42094327  0.65454876  0.17158916  1.0
  C  C123  1  0.41345738  0.72628120  0.11874254  1.0
  C  C124  1  0.49122249  0.32083240  0.15316047  1.0
  C  C125  1  0.49681302  0.24174409  0.18515604  1.0
  C  C126  1  0.91319163  0.50758846  0.76137315  1.0
  C  C127  1  0.82366175  0.47374172  0.55635713  1.0
  N  N128  1  0.10153758  0.71672492  0.93456732  1.0
  N  N129  1  0.15109817  0.55046126  0.05870576  1.0
  N  N130  1  0.99272421  0.54416390  0.09622810  1.0
  N  N131  1  0.89422772  0.45641911  0.88998070  1.0
  N  N132  1  0.89437295  0.28675378  0.14672460  1.0
  N  N133  1  0.08550109  0.58684737  0.86706483  1.0
  N  N134  1  0.05022718  0.71037618  0.89871365  1.0
  N  N135  1  0.04782765  0.40662867  0.98683950  1.0
  N  N136  1  0.99339168  0.38797584  0.95650469  1.0
  N  N137  1  0.84377107  0.28258272  0.11085970  1.0
  N  N138  1  0.13545024  0.59557166  0.90249199  1.0
  N  N139  1  0.88531611  0.53229012  0.01295540  1.0
  N  N140  1  0.10959620  0.46318910  0.09570673  1.0
  N  N141  1  0.95034501  0.45768684  0.13450985  1.0
  N  N142  1  0.92961105  0.54338963  0.85331659  1.0
  N  N143  1  0.84233313  0.44609914  0.04929510  1.0
  O  O144  1  0.19219722  0.81975526  0.94763800  1.0
  O  O145  1  0.97324624  0.33012099  0.87528475  1.0
  O  O146  1  0.75139022  0.44711637  0.62045266  1.0
  O  O147  1  0.04595922  0.55511364  0.37536871  1.0
  O  O148  1  0.48081719  0.64583082  0.11910433  1.0
  O  O149  1  0.46567943  0.33537895  0.21931273  1.0
