# generated using pymatgen
data_AlH11C14N4O9
_symmetry_space_group_name_H-M   'P 1'
_cell_length_a   6.61000636
_cell_length_b   20.61240519
_cell_length_c   23.37487566
_cell_angle_alpha   77.64484785
_cell_angle_beta   87.74125405
_cell_angle_gamma   88.13944678
_symmetry_Int_Tables_number   1
_chemical_formula_structural   AlH11C14N4O9
_chemical_formula_sum   'Al4 H44 C56 N16 O36'
_cell_volume   3107.66403717
_cell_formula_units_Z   4
loop_
 _symmetry_equiv_pos_site_id
 _symmetry_equiv_pos_as_xyz
  1  'x, y, z'
loop_
 _atom_site_type_symbol
 _atom_site_label
 _atom_site_symmetry_multiplicity
 _atom_site_fract_x
 _atom_site_fract_y
 _atom_site_fract_z
 _atom_site_occupancy
  Al  Al0  1  0.23502159  0.74771428  0.74573741  1.0
  Al  Al1  1  0.74708315  0.25182515  0.25002109  1.0
  Al  Al2  1  0.73433663  0.74913317  0.74962928  1.0
  Al  Al3  1  0.24829024  0.25019019  0.24496373  1.0
  H  H4  1  0.21932890  0.51269755  0.99676096  1.0
  H  H5  1  0.76011309  0.48804281  0.99962185  1.0
  H  H6  1  0.72134567  0.98537791  0.49479797  1.0
  H  H7  1  0.25740456  0.00864054  0.49667866  1.0
  H  H8  1  0.80657403  0.53287224  0.46610820  1.0
  H  H9  1  0.16789226  0.45998286  0.53600295  1.0
  H  H10  1  0.30220676  0.96092984  0.03459657  1.0
  H  H11  1  0.67023199  0.03128793  0.96427515  1.0
  H  H12  1  0.23886243  0.49507882  0.30231935  1.0
  H  H13  1  0.08806455  0.49511442  0.21600836  1.0
  H  H14  1  0.94032481  0.42545900  0.24856494  1.0
  H  H15  1  0.19441203  0.41314283  0.22388415  1.0
  H  H16  1  0.75050339  0.49930546  0.70049703  1.0
  H  H17  1  0.91024894  0.50003623  0.78520274  1.0
  H  H18  1  0.80298623  0.58184269  0.77805587  1.0
  H  H19  1  0.05437696  0.57006080  0.75118646  1.0
  H  H20  1  0.71491408  0.01054899  0.20360046  1.0
  H  H21  1  0.04185014  0.05449484  0.17235802  1.0
  H  H22  1  0.97486327  0.06519113  0.24442389  1.0
  H  H23  1  0.95027003  0.13347294  0.18351904  1.0
  H  H24  1  0.19915748  0.98601496  0.79925350  1.0
  H  H25  1  0.90573909  0.92950660  0.84637173  1.0
  H  H26  1  0.00166635  0.85653084  0.82415726  1.0
  H  H27  1  0.92780475  0.92785230  0.77057761  1.0
  H  H28  1  0.21216683  0.73062192  0.51933332  1.0
  H  H29  1  0.04028245  0.82301030  0.53884110  1.0
  H  H30  1  0.14641220  0.79805206  0.60934135  1.0
  H  H31  1  0.89880901  0.77369476  0.59757635  1.0
  H  H32  1  0.76036716  0.26380431  0.47872318  1.0
  H  H33  1  0.92960505  0.17123928  0.45894681  1.0
  H  H34  1  0.07966482  0.22084835  0.40245550  1.0
  H  H35  1  0.83287389  0.19824356  0.38744499  1.0
  H  H36  1  0.70541660  0.76255134  0.88241152  1.0
  H  H37  1  0.80955412  0.69172361  0.96377097  1.0
  H  H38  1  0.69785973  0.74177084  0.01027877  1.0
  H  H39  1  0.93980898  0.76195142  0.97620964  1.0
  H  H40  1  0.29008407  0.24241710  0.01859935  1.0
  H  H41  1  0.45098711  0.33452351  0.03158455  1.0
  H  H42  1  0.63546689  0.28321083  0.07460096  1.0
  H  H43  1  0.40376594  0.30608586  0.10803840  1.0
  H  H44  1  0.50333159  0.67176450  0.72925024  1.0
  H  H45  1  0.47643062  0.32354613  0.27239054  1.0
  H  H46  1  0.98222968  0.83663589  0.72977801  1.0
  H  H47  1  0.00177651  0.16489406  0.27249784  1.0
  C  C48  1  0.45553468  0.81853816  0.81870117  1.0
  C  C49  1  0.52571403  0.18701939  0.17166071  1.0
  C  C50  1  0.99903341  0.67551704  0.67849447  1.0
  C  C51  1  0.98601670  0.31995082  0.32105112  1.0
  C  C52  1  0.49757239  0.83685219  0.66007785  1.0
  C  C53  1  0.48762155  0.15781416  0.33217514  1.0
  C  C54  1  0.97899019  0.66419191  0.83710788  1.0
  C  C55  1  0.99844238  0.33856042  0.16078923  1.0
  C  C56  1  0.98417185  0.38775027  0.10705126  1.0
  C  C57  1  0.99447400  0.61406730  0.89019258  1.0
  C  C58  1  0.47603564  0.10653097  0.38466972  1.0
  C  C59  1  0.50625790  0.88723458  0.60691095  1.0
  C  C60  1  0.91669845  0.48062255  0.01358030  1.0
  C  C61  1  0.06272550  0.52012503  0.98281907  1.0
  C  C62  1  0.41448236  0.01585347  0.48062769  1.0
  C  C63  1  0.56433490  0.97804241  0.51088299  1.0
  C  C64  1  0.02310967  0.57017897  0.93343937  1.0
  C  C65  1  0.95615943  0.43077680  0.06315782  1.0
  C  C66  1  0.52891629  0.92967584  0.56209261  1.0
  C  C67  1  0.45081140  0.06416205  0.42942161  1.0
  C  C68  1  0.99967463  0.35899151  0.36753857  1.0
  C  C69  1  0.98215199  0.63591449  0.63271554  1.0
  C  C70  1  0.54645248  0.14794059  0.12416020  1.0
  C  C71  1  0.44733166  0.85805554  0.86538416  1.0
  C  C72  1  0.10692915  0.41969099  0.35508479  1.0
  C  C73  1  0.87686502  0.57482117  0.64637798  1.0
  C  C74  1  0.63687188  0.08416506  0.13840076  1.0
  C  C75  1  0.32149854  0.91503788  0.85890955  1.0
  C  C76  1  0.15143667  0.44878415  0.40412006  1.0
  C  C77  1  0.82907452  0.54505620  0.59804172  1.0
  C  C78  1  0.63521097  0.04368951  0.09622162  1.0
  C  C79  1  0.31262767  0.95099333  0.90452002  1.0
  C  C80  1  0.04968480  0.42875107  0.45861331  1.0
  C  C81  1  0.92693896  0.56470997  0.54293855  1.0
  C  C82  1  0.54506891  0.06401657  0.04197238  1.0
  C  C83  1  0.42823305  0.93178284  0.95486524  1.0
  C  C84  1  0.92695886  0.37310440  0.46808727  1.0
  C  C85  1  0.04855607  0.62072000  0.53215953  1.0
  C  C86  1  0.44840037  0.12701376  0.03000463  1.0
  C  C87  1  0.56117237  0.87724637  0.95753708  1.0
  C  C88  1  0.91685176  0.33318203  0.42442374  1.0
  C  C89  1  0.06074942  0.66138681  0.57518768  1.0
  C  C90  1  0.45352826  0.17162084  0.06956052  1.0
  C  C91  1  0.57362696  0.83748321  0.91468015  1.0
  C  C92  1  0.05382415  0.47097961  0.50269663  1.0
  C  C93  1  0.92053730  0.52181599  0.49944061  1.0
  C  C94  1  0.55289387  0.02044398  0.99888490  1.0
  C  C95  1  0.42272652  0.97161409  0.00092918  1.0
  C  C96  1  0.09355244  0.44541725  0.24465150  1.0
  C  C97  1  0.90168336  0.54965483  0.75651156  1.0
  C  C98  1  0.93443583  0.07986728  0.19819910  1.0
  C  C99  1  0.99958016  0.91075807  0.81296415  1.0
  C  C100  1  0.05145538  0.78230181  0.57764884  1.0
  C  C101  1  0.92444861  0.21267040  0.42057348  1.0
  C  C102  1  0.79045472  0.74279508  0.97007038  1.0
  C  C103  1  0.47206481  0.29232020  0.06865153  1.0
  N  N104  1  0.16323753  0.45244457  0.30081689  1.0
  N  N105  1  0.82567759  0.54227518  0.70115936  1.0
  N  N106  1  0.72294111  0.06123028  0.19330103  1.0
  N  N107  1  0.20843495  0.93519350  0.80760911  1.0
  N  N108  1  0.13128645  0.72381798  0.55833524  1.0
  N  N109  1  0.84382755  0.27092365  0.44015538  1.0
  N  N110  1  0.69029102  0.78121789  0.91924708  1.0
  N  N111  1  0.37943471  0.23495020  0.05420641  1.0
  N  N112  1  0.83312787  0.35036189  0.52553285  1.0
  N  N113  1  0.13872432  0.64296304  0.47418100  1.0
  N  N114  1  0.35537233  0.14938841  0.97373362  1.0
  N  N115  1  0.70669805  0.86513149  0.00486955  1.0
  N  N116  1  0.68059010  0.49359115  0.60515451  1.0
  N  N117  1  0.30026723  0.49992971  0.39827914  1.0
  N  N118  1  0.17741067  0.00894840  0.90004238  1.0
  N  N119  1  0.75383332  0.98139868  0.10760502  1.0
  O  O120  1  0.66853099  0.81239892  0.67832669  1.0
  O  O121  1  0.31737429  0.18024152  0.31168990  1.0
  O  O122  1  0.14315282  0.67608684  0.80721361  1.0
  O  O123  1  0.83135657  0.32395919  0.18851160  1.0
  O  O124  1  0.29376798  0.79501357  0.80528077  1.0
  O  O125  1  0.68618031  0.20688566  0.18962134  1.0
  O  O126  1  0.83432454  0.68561940  0.70642621  1.0
  O  O127  1  0.15365321  0.30810394  0.29553319  1.0
  O  O128  1  0.32401313  0.82129760  0.68385611  1.0
  O  O129  1  0.66253471  0.17636643  0.31127449  1.0
  O  O130  1  0.80524680  0.69108939  0.82424756  1.0
  O  O131  1  0.17313270  0.31539015  0.17646831  1.0
  O  O132  1  0.17102930  0.69716561  0.68798312  1.0
  O  O133  1  0.81355084  0.30068702  0.30902475  1.0
  O  O134  1  0.63061940  0.80899156  0.79592263  1.0
  O  O135  1  0.34762765  0.19691590  0.19149491  1.0
  O  O136  1  0.48918305  0.70734309  0.75060124  1.0
  O  O137  1  0.49255024  0.29114904  0.24772950  1.0
  O  O138  1  0.98265666  0.78868506  0.74208256  1.0
  O  O139  1  0.99980436  0.21099522  0.25190460  1.0
  O  O140  1  0.68342554  0.31290578  0.52977911  1.0
  O  O141  1  0.90304101  0.36698469  0.56850967  1.0
  O  O142  1  0.28718404  0.68111044  0.46864325  1.0
  O  O143  1  0.06706911  0.62524042  0.43194354  1.0
  O  O144  1  0.21141117  0.19144273  0.97039594  1.0
  O  O145  1  0.42161149  0.12732473  0.93123721  1.0
  O  O146  1  0.88877454  0.86849659  0.98950364  1.0
  O  O147  1  0.63963439  0.85337414  0.05613061  1.0
  O  O148  1  0.63818689  0.45949304  0.65574672  1.0
  O  O149  1  0.59318741  0.48596057  0.56123925  1.0
  O  O150  1  0.38407466  0.50719163  0.44289925  1.0
  O  O151  1  0.34682834  0.53426863  0.34808689  1.0
  O  O152  1  0.16063546  0.04705029  0.85096370  1.0
  O  O153  1  0.08546435  0.01760584  0.94519623  1.0
  O  O154  1  0.87545256  0.97109450  0.06875723  1.0
  O  O155  1  0.73017015  0.94339669  0.15663215  1.0
