# generated using pymatgen
data_Zn4H86C91N20O9
_symmetry_space_group_name_H-M   'P 1'
_cell_length_a   18.91973435
_cell_length_b   20.22288075
_cell_length_c   21.41429020
_cell_angle_alpha   103.14638816
_cell_angle_beta   106.39430602
_cell_angle_gamma   114.70775209
_symmetry_Int_Tables_number   1
_chemical_formula_structural   Zn4H86C91N20O9
_chemical_formula_sum   'Zn4 H86 C91 N20 O9'
_cell_volume   6555.84961698
_cell_formula_units_Z   1
loop_
 _symmetry_equiv_pos_site_id
 _symmetry_equiv_pos_as_xyz
  1  'x, y, z'
loop_
 _atom_site_type_symbol
 _atom_site_label
 _atom_site_symmetry_multiplicity
 _atom_site_fract_x
 _atom_site_fract_y
 _atom_site_fract_z
 _atom_site_occupancy
  Zn  Zn0  1  0.39346600  0.37647400  0.49656751  1.0
  Zn  Zn1  1  0.61757070  0.63701698  0.49449916  1.0
  Zn  Zn2  1  0.40594569  0.49473411  0.40031674  1.0
  Zn  Zn3  1  0.60422184  0.53298982  0.60128982  1.0
  H  H4  1  0.59788349  0.78231249  0.52530559  1.0
  H  H5  1  0.34873396  0.76036747  0.37379339  1.0
  H  H6  1  0.62284007  0.86431998  0.44943105  1.0
  H  H7  1  0.63812951  0.99064813  0.44656912  1.0
  H  H8  1  0.91174341  0.51297021  0.38031056  1.0
  H  H9  1  0.79114733  0.52853742  0.38693324  1.0
  H  H10  1  0.73395030  0.36148124  0.48583263  1.0
  H  H11  1  0.85167311  0.34317453  0.47587132  1.0
  H  H12  1  0.43690522  0.39150435  0.29260703  1.0
  H  H13  1  0.15426410  0.46485771  0.57499388  1.0
  H  H14  1  0.11535852  0.45761358  0.36438938  1.0
  H  H15  1  0.29819873  0.56010551  0.44384637  1.0
  H  H16  1  0.97077948  0.43687215  0.34195263  1.0
  H  H17  1  0.41185529  0.37232425  0.16778291  1.0
  H  H18  1  0.40575413  0.33365284  0.04655378  1.0
  H  H19  1  0.35616378  0.38017890  0.87099623  1.0
  H  H20  1  0.36481188  0.41252669  0.76643546  1.0
  H  H21  1  0.68694942  0.52674428  0.25555139  1.0
  H  H22  1  0.59913833  0.39275171  0.92351935  1.0
  H  H23  1  0.67986210  0.48611763  0.13329141  1.0
  H  H24  1  0.61630250  0.31423597  0.60140973  1.0
  H  H25  1  0.60583549  0.41963268  0.81646868  1.0
  H  H26  1  0.62270177  0.65658156  0.72272406  1.0
  H  H27  1  0.69240348  0.74682766  0.82844684  1.0
  H  H28  1  0.77794156  0.84788709  0.95131105  1.0
  H  H29  1  0.02710551  0.03312080  0.05783205  1.0
  H  H30  1  0.16650845  0.11512588  0.16642675  1.0
  H  H31  1  0.76875113  0.93230357  0.75085101  1.0
  H  H32  1  0.65735811  0.61622837  0.33929218  1.0
  H  H33  1  0.39899986  0.23489215  0.40531179  1.0
  H  H34  1  0.62743724  0.39323085  0.50383602  1.0
  H  H35  1  0.25073569  0.36059680  0.24377651  1.0
  H  H36  1  0.35850608  0.38054339  0.64452322  1.0
  H  H37  1  0.35731971  0.62440256  0.33794863  1.0
  H  H38  1  0.25084713  0.11999178  0.29070750  1.0
  H  H39  1  0.14484441  0.09523167  0.28036509  1.0
  H  H40  1  0.27935293  0.10009788  0.40515957  1.0
  H  H41  1  0.17363094  0.07401018  0.39346407  1.0
  H  H42  1  0.11377758  0.95621552  0.27939119  1.0
  H  H43  1  0.18190526  0.95180286  0.35274563  1.0
  H  H44  1  0.22028869  0.98238512  0.29179797  1.0
  H  H45  1  0.72999947  0.80309347  0.53372719  1.0
  H  H46  1  0.82076736  0.80906237  0.59675985  1.0
  H  H47  1  0.82207327  0.89807548  0.59436298  1.0
  H  H48  1  0.63392927  0.09092757  0.51335912  1.0
  H  H49  1  0.28589795  0.30750399  0.53234763  1.0
  H  H50  1  0.18643993  0.25979323  0.45553474  1.0
  H  H51  1  0.20865999  0.28689926  0.60898431  1.0
  H  H52  1  0.10906955  0.23773435  0.53409568  1.0
  H  H53  1  0.13844581  0.13137586  0.48295759  1.0
  H  H54  1  0.14436293  0.13994399  0.56891548  1.0
  H  H55  1  0.24014860  0.18161265  0.55682497  1.0
  H  H56  1  0.64498988  0.55951702  0.85882777  1.0
  H  H57  1  0.68231180  0.63900814  0.82963779  1.0
  H  H58  1  0.75041864  0.60211753  0.86095225  1.0
  H  H59  1  0.63897365  0.21754688  0.54657994  1.0
  H  H60  1  0.88344447  0.62700468  0.52355308  1.0
  H  H61  1  0.85224557  0.68809643  0.56879207  1.0
  H  H62  1  0.90666364  0.70501887  0.44822972  1.0
  H  H63  1  0.87646445  0.76596675  0.49302120  1.0
  H  H64  1  0.00179855  0.80997792  0.60901069  1.0
  H  H65  1  0.03800256  0.83237202  0.54439088  1.0
  H  H66  1  0.03217375  0.74962186  0.56305827  1.0
  H  H67  1  0.96030784  0.48956042  0.62643148  1.0
  H  H68  1  0.96138931  0.52248036  0.55643865  1.0
  H  H69  1  0.12127428  0.57633647  0.68957378  1.0
  H  H70  1  0.39670007  0.11275319  0.36631700  1.0
  H  H71  1  0.12226886  0.60779098  0.61901673  1.0
  H  H72  1  0.03086540  0.66495615  0.64183901  1.0
  H  H73  1  0.12850286  0.70816446  0.71830927  1.0
  H  H74  1  0.03109083  0.63434782  0.71318775  1.0
  H  H75  1  0.82949949  0.09031413  0.11298041  1.0
  H  H76  1  0.81796701  0.12551077  0.04318768  1.0
  H  H77  1  0.81474643  0.17363242  0.12346940  1.0
  H  H78  1  0.78426746  0.05460568  0.78644872  1.0
  H  H79  1  0.88232823  0.05658999  0.79399438  1.0
  H  H80  1  0.88628522  0.14116669  0.84842733  1.0
  H  H81  1  0.39312308  0.98654498  0.33177244  1.0
  H  H82  1  0.11812138  0.33279208  0.35908987  1.0
  H  H83  1  0.11219873  0.24009055  0.33117364  1.0
  H  H84  1  0.95832904  0.26440336  0.30159370  1.0
  H  H85  1  0.95052685  0.17164840  0.26963142  1.0
  H  H86  1  0.01931421  0.18568606  0.39526711  1.0
  H  H87  1  0.92614786  0.19276083  0.38090064  1.0
  H  H88  1  0.02970288  0.27989748  0.42827182  1.0
  H  H89  1  0.36393755  0.88664907  0.37126209  1.0
  C  C90  1  0.26185788  0.25597648  0.33802294  1.0
  C  C91  1  0.25574686  0.41842480  0.50258485  1.0
  C  C92  1  0.56857524  0.49153055  0.71899456  1.0
  C  C93  1  0.71751677  0.55608755  0.47746460  1.0
  C  C94  1  0.41676680  0.65222942  0.38544929  1.0
  C  C95  1  0.49477044  0.44361576  0.72683496  1.0
  C  C96  1  0.47959493  0.73312437  0.42516619  1.0
  C  C97  1  0.22864614  0.46834718  0.48156889  1.0
  C  C98  1  0.69280897  0.77091055  0.71049953  1.0
  C  C99  1  0.58221491  0.09557480  0.47995719  1.0
  C  C100  1  0.58462526  0.16714030  0.49921224  1.0
  C  C101  1  0.70794486  0.48056937  0.46715611  1.0
  C  C102  1  0.51615179  0.17444254  0.46110331  1.0
  C  C103  1  0.44926914  0.10847255  0.39884561  1.0
  C  C104  1  0.44691897  0.03686841  0.37954503  1.0
  C  C105  1  0.49008285  0.45208274  0.31410118  1.0
  C  C106  1  0.51154185  0.02766503  0.42141613  1.0
  C  C107  1  0.42103602  0.88175311  0.38723966  1.0
  C  C108  1  0.41238801  0.81045382  0.38898470  1.0
  C  C109  1  0.48505326  0.80373498  0.41460485  1.0
  C  C110  1  0.56592545  0.86955416  0.43328964  1.0
  C  C111  1  0.57448026  0.94068344  0.43148193  1.0
  C  C112  1  0.54966872  0.48798774  0.28794711  1.0
  C  C113  1  0.50243732  0.94939967  0.41092650  1.0
  C  C114  1  0.87210297  0.47880600  0.40274985  1.0
  C  C115  1  0.80482549  0.48842147  0.40722290  1.0
  C  C116  1  0.75862306  0.45188376  0.44285192  1.0
  C  C117  1  0.56182649  0.30551873  0.55827535  1.0
  C  C118  1  0.77239511  0.39469670  0.46218232  1.0
  C  C119  1  0.83879864  0.38422582  0.45659458  1.0
  C  C120  1  0.89466080  0.43130781  0.43239405  1.0
  C  C121  1  0.03405386  0.44889387  0.51140452  1.0
  C  C122  1  0.11502108  0.45890652  0.52342142  1.0
  C  C123  1  0.51171469  0.24479320  0.48883286  1.0
  C  C124  1  0.14619226  0.46291701  0.47139750  1.0
  C  C125  1  0.09345281  0.45662575  0.40632651  1.0
  C  C126  1  0.01192139  0.44463839  0.39375529  1.0
  C  C127  1  0.97923704  0.43929591  0.44496132  1.0
  C  C128  1  0.48760151  0.42125974  0.78568902  1.0
  C  C129  1  0.60261179  0.56702026  0.33819424  1.0
  C  C130  1  0.55219358  0.41297769  0.82958716  1.0
  C  C131  1  0.54821111  0.39682053  0.88839175  1.0
  C  C132  1  0.47810720  0.38701716  0.90435901  1.0
  C  C133  1  0.41019885  0.38874944  0.85791285  1.0
  C  C134  1  0.42699396  0.41877696  0.66136969  1.0
  C  C135  1  0.41540065  0.40663493  0.79990138  1.0
  C  C136  1  0.46690593  0.37503474  0.09281214  1.0
  C  C137  1  0.47092651  0.39696490  0.16043840  1.0
  C  C138  1  0.54246817  0.41021038  0.08293042  1.0
  C  C139  1  0.54942952  0.45507104  0.21982800  1.0
  C  C140  1  0.62532141  0.48449066  0.20982770  1.0
  C  C141  1  0.45118792  0.26397579  0.45787929  1.0
  C  C142  1  0.62201194  0.46166839  0.14228649  1.0
  C  C143  1  0.13228950  0.19741685  0.21209228  1.0
  C  C144  1  0.06723117  0.21655087  0.20226921  1.0
  C  C145  1  0.54043391  0.73243759  0.48016229  1.0
  C  C146  1  0.99018719  0.17281014  0.13941892  1.0
  C  C147  1  0.97643166  0.10600051  0.08707194  1.0
  C  C148  1  0.03907047  0.08410674  0.09967203  1.0
  C  C149  1  0.11613581  0.12956667  0.16023250  1.0
  C  C150  1  0.77261887  0.86536938  0.90640302  1.0
  C  C151  1  0.72590361  0.80932020  0.83773002  1.0
  C  C152  1  0.81882014  0.94723453  0.92249181  1.0
  C  C153  1  0.65210441  0.44936201  0.49790549  1.0
  C  C154  1  0.72748115  0.83232726  0.78035490  1.0
  C  C155  1  0.76896147  0.91389803  0.79479096  1.0
  C  C156  1  0.29206557  0.51314736  0.46244907  1.0
  C  C157  1  0.81180313  0.97140001  0.86439771  1.0
  C  C158  1  0.26372821  0.33408334  0.28110532  1.0
  C  C159  1  0.21636938  0.25507011  0.27263608  1.0
  C  C160  1  0.21082721  0.11966610  0.31970005  1.0
  C  C161  1  0.21306406  0.07183038  0.36471477  1.0
  C  C162  1  0.18037337  0.98585914  0.31962039  1.0
  C  C163  1  0.78205406  0.83703626  0.58790408  1.0
  C  C164  1  0.21856930  0.29409972  0.51332270  1.0
  C  C165  1  0.17501000  0.24880298  0.55192054  1.0
  C  C166  1  0.17450686  0.17116875  0.53945673  1.0
  C  C167  1  0.64815453  0.68883009  0.69262186  1.0
  C  C168  1  0.68383885  0.58582867  0.83195940  1.0
  C  C169  1  0.85534594  0.66465870  0.51837914  1.0
  C  C170  1  0.90750953  0.73093492  0.49975111  1.0
  C  C171  1  0.99992294  0.78367081  0.55717200  1.0
  C  C172  1  0.99914951  0.51162112  0.59804745  1.0
  C  C173  1  0.08392685  0.58794548  0.64842568  1.0
  C  C174  1  0.06787846  0.65239427  0.68232584  1.0
  C  C175  1  0.84354398  0.14322180  0.10082724  1.0
  C  C176  1  0.85058826  0.07630033  0.82335063  1.0
  C  C177  1  0.07928757  0.27231451  0.31789229  1.0
  C  C178  1  0.70745918  0.77518286  0.64966748  1.0
  C  C179  1  0.98905035  0.23038685  0.31387495  1.0
  C  C180  1  0.99119328  0.22180059  0.38341688  1.0
  N  N181  1  0.33071780  0.32910697  0.38092681  1.0
  N  N182  1  0.54485844  0.40472117  0.01701208  1.0
  N  N183  1  0.90561307  0.06696246  0.01994365  1.0
  N  N184  1  0.67116474  0.56830825  0.51056910  1.0
  N  N185  1  0.87594764  0.99273624  0.99379599  1.0
  N  N186  1  0.50585430  0.50575015  0.37462481  1.0
  N  N187  1  0.53379673  0.35597977  0.56857657  1.0
  N  N188  1  0.57498506  0.57719744  0.38883926  1.0
  N  N189  1  0.46522099  0.32997200  0.50622932  1.0
  N  N190  1  0.63041832  0.50225384  0.52346530  1.0
  N  N191  1  0.33068361  0.37737600  0.34515016  1.0
  N  N192  1  0.51660137  0.65705640  0.47310132  1.0
  N  N193  1  0.45670841  0.44715022  0.61759768  1.0
  N  N194  1  0.35125118  0.49090440  0.47025625  1.0
  N  N195  1  0.63944903  0.64840631  0.62901375  1.0
  N  N196  1  0.67665376  0.70264097  0.60162057  1.0
  N  N197  1  0.32740668  0.43118332  0.49413596  1.0
  N  N198  1  0.54402769  0.49395176  0.65448469  1.0
  N  N199  1  0.44033296  0.60781435  0.41410619  1.0
  N  N200  1  0.47317433  0.38214344  0.96762342  1.0
  O  O201  1  0.24465117  0.20034115  0.36640397  1.0
  O  O202  1  0.74881743  0.84270958  0.64024362  1.0
  O  O203  1  0.21641472  0.36620687  0.52888576  1.0
  O  O204  1  0.65431313  0.53002386  0.76153595  1.0
  O  O205  1  0.76805990  0.61589824  0.46240791  1.0
  O  O206  1  0.00976811  0.44707425  0.56657101  1.0
  O  O207  1  0.93452758  0.19957473  0.13486183  1.0
  O  O208  1  0.85182679  0.05056204  0.88033533  1.0
  O  O209  1  0.07912264  0.28115015  0.25265493  1.0
