# generated using pymatgen
data_Zn7H26C46(NO4)10
_symmetry_space_group_name_H-M   'P 1'
_cell_length_a   13.03137078
_cell_length_b   13.03137449
_cell_length_c   14.42764139
_cell_angle_alpha   88.42455624
_cell_angle_beta   88.42537576
_cell_angle_gamma   86.59513346
_symmetry_Int_Tables_number   1
_chemical_formula_structural   Zn7H26C46(NO4)10
_chemical_formula_sum   'Zn7 H26 C46 N10 O40'
_cell_volume   2443.98444332
_cell_formula_units_Z   1
loop_
 _symmetry_equiv_pos_site_id
 _symmetry_equiv_pos_as_xyz
  1  'x, y, z'
loop_
 _atom_site_type_symbol
 _atom_site_label
 _atom_site_symmetry_multiplicity
 _atom_site_fract_x
 _atom_site_fract_y
 _atom_site_fract_z
 _atom_site_occupancy
  Zn  Zn0  1  0.49999792  0.49999865  0.99999677  1.0
  Zn  Zn1  1  0.66504058  0.66504114  0.01364839  1.0
  Zn  Zn2  1  0.33495666  0.33495692  0.98635269  1.0
  Zn  Zn3  1  0.68351588  0.50313986  0.84681019  1.0
  Zn  Zn4  1  0.49685875  0.31648398  0.15319541  1.0
  Zn  Zn5  1  0.31648576  0.49686203  0.15319060  1.0
  Zn  Zn6  1  0.50313760  0.68351639  0.84680561  1.0
  H  H7  1  0.53476065  0.99239028  0.76743277  1.0
  H  H8  1  0.00761322  0.46524070  0.23255877  1.0
  H  H9  1  0.46523948  0.00761001  0.23256258  1.0
  H  H10  1  0.99238255  0.53475661  0.76744376  1.0
  H  H11  1  0.67117670  0.98898504  0.03576780  1.0
  H  H12  1  0.01101206  0.32882537  0.96422484  1.0
  H  H13  1  0.32882059  0.01101145  0.96422985  1.0
  H  H14  1  0.98899102  0.67117804  0.03577447  1.0
  H  H15  1  0.67317612  0.18037960  0.02772688  1.0
  H  H16  1  0.81961717  0.32682284  0.97226975  1.0
  H  H17  1  0.32682120  0.81961691  0.97227286  1.0
  H  H18  1  0.18038574  0.67318282  0.02772463  1.0
  H  H19  1  0.61679203  0.61679176  0.23048615  1.0
  H  H20  1  0.38320508  0.38320940  0.76951690  1.0
  H  H21  1  0.81108076  0.81109516  0.35386690  1.0
  H  H22  1  0.18891394  0.18890834  0.64613823  1.0
  H  H23  1  0.85677405  0.75719146  0.24658126  1.0
  H  H24  1  0.24282020  0.14321684  0.75342367  1.0
  H  H25  1  0.14322223  0.24281127  0.75342384  1.0
  H  H26  1  0.75717605  0.85678586  0.24657936  1.0
  H  H27  1  0.71721071  0.71721730  0.44030156  1.0
  H  H28  1  0.28278477  0.28278540  0.55970149  1.0
  H  H29  1  0.59402320  0.69528276  0.39806856  1.0
  H  H30  1  0.30471445  0.40597397  0.60193535  1.0
  H  H31  1  0.40597292  0.30472225  0.60193370  1.0
  H  H32  1  0.69527874  0.59402876  0.39806847  1.0
  C  C33  1  0.60707281  0.19465711  0.89229973  1.0
  C  C34  1  0.80534434  0.39292515  0.10769763  1.0
  C  C35  1  0.39292819  0.80534248  0.10770116  1.0
  C  C36  1  0.19465647  0.60707748  0.89230039  1.0
  C  C37  1  0.56993506  0.13901414  0.81973302  1.0
  C  C38  1  0.86098829  0.43006400  0.18026301  1.0
  C  C39  1  0.43006820  0.86098539  0.18026364  1.0
  C  C40  1  0.13900890  0.56993482  0.81973665  1.0
  C  C41  1  0.56592499  0.03255243  0.82445525  1.0
  C  C42  1  0.96744959  0.43407391  0.17553800  1.0
  C  C43  1  0.43407521  0.96744712  0.17554221  1.0
  C  C44  1  0.03254766  0.56592415  0.82446307  1.0
  C  C45  1  0.60211069  0.97853519  0.90285338  1.0
  C  C46  1  0.02146579  0.39788740  0.09714166  1.0
  C  C47  1  0.39788954  0.02146358  0.09714272  1.0
  C  C48  1  0.97853365  0.60211297  0.90286064  1.0
  C  C49  1  0.64268331  0.03214252  0.97502064  1.0
  C  C50  1  0.96785711  0.35731662  0.02497454  1.0
  C  C51  1  0.35731471  0.96785473  0.02497628  1.0
  C  C52  1  0.03214530  0.64268526  0.97502623  1.0
  C  C53  1  0.64448592  0.13897297  0.97005567  1.0
  C  C54  1  0.86102696  0.35551420  0.02994020  1.0
  C  C55  1  0.35551509  0.86102581  0.02994248  1.0
  C  C56  1  0.13897621  0.64448687  0.97005641  1.0
  C  C57  1  0.60437335  0.31048899  0.89255007  1.0
  C  C58  1  0.68951203  0.39563038  0.10744634  1.0
  C  C59  1  0.39562761  0.68951055  0.10744667  1.0
  C  C60  1  0.31048725  0.60437226  0.89255242  1.0
  C  C61  1  0.59480320  0.86424941  0.90971434  1.0
  C  C62  1  0.13575100  0.40519982  0.09027985  1.0
  C  C63  1  0.40519635  0.13574783  0.09028252  1.0
  C  C64  1  0.86424995  0.59480134  0.90972376  1.0
  C  C65  1  0.57021483  0.57021579  0.67749035  1.0
  C  C66  1  0.42978956  0.42977842  0.32251268  1.0
  C  C67  1  0.54088048  0.54087808  0.58113774  1.0
  C  C68  1  0.45912537  0.45911686  0.41886245  1.0
  C  C69  1  0.58822091  0.45428057  0.53835142  1.0
  C  C70  1  0.54571852  0.41177465  0.46165817  1.0
  C  C71  1  0.41178424  0.54571363  0.46165090  1.0
  C  C72  1  0.45428749  0.58821802  0.53834487  1.0
  C  C73  1  0.67426407  0.67426995  0.21989144  1.0
  C  C74  1  0.32573449  0.32573275  0.78011151  1.0
  C  C75  1  0.78877481  0.78878674  0.28511733  1.0
  C  C76  1  0.21122148  0.21121518  0.71488502  1.0
  C  C77  1  0.67664232  0.67664832  0.38839230  1.0
  C  C78  1  0.32335081  0.32335516  0.61161080  1.0
  N  N79  1  0.53250565  0.19307447  0.73569199  1.0
  N  N80  1  0.80693021  0.46749856  0.26430180  1.0
  N  N81  1  0.46749679  0.80692662  0.26430672  1.0
  N  N82  1  0.19306580  0.53250714  0.73569420  1.0
  N  N83  1  0.69110893  0.41031894  0.56808418  1.0
  N  N84  1  0.58968152  0.30888582  0.43192911  1.0
  N  N85  1  0.30889906  0.58967907  0.43191653  1.0
  N  N86  1  0.41031997  0.69110534  0.56807482  1.0
  N  N87  1  0.71174494  0.71175262  0.29581815  1.0
  N  N88  1  0.28825134  0.28824931  0.70418421  1.0
  O  O89  1  0.58918259  0.58918566  0.92227485  1.0
  O  O90  1  0.41081602  0.41081466  0.07772194  1.0
  O  O91  1  0.52210607  0.35737212  0.92082179  1.0
  O  O92  1  0.64263017  0.47789674  0.07917031  1.0
  O  O93  1  0.47789425  0.64262512  0.07917574  1.0
  O  O94  1  0.35737138  0.52210505  0.92082217  1.0
  O  O95  1  0.68837856  0.35197294  0.87079481  1.0
  O  O96  1  0.64802527  0.31162589  0.12920472  1.0
  O  O97  1  0.31162313  0.64802737  0.12920257  1.0
  O  O98  1  0.35197075  0.68838064  0.87079679  1.0
  O  O99  1  0.54220766  0.82565119  0.84710555  1.0
  O  O100  1  0.17434948  0.45778912  0.15289222  1.0
  O  O101  1  0.45778791  0.17434917  0.15289342  1.0
  O  O102  1  0.82564927  0.54221052  0.84711290  1.0
  O  O103  1  0.63939129  0.81649828  0.97631951  1.0
  O  O104  1  0.18350260  0.36061803  0.02367159  1.0
  O  O105  1  0.36061123  0.18350048  0.02367651  1.0
  O  O106  1  0.81649903  0.63938465  0.97633125  1.0
  O  O107  1  0.53995919  0.28788846  0.73047783  1.0
  O  O108  1  0.71211915  0.46003411  0.26951983  1.0
  O  O109  1  0.46004237  0.71211496  0.26952222  1.0
  O  O110  1  0.28787958  0.53996390  0.73047634  1.0
  O  O111  1  0.49464864  0.14258499  0.67507505  1.0
  O  O112  1  0.85742197  0.50536380  0.32491153  1.0
  O  O113  1  0.50535207  0.85741917  0.32492153  1.0
  O  O114  1  0.14257519  0.49464801  0.67508006  1.0
  O  O115  1  0.64223668  0.51507999  0.71390995  1.0
  O  O116  1  0.48492446  0.35775177  0.28609688  1.0
  O  O117  1  0.35777919  0.48492795  0.28608737  1.0
  O  O118  1  0.51507338  0.64223555  0.71390592  1.0
  O  O119  1  0.69756858  0.32207601  0.60057739  1.0
  O  O120  1  0.67792302  0.30242965  0.39943229  1.0
  O  O121  1  0.30244466  0.67792590  0.39942994  1.0
  O  O122  1  0.32207553  0.69755760  0.60056495  1.0
  O  O123  1  0.76202794  0.46694413  0.55085844  1.0
  O  O124  1  0.53305861  0.23796615  0.44915836  1.0
  O  O125  1  0.23797687  0.53305379  0.44913198  1.0
  O  O126  1  0.46694203  0.76202817  0.55085312  1.0
  O  O127  1  0.70376449  0.70377569  0.13966241  1.0
  O  O128  1  0.29623179  0.29622624  0.86033995  1.0
