# generated using pymatgen
data_ZnH20C33(NO2)4
_symmetry_space_group_name_H-M   'P 1'
_cell_length_a   15.83881494
_cell_length_b   17.21298378
_cell_length_c   28.12553226
_cell_angle_alpha   89.88449894
_cell_angle_beta   87.28740111
_cell_angle_gamma   87.07850208
_symmetry_Int_Tables_number   1
_chemical_formula_structural   ZnH20C33(NO2)4
_chemical_formula_sum   'Zn2 H40 C66 N8 O16'
_cell_volume   7649.40822998
_cell_formula_units_Z   2
loop_
 _symmetry_equiv_pos_site_id
 _symmetry_equiv_pos_as_xyz
  1  'x, y, z'
loop_
 _atom_site_type_symbol
 _atom_site_label
 _atom_site_symmetry_multiplicity
 _atom_site_fract_x
 _atom_site_fract_y
 _atom_site_fract_z
 _atom_site_occupancy
  Zn  Zn0  1  0.58713476  0.50174331  0.49594593  1.0
  Zn  Zn1  1  0.41292989  0.49822773  0.50292401  1.0
  H  H2  1  0.60710148  0.89260550  0.48715864  1.0
  H  H3  1  0.11385351  0.57050028  0.45163170  1.0
  H  H4  1  0.12700072  0.40271451  0.56564222  1.0
  H  H5  1  0.87351922  0.59908910  0.43458728  1.0
  H  H6  1  0.40563269  0.42767477  0.74779225  1.0
  H  H7  1  0.59457936  0.57115234  0.25121125  1.0
  H  H8  1  0.55110051  0.30585930  0.87581075  1.0
  H  H9  1  0.44846585  0.69352593  0.12320721  1.0
  H  H10  1  0.38167370  0.44538038  0.35588033  1.0
  H  H11  1  0.61750723  0.55507680  0.64324362  1.0
  H  H12  1  0.50878804  0.30732761  0.12414984  1.0
  H  H13  1  0.39472008  0.11017015  0.53350293  1.0
  H  H14  1  0.48984720  0.69193886  0.87487405  1.0
  H  H15  1  0.52096933  0.30400942  0.03677427  1.0
  H  H16  1  0.47761114  0.69524337  0.96223909  1.0
  H  H17  1  0.61015116  0.74646614  0.48105692  1.0
  H  H18  1  0.39074935  0.25645015  0.52891445  1.0
  H  H19  1  0.43110679  0.30387711  0.66073451  1.0
  H  H20  1  0.43929615  0.35246316  0.60397505  1.0
  H  H21  1  0.33916925  0.32103862  0.62665471  1.0
  H  H22  1  0.56507161  0.64336018  0.39742487  1.0
  H  H23  1  0.56770374  0.69428014  0.34126825  1.0
  H  H24  1  0.66154513  0.10238332  0.49738258  1.0
  H  H25  1  0.66283768  0.67675426  0.37252035  1.0
  H  H26  1  0.28700336  0.41144446  0.56018350  1.0
  H  H27  1  0.71356618  0.59018070  0.43933585  1.0
  H  H28  1  0.36942167  0.44117720  0.26763068  1.0
  H  H29  1  0.63004575  0.55875526  0.73151412  1.0
  H  H30  1  0.62342928  0.22231296  0.92062321  1.0
  H  H31  1  0.51248381  0.20603802  0.91796120  1.0
  H  H32  1  0.57003539  0.17089641  0.96771456  1.0
  H  H33  1  0.48689691  0.79342667  0.08085858  1.0
  H  H34  1  0.37590926  0.77715044  0.07827821  1.0
  H  H35  1  0.34210898  0.89568322  0.52776981  1.0
  H  H36  1  0.42929315  0.82832027  0.03107782  1.0
  H  H37  1  0.65742221  0.24927334  0.49345655  1.0
  H  H38  1  0.34533955  0.74907888  0.52122409  1.0
  H  H39  1  0.72557661  0.42842551  0.54786362  1.0
  H  H40  1  0.27399282  0.57063491  0.45028373  1.0
  H  H41  1  0.88564548  0.42903711  0.54736328  1.0
  C  C42  1  0.51845126  0.34745323  0.50436531  1.0
  C  C43  1  0.49174091  0.43103991  0.12775048  1.0
  C  C44  1  0.50465021  0.49161281  0.64592751  1.0
  C  C45  1  0.49501543  0.50819343  0.35314602  1.0
  C  C46  1  0.50657379  0.42776647  0.02616328  1.0
  C  C47  1  0.49241723  0.57149966  0.97285845  1.0
  C  C48  1  0.48343638  0.57348946  0.02483463  1.0
  C  C49  1  0.51573336  0.42579103  0.97418671  1.0
  C  C50  1  0.49157990  0.50135380  0.05034698  1.0
  C  C51  1  0.50755461  0.49791349  0.94866661  1.0
  C  C52  1  0.51111773  0.35984013  0.05415636  1.0
  C  C53  1  0.48239450  0.65269564  0.49929500  1.0
  C  C54  1  0.48764662  0.63941878  0.94487890  1.0
  C  C55  1  0.50409521  0.36107219  0.10367691  1.0
  C  C56  1  0.49472473  0.63821148  0.89535998  1.0
  C  C57  1  0.50015598  0.49657015  0.59285473  1.0
  C  C58  1  0.49939247  0.50344997  0.40623534  1.0
  C  C59  1  0.53299560  0.35655367  0.94666602  1.0
  C  C60  1  0.46627930  0.64274495  0.05236119  1.0
  C  C61  1  0.52343859  0.26082243  0.51005453  1.0
  C  C62  1  0.47820081  0.73974655  0.50127354  1.0
  C  C63  1  0.44955825  0.22177438  0.52222793  1.0
  C  C64  1  0.51467021  0.49828510  0.89755632  1.0
  C  C65  1  0.55200073  0.78010890  0.49125676  1.0
  C  C66  1  0.45150009  0.14135135  0.52469387  1.0
  C  C67  1  0.55064861  0.86038032  0.49481447  1.0
  C  C68  1  0.52828572  0.09848091  0.51440030  1.0
  C  C69  1  0.47456836  0.90177413  0.50884663  1.0
  C  C70  1  0.60293543  0.13732277  0.50440544  1.0
  C  C71  1  0.40024461  0.86187155  0.51765379  1.0
  C  C72  1  0.60052977  0.21815107  0.50218883  1.0
  C  C73  1  0.40206484  0.78120257  0.51395973  1.0
  C  C74  1  0.23797234  0.53481344  0.47511420  1.0
  C  C75  1  0.48458891  0.50102521  0.10147195  1.0
  C  C76  1  0.76182949  0.46493611  0.52356519  1.0
  C  C77  1  0.15044675  0.53444016  0.47585608  1.0
  C  C78  1  0.84931424  0.46555688  0.52325453  1.0
  C  C79  1  0.10965097  0.48603817  0.50895582  1.0
  C  C80  1  0.89035258  0.51467061  0.49069194  1.0
  C  C81  1  0.53454864  0.42439932  0.81983590  1.0
  C  C82  1  0.46528057  0.57496607  0.17920790  1.0
  C  C83  1  0.15807931  0.44036489  0.53981644  1.0
  C  C84  1  0.84218292  0.56089647  0.45998369  1.0
  C  C85  1  0.24564914  0.44465340  0.53681690  1.0
  C  C86  1  0.52949842  0.42769413  0.87245260  1.0
  C  C87  1  0.75464321  0.55640346  0.46257466  1.0
  C  C88  1  0.51142498  0.56893779  0.81876179  1.0
  C  C89  1  0.48790660  0.43038083  0.18029546  1.0
  C  C90  1  0.57879119  0.52935716  0.71587688  1.0
  C  C91  1  0.42082478  0.47040904  0.28323115  1.0
  C  C92  1  0.57143512  0.52745205  0.66683698  1.0
  C  C93  1  0.42802324  0.47262942  0.33228355  1.0
  C  C94  1  0.44474002  0.45506044  0.67601926  1.0
  C  C95  1  0.55530263  0.54414587  0.32302012  1.0
  C  C96  1  0.45209866  0.45674025  0.72527485  1.0
  C  C97  1  0.46999902  0.57165004  0.12658144  1.0
  C  C98  1  0.54798153  0.54232695  0.27375156  1.0
  C  C99  1  0.51819840  0.49397300  0.74492172  1.0
  C  C100  1  0.48165739  0.50538581  0.25414247  1.0
  C  C101  1  0.39901535  0.34468686  0.63637844  1.0
  C  C102  1  0.60237019  0.65285188  0.36414003  1.0
  C  C103  1  0.56354484  0.21797749  0.94170001  1.0
  C  C104  1  0.43579628  0.78137839  0.05717926  1.0
  C  C105  1  0.53911730  0.35847793  0.89691161  1.0
  C  C106  1  0.46028820  0.64085965  0.10212375  1.0
  C  C107  1  0.50742045  0.56827601  0.87129026  1.0
  N  N108  1  0.52233823  0.49568325  0.79596146  1.0
  N  N109  1  0.47738331  0.50366108  0.20308649  1.0
  N  N110  1  0.53636624  0.01656960  0.51181562  1.0
  N  N111  1  0.46656558  0.98340749  0.51384233  1.0
  N  N112  1  0.28428444  0.49088339  0.50505968  1.0
  N  N113  1  0.71576480  0.50938042  0.49376734  1.0
  N  N114  1  0.02074485  0.47915902  0.51404186  1.0
  N  N115  1  0.97923870  0.52168162  0.48582933  1.0
  O  O116  1  0.58773051  0.38172351  0.49972857  1.0
  O  O117  1  0.45232217  0.63647339  0.20134168  1.0
  O  O118  1  0.49481524  0.37012943  0.20372862  1.0
  O  O119  1  0.50433510  0.62917249  0.79533654  1.0
  O  O120  1  0.37684942  0.41730756  0.65990653  1.0
  O  O121  1  0.62357312  0.58145145  0.33902332  1.0
  O  O122  1  0.54366824  0.28687397  0.96943188  1.0
  O  O123  1  0.45560801  0.71238291  0.02955937  1.0
  O  O124  1  0.41314308  0.61839314  0.50364916  1.0
  O  O125  1  0.44436671  0.38018808  0.50440501  1.0
  O  O126  1  0.55608351  0.61951981  0.49362502  1.0
  O  O127  1  0.57038200  0.50241068  0.56927501  1.0
  O  O128  1  0.42871037  0.50173754  0.42986759  1.0
  O  O129  1  0.42765616  0.49616020  0.57529880  1.0
  O  O130  1  0.57206204  0.49988899  0.42372236  1.0
  O  O131  1  0.54782885  0.36292376  0.79770818  1.0
