# generated using pymatgen
data_AlH12(C9O2)3
_symmetry_space_group_name_H-M   'P 1'
_cell_length_a   3.93289787
_cell_length_b   24.49442740
_cell_length_c   24.49446571
_cell_angle_alpha   59.99981792
_cell_angle_beta   89.99892545
_cell_angle_gamma   89.99862214
_symmetry_Int_Tables_number   1
_chemical_formula_structural   AlH12(C9O2)3
_chemical_formula_sum   'Al2 H24 C54 O12'
_cell_volume   2043.51469777
_cell_formula_units_Z   2
loop_
 _symmetry_equiv_pos_site_id
 _symmetry_equiv_pos_as_xyz
  1  'x, y, z'
loop_
 _atom_site_type_symbol
 _atom_site_label
 _atom_site_symmetry_multiplicity
 _atom_site_fract_x
 _atom_site_fract_y
 _atom_site_fract_z
 _atom_site_occupancy
  Al  Al0  1  0.00000894  0.00000207  0.49999908  1.0
  Al  Al1  1  0.00000834  0.66666928  0.16666482  1.0
  H  H2  1  0.54558323  0.17374657  0.50063908  1.0
  H  H3  1  0.51424490  0.27509593  0.50134942  1.0
  H  H4  1  0.45440626  0.17374787  0.32561658  1.0
  H  H5  1  0.48575801  0.27509681  0.22355689  1.0
  H  H6  1  0.54556078  0.49291888  0.16603226  1.0
  H  H7  1  0.51420997  0.39157809  0.16531405  1.0
  H  H8  1  0.45447265  0.49292067  0.34104777  1.0
  H  H9  1  0.48579733  0.39157683  0.44310849  1.0
  H  H10  1  0.54556848  0.00063646  0.32561195  1.0
  H  H11  1  0.51422602  0.00135131  0.22355609  1.0
  H  H12  1  0.45445042  0.82562058  0.50063507  1.0
  H  H13  1  0.48579126  0.72355795  0.50135140  1.0
  H  H14  1  0.54555231  0.66602858  0.34105049  1.0
  H  H15  1  0.51421580  0.66531618  0.44311175  1.0
  H  H16  1  0.45441545  0.84105275  0.16602880  1.0
  H  H17  1  0.48578155  0.94310915  0.16531427  1.0
  H  H18  1  0.54554868  0.82561832  0.67374496  1.0
  H  H19  1  0.51421228  0.72355708  0.77509077  1.0
  H  H20  1  0.45444988  0.00063614  0.67374803  1.0
  H  H21  1  0.48578464  0.00135346  0.77508903  1.0
  H  H22  1  0.54557458  0.84105483  0.99291604  1.0
  H  H23  1  0.51423201  0.94311051  0.89157148  1.0
  H  H24  1  0.45442100  0.66602928  0.99292242  1.0
  H  H25  1  0.48576266  0.66531564  0.89157377  1.0
  C  C26  1  0.49999704  0.95138706  0.59722766  1.0
  C  C27  1  0.49998942  0.09723147  0.45138639  1.0
  C  C28  1  0.50002592  0.95138819  0.45138354  1.0
  C  C29  1  0.50002078  0.56944071  0.21527845  1.0
  C  C30  1  0.49998173  0.71528116  0.21527986  1.0
  C  C31  1  0.50001315  0.71528512  0.06943759  1.0
  C  C32  1  0.52443443  0.20005770  0.44938430  1.0
  C  C33  1  0.51093996  0.26610618  0.41743332  1.0
  C  C34  1  0.50773165  0.30119491  0.44990390  1.0
  C  C35  1  0.47558311  0.20005885  0.35056066  1.0
  C  C36  1  0.48909939  0.26610871  0.31646275  1.0
  C  C37  1  0.49228154  0.30119426  0.24890333  1.0
  C  C38  1  0.52442778  0.46661912  0.21727692  1.0
  C  C39  1  0.51093197  0.40056596  0.24923396  1.0
  C  C40  1  0.50770737  0.36547206  0.21676353  1.0
  C  C41  1  0.47562337  0.46661859  0.31610571  1.0
  C  C42  1  0.48912026  0.40056964  0.35019904  1.0
  C  C43  1  0.49231000  0.36547182  0.41776663  1.0
  C  C44  1  0.49999631  0.16742226  0.41629052  1.0
  C  C45  1  0.50003081  0.29984304  0.35007918  1.0
  C  C46  1  0.50002405  0.49923673  0.25037969  1.0
  C  C47  1  0.50002515  0.36681925  0.31658938  1.0
  C  C48  1  0.52442620  0.94938997  0.35055757  1.0
  C  C49  1  0.51091642  0.91743853  0.31646040  1.0
  C  C50  1  0.50771162  0.94990303  0.24890265  1.0
  C  C51  1  0.47559879  0.85056501  0.44938465  1.0
  C  C52  1  0.48909203  0.81646153  0.41743146  1.0
  C  C53  1  0.49229646  0.74890595  0.44990330  1.0
  C  C54  1  0.52440008  0.71728031  0.31610598  1.0
  C  C55  1  0.51091196  0.74923557  0.35020455  1.0
  C  C56  1  0.50770164  0.71676354  0.41776240  1.0
  C  C57  1  0.47557177  0.81610495  0.21728207  1.0
  C  C58  1  0.48908406  0.85020604  0.24922907  1.0
  C  C59  1  0.49228457  0.91776349  0.21676363  1.0
  C  C60  1  0.50002301  0.91628627  0.41628754  1.0
  C  C61  1  0.50000395  0.85007578  0.35007940  1.0
  C  C62  1  0.49998176  0.75037749  0.25037894  1.0
  C  C63  1  0.50000337  0.81658704  0.31658837  1.0
  C  C64  1  0.52440053  0.85056414  0.70004857  1.0
  C  C65  1  0.51091047  0.81646387  0.76610616  1.0
  C  C66  1  0.50770217  0.74890546  0.80119226  1.0
  C  C67  1  0.47559440  0.94939194  0.70005030  1.0
  C  C68  1  0.48908682  0.91743891  0.76609814  1.0
  C  C69  1  0.49229622  0.94990327  0.80119425  1.0
  C  C70  1  0.52442822  0.81610907  0.96661206  1.0
  C  C71  1  0.51091529  0.85020657  0.90056447  1.0
  C  C72  1  0.50771864  0.91776592  0.86547260  1.0
  C  C73  1  0.47559387  0.71728378  0.96661453  1.0
  C  C74  1  0.48909172  0.74923771  0.90055763  1.0
  C  C75  1  0.49227711  0.71676627  0.86547403  1.0
  C  C76  1  0.49999305  0.91628736  0.66742658  1.0
  C  C77  1  0.50000304  0.85007425  0.79984666  1.0
  C  C78  1  0.50001164  0.75037745  0.99924363  1.0
  C  C79  1  0.49999912  0.81658490  0.86682230  1.0
  O  O80  1  0.73470550  0.99199641  0.43861829  1.0
  O  O81  1  0.73470698  0.93862226  0.56938240  1.0
  O  O82  1  0.73468378  0.06938651  0.49199335  1.0
  O  O83  1  0.26531463  0.93862403  0.49199331  1.0
  O  O84  1  0.26531545  0.06938777  0.43862178  1.0
  O  O85  1  0.26528824  0.99199602  0.56938465  1.0
  O  O86  1  0.73470518  0.72805014  0.09727918  1.0
  O  O87  1  0.73472584  0.59728589  0.17466782  1.0
  O  O88  1  0.73468886  0.67467317  0.22804388  1.0
  O  O89  1  0.26533015  0.67467689  0.09728135  1.0
  O  O90  1  0.26529360  0.72804746  0.17467177  1.0
  O  O91  1  0.26529277  0.59728655  0.22804270  1.0
