# generated using pymatgen
data_ZnH19C22NO5
_symmetry_space_group_name_H-M   'P 1'
_cell_length_a   11.74645686
_cell_length_b   13.21840233
_cell_length_c   17.56209085
_cell_angle_alpha   94.08403655
_cell_angle_beta   99.30874806
_cell_angle_gamma   94.73835270
_symmetry_Int_Tables_number   1
_chemical_formula_structural   ZnH19C22NO5
_chemical_formula_sum   'Zn2 H38 C44 N2 O10'
_cell_volume   2671.81206632
_cell_formula_units_Z   2
loop_
 _symmetry_equiv_pos_site_id
 _symmetry_equiv_pos_as_xyz
  1  'x, y, z'
loop_
 _atom_site_type_symbol
 _atom_site_label
 _atom_site_symmetry_multiplicity
 _atom_site_fract_x
 _atom_site_fract_y
 _atom_site_fract_z
 _atom_site_occupancy
  Zn  Zn0  1  0.61861022  0.50211731  0.50875515  1.0
  Zn  Zn1  1  0.38140254  0.49789239  0.49124345  1.0
  H  H2  1  0.34482525  0.55641759  0.73077071  1.0
  H  H3  1  0.65516214  0.44357875  0.26922391  1.0
  H  H4  1  0.78605240  0.37586446  0.59371000  1.0
  H  H5  1  0.21395785  0.62413554  0.40629211  1.0
  H  H6  1  0.00143028  0.64900356  0.39509318  1.0
  H  H7  1  0.99857598  0.35099094  0.60490613  1.0
  H  H8  1  0.29538998  0.49135662  0.23870235  1.0
  H  H9  1  0.70460757  0.50868437  0.76130172  1.0
  H  H10  1  0.37685696  0.44538994  0.98300578  1.0
  H  H11  1  0.62313985  0.55463406  0.01699326  1.0
  H  H12  1  0.71057026  0.51446603  0.90429654  1.0
  H  H13  1  0.28941860  0.48556549  0.09570245  1.0
  H  H14  1  0.66060696  0.80931666  0.42141848  1.0
  H  H15  1  0.33940235  0.19068561  0.57856991  1.0
  H  H16  1  0.33963369  0.00626464  0.60067284  1.0
  H  H17  1  0.66038383  0.99374177  0.39932046  1.0
  H  H18  1  0.80642893  0.59617854  0.43941111  1.0
  H  H19  1  0.19358858  0.40382477  0.56059465  1.0
  H  H20  1  0.79762761  0.26257609  0.05143786  1.0
  H  H21  1  0.89465723  0.32986284  0.13022689  1.0
  H  H22  1  0.84193597  0.20148280  0.13670029  1.0
  H  H23  1  0.73634984  0.31837186  0.21258079  1.0
  H  H24  1  0.63989527  0.25337478  0.13388623  1.0
  H  H25  1  0.66230805  0.40338623  0.05590568  1.0
  H  H26  1  0.75419078  0.47104318  0.13571380  1.0
  H  H27  1  0.10533557  0.67017529  0.86976752  1.0
  H  H28  1  0.20236818  0.73745616  0.94855955  1.0
  H  H29  1  0.15807599  0.79854795  0.86329472  1.0
  H  H30  1  0.36010755  0.74663876  0.86611488  1.0
  H  H31  1  0.26365048  0.68165293  0.78741805  1.0
  H  H32  1  0.24578957  0.52897369  0.86426919  1.0
  H  H33  1  0.33766799  0.59661830  0.94408799  1.0
  H  H34  1  0.50707671  0.85526504  0.69325614  1.0
  H  H35  1  0.51147188  0.73536659  0.63936036  1.0
  H  H36  1  0.38718039  0.75864765  0.68200102  1.0
  H  H37  1  0.61285112  0.24136797  0.31800528  1.0
  H  H38  1  0.48855057  0.26464368  0.36064663  1.0
  H  H39  1  0.49295141  0.14474264  0.30674451  1.0
  C  C40  1  0.47035038  0.30092458  0.49958167  1.0
  C  C41  1  0.52965340  0.69908179  0.50041311  1.0
  C  C42  1  0.53485544  0.81233150  0.49802355  1.0
  C  C43  1  0.46516214  0.18767564  0.50196919  1.0
  C  C44  1  0.39376714  0.04050733  0.56277947  1.0
  C  C45  1  0.60624480  0.95949444  0.43721316  1.0
  C  C46  1  0.39344657  0.14202005  0.55023567  1.0
  C  C47  1  0.60656480  0.85798542  0.44975528  1.0
  C  C48  1  0.53300419  0.12737799  0.46302812  1.0
  C  C49  1  0.46700975  0.87262502  0.53697272  1.0
  C  C50  1  0.53500571  0.02164930  0.47428134  1.0
  C  C51  1  0.46500757  0.97835781  0.52571154  1.0
  C  C52  1  0.04052322  0.59397899  0.43210543  1.0
  C  C53  1  0.95948510  0.40601871  0.56789644  1.0
  C  C54  1  0.15633708  0.58069740  0.43742847  1.0
  C  C55  1  0.84367731  0.41930046  0.56257515  1.0
  C  C56  1  0.14675142  0.45657599  0.52503300  1.0
  C  C57  1  0.85326604  0.54342723  0.47497104  1.0
  C  C58  1  0.02712846  0.46456168  0.52412794  1.0
  C  C59  1  0.97288331  0.53543544  0.47587654  1.0
  C  C60  1  0.51431088  0.51679953  0.65142129  1.0
  C  C61  1  0.48566932  0.48321272  0.34857411  1.0
  C  C62  1  0.52211403  0.52717626  0.73751661  1.0
  C  C63  1  0.47788757  0.47284268  0.26248621  1.0
  C  C64  1  0.42413682  0.54607790  0.77014688  1.0
  C  C65  1  0.57584997  0.45393068  0.22984967  1.0
  C  C66  1  0.42547296  0.55321449  0.85015486  1.0
  C  C67  1  0.57451270  0.44680092  0.14984174  1.0
  C  C68  1  0.52913588  0.53503677  0.89897197  1.0
  C  C69  1  0.47085808  0.46498541  0.10102218  1.0
  C  C70  1  0.62967770  0.52327152  0.86589078  1.0
  C  C71  1  0.37031778  0.47675762  0.13410540  1.0
  C  C72  1  0.62712554  0.51931496  0.78650466  1.0
  C  C73  1  0.37287110  0.48071608  0.21349795  1.0
  C  C74  1  0.53981813  0.52435909  0.98227008  1.0
  C  C75  1  0.46016808  0.47566117  0.01773181  1.0
  C  C76  1  0.67984417  0.41252303  0.11943201  1.0
  C  C77  1  0.71519329  0.31089310  0.14888860  1.0
  C  C78  1  0.81790443  0.27411068  0.11502696  1.0
  C  C79  1  0.32014436  0.58748685  0.88056019  1.0
  C  C80  1  0.28480348  0.68913081  0.85110873  1.0
  C  C81  1  0.18209488  0.72592302  0.88496856  1.0
  C  C82  1  0.45522553  0.79372451  0.65375632  1.0
  C  C83  1  0.54480203  0.20628628  0.34624549  1.0
  N  N84  1  0.79253626  0.48770131  0.51676327  1.0
  N  N85  1  0.20747347  0.51230189  0.48324172  1.0
  O  O86  1  0.57060458  0.34821586  0.50503482  1.0
  O  O87  1  0.42942594  0.65179639  0.49497928  1.0
  O  O88  1  0.37512410  0.34173107  0.49475869  1.0
  O  O89  1  0.62489958  0.65827071  0.50521858  1.0
  O  O90  1  0.60920501  0.51562604  0.62488122  1.0
  O  O91  1  0.39080810  0.48441765  0.37511420  1.0
  O  O92  1  0.41319439  0.50996980  0.61094565  1.0
  O  O93  1  0.58680978  0.49001095  0.38905256  1.0
  O  O94  1  0.39717616  0.83501796  0.58621045  1.0
  O  O95  1  0.60285700  0.16498705  0.41379577  1.0
