# generated using pymatgen
data_Zn3H16C32(NO3)4
_symmetry_space_group_name_H-M   'P 1'
_cell_length_a   21.84536734
_cell_length_b   21.84533910
_cell_length_c   24.70379196
_cell_angle_alpha   63.76963579
_cell_angle_beta   63.75138600
_cell_angle_gamma   90.00457670
_symmetry_Int_Tables_number   1
_chemical_formula_structural   Zn3H16C32(NO3)4
_chemical_formula_sum   'Zn6 H32 C64 N8 O24'
_cell_volume   9200.21486954
_cell_formula_units_Z   2
loop_
 _symmetry_equiv_pos_site_id
 _symmetry_equiv_pos_as_xyz
  1  'x, y, z'
loop_
 _atom_site_type_symbol
 _atom_site_label
 _atom_site_symmetry_multiplicity
 _atom_site_fract_x
 _atom_site_fract_y
 _atom_site_fract_z
 _atom_site_occupancy
  Zn  Zn0  1  0.44167861  0.99997550  0.00000422  1.0
  Zn  Zn1  1  0.99997938  0.44168408  0.99999681  1.0
  Zn  Zn2  1  0.55832240  0.00004084  0.00000006  1.0
  Zn  Zn3  1  0.00004319  0.55832556  0.99999648  1.0
  Zn  Zn4  1  0.53307741  0.53303557  0.93391846  1.0
  Zn  Zn5  1  0.46695265  0.46699338  0.06608266  1.0
  H  H6  1  0.41655545  0.86326022  0.34900900  1.0
  H  H7  1  0.78774136  0.41646363  0.34911442  1.0
  H  H8  1  0.23446417  0.78771600  0.34903371  1.0
  H  H9  1  0.86330128  0.23445168  0.34892284  1.0
  H  H10  1  0.58338360  0.21225221  0.65107766  1.0
  H  H11  1  0.21227530  0.76556824  0.65098758  1.0
  H  H12  1  0.76556525  0.13683156  0.65088375  1.0
  H  H13  1  0.13674192  0.58350419  0.65096944  1.0
  H  H14  1  0.60985405  0.23087957  0.92370646  1.0
  H  H15  1  0.84541221  0.60994907  0.92373009  1.0
  H  H16  1  0.46634491  0.84546403  0.92377618  1.0
  H  H17  1  0.23080895  0.46624102  0.92375113  1.0
  H  H18  1  0.38999129  0.15455612  0.07624987  1.0
  H  H19  1  0.15458581  0.53356406  0.07628925  1.0
  H  H20  1  0.53367663  0.76914191  0.07626986  1.0
  H  H21  1  0.76923879  0.39012040  0.07622528  1.0
  H  H22  1  0.60854281  0.34737139  0.92022366  1.0
  H  H23  1  0.73239529  0.60857074  0.92021183  1.0
  H  H24  1  0.47119509  0.73251167  0.92013456  1.0
  H  H25  1  0.34740741  0.47117010  0.92011197  1.0
  H  H26  1  0.39127728  0.26751217  0.07989384  1.0
  H  H27  1  0.26759489  0.52876755  0.07977521  1.0
  H  H28  1  0.52878046  0.65260676  0.07978998  1.0
  H  H29  1  0.65264281  0.39132554  0.07986879  1.0
  H  H30  1  0.48198327  0.92651463  0.21895296  1.0
  H  H31  1  0.85454916  0.48197394  0.21905575  1.0
  H  H32  1  0.29907893  0.85455334  0.21897480  1.0
  H  H33  1  0.92651175  0.29916258  0.21886392  1.0
  H  H34  1  0.51803310  0.14540169  0.78113739  1.0
  H  H35  1  0.14547441  0.70093825  0.78104423  1.0
  H  H36  1  0.70102083  0.07358403  0.78094053  1.0
  H  H37  1  0.07352024  0.51805815  0.78102808  1.0
  C  C38  1  0.49990753  0.11797126  0.99996659  1.0
  C  C39  1  0.88206380  0.50005202  0.99999146  1.0
  C  C40  1  0.50004258  0.88205684  0.00000873  1.0
  C  C41  1  0.11793969  0.49988034  0.00003060  1.0
  C  C42  1  0.49990564  0.31389284  0.00005044  1.0
  C  C43  1  0.68608132  0.49993756  0.00004278  1.0
  C  C44  1  0.49997854  0.68612237  0.99996226  1.0
  C  C45  1  0.31394209  0.49995360  0.99995594  1.0
  C  C46  1  0.49989960  0.18623041  0.99995066  1.0
  C  C47  1  0.81380591  0.50004880  0.99999763  1.0
  C  C48  1  0.50004365  0.81380469  0.00000234  1.0
  C  C49  1  0.18618294  0.49985036  0.00004780  1.0
  C  C50  1  0.38226458  0.50004613  0.99992300  1.0
  C  C51  1  0.49998096  0.38219261  0.00006552  1.0
  C  C52  1  0.61777709  0.49993181  0.00003710  1.0
  C  C53  1  0.49996925  0.61781783  0.99995505  1.0
  C  C54  1  0.43297145  0.93295087  0.13414442  1.0
  C  C55  1  0.93292657  0.43295211  0.13414215  1.0
  C  C56  1  0.56709506  0.06707075  0.86585717  1.0
  C  C57  1  0.06709642  0.56711774  0.86585439  1.0
  C  C58  1  0.42757119  0.89654490  0.24810596  1.0
  C  C59  1  0.85538701  0.42756490  0.24816699  1.0
  C  C60  1  0.32433287  0.85540902  0.24811637  1.0
  C  C61  1  0.89653595  0.32437778  0.24806465  1.0
  C  C62  1  0.57244502  0.14461782  0.75193398  1.0
  C  C63  1  0.14465577  0.67567998  0.75189135  1.0
  C  C64  1  0.67572418  0.10354549  0.75183206  1.0
  C  C65  1  0.10352173  0.57245301  0.75188471  1.0
  C  C66  1  0.39137056  0.86124714  0.32017475  1.0
  C  C67  1  0.81862620  0.39132289  0.32023540  1.0
  C  C68  1  0.28846371  0.81862842  0.32018732  1.0
  C  C69  1  0.86125610  0.28846443  0.32013345  1.0
  C  C70  1  0.60860213  0.18140628  0.67986634  1.0
  C  C71  1  0.18142583  0.71155051  0.67982140  1.0
  C  C72  1  0.71155273  0.13885003  0.67976297  1.0
  C  C73  1  0.13881104  0.60865770  0.67981409  1.0
  C  C74  1  0.32163556  0.82164783  0.35674979  1.0
  C  C75  1  0.82164087  0.32158824  0.35675567  1.0
  C  C76  1  0.67834228  0.17839898  0.64324399  1.0
  C  C77  1  0.17839865  0.67839039  0.64324790  1.0
  C  C78  1  0.39419184  0.89425478  0.21161367  1.0
  C  C79  1  0.89418664  0.39423663  0.21161366  1.0
  C  C80  1  0.60584927  0.10580353  0.78838517  1.0
  C  C81  1  0.10586830  0.60580912  0.78838469  1.0
  C  C82  1  0.21648969  0.71648423  0.56706228  1.0
  C  C83  1  0.71641731  0.21644461  0.56705974  1.0
  C  C84  1  0.78350540  0.28347869  0.43293866  1.0
  C  C85  1  0.28354234  0.78355556  0.43293605  1.0
  C  C86  1  0.56192620  0.23993481  0.95662205  1.0
  C  C87  1  0.80341525  0.56204895  0.95667188  1.0
  C  C88  1  0.48135821  0.80347710  0.95665111  1.0
  C  C89  1  0.23988604  0.48118090  0.95669353  1.0
  C  C90  1  0.43787182  0.19657666  0.04330984  1.0
  C  C91  1  0.19655791  0.51855007  0.04337664  1.0
  C  C92  1  0.51871821  0.76008681  0.04332930  1.0
  C  C93  1  0.76012620  0.43800789  0.04335111  1.0
  C  C94  1  0.56139732  0.30428152  0.95518947  1.0
  C  C95  1  0.74052559  0.56146428  0.95519534  1.0
  C  C96  1  0.48336743  0.74061123  0.95511212  1.0
  C  C97  1  0.30429383  0.48326682  0.95513873  1.0
  C  C98  1  0.43840665  0.25942797  0.04486446  1.0
  C  C99  1  0.25947072  0.51658541  0.04480964  1.0
  C  C100  1  0.51665604  0.69572118  0.04480533  1.0
  C  C101  1  0.69572192  0.43847915  0.04488954  1.0
  N  N102  1  0.22854159  0.72806718  0.46585570  1.0
  N  N103  1  0.80604383  0.22846959  0.46585874  1.0
  N  N104  1  0.30563334  0.80611870  0.46585156  1.0
  N  N105  1  0.72801322  0.30556154  0.46584889  1.0
  N  N106  1  0.77139962  0.19385135  0.53415004  1.0
  N  N107  1  0.19391336  0.69440415  0.53414771  1.0
  N  N108  1  0.69433976  0.27191432  0.53414011  1.0
  N  N109  1  0.27197180  0.77149007  0.53414262  1.0
  O  O110  1  0.44192924  0.08346094  0.01535133  1.0
  O  O111  1  0.90116140  0.44205639  0.01534568  1.0
  O  O112  1  0.54266236  0.90119927  0.01535031  1.0
  O  O113  1  0.08350099  0.54253557  0.01537116  1.0
  O  O114  1  0.55790636  0.09887540  0.98461926  1.0
  O  O115  1  0.09881172  0.45728387  0.98465038  1.0
  O  O116  1  0.45739994  0.91650729  0.98465602  1.0
  O  O117  1  0.91655013  0.55801585  0.98464765  1.0
  O  O118  1  0.39768201  0.93537540  0.10373565  1.0
  O  O119  1  0.96086934  0.39764218  0.10374236  1.0
  O  O120  1  0.49868378  0.96091102  0.10373478  1.0
  O  O121  1  0.93540265  0.49866195  0.10372364  1.0
  O  O122  1  0.60238479  0.03912563  0.89627505  1.0
  O  O123  1  0.03911177  0.50141609  0.89626499  1.0
  O  O124  1  0.50138266  0.06461281  0.89625947  1.0
  O  O125  1  0.06464732  0.60241896  0.89626279  1.0
  O  O126  1  0.43727075  0.51295043  0.94348849  1.0
  O  O127  1  0.54356110  0.43716257  0.94363758  1.0
  O  O128  1  0.61924585  0.54348932  0.94359807  1.0
  O  O129  1  0.51288686  0.61924513  0.94352236  1.0
  O  O130  1  0.56275809  0.45640068  0.05648878  1.0
  O  O131  1  0.45643247  0.38075442  0.05652252  1.0
  O  O132  1  0.38079714  0.48719226  0.05637100  1.0
  O  O133  1  0.48708193  0.56283582  0.05641078  1.0
