# generated using pymatgen
data_ZnH8C19Br2N2(ClO2)2
_symmetry_space_group_name_H-M   'P 1'
_cell_length_a   21.51277591
_cell_length_b   21.68470178
_cell_length_c   21.76214923
_cell_angle_alpha   119.84034585
_cell_angle_beta   116.24838025
_cell_angle_gamma   90.02422700
_symmetry_Int_Tables_number   1
_chemical_formula_structural   ZnH8C19Br2N2(ClO2)2
_chemical_formula_sum   'Zn4 H32 C76 Br8 N8 Cl8 O16'
_cell_volume   7574.14279715
_cell_formula_units_Z   4
loop_
 _symmetry_equiv_pos_site_id
 _symmetry_equiv_pos_as_xyz
  1  'x, y, z'
loop_
 _atom_site_type_symbol
 _atom_site_label
 _atom_site_symmetry_multiplicity
 _atom_site_fract_x
 _atom_site_fract_y
 _atom_site_fract_z
 _atom_site_occupancy
  Zn  Zn0  1  0.44978459  0.95207976  0.90387470  1.0
  Zn  Zn1  1  0.54117558  0.04424615  0.08817005  1.0
  Zn  Zn2  1  0.02907902  0.54422263  0.08886480  1.0
  Zn  Zn3  1  0.96798937  0.45927644  0.91601061  1.0
  H  H4  1  0.17306488  0.60982359  0.21493581  1.0
  H  H5  1  0.25279790  0.68908615  0.37029777  1.0
  H  H6  1  0.40635506  0.80403799  0.60042842  1.0
  H  H7  1  0.21153498  0.78961971  0.61099359  1.0
  H  H8  1  0.82399480  0.39638453  0.78745955  1.0
  H  H9  1  0.74454487  0.31712940  0.63179071  1.0
  H  H10  1  0.59540214  0.23376323  0.40072319  1.0
  H  H11  1  0.78572723  0.18273170  0.38999895  1.0
  H  H12  1  0.28908016  0.69604309  0.91926202  1.0
  H  H13  1  0.29480681  0.79443334  0.15881368  1.0
  H  H14  1  0.09194545  0.58595690  0.89515624  1.0
  H  H15  1  0.17342636  0.66540539  0.89324922  1.0
  H  H16  1  0.38831827  0.96493309  0.13669330  1.0
  H  H17  1  0.30508298  0.88555031  0.13693888  1.0
  H  H18  1  0.62601622  0.19405470  0.88530184  1.0
  H  H19  1  0.87068524  0.28806057  0.09794678  1.0
  H  H20  1  0.76867591  0.31895501  0.86538668  1.0
  H  H21  1  0.68957297  0.24180101  0.87017166  1.0
  H  H22  1  0.72880277  0.15816933  0.11414284  1.0
  H  H23  1  0.81012656  0.22695198  0.10347569  1.0
  H  H24  1  0.62566743  0.67630731  0.84614382  1.0
  H  H25  1  0.85747739  0.80960657  0.05092561  1.0
  H  H26  1  0.76920546  0.53703228  0.90130927  1.0
  H  H27  1  0.68061792  0.61021529  0.89469653  1.0
  H  H28  1  0.69174557  0.92869012  0.08807119  1.0
  H  H29  1  0.78130455  0.85645693  0.09418373  1.0
  H  H30  1  0.25235849  0.20304899  0.88349274  1.0
  H  H31  1  0.30378160  0.36435526  0.14185761  1.0
  H  H32  1  0.06937927  0.29922234  0.89783225  1.0
  H  H33  1  0.14561670  0.21271860  0.88404788  1.0
  H  H34  1  0.39629819  0.16759236  0.10793624  1.0
  H  H35  1  0.31771173  0.25149144  0.12465775  1.0
  C  C36  1  0.58886225  0.08862255  0.01351937  1.0
  C  C37  1  0.56161360  0.89614933  0.96940002  1.0
  C  C38  1  0.42762547  0.92994685  0.02651793  1.0
  C  C39  1  0.41132802  0.08149549  0.98192810  1.0
  C  C40  1  0.91196190  0.58287431  0.98844835  1.0
  C  C41  1  0.90554026  0.40217557  0.97666691  1.0
  C  C42  1  0.09064327  0.42657057  0.02612580  1.0
  C  C43  1  0.09261060  0.59215351  0.01855727  1.0
  C  C44  1  0.15087450  0.62957266  0.25546057  1.0
  C  C45  1  0.19415596  0.67256430  0.34016739  1.0
  C  C46  1  0.16122634  0.69562569  0.38796062  1.0
  C  C47  1  0.08532918  0.67456460  0.34841849  1.0
  C  C48  1  0.04534535  0.63138829  0.26158732  1.0
  C  C49  1  0.37879929  0.81842535  0.63514905  1.0
  C  C50  1  0.30385862  0.79212024  0.59500767  1.0
  C  C51  1  0.26975386  0.81043116  0.64110793  1.0
  C  C52  1  0.31316303  0.85471937  0.72634733  1.0
  C  C53  1  0.41688737  0.86474200  0.72094544  1.0
  C  C54  1  0.84636941  0.37630123  0.74711526  1.0
  C  C55  1  0.80323639  0.33333333  0.66223648  1.0
  C  C56  1  0.83651828  0.30938810  0.61479808  1.0
  C  C57  1  0.91241534  0.33035509  0.65492992  1.0
  C  C58  1  0.95202464  0.37418844  0.74172281  1.0
  C  C59  1  0.62137425  0.20431201  0.36608724  1.0
  C  C60  1  0.69572548  0.21404487  0.40632216  1.0
  C  C61  1  0.72788160  0.17593944  0.36014848  1.0
  C  C62  1  0.68311235  0.12981750  0.27509434  1.0
  C  C63  1  0.58180233  0.15537480  0.28051819  1.0
  C  C64  1  0.38248589  0.87723493  0.02652842  1.0
  C  C65  1  0.14582866  0.64418365  0.02605281  1.0
  C  C66  1  0.35387608  0.80070035  0.96537889  1.0
  C  C67  1  0.30857404  0.75536924  0.96613903  1.0
  C  C68  1  0.20369401  0.70453728  0.10039225  1.0
  C  C69  1  0.25002457  0.74930006  0.09999246  1.0
  C  C70  1  0.13730078  0.63188336  0.95252534  1.0
  C  C71  1  0.18317465  0.67615109  0.95178683  1.0
  C  C72  1  0.36525808  0.90578715  0.08879625  1.0
  C  C73  1  0.31942457  0.86107110  0.08927170  1.0
  C  C74  1  0.28995771  0.78482492  0.02735869  1.0
  C  C75  1  0.24072838  0.73619483  0.02618147  1.0
  C  C76  1  0.63319407  0.13430961  0.00546819  1.0
  C  C77  1  0.86259757  0.34973751  0.97904378  1.0
  C  C78  1  0.60555714  0.14578178  0.94125085  1.0
  C  C79  1  0.65091597  0.18591692  0.93543020  1.0
  C  C80  1  0.89017007  0.33871434  0.04356736  1.0
  C  C81  1  0.84607782  0.29430277  0.04640575  1.0
  C  C82  1  0.79013029  0.31215799  0.91667394  1.0
  C  C83  1  0.74575733  0.26856098  0.91978642  1.0
  C  C84  1  0.70740232  0.16569975  0.06338484  1.0
  C  C85  1  0.75283361  0.20479179  0.05706751  1.0
  C  C86  1  0.72553444  0.21591752  0.99250749  1.0
  C  C87  1  0.77253796  0.25945835  0.98579310  1.0
  C  C88  1  0.60949267  0.84549936  0.96549520  1.0
  C  C89  1  0.86250387  0.63105631  0.98278777  1.0
  C  C90  1  0.59160678  0.77299135  0.89760062  1.0
  C  C91  1  0.64149190  0.73173385  0.90042531  1.0
  C  C92  1  0.88637989  0.70854124  0.02508086  1.0
  C  C93  1  0.83697076  0.74997062  0.01942682  1.0
  C  C94  1  0.78771856  0.59715537  0.93448501  1.0
  C  C95  1  0.73827081  0.63822273  0.93008234  1.0
  C  C96  1  0.67881471  0.87334840  0.03515300  1.0
  C  C97  1  0.72865365  0.83286812  0.03815379  1.0
  C  C98  1  0.71060842  0.76061932  0.97024487  1.0
  C  C99  1  0.76225348  0.71577604  0.97290246  1.0
  C  C100  1  0.36624371  0.13485804  0.98640109  1.0
  C  C101  1  0.14115201  0.37876971  0.02638559  1.0
  C  C102  1  0.32477334  0.14582137  0.92315257  1.0
  C  C103  1  0.28204096  0.19443190  0.93277231  1.0
  C  C104  1  0.20755003  0.39553313  0.09524357  1.0
  C  C105  1  0.25160992  0.34812878  0.08781059  1.0
  C  C106  1  0.12094611  0.31225313  0.95091740  1.0
  C  C107  1  0.16403977  0.26457666  0.94330932  1.0
  C  C108  1  0.36334198  0.17553480  0.05889447  1.0
  C  C109  1  0.32025586  0.22309153  0.06841121  1.0
  C  C110  1  0.27818859  0.23293661  0.00464209  1.0
  C  C111  1  0.23084311  0.28222963  0.01200681  1.0
  Br  Br112  1  0.94388864  0.60306805  0.20440489  1.0
  Br  Br113  1  0.03964450  0.70202680  0.41079467  1.0
  Br  Br114  1  0.51730731  0.90365489  0.77296218  1.0
  Br  Br115  1  0.26699012  0.87539906  0.78784047  1.0
  Br  Br116  1  0.05364057  0.40276719  0.79925480  1.0
  Br  Br117  1  0.95799206  0.30185221  0.59238450  1.0
  Br  Br118  1  0.48085799  0.14123274  0.22871275  1.0
  Br  Br119  1  0.72738074  0.07849329  0.21370109  1.0
  N  N120  1  0.07788896  0.60970176  0.21725580  1.0
  N  N121  1  0.20023761  0.74219598  0.47484458  1.0
  N  N122  1  0.26632437  0.74510825  0.50784722  1.0
  N  N123  1  0.38560104  0.88264344  0.76691242  1.0
  N  N124  1  0.91934242  0.39610416  0.78596669  1.0
  N  N125  1  0.79761325  0.26076292  0.52813141  1.0
  N  N126  1  0.73427520  0.26482688  0.49335646  1.0
  N  N127  1  0.61111437  0.11890552  0.23442014  1.0
  Cl  Cl128  1  0.37668383  0.75850040  0.88982703  1.0
  Cl  Cl129  1  0.22223279  0.72966811  0.19725195  1.0
  Cl  Cl130  1  0.51415878  0.11548692  0.86958937  1.0
  Cl  Cl131  1  0.98035841  0.37688735  0.12054298  1.0
  Cl  Cl132  1  0.50800536  0.72854708  0.80750373  1.0
  Cl  Cl133  1  0.97731199  0.75571730  0.08249546  1.0
  Cl  Cl134  1  0.32514065  0.10339322  0.83167849  1.0
  Cl  Cl135  1  0.24122838  0.47645909  0.19197785  1.0
  O  O136  1  0.53959947  0.03170207  0.94772054  1.0
  O  O137  1  0.60619174  0.10954084  0.08681414  1.0
  O  O138  1  0.58043551  0.95285850  0.04032902  1.0
  O  O139  1  0.50711407  0.87951511  0.90158028  1.0
  O  O140  1  0.48068650  0.98156585  0.09657084  1.0
  O  O141  1  0.40831235  0.92080374  0.95795940  1.0
  O  O142  1  0.39500005  0.02719209  0.91042604  1.0
  O  O143  1  0.46072438  0.09371502  0.05015859  1.0
  O  O144  1  0.96477244  0.60605486  0.05956547  1.0
  O  O145  1  0.89530015  0.52152871  0.92158261  1.0
  O  O146  1  0.89973046  0.38210198  0.90812974  1.0
  O  O147  1  0.94306281  0.46439468  0.04454520  1.0
  O  O148  1  0.04945340  0.41688723  0.95617125  1.0
  O  O149  1  0.09131925  0.47126830  0.09225875  1.0
  O  O150  1  0.10526686  0.59494714  0.08281957  1.0
  O  O151  1  0.03802079  0.54777120  0.94658157  1.0
