# generated using pymatgen
data_ZnH13C25NO10
_symmetry_space_group_name_H-M   'P 1'
_cell_length_a   16.59539529
_cell_length_b   17.49660992
_cell_length_c   17.84423163
_cell_angle_alpha   90.79724130
_cell_angle_beta   92.79614951
_cell_angle_gamma   100.73014444
_symmetry_Int_Tables_number   1
_chemical_formula_structural   ZnH13C25NO10
_chemical_formula_sum   'Zn2 H26 C50 N2 O20'
_cell_volume   5083.25497711
_cell_formula_units_Z   2
loop_
 _symmetry_equiv_pos_site_id
 _symmetry_equiv_pos_as_xyz
  1  'x, y, z'
loop_
 _atom_site_type_symbol
 _atom_site_label
 _atom_site_symmetry_multiplicity
 _atom_site_fract_x
 _atom_site_fract_y
 _atom_site_fract_z
 _atom_site_occupancy
  Zn  Zn0  1  0.58739788  0.50461484  0.50556517  1.0
  Zn  Zn1  1  0.41353053  0.49030482  0.49894083  1.0
  H  H2  1  0.68719350  0.41442736  0.43751680  1.0
  H  H3  1  0.31451487  0.56310391  0.58693956  1.0
  H  H4  1  0.83437457  0.40025562  0.42905093  1.0
  H  H5  1  0.16730197  0.57220911  0.60493493  1.0
  H  H6  1  0.41208897  0.25831141  0.37685244  1.0
  H  H7  1  0.60441090  0.73851004  0.40502968  1.0
  H  H8  1  0.60950215  0.87873259  0.38074221  1.0
  H  H9  1  0.41516129  0.11930184  0.35187121  1.0
  H  H10  1  0.61700979  0.46324204  0.12311538  1.0
  H  H11  1  0.39284236  0.56668640  0.87113626  1.0
  H  H12  1  0.62017147  0.45840732  0.26341378  1.0
  H  H13  1  0.39420135  0.55538705  0.73118537  1.0
  H  H14  1  0.40236836  0.56902805  0.12732285  1.0
  H  H15  1  0.61323276  0.46971040  0.88890580  1.0
  H  H16  1  0.37976469  0.77431582  0.61900182  1.0
  H  H17  1  0.55529662  0.21502159  0.65990708  1.0
  H  H18  1  0.96360825  0.58227563  0.59873924  1.0
  H  H19  1  0.03603285  0.42641688  0.40869463  1.0
  H  H20  1  0.67356415  0.61145334  0.59956369  1.0
  H  H21  1  0.33040074  0.41736776  0.38218004  1.0
  H  H22  1  0.34215555  0.01279797  0.40447667  1.0
  H  H23  1  0.66686727  0.98431108  0.45567509  1.0
  H  H24  1  0.54919268  0.12015626  0.62751772  1.0
  H  H25  1  0.41077962  0.87365373  0.60476272  1.0
  H  H26  1  0.35913143  0.59085580  0.23956601  1.0
  H  H27  1  0.66359742  0.44064063  0.78337667  1.0
  C  C28  1  0.49938212  0.50188168  0.64721813  1.0
  C  C29  1  0.51722617  0.50069250  0.35750406  1.0
  C  C30  1  0.57105764  0.48482383  0.15475443  1.0
  C  C31  1  0.44083594  0.54316241  0.84430600  1.0
  C  C32  1  0.57239176  0.48185655  0.23238692  1.0
  C  C33  1  0.44154202  0.53645704  0.76683046  1.0
  C  C34  1  0.51287808  0.50788340  0.27424020  1.0
  C  C35  1  0.50308551  0.50694585  0.73086017  1.0
  C  C36  1  0.45094061  0.53965870  0.23542455  1.0
  C  C37  1  0.56660495  0.48394962  0.77583308  1.0
  C  C38  1  0.44990284  0.54403663  0.15729720  1.0
  C  C39  1  0.56529929  0.48899978  0.85394691  1.0
  C  C40  1  0.50905345  0.51645438  0.11600674  1.0
  C  C41  1  0.50306754  0.51827398  0.88911625  1.0
  C  C42  1  0.50603098  0.51986848  0.03683777  1.0
  C  C43  1  0.50378219  0.52073925  0.96838480  1.0
  C  C44  1  0.85332946  0.54467991  0.56408183  1.0
  C  C45  1  0.14628131  0.45531473  0.44681851  1.0
  C  C46  1  0.76920426  0.54889273  0.56496783  1.0
  C  C47  1  0.23034274  0.45288075  0.44118744  1.0
  C  C48  1  0.73627326  0.45040750  0.47193271  1.0
  C  C49  1  0.26496119  0.53350158  0.54862605  1.0
  C  C50  1  0.51323475  0.64886049  0.49929598  1.0
  C  C51  1  0.47356193  0.34566191  0.49740453  1.0
  C  C52  1  0.81770983  0.44283334  0.46763513  1.0
  C  C53  1  0.18347305  0.53834584  0.55818349  1.0
  C  C54  1  0.87811325  0.49141472  0.51297210  1.0
  C  C55  1  0.12240465  0.49846329  0.50742983  1.0
  C  C56  1  0.96287090  0.49115306  0.51013974  1.0
  C  C57  1  0.03779668  0.49807619  0.51278564  1.0
  C  C58  1  0.52239467  0.73586208  0.49461574  1.0
  C  C59  1  0.46704272  0.25898260  0.48864674  1.0
  C  C60  1  0.47745255  0.77895703  0.53926568  1.0
  C  C61  1  0.49791082  0.21483530  0.54542913  1.0
  C  C62  1  0.47932853  0.85831645  0.52404457  1.0
  C  C63  1  0.50216464  0.13630010  0.52974003  1.0
  C  C64  1  0.52687514  0.89558305  0.46625293  1.0
  C  C65  1  0.47255141  0.10065275  0.45923137  1.0
  C  C66  1  0.57300690  0.85136660  0.42573381  1.0
  C  C67  1  0.43818146  0.14565692  0.40637437  1.0
  C  C68  1  0.57049182  0.77254406  0.43902857  1.0
  C  C69  1  0.43630579  0.22397971  0.42003060  1.0
  C  C70  1  0.53454978  0.97977228  0.45689016  1.0
  C  C71  1  0.46876173  0.01708455  0.44665463  1.0
  C  C72  1  0.43058356  0.74399730  0.60192299  1.0
  C  C73  1  0.52114419  0.24925708  0.62060625  1.0
  C  C74  1  0.73710294  0.60439322  0.61536927  1.0
  C  C75  1  0.26250071  0.40957838  0.37983144  1.0
  C  C76  1  0.38650421  0.97372634  0.41898597  1.0
  C  C77  1  0.62065121  0.02330475  0.45684822  1.0
  N  N78  1  0.71361002  0.50295917  0.51807767  1.0
  N  N79  1  0.28692057  0.49143161  0.49222330  1.0
  O  O80  1  0.56683947  0.50390216  0.61565210  1.0
  O  O81  1  0.44969819  0.48947201  0.39009318  1.0
  O  O82  1  0.42912915  0.49704654  0.61312436  1.0
  O  O83  1  0.58821016  0.50516908  0.39013247  1.0
  O  O84  1  0.57945843  0.62204906  0.50291945  1.0
  O  O85  1  0.40701798  0.37144138  0.49829747  1.0
  O  O86  1  0.44044608  0.61047827  0.49427683  1.0
  O  O87  1  0.54614748  0.38463228  0.49696643  1.0
  O  O88  1  0.44137854  0.68650774  0.63659876  1.0
  O  O89  1  0.50543885  0.31064282  0.64402973  1.0
  O  O90  1  0.90878111  0.59169149  0.60950211  1.0
  O  O91  1  0.09037082  0.41736105  0.39570958  1.0
  O  O92  1  0.77684862  0.63897723  0.66905175  1.0
  O  O93  1  0.21935881  0.37021986  0.33065919  1.0
  O  O94  1  0.36586676  0.90311753  0.41042287  1.0
  O  O95  1  0.64292242  0.09409477  0.45649830  1.0
  O  O96  1  0.53099742  0.09021917  0.58127482  1.0
  O  O97  1  0.43963814  0.90402557  0.56553514  1.0
  O  O98  1  0.39370399  0.56773757  0.27494892  1.0
  O  O99  1  0.62813144  0.45563581  0.74325461  1.0
