# generated using pymatgen
data_ZnH24C18NO4
_symmetry_space_group_name_H-M   'P 1'
_cell_length_a   9.51351038
_cell_length_b   10.82669000
_cell_length_c   16.07133678
_cell_angle_alpha   90.55516569
_cell_angle_beta   89.95793802
_cell_angle_gamma   89.56796461
_symmetry_Int_Tables_number   1
_chemical_formula_structural   ZnH24C18NO4
_chemical_formula_sum   'Zn2 H48 C36 N2 O8'
_cell_volume   1655.21961622
_cell_formula_units_Z   2
loop_
 _symmetry_equiv_pos_site_id
 _symmetry_equiv_pos_as_xyz
  1  'x, y, z'
loop_
 _atom_site_type_symbol
 _atom_site_label
 _atom_site_symmetry_multiplicity
 _atom_site_fract_x
 _atom_site_fract_y
 _atom_site_fract_z
 _atom_site_occupancy
  Zn  Zn0  1  0.35310189  0.49971088  0.50240197  1.0
  Zn  Zn1  1  0.64562789  0.50085499  0.50124705  1.0
  H  H2  1  0.46566558  0.69063595  0.07423517  1.0
  H  H3  1  0.12447682  0.68707803  0.54132846  1.0
  H  H4  1  0.87525248  0.36640883  0.59432871  1.0
  H  H5  1  0.12489591  0.36104651  0.59255809  1.0
  H  H6  1  0.87651905  0.45446522  0.37662925  1.0
  H  H7  1  0.12605295  0.45767117  0.37604942  1.0
  H  H8  1  0.87365833  0.61467349  0.39724971  1.0
  H  H9  1  0.12324379  0.61713784  0.40004411  1.0
  H  H10  1  0.87358339  0.31009244  0.49069892  1.0
  H  H11  1  0.12297826  0.30919090  0.48796387  1.0
  H  H12  1  0.46714600  0.68766805  0.92860780  1.0
  H  H13  1  0.70470244  0.58628442  0.07441976  1.0
  H  H14  1  0.70668314  0.58152592  0.92867089  1.0
  H  H15  1  0.71784719  0.41879167  0.92971610  1.0
  H  H16  1  0.31281065  0.59826934  0.92839694  1.0
  H  H17  1  0.71804905  0.42366767  0.07551582  1.0
  H  H18  1  0.31157973  0.60082225  0.07411037  1.0
  H  H19  1  0.32972301  0.36416017  0.92911835  1.0
  H  H20  1  0.49580997  0.29072035  0.92930701  1.0
  H  H21  1  0.32950979  0.36685871  0.07482316  1.0
  H  H22  1  0.49599154  0.29384839  0.07497769  1.0
  H  H23  1  0.27640205  0.91064520  0.53415884  1.0
  H  H24  1  0.27524671  0.12363385  0.50463223  1.0
  H  H25  1  0.69743664  0.87496980  0.44032699  1.0
  H  H26  1  0.30517243  0.88892544  0.42670773  1.0
  H  H27  1  0.55470995  0.90004654  0.37202004  1.0
  H  H28  1  0.35023490  0.09881878  0.40586898  1.0
  H  H29  1  0.60712639  0.11113094  0.38275072  1.0
  H  H30  1  0.26882600  0.21842288  0.78656281  1.0
  H  H31  1  0.20146910  0.06716026  0.77232491  1.0
  H  H32  1  0.30595087  0.10234138  0.86094849  1.0
  H  H33  1  0.45100795  0.98557421  0.75644486  1.0
  H  H34  1  0.51448467  0.13745410  0.76956205  1.0
  H  H35  1  0.72211723  0.08658936  0.46617854  1.0
  H  H36  1  0.38339583  0.20564114  0.64381441  1.0
  H  H37  1  0.31385360  0.05649540  0.63102488  1.0
  H  H38  1  0.93086657  0.18857170  0.69810696  1.0
  H  H39  1  0.80059266  0.21389595  0.77546097  1.0
  H  H40  1  0.92215196  0.08901074  0.78491713  1.0
  H  H41  1  0.68838733  0.01049575  0.73683843  1.0
  H  H42  1  0.81697699  0.98518085  0.66023238  1.0
  H  H43  1  0.73962019  0.15578225  0.57771915  1.0
  H  H44  1  0.63976525  0.22180327  0.65758257  1.0
  H  H45  1  0.48683818  0.88448325  0.63636772  1.0
  H  H46  1  0.65600941  0.89738319  0.59346255  1.0
  H  H47  1  0.87250940  0.58285860  0.62233783  1.0
  H  H48  1  0.12284125  0.57923759  0.62349395  1.0
  H  H49  1  0.87423994  0.68931113  0.53946204  1.0
  C  C50  1  0.49447092  0.73879603  0.50248186  1.0
  C  C51  1  0.61634421  0.06528444  0.44322340  1.0
  C  C52  1  0.54675419  0.92845308  0.58619712  1.0
  C  C53  1  0.49413907  0.87946708  0.50127851  1.0
  C  C54  1  0.50425472  0.12017701  0.50275987  1.0
  C  C55  1  0.50057171  0.49569779  0.66459848  1.0
  C  C56  1  0.53335164  0.07194907  0.59443646  1.0
  C  C57  1  0.91732361  0.60080282  0.56068846  1.0
  C  C58  1  0.08009586  0.59906072  0.56162203  1.0
  C  C59  1  0.91811038  0.38106617  0.53181004  1.0
  C  C60  1  0.08046850  0.37949193  0.53087744  1.0
  C  C61  1  0.43693334  0.37292142  0.05010427  1.0
  C  C62  1  0.91856849  0.52652801  0.41786391  1.0
  C  C63  1  0.08088171  0.52737088  0.41834873  1.0
  C  C64  1  0.50630502  0.26124281  0.50058821  1.0
  C  C65  1  0.49755114  0.49887816  0.33928964  1.0
  C  C66  1  0.42010530  0.60320875  0.95338769  1.0
  C  C67  1  0.65745525  0.49832320  0.95387926  1.0
  C  C68  1  0.65688075  0.50115952  0.05016027  1.0
  C  C69  1  0.41929559  0.60510609  0.04963728  1.0
  C  C70  1  0.49921416  0.49727312  0.24927641  1.0
  C  C71  1  0.50515252  0.49025417  0.92035087  1.0
  C  C72  1  0.43708535  0.37096624  0.95381996  1.0
  C  C73  1  0.50429826  0.49360121  0.08335547  1.0
  C  C74  1  0.40776961  0.10697132  0.65196014  1.0
  C  C75  1  0.42561414  0.08358840  0.74520630  1.0
  C  C76  1  0.29323482  0.11962435  0.79402901  1.0
  C  C77  1  0.66934798  0.13207204  0.62939415  1.0
  C  C78  1  0.75655600  0.05843452  0.69255607  1.0
  C  C79  1  0.85813636  0.14162406  0.74048712  1.0
  C  C80  1  0.50222407  0.49562267  0.17363678  1.0
  C  C81  1  0.50421761  0.48907407  0.83008142  1.0
  C  C82  1  0.50227398  0.49056628  0.75446173  1.0
  C  C83  1  0.34810802  0.93331521  0.48281981  1.0
  C  C84  1  0.59683025  0.92435790  0.43377404  1.0
  C  C85  1  0.35983271  0.07403023  0.47194993  1.0
  N  N86  1  0.86453631  0.50300814  0.50314522  1.0
  N  N87  1  0.13403490  0.50142498  0.50363115  1.0
  O  O88  1  0.38045690  0.68348575  0.48471747  1.0
  O  O89  1  0.60992222  0.68569384  0.52127275  1.0
  O  O90  1  0.38432259  0.52525375  0.63064435  1.0
  O  O91  1  0.61604145  0.47014454  0.62760553  1.0
  O  O92  1  0.39296707  0.31763840  0.52061493  1.0
  O  O93  1  0.61966983  0.31435023  0.47953154  1.0
  O  O94  1  0.38310003  0.46876655  0.37455779  1.0
  O  O95  1  0.61131197  0.53040632  0.37517465  1.0
