# generated using pymatgen
data_AlH9C21(NO2)6
_symmetry_space_group_name_H-M   'P 1'
_cell_length_a   4.02023183
_cell_length_b   27.79625160
_cell_length_c   27.80076797
_cell_angle_alpha   120.00294435
_cell_angle_beta   90.00283616
_cell_angle_gamma   89.99835268
_symmetry_Int_Tables_number   1
_chemical_formula_structural   AlH9C21(NO2)6
_chemical_formula_sum   'Al2 H18 C42 N12 O24'
_cell_volume   2690.36912379
_cell_formula_units_Z   2
loop_
 _symmetry_equiv_pos_site_id
 _symmetry_equiv_pos_as_xyz
  1  'x, y, z'
loop_
 _atom_site_type_symbol
 _atom_site_label
 _atom_site_symmetry_multiplicity
 _atom_site_fract_x
 _atom_site_fract_y
 _atom_site_fract_z
 _atom_site_occupancy
  Al  Al0  1  0.02231181  0.00002842  0.50001624  1.0
  Al  Al1  1  0.02234809  0.33330805  0.16665032  1.0
  H  H2  1  0.44135738  0.48557078  0.30497040  1.0
  H  H3  1  0.40153977  0.58940046  0.35621630  1.0
  H  H4  1  0.50989026  0.58863606  0.20145819  1.0
  H  H5  1  0.50989998  0.74470334  0.46521801  1.0
  H  H6  1  0.40152665  0.74394154  0.31045970  1.0
  H  H7  1  0.44134872  0.84776993  0.36170776  1.0
  H  H8  1  0.44143946  0.19498486  0.18060126  1.0
  H  H9  1  0.40151876  0.14375231  0.23318518  1.0
  H  H10  1  0.50994888  0.29855972  0.38717065  1.0
  H  H11  1  0.50994411  0.03476468  0.27948450  1.0
  H  H12  1  0.40138674  0.18956430  0.43346313  1.0
  H  H13  1  0.44124923  0.13833467  0.48604868  1.0
  H  H14  1  0.44163760  0.31938587  0.01442018  1.0
  H  H15  1  0.40181876  0.26682612  0.91060785  1.0
  H  H16  1  0.50965375  0.11277964  0.91133496  1.0
  H  H17  1  0.50974085  0.22054645  0.75532974  1.0
  H  H18  1  0.40175743  0.06650380  0.75605727  1.0
  H  H19  1  0.44152370  0.01394321  0.65224425  1.0
  C  C20  1  0.52114529  0.05338028  0.58362090  1.0
  C  C21  1  0.52112942  0.91641761  0.46975773  1.0
  C  C22  1  0.52110180  0.03027557  0.44666129  1.0
  C  C23  1  0.52115205  0.41692055  0.19691577  1.0
  C  C24  1  0.52119211  0.30305095  0.21999704  1.0
  C  C25  1  0.52113370  0.27995123  0.08304495  1.0
  C  C26  1  0.50130359  0.47898602  0.22491860  1.0
  C  C27  1  0.45675093  0.50866068  0.28282598  1.0
  C  C28  1  0.43361463  0.56616802  0.31130334  1.0
  C  C29  1  0.45604080  0.59539570  0.28213304  1.0
  C  C30  1  0.49214365  0.56636746  0.22431466  1.0
  C  C31  1  0.51560595  0.50878574  0.19665801  1.0
  C  C32  1  0.49214863  0.76696989  0.44236002  1.0
  C  C33  1  0.45604172  0.73794458  0.38454285  1.0
  C  C34  1  0.43361475  0.76717186  0.35537147  1.0
  C  C35  1  0.45673200  0.82467835  0.38385073  1.0
  C  C36  1  0.50127122  0.85435506  0.44176089  1.0
  C  C37  1  0.51558662  0.82455366  0.47001931  1.0
  C  C38  1  0.50139089  0.27505282  0.25405752  1.0
  C  C39  1  0.45678816  0.21713876  0.22583279  1.0
  C  C40  1  0.43362314  0.18867091  0.25485782  1.0
  C  C41  1  0.45606923  0.21786487  0.31326177  1.0
  C  C42  1  0.49222804  0.27568251  0.34203873  1.0
  C  C43  1  0.51572382  0.30333323  0.31211703  1.0
  C  C44  1  0.49216699  0.05763444  0.32460897  1.0
  C  C45  1  0.45598918  0.11545501  0.35339073  1.0
  C  C46  1  0.43349508  0.14465273  0.41179244  1.0
  C  C47  1  0.45664330  0.11617946  0.44081637  1.0
  C  C48  1  0.50127098  0.05826415  0.41259265  1.0
  C  C49  1  0.51563865  0.02998785  0.35453722  1.0
  C  C50  1  0.50129428  0.24589802  0.02098669  1.0
  C  C51  1  0.45694058  0.27414904  0.99132516  1.0
  C  C52  1  0.43381307  0.24513244  0.93382605  1.0
  C  C53  1  0.45602650  0.18672072  0.90458969  1.0
  C  C54  1  0.49197750  0.15791054  0.93360708  1.0
  C  C55  1  0.51541337  0.18782197  0.99117590  1.0
  C  C56  1  0.49201615  0.17541557  0.73305714  1.0
  C  C57  1  0.45603349  0.14660956  0.76207312  1.0
  C  C58  1  0.43375694  0.08819620  0.73283686  1.0
  C  C59  1  0.45685562  0.05918167  0.67534147  1.0
  C  C60  1  0.50127804  0.08743059  0.64567793  1.0
  C  C61  1  0.51544822  0.14550370  0.67548863  1.0
  N  N62  1  0.45234795  0.65385903  0.30703532  1.0
  N  N63  1  0.45233699  0.67947959  0.35964007  1.0
  N  N64  1  0.45235624  0.19296547  0.34681412  1.0
  N  N65  1  0.45232200  0.14035816  0.31983807  1.0
  N  N66  1  0.45227627  0.15317093  0.84613921  1.0
  N  N67  1  0.45233639  0.18016019  0.82052579  1.0
  N  N68  1  0.57129180  0.47949002  0.13606539  1.0
  N  N69  1  0.57128737  0.85384602  0.53061280  1.0
  N  N70  1  0.57144059  0.36393465  0.34340445  1.0
  N  N71  1  0.57142215  0.96938685  0.32325209  1.0
  N  N72  1  0.57096815  0.15649010  0.02044060  1.0
  N  N73  1  0.57108120  0.17682931  0.64621957  1.0
  O  O74  1  0.28780424  0.99737388  0.44179298  1.0
  O  O75  1  0.28784253  0.05826448  0.55559385  1.0
  O  O76  1  0.28785717  0.94445283  0.50266843  1.0
  O  O77  1  0.76154500  0.04533452  0.48075752  1.0
  O  O78  1  0.76156633  0.93546218  0.45470926  1.0
  O  O79  1  0.76158178  0.01928396  0.56457213  1.0
  O  O80  1  0.28782655  0.27507012  0.11106792  1.0
  O  O81  1  0.28785669  0.38889216  0.16400789  1.0
  O  O82  1  0.28788474  0.33595533  0.22487005  1.0
  O  O83  1  0.76154758  0.31405234  0.10209605  1.0
  O  O84  1  0.76162913  0.28799389  0.18589952  1.0
  O  O85  1  0.76160035  0.39787080  0.21196229  1.0
  O  O86  1  0.71774201  0.43416170  0.11540002  1.0
  O  O87  1  0.47236299  0.50235073  0.11032010  1.0
  O  O88  1  0.71774067  0.89917547  0.55128231  1.0
  O  O89  1  0.47238182  0.83098372  0.55635659  1.0
  O  O90  1  0.71782888  0.38459345  0.31874000  1.0
  O  O91  1  0.47255232  0.38969821  0.39201331  1.0
  O  O92  1  0.71779807  0.94873334  0.34792527  1.0
  O  O93  1  0.47261115  0.94361833  0.27463800  1.0
  O  O94  1  0.71746749  0.18113701  0.06576861  1.0
  O  O95  1  0.47195968  0.10788581  0.99757332  1.0
  O  O96  1  0.71759482  0.15218104  0.60090164  1.0
  O  O97  1  0.47209348  0.22543449  0.66908354  1.0
