# generated using pymatgen
data_ZnH14C18NO5
_symmetry_space_group_name_H-M   'P 1'
_cell_length_a   19.16159476
_cell_length_b   19.15831082
_cell_length_c   29.19504285
_cell_angle_alpha   109.14962199
_cell_angle_beta   109.16435603
_cell_angle_gamma   89.99630534
_symmetry_Int_Tables_number   1
_chemical_formula_structural   ZnH14C18NO5
_chemical_formula_sum   'Zn8 H112 C144 N8 O40'
_cell_volume   9493.64371320
_cell_formula_units_Z   8
loop_
 _symmetry_equiv_pos_site_id
 _symmetry_equiv_pos_as_xyz
  1  'x, y, z'
loop_
 _atom_site_type_symbol
 _atom_site_label
 _atom_site_symmetry_multiplicity
 _atom_site_fract_x
 _atom_site_fract_y
 _atom_site_fract_z
 _atom_site_occupancy
  Zn  Zn0  1  0.92426169  0.49075713  0.99563191  1.0
  Zn  Zn1  1  0.50483074  0.92423943  0.49560664  1.0
  Zn  Zn2  1  0.49077612  0.57132848  0.49560133  1.0
  Zn  Zn3  1  0.57137507  0.50480336  0.99561479  1.0
  Zn  Zn4  1  0.07573180  0.50924126  0.00436416  1.0
  Zn  Zn5  1  0.49516853  0.07576065  0.50439384  1.0
  Zn  Zn6  1  0.50922305  0.42867450  0.50439925  1.0
  Zn  Zn7  1  0.42862699  0.49519472  0.00438537  1.0
  H  H8  1  0.05672369  0.63619346  0.90167945  1.0
  H  H9  1  0.26558633  0.05697391  0.40169225  1.0
  H  H10  1  0.63605834  0.34478631  0.40169109  1.0
  H  H11  1  0.34481240  0.26546967  0.90172734  1.0
  H  H12  1  0.94327445  0.36380139  0.09831863  1.0
  H  H13  1  0.73441277  0.94302950  0.59830819  1.0
  H  H14  1  0.36394524  0.65522185  0.59831184  1.0
  H  H15  1  0.65519141  0.73453009  0.09827393  1.0
  H  H16  1  0.01852927  0.68803333  0.82934344  1.0
  H  H17  1  0.14144148  0.01895048  0.32935037  1.0
  H  H18  1  0.68796453  0.31064603  0.32940644  1.0
  H  H19  1  0.31054808  0.14133849  0.82936563  1.0
  H  H20  1  0.98146932  0.31196600  0.17065575  1.0
  H  H21  1  0.85855647  0.98104780  0.67064888  1.0
  H  H22  1  0.31203589  0.68935673  0.67059558  1.0
  H  H23  1  0.68944980  0.85866247  0.17063627  1.0
  H  H24  1  0.78883000  0.62071633  0.79903686  1.0
  H  H25  1  0.17831737  0.78913922  0.29894942  1.0
  H  H26  1  0.62061022  0.50999709  0.29897178  1.0
  H  H27  1  0.50989096  0.17835342  0.79897542  1.0
  H  H28  1  0.21116773  0.37928325  0.20096258  1.0
  H  H29  1  0.82168322  0.21086016  0.70105202  1.0
  H  H30  1  0.37939292  0.49000432  0.70102725  1.0
  H  H31  1  0.49010568  0.82164306  0.20102261  1.0
  H  H32  1  0.82727537  0.57390642  0.87306848  1.0
  H  H33  1  0.29915810  0.82743619  0.37300248  1.0
  H  H34  1  0.57381335  0.54561225  0.37299005  1.0
  H  H35  1  0.54559132  0.29914779  0.87303464  1.0
  H  H36  1  0.17272340  0.42609420  0.12693198  1.0
  H  H37  1  0.70084270  0.17256682  0.62699868  1.0
  H  H38  1  0.42619082  0.45439264  0.62700965  1.0
  H  H39  1  0.45440939  0.70084881  0.12696296  1.0
  H  H40  1  0.67758479  0.69178828  0.62628064  1.0
  H  H41  1  0.93445129  0.67766451  0.12637869  1.0
  H  H42  1  0.69178785  0.44839303  0.12626459  1.0
  H  H43  1  0.44890023  0.93455063  0.62642533  1.0
  H  H44  1  0.32241510  0.30821290  0.37372038  1.0
  H  H45  1  0.06554508  0.32233586  0.87362097  1.0
  H  H46  1  0.30821336  0.55160768  0.87373486  1.0
  H  H47  1  0.55110116  0.06544650  0.37357609  1.0
  H  H48  1  0.78961999  0.75216167  0.70610804  1.0
  H  H49  1  0.95396120  0.78976018  0.20615026  1.0
  H  H50  1  0.75212688  0.41632882  0.20613348  1.0
  H  H51  1  0.41659240  0.95404271  0.70618884  1.0
  H  H52  1  0.21038054  0.24783814  0.29389327  1.0
  H  H53  1  0.04603750  0.21023842  0.79385041  1.0
  H  H54  1  0.24787681  0.58367167  0.79386630  1.0
  H  H55  1  0.58340978  0.04595459  0.29381220  1.0
  H  H56  1  0.82683213  0.53825443  0.72142306  1.0
  H  H57  1  0.18313606  0.82677616  0.22136618  1.0
  H  H58  1  0.53826461  0.39459603  0.22144745  1.0
  H  H59  1  0.39460134  0.18317774  0.72138962  1.0
  H  H60  1  0.17316645  0.46174496  0.27857673  1.0
  H  H61  1  0.81686281  0.17321928  0.77863138  1.0
  H  H62  1  0.46173914  0.60540410  0.77855307  1.0
  H  H63  1  0.60539898  0.81681840  0.27861137  1.0
  H  H64  1  0.71800662  0.47830156  0.64034781  1.0
  H  H65  1  0.16195112  0.71786524  0.14036810  1.0
  H  H66  1  0.47832808  0.42236837  0.14039352  1.0
  H  H67  1  0.42247686  0.16207056  0.64037452  1.0
  H  H68  1  0.28199229  0.52169822  0.35965293  1.0
  H  H69  1  0.83804427  0.28213146  0.85962849  1.0
  H  H70  1  0.52167403  0.57763178  0.85960703  1.0
  H  H71  1  0.57752663  0.83792610  0.35962809  1.0
  H  H72  1  0.77062676  0.41177220  0.92114167  1.0
  H  H73  1  0.50930000  0.77061540  0.42111822  1.0
  H  H74  1  0.41167465  0.65046686  0.42114503  1.0
  H  H75  1  0.65048021  0.50944089  0.92115725  1.0
  H  H76  1  0.22937180  0.58822724  0.07885873  1.0
  H  H77  1  0.49070075  0.22938332  0.57888037  1.0
  H  H78  1  0.58832545  0.34953307  0.57885640  1.0
  H  H79  1  0.34951842  0.49055813  0.07884328  1.0
  H  H80  1  0.77457351  0.50414846  0.92123758  1.0
  H  H81  1  0.41704084  0.77460066  0.42122184  1.0
  H  H82  1  0.50403780  0.64661846  0.42125099  1.0
  H  H83  1  0.64661487  0.41715386  0.92124164  1.0
  H  H84  1  0.22542485  0.49584979  0.07876275  1.0
  H  H85  1  0.58295952  0.22539787  0.57877821  1.0
  H  H86  1  0.49596182  0.35337948  0.57874957  1.0
  H  H87  1  0.35338418  0.58284508  0.07875937  1.0
  H  H88  1  0.84482340  0.59102626  0.06042892  1.0
  H  H89  1  0.46938088  0.84484942  0.56040661  1.0
  H  H90  1  0.59091418  0.71558871  0.56043584  1.0
  H  H91  1  0.71559546  0.46941400  0.06042588  1.0
  H  H92  1  0.15517559  0.40897306  0.93957135  1.0
  H  H93  1  0.53061861  0.15514935  0.43959368  1.0
  H  H94  1  0.40908558  0.28441083  0.43956465  1.0
  H  H95  1  0.28440412  0.53058653  0.93957613  1.0
  H  H96  1  0.81659539  0.60701953  0.00114350  1.0
  H  H97  1  0.39408984  0.81665065  0.50112776  1.0
  H  H98  1  0.60693735  0.68446342  0.50116254  1.0
  H  H99  1  0.68451644  0.39413354  0.00114594  1.0
  H  H100  1  0.18340277  0.39297993  0.99885581  1.0
  H  H101  1  0.60590965  0.18334812  0.49887253  1.0
  H  H102  1  0.39306129  0.31553555  0.49883739  1.0
  H  H103  1  0.31548329  0.60586609  0.99885575  1.0
  H  H104  1  0.80910591  0.38961479  0.00234513  1.0
  H  H105  1  0.61266428  0.80905485  0.50231332  1.0
  H  H106  1  0.38954865  0.69325870  0.50232721  1.0
  H  H107  1  0.69322142  0.61273604  0.00235336  1.0
  H  H108  1  0.19089290  0.61038551  0.99765667  1.0
  H  H109  1  0.38733607  0.19094367  0.49768673  1.0
  H  H110  1  0.61045084  0.30674007  0.49767308  1.0
  H  H111  1  0.30677721  0.38726298  0.99764717  1.0
  H  H112  1  0.83949459  0.46592552  0.06110833  1.0
  H  H113  1  0.59515367  0.83950269  0.56107850  1.0
  H  H114  1  0.46582013  0.72160264  0.56110534  1.0
  H  H115  1  0.72158788  0.59522945  0.06113024  1.0
  H  H116  1  0.16050543  0.53407483  0.93889296  1.0
  H  H117  1  0.40484646  0.16049714  0.43892173  1.0
  H  H118  1  0.53417922  0.27839697  0.43889467  1.0
  H  H119  1  0.27841110  0.40476991  0.93887063  1.0
  C  C120  1  0.99828064  0.63366803  0.87898076  1.0
  C  C121  1  0.24539037  0.99854876  0.37897685  1.0
  C  C122  1  0.63361525  0.38056589  0.37902659  1.0
  C  C123  1  0.38056159  0.24527622  0.87904852  1.0
  C  C124  1  0.00171869  0.36632940  0.12101766  1.0
  C  C125  1  0.75460920  0.00145447  0.62102288  1.0
  C  C126  1  0.36638629  0.61943988  0.62097564  1.0
  C  C127  1  0.61944138  0.75472124  0.12095214  1.0
  C  C128  1  0.97723240  0.66177905  0.83878827  1.0
  C  C129  1  0.17709370  0.97758675  0.33875830  1.0
  C  C130  1  0.66174617  0.36140909  0.33884365  1.0
  C  C131  1  0.36133808  0.17698795  0.83883148  1.0
  C  C132  1  0.02276526  0.33821852  0.16121138  1.0
  C  C133  1  0.82290467  0.02241389  0.66124108  1.0
  C  C134  1  0.33825747  0.63859405  0.66115819  1.0
  C  C135  1  0.63866159  0.82300966  0.16117043  1.0
  C  C136  1  0.90170007  0.65607557  0.80910882  1.0
  C  C137  1  0.15309537  0.90206415  0.30905214  1.0
  C  C138  1  0.65600878  0.40721064  0.30912236  1.0
  C  C139  1  0.40709930  0.15306138  0.80908174  1.0
  C  C140  1  0.09829751  0.34392490  0.19089094  1.0
  C  C141  1  0.84690493  0.09793474  0.69094717  1.0
  C  C142  1  0.34399509  0.59279114  0.69087869  1.0
  C  C143  1  0.59289932  0.84693520  0.19091914  1.0
  C  C144  1  0.84757798  0.62407524  0.82144832  1.0
  C  C145  1  0.19740715  0.84787212  0.32137164  1.0
  C  C146  1  0.62397807  0.47367248  0.32139569  1.0
  C  C147  1  0.47359167  0.19738087  0.82140238  1.0
  C  C148  1  0.15241930  0.37592451  0.17855184  1.0
  C  C149  1  0.80259276  0.15212902  0.67862878  1.0
  C  C150  1  0.37602768  0.52633035  0.67860420  1.0
  C  C151  1  0.52640750  0.80261746  0.17859637  1.0
  C  C152  1  0.86867061  0.59806329  0.86267163  1.0
  C  C153  1  0.26463433  0.86886671  0.36260759  1.0
  C  C154  1  0.59796213  0.49380555  0.36260931  1.0
  C  C155  1  0.49380534  0.26458655  0.86265575  1.0
  C  C156  1  0.13132712  0.40193629  0.13732781  1.0
  C  C157  1  0.73536658  0.13113578  0.63739251  1.0
  C  C158  1  0.40204305  0.50619825  0.63739043  1.0
  C  C159  1  0.50619611  0.73541037  0.13734327  1.0
  C  C160  1  0.69092239  0.58158414  0.62882877  1.0
  C  C161  1  0.04716713  0.69088273  0.12886035  1.0
  C  C162  1  0.58156015  0.43775561  0.12879833  1.0
  C  C163  1  0.43801286  0.04727413  0.62885607  1.0
  C  C164  1  0.30907815  0.41841806  0.37117159  1.0
  C  C165  1  0.95282714  0.30911583  0.87113534  1.0
  C  C166  1  0.41844252  0.56224602  0.87120202  1.0
  C  C167  1  0.56198790  0.95272193  0.37114541  1.0
  C  C168  1  0.71112645  0.65885835  0.64736439  1.0
  C  C169  1  0.98848500  0.71117055  0.14743857  1.0
  C  C170  1  0.65881598  0.43597539  0.14732839  1.0
  C  C171  1  0.43635818  0.98857256  0.64743140  1.0
  C  C172  1  0.28887304  0.34114286  0.35263555  1.0
  C  C173  1  0.01151155  0.28882883  0.85255957  1.0
  C  C174  1  0.34118621  0.56402430  0.85267169  1.0
  C  C175  1  0.56364174  0.01142365  0.35256912  1.0
  C  C176  1  0.77263309  0.69238271  0.69168763  1.0
  C  C177  1  0.99930945  0.77270890  0.19173910  1.0
  C  C178  1  0.69235213  0.41885738  0.19169172  1.0
  C  C179  1  0.41918069  0.99939206  0.69175942  1.0
  C  C180  1  0.22736711  0.30761670  0.30831274  1.0
  C  C181  1  0.00068973  0.22728943  0.80825965  1.0
  C  C182  1  0.30765113  0.58114329  0.80830879  1.0
  C  C183  1  0.58082161  0.00060445  0.30824249  1.0
  C  C184  1  0.81406147  0.64942435  0.71924271  1.0
  C  C185  1  0.06980433  0.81419167  0.21924769  1.0
  C  C186  1  0.64942268  0.40501115  0.21925826  1.0
  C  C187  1  0.40517012  0.06985125  0.71925674  1.0
  C  C188  1  0.18593923  0.35057452  0.28075768  1.0
  C  C189  1  0.93019477  0.18580707  0.78075092  1.0
  C  C190  1  0.35058112  0.59499105  0.78074265  1.0
  C  C191  1  0.59483120  0.93014630  0.28074454  1.0
  C  C192  1  0.79404405  0.57206716  0.70068702  1.0
  C  C193  1  0.12856163  0.79404600  0.20067134  1.0
  C  C194  1  0.57208133  0.40655122  0.20069309  1.0
  C  C195  1  0.40668926  0.12863078  0.70068303  1.0
  C  C196  1  0.20595503  0.42793168  0.29931280  1.0
  C  C197  1  0.87143584  0.20595055  0.79932511  1.0
  C  C198  1  0.42792290  0.59345086  0.79930770  1.0
  C  C199  1  0.59331155  0.87136487  0.29931858  1.0
  C  C200  1  0.73343308  0.53836808  0.65551891  1.0
  C  C201  1  0.11706684  0.73335964  0.15553713  1.0
  C  C202  1  0.53837365  0.42202428  0.15552601  1.0
  C  C203  1  0.42218974  0.11717258  0.65553679  1.0
  C  C204  1  0.26656564  0.46163291  0.34448081  1.0
  C  C205  1  0.88292773  0.26663720  0.84445851  1.0
  C  C206  1  0.46162919  0.57797646  0.84447402  1.0
  C  C207  1  0.57781335  0.88282410  0.34446474  1.0
  C  C208  1  0.88043161  0.68741692  0.76646154  1.0
  C  C209  1  0.07907483  0.88070562  0.26641051  1.0
  C  C210  1  0.68737466  0.38585064  0.26649462  1.0
  C  C211  1  0.38573474  0.07910810  0.76639187  1.0
  C  C212  1  0.11956824  0.31258215  0.23353849  1.0
  C  C213  1  0.92092392  0.11929283  0.73358837  1.0
  C  C214  1  0.31262713  0.61414906  0.73350438  1.0
  C  C215  1  0.61426431  0.92088835  0.23360889  1.0
  C  C216  1  0.76058894  0.46846905  0.94044407  1.0
  C  C217  1  0.47191574  0.76059200  0.44043767  1.0
  C  C218  1  0.46835990  0.67982745  0.44045347  1.0
  C  C219  1  0.67982525  0.47203721  0.94045685  1.0
  C  C220  1  0.23940919  0.53153051  0.05955644  1.0
  C  C221  1  0.52808404  0.23940749  0.55956222  1.0
  C  C222  1  0.53163974  0.32017287  0.55954614  1.0
  C  C223  1  0.32017388  0.52796126  0.05954370  1.0
  C  C224  1  0.80341362  0.57235194  0.02129735  1.0
  C  C225  1  0.44889088  0.80343715  0.52127713  1.0
  C  C226  1  0.57227818  0.71784375  0.52129412  1.0
  C  C227  1  0.71786215  0.44893979  0.02129261  1.0
  C  C228  1  0.19658467  0.42764668  0.97870224  1.0
  C  C229  1  0.55110854  0.19656204  0.47872302  1.0
  C  C230  1  0.42772111  0.28215627  0.47870576  1.0
  C  C231  1  0.28213722  0.55106199  0.97870899  1.0
  C  C232  1  0.79864027  0.44613619  0.02168768  1.0
  C  C233  1  0.57549822  0.79862741  0.52166629  1.0
  C  C234  1  0.44607107  0.72304763  0.52168313  1.0
  C  C235  1  0.72303727  0.57557150  0.02171844  1.0
  C  C236  1  0.20135961  0.55386505  0.97831394  1.0
  C  C237  1  0.42450149  0.20137249  0.47833346  1.0
  C  C238  1  0.55392864  0.27695233  0.47831723  1.0
  C  C239  1  0.27696171  0.42442782  0.97828183  1.0
  C  C240  1  0.96624596  0.56992628  0.93385370  1.0
  C  C241  1  0.36394695  0.96641333  0.43386444  1.0
  C  C242  1  0.56982485  0.46750326  0.43382480  1.0
  C  C243  1  0.46745725  0.36393151  0.93388104  1.0
  C  C244  1  0.03374721  0.43007145  0.06614336  1.0
  C  C245  1  0.63605422  0.03359486  0.56613577  1.0
  C  C246  1  0.43017825  0.53251027  0.56617682  1.0
  C  C247  1  0.53255088  0.63606453  0.06611876  1.0
  C  C248  1  0.94411130  0.60169837  0.89125692  1.0
  C  C249  1  0.28960251  0.94431352  0.39123015  1.0
  C  C250  1  0.60155058  0.44697190  0.39121523  1.0
  C  C251  1  0.44697243  0.28956371  0.89127052  1.0
  C  C252  1  0.05588489  0.39830072  0.10874148  1.0
  C  C253  1  0.71039821  0.05569018  0.60876894  1.0
  C  C254  1  0.39845190  0.55303564  0.60878655  1.0
  C  C255  1  0.55303062  0.71043328  0.10872967  1.0
  C  C256  1  0.62389308  0.54592120  0.58110553  1.0
  C  C257  1  0.03502899  0.62383125  0.08111750  1.0
  C  C258  1  0.54591776  0.45715460  0.08108332  1.0
  C  C259  1  0.45734343  0.03517186  0.58113427  1.0
  C  C260  1  0.37610464  0.45408553  0.41889600  1.0
  C  C261  1  0.96496382  0.37616884  0.91887694  1.0
  C  C262  1  0.45408515  0.54284567  0.91891624  1.0
  C  C263  1  0.54265948  0.96482825  0.41886843  1.0
  N  N264  1  0.81429953  0.49453076  0.99454048  1.0
  N  N265  1  0.49995862  0.81430039  0.49451795  1.0
  N  N266  1  0.49445502  0.68022193  0.49454743  1.0
  N  N267  1  0.68022538  0.50003293  0.99454841  1.0
  N  N268  1  0.18569981  0.50546889  0.00546014  1.0
  N  N269  1  0.50004152  0.18569939  0.50548168  1.0
  N  N270  1  0.50554455  0.31977886  0.50545265  1.0
  N  N271  1  0.31977394  0.49996678  0.00545280  1.0
  O  O272  1  0.91664796  0.74351525  0.77021993  1.0
  O  O273  1  0.02671987  0.91690182  0.27014837  1.0
  O  O274  1  0.74348104  0.35339043  0.27029500  1.0
  O  O275  1  0.35308287  0.02679226  0.77006289  1.0
  O  O276  1  0.08335424  0.25648200  0.22978051  1.0
  O  O277  1  0.97327912  0.08309527  0.72984972  1.0
  O  O278  1  0.25651900  0.64660765  0.72970351  1.0
  O  O279  1  0.64691495  0.97320198  0.22993679  1.0
  O  O280  1  0.91405978  0.54866835  0.94612065  1.0
  O  O281  1  0.39746580  0.91417945  0.44609010  1.0
  O  O282  1  0.54859808  0.53198759  0.44606838  1.0
  O  O283  1  0.53191910  0.39743914  0.94613635  1.0
  O  O284  1  0.08593117  0.45133063  0.05387435  1.0
  O  O285  1  0.60253887  0.08582515  0.55390769  1.0
  O  O286  1  0.45140651  0.46802675  0.55393293  1.0
  O  O287  1  0.46809169  0.60255325  0.05386260  1.0
  O  O288  1  0.03522374  0.56559326  0.95401041  1.0
  O  O289  1  0.38841516  0.03539227  0.45411510  1.0
  O  O290  1  0.56557201  0.41876593  0.45406162  1.0
  O  O291  1  0.41871044  0.38845115  0.95408858  1.0
  O  O292  1  0.96477023  0.43440443  0.04598881  1.0
  O  O293  1  0.61158246  0.96461493  0.54588688  1.0
  O  O294  1  0.43443030  0.58124965  0.54594257  1.0
  O  O295  1  0.58129907  0.61155359  0.04591153  1.0
  O  O296  1  0.60680745  0.47583696  0.56652285  1.0
  O  O297  1  0.09047392  0.60679211  0.06646918  1.0
  O  O298  1  0.47584436  0.45967778  0.06648718  1.0
  O  O299  1  0.45982596  0.09064934  0.56652432  1.0
  O  O300  1  0.39318775  0.52416766  0.43347989  1.0
  O  O301  1  0.90951449  0.39320991  0.93352440  1.0
  O  O302  1  0.52416094  0.54032058  0.93351160  1.0
  O  O303  1  0.54018445  0.90934974  0.43348012  1.0
  O  O304  1  0.58851018  0.58898607  0.55892247  1.0
  O  O305  1  0.96980267  0.58843853  0.05900043  1.0
  O  O306  1  0.58900959  0.47041408  0.05894753  1.0
  O  O307  1  0.47058760  0.96993274  0.55899625  1.0
  O  O308  1  0.41149033  0.41101866  0.44107874  1.0
  O  O309  1  0.03018524  0.41156158  0.94099348  1.0
  O  O310  1  0.41099689  0.52959156  0.94105403  1.0
  O  O311  1  0.52940993  0.03006322  0.44100348  1.0
