# generated using pymatgen
data_AlH15(C10O3)2
_symmetry_space_group_name_H-M   'P 1'
_cell_length_a   6.63434772
_cell_length_b   24.19965675
_cell_length_c   27.78044700
_cell_angle_alpha   95.59730804
_cell_angle_beta   89.99702300
_cell_angle_gamma   89.99493693
_symmetry_Int_Tables_number   1
_chemical_formula_structural   AlH15(C10O3)2
_chemical_formula_sum   'Al4 H60 C80 O24'
_cell_volume   4438.85529497
_cell_formula_units_Z   4
loop_
 _symmetry_equiv_pos_site_id
 _symmetry_equiv_pos_as_xyz
  1  'x, y, z'
loop_
 _atom_site_type_symbol
 _atom_site_label
 _atom_site_symmetry_multiplicity
 _atom_site_fract_x
 _atom_site_fract_y
 _atom_site_fract_z
 _atom_site_occupancy
  Al  Al0  1  0.22836262  0.24881469  0.24973574  1.0
  Al  Al1  1  0.77157546  0.75115527  0.75017211  1.0
  Al  Al2  1  0.72834506  0.25115450  0.25017057  1.0
  Al  Al3  1  0.27157343  0.74882298  0.74972646  1.0
  H  H4  1  0.71886640  0.67310133  0.87777299  1.0
  H  H5  1  0.28111690  0.32689550  0.12214654  1.0
  H  H6  1  0.21889157  0.82691772  0.62214624  1.0
  H  H7  1  0.78108872  0.17308603  0.37775307  1.0
  H  H8  1  0.72087146  0.60961607  0.94283238  1.0
  H  H9  1  0.27909977  0.39040910  0.05710497  1.0
  H  H10  1  0.22093512  0.89043613  0.55710756  1.0
  H  H11  1  0.77910544  0.10961262  0.44282230  1.0
  H  H12  1  0.31602825  0.61762952  0.83561206  1.0
  H  H13  1  0.68403041  0.38238170  0.16434945  1.0
  H  H14  1  0.81600956  0.88236236  0.66433630  1.0
  H  H15  1  0.18381244  0.11766975  0.33566218  1.0
  H  H16  1  0.32322322  0.54666458  0.98416049  1.0
  H  H17  1  0.67674199  0.45336032  0.01579747  1.0
  H  H18  1  0.82328021  0.95337569  0.51579774  1.0
  H  H19  1  0.17674678  0.04668280  0.48418457  1.0
  H  H20  1  0.30531182  0.48244770  0.04765376  1.0
  H  H21  1  0.69465338  0.51758473  0.95230892  1.0
  H  H22  1  0.80533712  0.01760472  0.45231200  1.0
  H  H23  1  0.19470796  0.98245606  0.54766851  1.0
  H  H24  1  0.68285038  0.45884225  0.42404107  1.0
  H  H25  1  0.31670787  0.54101333  0.57593719  1.0
  H  H26  1  0.18334351  0.04104687  0.07592835  1.0
  H  H27  1  0.81706486  0.95889889  0.92395807  1.0
  H  H28  1  0.67541388  0.38704333  0.35280578  1.0
  H  H29  1  0.32435841  0.61290032  0.64709943  1.0
  H  H30  1  0.17574160  0.11290389  0.14711768  1.0
  H  H31  1  0.82439847  0.88707129  0.85273849  1.0
  H  H32  1  0.29318889  0.34575320  0.37852536  1.0
  H  H33  1  0.70657736  0.65420576  0.62139944  1.0
  H  H34  1  0.79340948  0.15423673  0.12136691  1.0
  H  H35  1  0.20668686  0.84580834  0.87854774  1.0
  H  H36  1  0.30001354  0.41496003  0.45161152  1.0
  H  H37  1  0.69952661  0.58489648  0.54839096  1.0
  H  H38  1  0.80045055  0.08495921  0.04833642  1.0
  H  H39  1  0.19995027  0.91504900  0.95160845  1.0
  H  H40  1  0.28748321  0.49492725  0.83110307  1.0
  H  H41  1  0.16342803  0.47249886  0.88288126  1.0
  H  H42  1  0.49151880  0.44319516  0.91601710  1.0
  H  H43  1  0.45744239  0.41074123  0.85634391  1.0
  H  H44  1  0.62344439  0.46851997  0.86668240  1.0
  H  H45  1  0.83652209  0.52753717  0.11711904  1.0
  H  H46  1  0.71244129  0.50507973  0.16888446  1.0
  H  H47  1  0.37648765  0.53148514  0.13329536  1.0
  H  H48  1  0.54243538  0.58926810  0.14366170  1.0
  H  H49  1  0.50843585  0.55683830  0.08397849  1.0
  H  H50  1  0.78760456  0.00506353  0.66888695  1.0
  H  H51  1  0.66347106  0.02752989  0.61713926  1.0
  H  H52  1  0.99150057  0.05683324  0.58397758  1.0
  H  H53  1  0.95753110  0.08925621  0.64366189  1.0
  H  H54  1  0.12349960  0.03147474  0.63328023  1.0
  H  H55  1  0.33651522  0.97253383  0.38289984  1.0
  H  H56  1  0.21251889  0.99500032  0.33113009  1.0
  H  H57  1  0.87651985  0.96858339  0.36668328  1.0
  H  H58  1  0.04252906  0.91080227  0.35632802  1.0
  H  H59  1  0.00838323  0.94322627  0.41600654  1.0
  H  H60  1  0.47346974  0.31840163  0.23549126  1.0
  H  H61  1  0.52642915  0.68159410  0.76446441  1.0
  H  H62  1  0.97349713  0.18159077  0.26447305  1.0
  H  H63  1  0.02641080  0.81840494  0.73547466  1.0
  C  C64  1  0.48100222  0.17866086  0.18193861  1.0
  C  C65  1  0.51903534  0.82134727  0.81795132  1.0
  C  C66  1  0.98075284  0.32132004  0.31796629  1.0
  C  C67  1  0.01907973  0.67864206  0.68195310  1.0
  C  C68  1  0.47984480  0.18826893  0.31398036  1.0
  C  C69  1  0.52003149  0.81169698  0.68592820  1.0
  C  C70  1  0.98000353  0.31170354  0.18593825  1.0
  C  C71  1  0.01999786  0.68828213  0.81398521  1.0
  C  C72  1  0.84905415  0.64679681  0.88276065  1.0
  C  C73  1  0.15093366  0.35320762  0.11717590  1.0
  C  C74  1  0.34908962  0.85322017  0.61717551  1.0
  C  C75  1  0.65087860  0.14679561  0.38274735  1.0
  C  C76  1  0.85061150  0.61083350  0.91884769  1.0
  C  C77  1  0.14940043  0.38919061  0.08109906  1.0
  C  C78  1  0.35063129  0.88920658  0.58110011  1.0
  C  C79  1  0.64935501  0.11083858  0.41884636  1.0
  C  C80  1  0.01580265  0.57578223  0.92546162  1.0
  C  C81  1  0.98419119  0.42424525  0.07449346  1.0
  C  C82  1  0.51583701  0.92425706  0.57449582  1.0
  C  C83  1  0.48414325  0.07580503  0.42548542  1.0
  C  C84  1  0.18221176  0.57853560  0.89388050  1.0
  C  C85  1  0.81782126  0.42149742  0.10609159  1.0
  C  C86  1  0.68221721  0.92149678  0.60608475  1.0
  C  C87  1  0.31771633  0.07856073  0.39391166  1.0
  C  C88  1  0.18475390  0.61607560  0.85900722  1.0
  C  C89  1  0.81527009  0.38393775  0.14094708  1.0
  C  C90  1  0.68477129  0.88392951  0.64093548  1.0
  C  C91  1  0.31511854  0.11610544  0.35904312  1.0
  C  C92  1  0.01809284  0.65020499  0.85293806  1.0
  C  C93  1  0.98191759  0.34979852  0.14700536  1.0
  C  C94  1  0.51810794  0.84980070  0.64699934  1.0
  C  C95  1  0.48178943  0.15021578  0.35294557  1.0
  C  C96  1  0.18148117  0.52600788  0.99071012  1.0
  C  C97  1  0.81846444  0.47401885  0.00924568  1.0
  C  C98  1  0.68155203  0.97403587  0.50925302  1.0
  C  C99  1  0.31849455  0.02602586  0.49073256  1.0
  C  C100  1  0.17129900  0.48961226  0.02639812  1.0
  C  C101  1  0.82866922  0.51041609  0.97355732  1.0
  C  C102  1  0.67133113  0.01043569  0.47356592  1.0
  C  C103  1  0.32871545  0.98962711  0.52641424  1.0
  C  C104  1  0.98992907  0.46292985  0.03654734  1.0
  C  C105  1  0.01003161  0.53710282  0.96340993  1.0
  C  C106  1  0.48993929  0.03711555  0.46342604  1.0
  C  C107  1  0.51008921  0.96294402  0.53655484  1.0
  C  C108  1  0.81539592  0.43355883  0.41427681  1.0
  C  C109  1  0.18420001  0.56630307  0.58570255  1.0
  C  C110  1  0.31583834  0.06634459  0.08568933  1.0
  C  C111  1  0.68448562  0.93361417  0.91420654  1.0
  C  C112  1  0.81136448  0.39398090  0.37458924  1.0
  C  C113  1  0.18833394  0.60593646  0.62534840  1.0
  C  C114  1  0.31174087  0.10595622  0.12534707  1.0
  C  C115  1  0.68847004  0.89402668  0.87453877  1.0
  C  C116  1  0.98414291  0.36261518  0.36143689  1.0
  C  C117  1  0.01561732  0.63732940  0.63849255  1.0
  C  C118  1  0.48442519  0.13735190  0.13847875  1.0
  C  C119  1  0.51569980  0.86265844  0.86140865  1.0
  C  C120  1  0.16051065  0.37059995  0.38913821  1.0
  C  C121  1  0.83918626  0.62932466  0.61081321  1.0
  C  C122  1  0.66082275  0.12936501  0.11078513  1.0
  C  C123  1  0.33935951  0.87065051  0.88912759  1.0
  C  C124  1  0.16439140  0.40921588  0.42951465  1.0
  C  C125  1  0.83517890  0.59065373  0.57047885  1.0
  C  C126  1  0.66483276  0.09071144  0.07043633  1.0
  C  C127  1  0.33550174  0.90929087  0.92949586  1.0
  C  C128  1  0.99228091  0.44179573  0.44243649  1.0
  C  C129  1  0.00723815  0.55803050  0.55756876  1.0
  C  C130  1  0.49277261  0.05809608  0.05753480  1.0
  C  C131  1  0.50766590  0.94186239  0.94239325  1.0
  C  C132  1  0.99731751  0.48225705  0.48273855  1.0
  C  C133  1  0.00211413  0.51753154  0.51729728  1.0
  C  C134  1  0.49785758  0.01760893  0.01725137  1.0
  C  C135  1  0.50266534  0.98233880  0.98268060  1.0
  C  C136  1  0.30613774  0.48909742  0.86978984  1.0
  C  C137  1  0.48032662  0.45082523  0.87780129  1.0
  C  C138  1  0.69381239  0.51092208  0.13019883  1.0
  C  C139  1  0.51960692  0.54919147  0.12219207  1.0
  C  C140  1  0.80620012  0.01091687  0.63020439  1.0
  C  C141  1  0.98036500  0.04918314  0.62218875  1.0
  C  C142  1  0.19381029  0.98914875  0.36981374  1.0
  C  C143  1  0.01962280  0.95087544  0.37779826  1.0
  O  O144  1  0.64970589  0.20462317  0.29929309  1.0
  O  O145  1  0.35013726  0.79528574  0.70055378  1.0
  O  O146  1  0.14989520  0.29522255  0.20051312  1.0
  O  O147  1  0.85013635  0.70471720  0.79937110  1.0
  O  O148  1  0.30869450  0.19278036  0.19935252  1.0
  O  O149  1  0.69132498  0.80716836  0.80058091  1.0
  O  O150  1  0.80843438  0.30709219  0.30064793  1.0
  O  O151  1  0.19142382  0.69283915  0.69929303  1.0
  O  O152  1  0.30852464  0.20108287  0.29752720  1.0
  O  O153  1  0.69130792  0.79891959  0.70241802  1.0
  O  O154  1  0.80875041  0.29899476  0.20248599  1.0
  O  O155  1  0.19125398  0.70103442  0.79746186  1.0
  O  O156  1  0.15059916  0.30405542  0.30121666  1.0
  O  O157  1  0.84926356  0.69595863  0.69866678  1.0
  O  O158  1  0.65082121  0.19605333  0.19858409  1.0
  O  O159  1  0.34918922  0.80401645  0.80126017  1.0
  O  O160  1  0.47671045  0.28376454  0.25025277  1.0
  O  O161  1  0.52320050  0.71621435  0.74967681  1.0
  O  O162  1  0.97671976  0.21620304  0.24967345  1.0
  O  O163  1  0.02320928  0.78376945  0.75023874  1.0
  O  O164  1  0.34492143  0.54281469  0.89600808  1.0
  O  O165  1  0.65506035  0.45721435  0.10396544  1.0
  O  O166  1  0.84495024  0.95721325  0.60396396  1.0
  O  O167  1  0.15497878  0.04285007  0.39605200  1.0
