# generated using pymatgen
data_Zn4H19C33N3O13
_symmetry_space_group_name_H-M   'P 1'
_cell_length_a   13.04270022
_cell_length_b   13.15667328
_cell_length_c   19.73333807
_cell_angle_alpha   79.53711227
_cell_angle_beta   79.35473994
_cell_angle_gamma   88.48813716
_symmetry_Int_Tables_number   1
_chemical_formula_structural   Zn4H19C33N3O13
_chemical_formula_sum   'Zn4 H19 C33 N3 O13'
_cell_volume   3272.51019284
_cell_formula_units_Z   1
loop_
 _symmetry_equiv_pos_site_id
 _symmetry_equiv_pos_as_xyz
  1  'x, y, z'
loop_
 _atom_site_type_symbol
 _atom_site_label
 _atom_site_symmetry_multiplicity
 _atom_site_fract_x
 _atom_site_fract_y
 _atom_site_fract_z
 _atom_site_occupancy
  Zn  Zn0  1  0.58943417  0.57264942  0.54326496  1.0
  Zn  Zn1  1  0.57516236  0.40608018  0.44042929  1.0
  Zn  Zn2  1  0.43207703  0.59939112  0.43662009  1.0
  Zn  Zn3  1  0.39747958  0.42097902  0.57843274  1.0
  H  H4  1  0.37954001  0.64405308  0.11058123  1.0
  H  H5  1  0.40312063  0.64118394  0.23277008  1.0
  H  H6  1  0.52586176  0.29263028  0.90804531  1.0
  H  H7  1  0.53665915  0.35050985  0.11261142  1.0
  H  H8  1  0.54435618  0.38239548  0.00557628  1.0
  H  H9  1  0.47941430  0.62143941  0.88930730  1.0
  H  H10  1  0.38074675  0.74275454  0.83001203  1.0
  H  H11  1  0.51588865  0.77318966  0.81443575  1.0
  H  H12  1  0.43835308  0.82824274  0.75278433  1.0
  H  H13  1  0.54605473  0.68486133  0.70922082  1.0
  H  H14  1  0.41245179  0.66025816  0.72007652  1.0
  H  H15  1  0.54043859  0.09127759  0.45951794  1.0
  H  H16  1  0.49942978  0.89751121  0.57902686  1.0
  H  H17  1  0.44233009  0.07734900  0.61595900  1.0
  H  H18  1  0.53419887  0.92896769  0.41728541  1.0
  H  H19  1  0.90371574  0.55536916  0.53032409  1.0
  H  H20  1  0.10481644  0.50641092  0.42841477  1.0
  H  H21  1  0.06661193  0.55331794  0.57922610  1.0
  H  H22  1  0.55954823  0.34964940  0.23422862  1.0
  C  C23  1  0.47580381  0.22395538  0.54195904  1.0
  C  C24  1  0.49818058  0.44588843  0.98319823  1.0
  C  C25  1  0.44703559  0.50659954  0.02772703  1.0
  C  C26  1  0.52098447  0.77408975  0.48034411  1.0
  C  C27  1  0.48365545  0.49595118  0.24089555  1.0
  C  C28  1  0.52641890  0.88767218  0.47125460  1.0
  C  C29  1  0.51280505  0.94008979  0.52511630  1.0
  C  C30  1  0.47613623  0.11004607  0.56181936  1.0
  C  C31  1  0.51184186  0.05129345  0.51309680  1.0
  C  C32  1  0.10977830  0.54160123  0.52828175  1.0
  C  C33  1  0.05969800  0.52389628  0.47733078  1.0
  C  C34  1  0.49897126  0.45603796  0.90835252  1.0
  C  C35  1  0.89111976  0.48476146  0.44538445  1.0
  C  C36  1  0.94811590  0.52338178  0.48653865  1.0
  C  C37  1  0.77442426  0.48893972  0.46096631  1.0
  C  C38  1  0.22495908  0.53458050  0.52117414  1.0
  C  C39  1  0.49694977  0.49712703  0.31415419  1.0
  C  C40  1  0.49970145  0.48136178  0.68717133  1.0
  C  C41  1  0.50049568  0.47355204  0.76390668  1.0
  C  C42  1  0.48843930  0.56327249  0.79409552  1.0
  C  C43  1  0.48753118  0.55243677  0.86578032  1.0
  C  C44  1  0.47516547  0.66768411  0.74955680  1.0
  C  C45  1  0.51466077  0.36805839  0.87691522  1.0
  C  C46  1  0.45109367  0.75741006  0.78919752  1.0
  C  C47  1  0.93930896  0.43473579  0.38961761  1.0
  C  C48  1  0.37732135  0.58516427  0.00364265  1.0
  C  C49  1  0.52816590  0.28623841  0.77360819  1.0
  C  C50  1  0.51364819  0.37639356  0.80521302  1.0
  C  C51  1  0.50780228  0.41539515  0.13792811  1.0
  C  C52  1  0.52068959  0.41407345  0.20645399  1.0
  C  C53  1  0.43228639  0.57819734  0.20574703  1.0
  C  C54  1  0.41922045  0.57931572  0.13741671  1.0
  C  C55  1  0.45772229  0.49872456  0.10183174  1.0
  N  N56  1  0.98141568  0.39368051  0.34443429  1.0
  N  N57  1  0.31816029  0.64883511  0.98676543  1.0
  N  N58  1  0.54090638  0.21286071  0.74751500  1.0
  O  O59  1  0.49829446  0.49782204  0.50054674  1.0
  O  O60  1  0.54287033  0.42062239  0.34560231  1.0
  O  O61  1  0.42108110  0.44274959  0.67135249  1.0
  O  O62  1  0.46094302  0.57586645  0.34005199  1.0
  O  O63  1  0.57773586  0.52712454  0.64529271  1.0
  O  O64  1  0.73527076  0.54837604  0.50326547  1.0
  O  O65  1  0.25776165  0.48026519  0.57327321  1.0
  O  O66  1  0.53851039  0.26404639  0.48633180  1.0
  O  O67  1  0.48424687  0.73910134  0.43315137  1.0
  O  O68  1  0.41151560  0.27214915  0.58209373  1.0
  O  O69  1  0.55232549  0.72004507  0.53333751  1.0
  O  O70  1  0.72618800  0.43282320  0.43078811  1.0
  O  O71  1  0.27927175  0.58209748  0.46442600  1.0
