# generated using pymatgen
data_Zr3H18(C15O8)2
_symmetry_space_group_name_H-M   'P 1'
_cell_length_a   17.40787205
_cell_length_b   17.42507687
_cell_length_c   18.43256103
_cell_angle_alpha   89.84145462
_cell_angle_beta   89.82189425
_cell_angle_gamma   109.52842516
_symmetry_Int_Tables_number   1
_chemical_formula_structural   Zr3H18(C15O8)2
_chemical_formula_sum   'Zr6 H36 C60 O32'
_cell_volume   5269.51472641
_cell_formula_units_Z   2
loop_
 _symmetry_equiv_pos_site_id
 _symmetry_equiv_pos_as_xyz
  1  'x, y, z'
loop_
 _atom_site_type_symbol
 _atom_site_label
 _atom_site_symmetry_multiplicity
 _atom_site_fract_x
 _atom_site_fract_y
 _atom_site_fract_z
 _atom_site_occupancy
  Zr  Zr0  1  0.88297326  0.89549473  0.09065335  1.0
  Zr  Zr1  1  0.89382960  0.90788750  0.89702883  1.0
  Zr  Zr2  1  0.05876784  0.07289638  0.10181531  1.0
  Zr  Zr3  1  0.07145463  0.08297200  0.90887452  1.0
  Zr  Zr4  1  0.06488019  0.90222461  0.99992114  1.0
  Zr  Zr5  1  0.88849566  0.07740011  0.99959677  1.0
  H  H6  1  0.76675538  0.91537831  0.99396984  1.0
  H  H7  1  0.05300642  0.92835533  0.84654107  1.0
  H  H8  1  0.05059368  0.19936983  0.00469026  1.0
  H  H9  1  0.04154300  0.91720248  0.15306318  1.0
  H  H10  1  0.92680431  0.88750042  0.75533194  1.0
  H  H11  1  0.99310016  0.00709984  0.78059083  1.0
  H  H12  1  0.22216664  0.18781866  0.91561892  1.0
  H  H13  1  0.17806271  0.18796792  0.01859903  1.0
  H  H14  1  0.02437659  0.08745715  0.24006982  1.0
  H  H15  1  0.95806428  0.97124749  0.21888232  1.0
  H  H16  1  0.78191806  0.74265489  0.08194972  1.0
  H  H17  1  0.78056438  0.78752263  0.98066056  1.0
  H  H18  1  0.21786934  0.16848585  0.09423217  1.0
  H  H19  1  0.91467761  0.87373969  0.23893348  1.0
  H  H20  1  0.79826765  0.74779448  0.90381286  1.0
  H  H21  1  0.03028134  0.10594660  0.77000267  1.0
  H  H22  1  0.60111671  0.99230669  0.33247219  1.0
  H  H23  1  0.35225235  0.98941702  0.33113360  1.0
  H  H24  1  0.47859313  0.99030445  0.12934649  1.0
  H  H25  1  0.60285860  0.99567313  0.66408650  1.0
  H  H26  1  0.35384531  0.99227944  0.66933235  1.0
  H  H27  1  0.48375535  0.99722979  0.86907099  1.0
  H  H28  1  0.97007083  0.48272794  0.13039333  1.0
  H  H29  1  0.96754116  0.61013193  0.33026281  1.0
  H  H30  1  0.97167601  0.36403207  0.33558575  1.0
  H  H31  1  0.97541189  0.48788155  0.86968766  1.0
  H  H32  1  0.97050653  0.61269104  0.66824805  1.0
  H  H33  1  0.97180812  0.36557067  0.66612529  1.0
  H  H34  1  0.89079374  0.36390525  0.56797893  1.0
  H  H35  1  0.04807226  0.61447925  0.56567095  1.0
  H  H36  1  0.04766083  0.61371224  0.43203175  1.0
  H  H37  1  0.89042797  0.36313932  0.43440692  1.0
  H  H38  1  0.55327448  0.91724272  0.56631841  1.0
  H  H39  1  0.39979538  0.06682204  0.56560569  1.0
  H  H40  1  0.39934340  0.06571552  0.43223234  1.0
  H  H41  1  0.55282045  0.91614400  0.43303185  1.0
  C  C42  1  0.97110961  0.75808105  0.11546376  1.0
  C  C43  1  0.75941589  0.99905193  0.87266579  1.0
  C  C44  1  0.98003668  0.76532236  0.87910101  1.0
  C  C45  1  0.75280930  0.99108860  0.11992479  1.0
  C  C46  1  0.96777126  0.20673954  0.12791326  1.0
  C  C47  1  0.20965212  0.99614366  0.88632963  1.0
  C  C48  1  0.97390678  0.21332023  0.87782781  1.0
  C  C49  1  0.20223334  0.98809309  0.11942877  1.0
  C  C50  1  0.54745468  0.99073168  0.22716400  1.0
  C  C51  1  0.54611961  0.99064259  0.30350923  1.0
  C  C52  1  0.47654408  0.99075629  0.34196820  1.0
  C  C53  1  0.40768372  0.99080549  0.30271880  1.0
  C  C54  1  0.40783831  0.99039339  0.22632152  1.0
  C  C55  1  0.47799262  0.99043647  0.18841090  1.0
  C  C56  1  0.55111964  0.99616990  0.77027381  1.0
  C  C57  1  0.54837737  0.99452728  0.69397931  1.0
  C  C58  1  0.47807145  0.99364414  0.65660596  1.0
  C  C59  1  0.40980663  0.99433763  0.69689990  1.0
  C  C60  1  0.41134663  0.99539513  0.77330202  1.0
  C  C61  1  0.48223734  0.99634219  0.81006394  1.0
  C  C62  1  0.96940130  0.41498046  0.22929378  1.0
  C  C63  1  0.96993051  0.48399075  0.18941898  1.0
  C  C64  1  0.97027172  0.55466292  0.22616541  1.0
  C  C65  1  0.96943581  0.55559718  0.30257234  1.0
  C  C66  1  0.96944391  0.48724968  0.34288634  1.0
  C  C67  1  0.96983592  0.41738384  0.30561830  1.0
  C  C68  1  0.97202110  0.41833268  0.77171720  1.0
  C  C69  1  0.97408116  0.48820195  0.81064275  1.0
  C  C70  1  0.97457321  0.55853225  0.77290745  1.0
  C  C71  1  0.97224120  0.55829619  0.69654079  1.0
  C  C72  1  0.97077269  0.48909894  0.65719064  1.0
  C  C73  1  0.97100299  0.41952405  0.69539995  1.0
  C  C74  1  0.92626362  0.41865542  0.53839605  1.0
  C  C75  1  0.96952848  0.48924302  0.57699571  1.0
  C  C76  1  0.01217113  0.55950893  0.53710547  1.0
  C  C77  1  0.01193058  0.55908141  0.46161924  1.0
  C  C78  1  0.96905235  0.48836544  0.42306655  1.0
  C  C79  1  0.92605294  0.41822191  0.46295807  1.0
  C  C80  1  0.52021781  0.95095441  0.53721670  1.0
  C  C81  1  0.47664911  0.99221555  0.57638374  1.0
  C  C82  1  0.43250457  0.03249359  0.53684538  1.0
  C  C83  1  0.43224950  0.03185685  0.46134483  1.0
  C  C84  1  0.47610595  0.99091383  0.42219815  1.0
  C  C85  1  0.51995830  0.95032470  0.46177040  1.0
  C  C86  1  0.34147347  0.99545120  0.81320958  1.0
  C  C87  1  0.28175859  0.99586641  0.84762131  1.0
  C  C88  1  0.62363014  0.99797220  0.80622336  1.0
  C  C89  1  0.68649154  0.99932495  0.83582588  1.0
  C  C90  1  0.33698392  0.98961336  0.18800824  1.0
  C  C91  1  0.27576757  0.98906358  0.15585950  1.0
  C  C92  1  0.68083869  0.99184544  0.15851284  1.0
  C  C93  1  0.61901973  0.99140512  0.18981318  1.0
  C  C94  1  0.97246370  0.28504608  0.83938640  1.0
  C  C95  1  0.97216182  0.34690229  0.80869400  1.0
  C  C96  1  0.97671709  0.62972545  0.81125319  1.0
  C  C97  1  0.97873415  0.69147157  0.84317997  1.0
  C  C98  1  0.96806667  0.27985832  0.16454778  1.0
  C  C99  1  0.96892874  0.34281898  0.19358428  1.0
  C  C100  1  0.97052353  0.62481582  0.18668224  1.0
  C  C101  1  0.97089899  0.68541049  0.15335274  1.0
  O  O102  1  0.91336215  0.78532026  0.13197515  1.0
  O  O103  1  0.02849864  0.78895762  0.07021280  1.0
  O  O104  1  0.78866046  0.94401538  0.85457005  1.0
  O  O105  1  0.78717169  0.05378021  0.92100024  1.0
  O  O106  1  0.92354004  0.79358109  0.86146098  1.0
  O  O107  1  0.03730199  0.79613321  0.92411313  1.0
  O  O108  1  0.78060230  0.93438267  0.13580217  1.0
  O  O109  1  0.78113080  0.04723543  0.07244079  1.0
  O  O110  1  0.78211645  0.79326451  0.05947703  1.0
  O  O111  1  0.90535502  0.91839001  0.21290236  1.0
  O  O112  1  0.78608050  0.79447992  0.92306950  1.0
  O  O113  1  0.92117065  0.93115521  0.78514013  1.0
  O  O114  1  0.94122367  0.87979816  0.99577469  1.0
  O  O115  1  0.82591734  0.93664561  0.99466168  1.0
  O  O116  1  0.02136806  0.17571613  0.14774346  1.0
  O  O117  1  0.91469335  0.18045284  0.07838594  1.0
  O  O118  1  0.18369206  0.05500899  0.87204519  1.0
  O  O119  1  0.17788660  0.93743677  0.93036124  1.0
  O  O120  1  0.02873672  0.18348834  0.85907615  1.0
  O  O121  1  0.92079501  0.18704576  0.92784472  1.0
  O  O122  1  0.17527878  0.04598580  0.13447875  1.0
  O  O123  1  0.17021046  0.92904826  0.07620463  1.0
  O  O124  1  0.17164944  0.18227902  0.07578131  1.0
  O  O125  1  0.03211402  0.04250113  0.21333920  1.0
  O  O126  1  0.17127304  0.18662695  0.93833731  1.0
  O  O127  1  0.04494694  0.05974175  0.78730418  1.0
  O  O128  1  0.02953109  0.14024339  0.00451908  1.0
  O  O129  1  0.08670955  0.02551112  0.00359649  1.0
  O  O130  1  0.93577483  0.02252668  0.07894131  1.0
  O  O131  1  0.03265523  0.94610879  0.89017097  1.0
  O  O132  1  0.02189776  0.93600254  0.10960947  1.0
  O  O133  1  0.94333222  0.03016423  0.91971469  1.0
