# generated using pymatgen
data_Zn4H43C68IN16
_symmetry_space_group_name_H-M   'P 1'
_cell_length_a   17.00746121
_cell_length_b   17.01121856
_cell_length_c   18.76207359
_cell_angle_alpha   115.75409366
_cell_angle_beta   106.08363745
_cell_angle_gamma   102.36679758
_symmetry_Int_Tables_number   1
_chemical_formula_structural   Zn4H43C68IN16
_chemical_formula_sum   'Zn4 H43 C68 I1 N16'
_cell_volume   4332.43598060
_cell_formula_units_Z   1
loop_
 _symmetry_equiv_pos_site_id
 _symmetry_equiv_pos_as_xyz
  1  'x, y, z'
loop_
 _atom_site_type_symbol
 _atom_site_label
 _atom_site_symmetry_multiplicity
 _atom_site_fract_x
 _atom_site_fract_y
 _atom_site_fract_z
 _atom_site_occupancy
  Zn  Zn0  1  0.39324797  0.89888794  0.99349519  1.0
  Zn  Zn1  1  0.60997376  0.11350340  0.99937670  1.0
  Zn  Zn2  1  0.49890371  0.12849253  0.11645592  1.0
  Zn  Zn3  1  0.51717552  0.88271907  0.88522363  1.0
  H  H4  1  0.21643478  0.88574122  0.86179690  1.0
  H  H5  1  0.25217278  0.54827081  0.58469370  1.0
  H  H6  1  0.16441743  0.49936890  0.76161902  1.0
  H  H7  1  0.48049090  0.16130150  0.87626948  1.0
  H  H8  1  0.04216129  0.35164870  0.63716347  1.0
  H  H9  1  0.90979867  0.30713018  0.53110156  1.0
  H  H10  1  0.77016177  0.20685729  0.40008886  1.0
  H  H11  1  0.91568409  0.14614751  0.24107528  1.0
  H  H12  1  0.05558680  0.24519653  0.37289762  1.0
  H  H13  1  0.38133759  0.17399906  0.62226606  1.0
  H  H14  1  0.41279138  0.16722033  0.75455240  1.0
  H  H15  1  0.78922756  0.11613395  0.12227057  1.0
  H  H16  1  0.29336034  0.86230325  0.59655014  1.0
  H  H17  1  0.26462217  0.86960282  0.46464981  1.0
  H  H18  1  0.20625388  0.90292745  0.35895014  1.0
  H  H19  1  0.53829884  0.36405185  0.21005930  1.0
  H  H20  1  0.22710392  0.90031387  0.23317280  1.0
  H  H21  1  0.47148056  0.14539124  0.40838117  1.0
  H  H22  1  0.45042089  0.14844050  0.53352796  1.0
  H  H23  1  0.49219597  0.46125112  0.16225715  1.0
  H  H24  1  0.79131459  0.67656156  0.12800234  1.0
  H  H25  1  0.47643562  0.60448296  0.16812925  1.0
  H  H26  1  0.45446844  0.16854561  0.28827350  1.0
  H  H27  1  0.75607537  0.79650034  0.10146216  1.0
  H  H28  1  0.51522065  0.72547100  0.13444361  1.0
  H  H29  1  0.91642821  0.13776945  0.94543674  1.0
  H  H30  1  0.39349877  0.65941870  0.71395791  1.0
  H  H31  1  0.78202000  0.83857583  0.75374085  1.0
  H  H32  1  0.07544584  0.21856053  0.98681486  1.0
  H  H33  1  0.92149676  0.83142184  0.74250133  1.0
  H  H34  1  0.21898431  0.20555594  0.99752923  1.0
  H  H35  1  0.08553992  0.90606093  0.80635643  1.0
  H  H36  1  0.66566525  0.33090507  0.03450819  1.0
  H  H37  1  0.67074307  0.83766898  0.80796785  1.0
  H  H38  1  0.22802224  0.68376101  0.85452916  1.0
  H  H39  1  0.36068482  0.85447973  0.71979059  1.0
  H  H40  1  0.35428650  0.19081659  0.02541975  1.0
  H  H41  1  0.50083751  0.86291282  0.13651575  1.0
  H  H42  1  0.78445521  0.14389925  0.95254974  1.0
  H  H43  1  0.30873590  0.86526951  0.12817603  1.0
  H  H44  1  0.66430411  0.83130210  0.99290307  1.0
  H  H45  1  0.63768210  0.12938925  0.27610349  1.0
  H  H46  1  0.13031254  0.40126957  0.46064382  1.0
  C  C47  1  0.26268772  0.95885582  0.90694917  1.0
  C  C48  1  0.34761953  0.93942591  0.15603173  1.0
  C  C49  1  0.61798583  0.84618017  0.02174734  1.0
  C  C50  1  0.45875966  0.08547944  0.84891656  1.0
  C  C51  1  0.66306060  0.12326052  0.22761622  1.0
  C  C52  1  0.60061785  0.82697727  0.08291390  1.0
  C  C53  1  0.74904420  0.13343919  0.23205395  1.0
  C  C54  1  0.37067554  0.01794833  0.23852037  1.0
  C  C55  1  0.76090298  0.98987752  0.86981964  1.0
  C  C56  1  0.13846536  0.42098165  0.52662473  1.0
  C  C57  1  0.20727128  0.50441578  0.59681837  1.0
  C  C58  1  0.39808893  0.00963007  0.76449206  1.0
  C  C59  1  0.21632702  0.53669594  0.68267226  1.0
  C  C60  1  0.15660906  0.47846413  0.69542310  1.0
  C  C61  1  0.08761184  0.39489020  0.62500370  1.0
  C  C62  1  0.56670570  0.34036775  0.16316400  1.0
  C  C63  1  0.07508875  0.36562751  0.53861853  1.0
  C  C64  1  0.91182232  0.27042596  0.46776079  1.0
  C  C65  1  0.83249594  0.21384977  0.39320606  1.0
  C  C66  1  0.83118554  0.17230990  0.30935702  1.0
  C  C67  1  0.91357623  0.18128401  0.30456802  1.0
  C  C68  1  0.99295446  0.23783080  0.37922612  1.0
  C  C69  1  0.61002008  0.39080221  0.13292379  1.0
  C  C70  1  0.99402546  0.28804482  0.46233933  1.0
  C  C71  1  0.36274464  0.10517279  0.61626181  1.0
  C  C72  1  0.37990461  0.10119287  0.69118948  1.0
  C  C73  1  0.36019536  0.01399405  0.68676811  1.0
  C  C74  1  0.36303734  0.68079795  0.75928894  1.0
  C  C75  1  0.31279031  0.93138782  0.60316296  1.0
  C  C76  1  0.29576976  0.93540407  0.52814714  1.0
  C  C77  1  0.32487847  0.02222742  0.53306365  1.0
  C  C78  1  0.26492714  0.95626864  0.37031269  1.0
  C  C79  1  0.27679380  0.95456923  0.29916821  1.0
  C  C80  1  0.28280117  0.62973254  0.75427789  1.0
  C  C81  1  0.35167909  0.02181495  0.31099385  1.0
  C  C82  1  0.41188829  0.09327257  0.39706359  1.0
  C  C83  1  0.39980497  0.09517704  0.46783980  1.0
  C  C84  1  0.32713024  0.02550205  0.45637185  1.0
  C  C85  1  0.61572248  0.48428248  0.14815194  1.0
  C  C86  1  0.63267671  0.32397967  0.07456995  1.0
  C  C87  1  0.63112060  0.76880973  0.11382584  1.0
  C  C88  1  0.73067581  0.68708431  0.12956012  1.0
  C  C89  1  0.71061645  0.75436808  0.11447661  1.0
  C  C90  1  0.57714315  0.71708560  0.13484575  1.0
  C  C91  1  0.53364521  0.86083312  0.09398135  1.0
  C  C92  1  0.59474272  0.64638199  0.14878973  1.0
  C  C93  1  0.67215091  0.62762804  0.14338200  1.0
  C  C94  1  0.68178480  0.54782849  0.14680317  1.0
  C  C95  1  0.54301854  0.50935139  0.15907478  1.0
  C  C96  1  0.53356754  0.58822350  0.16126919  1.0
  C  C97  1  0.83972594  0.98880879  0.85312177  1.0
  C  C98  1  0.27940682  0.69260370  0.83156690  1.0
  C  C99  1  0.16316500  0.05326491  0.90530568  1.0
  C  C100  1  0.07778683  0.15007757  0.94739720  1.0
  C  C101  1  0.15790238  0.14257209  0.95294255  1.0
  C  C102  1  0.74017125  0.11576302  0.14898119  1.0
  C  C103  1  0.08415906  0.97506107  0.84580162  1.0
  C  C104  1  0.00083111  0.98000328  0.83975164  1.0
  C  C105  1  0.99726403  0.06858994  0.89449501  1.0
  C  C106  1  0.91630212  0.07054946  0.89945609  1.0
  C  C107  1  0.84244984  0.90271298  0.79352352  1.0
  C  C108  1  0.92022071  0.89858238  0.78679302  1.0
  C  C109  1  0.39775999  0.92909041  0.76917618  1.0
  C  C110  1  0.33271029  0.11430438  0.99080790  1.0
  C  C111  1  0.24842259  0.04328193  0.92831992  1.0
  C  C112  1  0.42312038  0.09371504  0.23817774  1.0
  C  C113  1  0.68668893  0.91311494  0.84645679  1.0
  C  C114  1  0.74498761  0.06901826  0.92063585  1.0
  I  I115  1  0.80231615  0.52883613  0.15206873  1.0
  N  N116  1  0.34773706  0.97890748  0.95438120  1.0
  N  N117  1  0.56455925  0.25170199  0.12640644  1.0
  N  N118  1  0.40390084  0.76642261  0.83339013  1.0
  N  N119  1  0.60558467  0.24173810  0.07112051  1.0
  N  N120  1  0.35160977  0.77413618  0.87831731  1.0
  N  N121  1  0.45501803  0.95587704  0.84921085  1.0
  N  N122  1  0.39093207  0.07456153  0.00593883  1.0
  N  N123  1  0.51232544  0.89529062  0.04216438  1.0
  N  N124  1  0.65634864  0.09858557  0.10078707  1.0
  N  N125  1  0.43032686  0.06275202  0.16201030  1.0
  N  N126  1  0.63173407  0.94432128  0.88073582  1.0
  N  N127  1  0.66823485  0.04151800  0.92677091  1.0
  N  N128  1  0.38365282  0.96654125  0.11072902  1.0
  N  N129  1  0.56389499  0.88607105  0.99749552  1.0
  N  N130  1  0.60902563  0.10323998  0.14906537  1.0
  N  N131  1  0.49239210  0.05186307  0.89805523  1.0
