# generated using pymatgen
data_ZnH22C39NO4
_symmetry_space_group_name_H-M   'P 1'
_cell_length_a   15.32343214
_cell_length_b   15.37197036
_cell_length_c   23.60514734
_cell_angle_alpha   71.02545428
_cell_angle_beta   86.58155239
_cell_angle_gamma   89.99645360
_symmetry_Int_Tables_number   1
_chemical_formula_structural   ZnH22C39NO4
_chemical_formula_sum   'Zn4 H88 C156 N4 O16'
_cell_volume   5247.64303820
_cell_formula_units_Z   4
loop_
 _symmetry_equiv_pos_site_id
 _symmetry_equiv_pos_as_xyz
  1  'x, y, z'
loop_
 _atom_site_type_symbol
 _atom_site_label
 _atom_site_symmetry_multiplicity
 _atom_site_fract_x
 _atom_site_fract_y
 _atom_site_fract_z
 _atom_site_occupancy
  Zn  Zn0  1  0.00415202  0.03244086  0.43620934  1.0
  Zn  Zn1  1  0.49580482  0.46862388  0.56385744  1.0
  Zn  Zn2  1  0.99584625  0.96755965  0.56378371  1.0
  Zn  Zn3  1  0.50418966  0.53138426  0.43612655  1.0
  H  H4  1  0.54779837  0.32504474  0.41040270  1.0
  H  H5  1  0.00161463  0.38209450  0.50705543  1.0
  H  H6  1  0.72988551  0.45190764  0.51476006  1.0
  H  H7  1  0.53562128  0.21202161  0.60654982  1.0
  H  H8  1  0.88611360  0.49400343  0.51353155  1.0
  H  H9  1  0.76309395  0.98767635  0.59297304  1.0
  H  H10  1  0.64260324  0.94084871  0.67248643  1.0
  H  H11  1  0.52880500  0.05363675  0.67951596  1.0
  H  H12  1  0.78125965  0.10682815  0.39683836  1.0
  H  H13  1  0.14550276  0.15548235  0.36595217  1.0
  H  H14  1  0.95934551  0.22942236  0.50197277  1.0
  H  H15  1  0.67195194  0.15185624  0.31958426  1.0
  H  H16  1  0.21378957  0.20407123  0.26081827  1.0
  H  H17  1  0.55448967  0.26123132  0.32678095  1.0
  H  H18  1  0.99677432  0.06740983  0.21301671  1.0
  H  H19  1  0.93940761  0.02219937  0.32075305  1.0
  H  H20  1  0.18936700  0.02432819  0.10636500  1.0
  H  H21  1  0.32516338  0.26348466  0.13826470  1.0
  H  H22  1  0.46775208  0.35067854  0.11085642  1.0
  H  H23  1  0.52763594  0.40525795  0.00470658  1.0
  H  H24  1  0.21970477  0.91042059  0.05279443  1.0
  H  H25  1  0.05404605  0.29678441  0.07498097  1.0
  H  H26  1  0.95215071  0.73526518  0.58972220  1.0
  H  H27  1  0.49844054  0.88938784  0.49293526  1.0
  H  H28  1  0.77025929  0.96652153  0.48534664  1.0
  H  H29  1  0.96443583  0.81806809  0.39345778  1.0
  H  H30  1  0.61407098  0.00759529  0.48658995  1.0
  H  H31  1  0.73661348  0.58039429  0.40714762  1.0
  H  H32  1  0.85707587  0.61279003  0.32763221  1.0
  H  H33  1  0.97105131  0.73240682  0.32053458  1.0
  H  H34  1  0.71859704  0.50369927  0.60311803  1.0
  H  H35  1  0.35461207  0.52108462  0.63430564  1.0
  H  H36  1  0.54059639  0.73165812  0.49790853  1.0
  H  H37  1  0.82802909  0.47133967  0.68031064  1.0
  H  H38  1  0.28627959  0.46441556  0.73937733  1.0
  H  H39  1  0.94541351  0.58787946  0.67324214  1.0
  H  H40  1  0.50319706  0.27985391  0.78703861  1.0
  H  H41  1  0.56055873  0.34239635  0.67931824  1.0
  H  H42  1  0.31037658  0.13095956  0.89346980  1.0
  H  H43  1  0.17466012  0.40142166  0.86199894  1.0
  H  H44  1  0.03196411  0.46108062  0.88942780  1.0
  H  H45  1  0.97221380  0.40957490  0.99560720  1.0
  H  H46  1  0.27993982  0.96350975  0.94676183  1.0
  H  H47  1  0.44594567  0.37167310  0.92529042  1.0
  H  H48  1  0.45221870  0.67494678  0.58959613  1.0
  H  H49  1  0.99838246  0.61791081  0.49294006  1.0
  H  H50  1  0.27011351  0.54809700  0.48523210  1.0
  H  H51  1  0.46436280  0.78798642  0.39345114  1.0
  H  H52  1  0.11388215  0.50600191  0.48645848  1.0
  H  H53  1  0.23688918  0.01231655  0.40703027  1.0
  H  H54  1  0.35736564  0.05915250  0.32751106  1.0
  H  H55  1  0.47117649  0.94637339  0.32047788  1.0
  H  H56  1  0.21875282  0.89315985  0.60317241  1.0
  H  H57  1  0.85449405  0.84450634  0.63406163  1.0
  H  H58  1  0.04065728  0.77057185  0.49803582  1.0
  H  H59  1  0.32807088  0.84812767  0.68042016  1.0
  H  H60  1  0.78620334  0.79594907  0.73919543  1.0
  H  H61  1  0.44552470  0.73875678  0.67321574  1.0
  H  H62  1  0.00322058  0.93261326  0.78699041  1.0
  H  H63  1  0.06058996  0.97779554  0.67925476  1.0
  H  H64  1  0.81062874  0.97567573  0.89363041  1.0
  H  H65  1  0.67483830  0.73652202  0.86172862  1.0
  H  H66  1  0.53225292  0.64933019  0.88913888  1.0
  H  H67  1  0.47236312  0.59474875  0.99528515  1.0
  H  H68  1  0.78028442  0.08958268  0.94719926  1.0
  H  H69  1  0.94595301  0.70322086  0.92501742  1.0
  H  H70  1  0.04785151  0.26470151  0.41029048  1.0
  H  H71  1  0.50156308  0.11061960  0.50704850  1.0
  H  H72  1  0.22974476  0.03347133  0.51465753  1.0
  H  H73  1  0.03556733  0.18194328  0.60655272  1.0
  H  H74  1  0.38593396  0.99241211  0.51339801  1.0
  H  H75  1  0.26339741  0.41961372  0.59285140  1.0
  H  H76  1  0.14293782  0.38722692  0.67236483  1.0
  H  H77  1  0.02895408  0.26761834  0.67946913  1.0
  H  H78  1  0.28140010  0.49627643  0.39688661  1.0
  H  H79  1  0.64538634  0.47892136  0.36569135  1.0
  H  H80  1  0.45940588  0.26834653  0.50208011  1.0
  H  H81  1  0.17196338  0.52863193  0.31969039  1.0
  H  H82  1  0.71372279  0.53559248  0.26061949  1.0
  H  H83  1  0.05459045  0.41207694  0.32676923  1.0
  H  H84  1  0.49679996  0.72014937  0.21295222  1.0
  H  H85  1  0.43943831  0.65760759  0.32067373  1.0
  H  H86  1  0.68961263  0.86904439  0.10652460  1.0
  H  H87  1  0.82534602  0.59857881  0.13799762  1.0
  H  H88  1  0.96804086  0.53892674  0.11056694  1.0
  H  H89  1  0.02778662  0.59043314  0.00438928  1.0
  H  H90  1  0.72004613  0.03649560  0.05322986  1.0
  H  H91  1  0.55405214  0.62833634  0.07470206  1.0
  C  C92  1  0.65370870  0.18964749  0.55930321  1.0
  C  C93  1  0.75665643  0.31770462  0.50806306  1.0
  C  C94  1  0.66304222  0.28192832  0.50772709  1.0
  C  C95  1  0.78491758  0.16382378  0.50108040  1.0
  C  C96  1  0.82118784  0.25500236  0.50466428  1.0
  C  C97  1  0.72693685  0.19066324  0.44706059  1.0
  C  C98  1  0.66127273  0.25335470  0.45075419  1.0
  C  C99  1  0.59960397  0.27824736  0.40735309  1.0
  C  C100  1  0.71841664  0.12625768  0.55553942  1.0
  C  C101  1  0.93267940  0.36447219  0.50730735  1.0
  C  C102  1  0.78000455  0.40336126  0.51140705  1.0
  C  C103  1  0.58601220  0.16341056  0.60405038  1.0
  C  C104  1  0.86831519  0.42684998  0.51089682  1.0
  C  C105  1  0.71401374  0.03704602  0.59629517  1.0
  C  C106  1  0.64605357  0.01106250  0.64111233  1.0
  C  C107  1  0.86321412  0.10258073  0.49895869  1.0
  C  C108  1  0.60101360  0.35805295  0.51146726  1.0
  C  C109  1  0.58249355  0.07402955  0.64507677  1.0
  C  C110  1  0.73063465  0.15493903  0.39968064  1.0
  C  C111  1  0.11561861  0.13749031  0.33034665  1.0
  C  C112  1  0.90903448  0.27820554  0.50440417  1.0
  C  C113  1  0.66900355  0.18089363  0.35611148  1.0
  C  C114  1  0.15267131  0.16441402  0.27210610  1.0
  C  C115  1  0.60363706  0.24198288  0.36003859  1.0
  C  C116  1  0.03171846  0.08806331  0.24555676  1.0
  C  C117  1  0.99937258  0.06342909  0.30494897  1.0
  C  C118  1  0.14772696  0.16477539  0.16838858  1.0
  C  C119  1  0.18099099  0.18839529  0.11751416  1.0
  C  C120  1  0.21777366  0.21868939  0.05620199  1.0
  C  C121  1  0.30696544  0.26940672  0.04737758  1.0
  C  C122  1  0.15891008  0.28713715  0.01261642  1.0
  C  C123  1  0.11078542  0.13914706  0.22816231  1.0
  C  C124  1  0.21573445  0.04696074  0.05983939  1.0
  C  C125  1  0.35215434  0.28729787  0.09187362  1.0
  C  C126  1  0.43198762  0.33626809  0.07623078  1.0
  C  C127  1  0.46574953  0.36671487  0.01668696  1.0
  C  C128  1  0.23290053  0.98346437  0.02958323  1.0
  C  C129  1  0.07976164  0.32006623  0.02828761  1.0
  C  C130  1  0.23282146  0.13995715  0.02985025  1.0
  C  C131  1  0.84628618  0.74866640  0.44073138  1.0
  C  C132  1  0.74336853  0.82571702  0.49194954  1.0
  C  C133  1  0.83697484  0.78949848  0.49227792  1.0
  C  C134  1  0.71497427  0.66489184  0.49895821  1.0
  C  C135  1  0.67876187  0.75971443  0.49531588  1.0
  C  C136  1  0.77294525  0.63771704  0.55298709  1.0
  C  C137  1  0.83869305  0.70401103  0.54928388  1.0
  C  C138  1  0.90033271  0.68548396  0.59271133  1.0
  C  C139  1  0.78149890  0.68158504  0.44454115  1.0
  C  C140  1  0.56736724  0.87194268  0.49269819  1.0
  C  C141  1  0.72009100  0.91471159  0.48867600  1.0
  C  C142  1  0.91396567  0.76702347  0.39596156  1.0
  C  C143  1  0.63180539  0.93780153  0.48918700  1.0
  C  C144  1  0.78578147  0.63300282  0.40382497  1.0
  C  C145  1  0.85368678  0.65172359  0.35897545  1.0
  C  C146  1  0.63664962  0.60161478  0.50106958  1.0
  C  C147  1  0.89908142  0.86931867  0.48852703  1.0
  C  C148  1  0.91736010  0.71855437  0.35496039  1.0
  C  C149  1  0.76923049  0.55461518  0.60031595  1.0
  C  C150  1  0.38445658  0.46738250  0.66984750  1.0
  C  C151  1  0.59093889  0.78278498  0.49555923  1.0
  C  C152  1  0.83090443  0.53693378  0.64385201  1.0
  C  C153  1  0.34734858  0.43598553  0.72805924  1.0
  C  C154  1  0.89625875  0.60192541  0.63998080  1.0
  C  C155  1  0.46823813  0.33304312  0.75454499  1.0
  C  C156  1  0.50058733  0.36781320  0.69514553  1.0
  C  C157  1  0.35221916  0.33287069  0.83174820  1.0
  C  C158  1  0.31897423  0.30583182  0.88263470  1.0
  C  C159  1  0.28223965  0.27487932  0.94396184  1.0
  C  C160  1  0.19303707  0.31671908  0.95286576  1.0
  C  C161  1  0.34114887  0.29954641  0.98763511  1.0
  C  C162  1  0.38919655  0.36677264  0.77198392  1.0
  C  C163  1  0.28399086  0.10698523  0.93998988  1.0
  C  C164  1  0.14771972  0.37893094  0.90839700  1.0
  C  C165  1  0.06781224  0.41214710  0.92403560  1.0
  C  C166  1  0.03414203  0.38310924  0.98360012  1.0
  C  C167  1  0.26670672  0.01325233  0.97007149  1.0
  C  C168  1  0.42025868  0.34819885  0.97198768  1.0
  C  C169  1  0.26709333  0.16985186  0.97014778  1.0
  C  C170  1  0.34628374  0.81035367  0.44069757  1.0
  C  C171  1  0.24334122  0.68229585  0.49193638  1.0
  C  C172  1  0.33695806  0.71807354  0.49226857  1.0
  C  C173  1  0.21508131  0.83617039  0.49893429  1.0
  C  C174  1  0.17881102  0.74499045  0.49534943  1.0
  C  C175  1  0.27307681  0.80931996  0.55294732  1.0
  C  C176  1  0.33873515  0.74663474  0.54924630  1.0
  C  C177  1  0.40040709  0.72173797  0.59264601  1.0
  C  C178  1  0.28157782  0.87374408  0.44447048  1.0
  C  C179  1  0.06732026  0.63553104  0.49268974  1.0
  C  C180  1  0.21999313  0.59664130  0.48858772  1.0
  C  C181  1  0.41397522  0.83660022  0.39594944  1.0
  C  C182  1  0.13168251  0.57315397  0.48909638  1.0
  C  C183  1  0.28597679  0.96295648  0.40371007  1.0
  C  C184  1  0.35393043  0.98894141  0.35888864  1.0
  C  C185  1  0.13678583  0.89739680  0.50107807  1.0
  C  C186  1  0.39899340  0.64195856  0.48852229  1.0
  C  C187  1  0.41749455  0.92598331  0.35492047  1.0
  C  C188  1  0.26937700  0.84504214  0.60032566  1.0
  C  C189  1  0.88437973  0.86251009  0.66966210  1.0
  C  C190  1  0.09096703  0.72179005  0.49560419  1.0
  C  C191  1  0.33101268  0.81908823  0.64389195  1.0
  C  C192  1  0.84732149  0.83560149  0.72790480  1.0
  C  C193  1  0.39637588  0.75799901  0.63995988  1.0
  C  C194  1  0.96828086  0.91195222  0.75444964  1.0
  C  C195  1  0.00062378  0.93657065  0.69505618  1.0
  C  C196  1  0.85227176  0.83524359  0.83161458  1.0
  C  C197  1  0.81900404  0.81160447  0.88248766  1.0
  C  C198  1  0.78222273  0.78131314  0.94379792  1.0
  C  C199  1  0.69303358  0.73059721  0.95261854  1.0
  C  C200  1  0.84109034  0.71287018  0.98738275  1.0
  C  C201  1  0.88921267  0.86087260  0.77184327  1.0
  C  C202  1  0.78426059  0.95304044  0.94015747  1.0
  C  C203  1  0.64784806  0.71271155  0.90812080  1.0
  C  C204  1  0.56801798  0.66373790  0.92376380  1.0
  C  C205  1  0.53425147  0.63329043  0.98330879  1.0
  C  C206  1  0.76708866  0.01653888  0.97041090  1.0
  C  C207  1  0.92023739  0.67993768  0.97171021  1.0
  C  C208  1  0.76717824  0.86004673  0.97015136  1.0
  C  C209  1  0.15372196  0.25133329  0.55927797  1.0
  C  C210  1  0.25663153  0.17427099  0.50806258  1.0
  C  C211  1  0.16302399  0.21049365  0.50773339  1.0
  C  C212  1  0.28502522  0.33510314  0.50103977  1.0
  C  C213  1  0.32124083  0.24027637  0.50468835  1.0
  C  C214  1  0.22705401  0.36226623  0.44701588  1.0
  C  C215  1  0.16130359  0.29597081  0.45072586  1.0
  C  C216  1  0.09966181  0.31448963  0.40730106  1.0
  C  C217  1  0.21850664  0.31841678  0.55546023  1.0
  C  C218  1  0.43263696  0.12805918  0.50729604  1.0
  C  C219  1  0.27991237  0.08527990  0.51132890  1.0
  C  C220  1  0.08603945  0.23298861  0.60404532  1.0
  C  C221  1  0.36819947  0.06220033  0.51080847  1.0
  C  C222  1  0.21422490  0.36700795  0.59617324  1.0
  C  C223  1  0.14632822  0.34829405  0.64101970  1.0
  C  C224  1  0.36334925  0.39838511  0.49891383  1.0
  C  C225  1  0.10091799  0.13066790  0.51149220  1.0
  C  C226  1  0.08264324  0.28146667  0.64504257  1.0
  C  C227  1  0.23077257  0.44536329  0.39968279  1.0
  C  C228  1  0.61554317  0.53262555  0.33014730  1.0
  C  C229  1  0.40906462  0.21721410  0.50444027  1.0
  C  C230  1  0.16909390  0.46303713  0.35614808  1.0
  C  C231  1  0.65265245  0.56402045  0.27193680  1.0
  C  C232  1  0.10374473  0.39803994  0.36002787  1.0
  C  C233  1  0.53175618  0.66695604  0.24544470  1.0
  C  C234  1  0.49940838  0.63219006  0.30484621  1.0
  C  C235  1  0.64778682  0.66712150  0.16825264  1.0
  C  C236  1  0.68102844  0.69415903  0.11736274  1.0
  C  C237  1  0.71776062  0.72512183  0.05603524  1.0
  C  C238  1  0.80696663  0.68328963  0.04713214  1.0
  C  C239  1  0.65885339  0.70045613  0.01236117  1.0
  C  C240  1  0.61080434  0.63322717  0.22801002  1.0
  C  C241  1  0.71600224  0.89301663  0.06000734  1.0
  C  C242  1  0.85228398  0.62107778  0.09159878  1.0
  C  C243  1  0.93218805  0.58785545  0.07595949  1.0
  C  C244  1  0.96585701  0.61689606  0.01639487  1.0
  C  C245  1  0.73328374  0.98674886  0.02992386  1.0
  C  C246  1  0.57974557  0.65180508  0.02800738  1.0
  C  C247  1  0.73290507  0.83015342  0.02984978  1.0
  N  N248  1  0.04058685  0.08744706  0.34660647  1.0
  N  N249  1  0.45947144  0.43362183  0.65353517  1.0
  N  N250  1  0.95941466  0.91254854  0.65340019  1.0
  N  N251  1  0.54052563  0.56638349  0.34645862  1.0
  O  O252  1  0.89702558  0.10577771  0.44773086  1.0
  O  O253  1  0.58317484  0.41720592  0.46197579  1.0
  O  O254  1  0.89269900  0.05771403  0.54893911  1.0
  O  O255  1  0.57658672  0.36163950  0.56302032  1.0
  O  O256  1  0.60280766  0.55363670  0.55227054  1.0
  O  O257  1  0.91699435  0.87899658  0.53801217  1.0
  O  O258  1  0.60716920  0.60678742  0.45106190  1.0
  O  O259  1  0.92347544  0.92445626  0.43697535  1.0
  O  O260  1  0.10296227  0.89418685  0.55229513  1.0
  O  O261  1  0.41683235  0.58281596  0.53800608  1.0
  O  O262  1  0.10731853  0.94229380  0.45108426  1.0
  O  O263  1  0.42341570  0.63837414  0.43696008  1.0
  O  O264  1  0.39719518  0.44636667  0.44770563  1.0
  O  O265  1  0.08298523  0.12101204  0.46200283  1.0
  O  O266  1  0.39282393  0.39322077  0.54891493  1.0
  O  O267  1  0.07653746  0.07552003  0.56304039  1.0
