# generated using pymatgen
data_CoH22C32(N2O3)2
_symmetry_space_group_name_H-M   'P 1'
_cell_length_a   16.02983557
_cell_length_b   16.82451552
_cell_length_c   16.82441720
_cell_angle_alpha   87.30603012
_cell_angle_beta   78.92150509
_cell_angle_gamma   78.92155692
_symmetry_Int_Tables_number   1
_chemical_formula_structural   CoH22C32(N2O3)2
_chemical_formula_sum   'Co4 H88 C128 N16 O24'
_cell_volume   4369.67322407
_cell_formula_units_Z   4
loop_
 _symmetry_equiv_pos_site_id
 _symmetry_equiv_pos_as_xyz
  1  'x, y, z'
loop_
 _atom_site_type_symbol
 _atom_site_label
 _atom_site_symmetry_multiplicity
 _atom_site_fract_x
 _atom_site_fract_y
 _atom_site_fract_z
 _atom_site_occupancy
  Co  Co0  1  0.77310747  0.75483477  0.77727055  1.0
  Co  Co1  1  0.72689296  0.22273401  0.24515627  1.0
  Co  Co2  1  0.22689235  0.24516403  0.22273045  1.0
  Co  Co3  1  0.27310650  0.77726661  0.75484412  1.0
  H  H4  1  0.58386599  0.51367709  0.05302017  1.0
  H  H5  1  0.50262375  0.84277579  0.68844746  1.0
  H  H6  1  0.48862944  0.59473280  0.41153010  1.0
  H  H7  1  0.41718236  0.92785883  0.59942127  1.0
  H  H8  1  0.64812472  0.00885907  0.47324321  1.0
  H  H9  1  0.73166461  0.92531381  0.56562487  1.0
  H  H10  1  0.02017370  0.82009172  0.84307614  1.0
  H  H11  1  0.09469947  0.89495867  0.91859019  1.0
  H  H12  1  0.65114218  0.64234009  0.80671477  1.0
  H  H13  1  0.76687064  0.75315183  0.95929467  1.0
  H  H14  1  0.71086855  0.67204798  0.07878387  1.0
  H  H15  1  0.59062340  0.55579574  0.91823364  1.0
  H  H16  1  0.60112221  0.40335151  0.12263616  1.0
  H  H17  1  0.51908747  0.31321892  0.21255956  1.0
  H  H18  1  0.43231041  0.36259031  0.34583707  1.0
  H  H19  1  0.51183987  0.59440802  0.29583702  1.0
  H  H20  1  0.42000153  0.77565650  0.62064380  1.0
  H  H21  1  0.49008538  0.69774178  0.49633690  1.0
  H  H22  1  0.29196940  0.54999188  0.55340396  1.0
  H  H23  1  0.22971110  0.63584199  0.67448418  1.0
  H  H24  1  0.85097900  0.04970994  0.01554604  1.0
  H  H25  1  0.77759355  0.97290509  0.93727167  1.0
  H  H26  1  0.91613427  0.94698372  0.48632588  1.0
  H  H27  1  0.99738343  0.31155834  0.15722657  1.0
  H  H28  1  0.01138583  0.58848089  0.40524801  1.0
  H  H29  1  0.08282167  0.40058648  0.07214183  1.0
  H  H30  1  0.85187856  0.52675370  0.99113696  1.0
  H  H31  1  0.76834283  0.43436865  0.07468299  1.0
  H  H32  1  0.47982108  0.15693190  0.17990136  1.0
  H  H33  1  0.40530039  0.08141856  0.10502956  1.0
  H  H34  1  0.84886244  0.19328783  0.35765634  1.0
  H  H35  1  0.73313271  0.04070578  0.24684861  1.0
  H  H36  1  0.78913713  0.92122086  0.32795412  1.0
  H  H37  1  0.90937623  0.08177133  0.44420535  1.0
  H  H38  1  0.89886422  0.87736421  0.59665138  1.0
  H  H39  1  0.98089066  0.78743578  0.68678592  1.0
  H  H40  1  0.06767536  0.65416736  0.63740975  1.0
  H  H41  1  0.98817175  0.70418118  0.40558009  1.0
  H  H42  1  0.08001072  0.37936095  0.22432756  1.0
  H  H43  1  0.00993254  0.50367502  0.30223457  1.0
  H  H44  1  0.20803802  0.44659679  0.45000493  1.0
  H  H45  1  0.27028274  0.32551004  0.36415964  1.0
  H  H46  1  0.64902063  0.98444557  0.95029375  1.0
  H  H47  1  0.72240825  0.06271737  0.02709892  1.0
  H  H48  1  0.41613335  0.48632413  0.94698021  1.0
  H  H49  1  0.49738028  0.15722421  0.31155331  1.0
  H  H50  1  0.51137633  0.40526477  0.58847046  1.0
  H  H51  1  0.58281794  0.07213755  0.40057855  1.0
  H  H52  1  0.35187586  0.99113912  0.52675471  1.0
  H  H53  1  0.26833819  0.07468923  0.43437302  1.0
  H  H54  1  0.97982318  0.17990587  0.15692485  1.0
  H  H55  1  0.90530142  0.10503467  0.08141204  1.0
  H  H56  1  0.34886106  0.35765749  0.19328447  1.0
  H  H57  1  0.23312993  0.24684636  0.04070503  1.0
  H  H58  1  0.28913052  0.32795143  0.92121604  1.0
  H  H59  1  0.40937630  0.44420367  0.08176616  1.0
  H  H60  1  0.39887550  0.59665153  0.87736444  1.0
  H  H61  1  0.48091024  0.68678412  0.78744044  1.0
  H  H62  1  0.56768730  0.63741273  0.65416294  1.0
  H  H63  1  0.48816011  0.40559319  0.70416563  1.0
  H  H64  1  0.58000024  0.22434533  0.37935493  1.0
  H  H65  1  0.50991698  0.30225701  0.50366364  1.0
  H  H66  1  0.70803527  0.45000812  0.44659491  1.0
  H  H67  1  0.77028900  0.36415863  0.32551311  1.0
  H  H68  1  0.14901967  0.95028826  0.98445400  1.0
  H  H69  1  0.22240309  0.02709371  0.06272931  1.0
  H  H70  1  0.08386328  0.05301690  0.51367485  1.0
  H  H71  1  0.00261623  0.68843804  0.84277159  1.0
  H  H72  1  0.98861248  0.41151913  0.59475083  1.0
  H  H73  1  0.91717763  0.59941171  0.92786107  1.0
  H  H74  1  0.14812220  0.47324993  0.00886900  1.0
  H  H75  1  0.23165678  0.56563439  0.92531667  1.0
  H  H76  1  0.52017811  0.84307660  0.82009457  1.0
  H  H77  1  0.59470305  0.91859418  0.89496006  1.0
  H  H78  1  0.15113078  0.80671219  0.64234699  1.0
  H  H79  1  0.26686408  0.95929544  0.75315402  1.0
  H  H80  1  0.21086436  0.07877915  0.67204355  1.0
  H  H81  1  0.09061969  0.91823110  0.55579738  1.0
  H  H82  1  0.10113647  0.12263338  0.40334951  1.0
  H  H83  1  0.01911027  0.21256060  0.31321438  1.0
  H  H84  1  0.93232644  0.34582780  0.36259224  1.0
  H  H85  1  0.01182653  0.29581581  0.59441949  1.0
  H  H86  1  0.91999112  0.62063724  0.77567250  1.0
  H  H87  1  0.99006716  0.49632438  0.69776464  1.0
  H  H88  1  0.79196172  0.55340565  0.54999236  1.0
  H  H89  1  0.72971943  0.67449299  0.63584016  1.0
  H  H90  1  0.35097950  0.01555807  0.04970816  1.0
  H  H91  1  0.27759522  0.93727899  0.97290568  1.0
  C  C92  1  0.67474025  0.82627929  0.68592067  1.0
  C  C93  1  0.62327411  0.87734293  0.63167473  1.0
  C  C94  1  0.53438483  0.87864605  0.64042835  1.0
  C  C95  1  0.48653164  0.92708829  0.58961109  1.0
  C  C96  1  0.52543644  0.97478012  0.52743700  1.0
  C  C97  1  0.61493048  0.97283860  0.51993095  1.0
  C  C98  1  0.66275394  0.92563401  0.57141152  1.0
  C  C99  1  0.84338398  0.84337001  0.84771430  1.0
  C  C100  1  0.98277941  0.87006974  0.88131247  1.0
  C  C101  1  0.02477932  0.91311658  0.92472490  1.0
  C  C102  1  0.66389101  0.64588372  0.86761448  1.0
  C  C103  1  0.72831691  0.70791734  0.95284614  1.0
  C  C104  1  0.69719530  0.66291336  0.01949504  1.0
  C  C105  1  0.64679480  0.60603715  0.00846366  1.0
  C  C106  1  0.63022693  0.59826694  0.93029444  1.0
  C  C107  1  0.60264149  0.56694660  0.15339083  1.0
  C  C108  1  0.55777423  0.50640188  0.20361203  1.0
  C  C109  1  0.56038263  0.42715859  0.17926530  1.0
  C  C110  1  0.51502135  0.37553356  0.23027879  1.0
  C  C111  1  0.46799261  0.40237329  0.30573874  1.0
  C  C112  1  0.46744243  0.48052912  0.33210684  1.0
  C  C113  1  0.51199941  0.53216782  0.28025197  1.0
  C  C114  1  0.39315977  0.72572873  0.60313042  1.0
  C  C115  1  0.43211853  0.68178357  0.53402180  1.0
  C  C116  1  0.39708679  0.61627037  0.51440207  1.0
  C  C117  1  0.32265998  0.59894464  0.56609755  1.0
  C  C118  1  0.28800860  0.64685624  0.63373171  1.0
  C  C119  1  0.41826992  0.50471557  0.41495946  1.0
  C  C120  1  0.89282299  0.89070311  0.88702354  1.0
  C  C121  1  0.97850081  0.97780981  0.97546223  1.0
  C  C122  1  0.88870629  0.99935197  0.97811045  1.0
  C  C123  1  0.84696978  0.95677801  0.93462468  1.0
  C  C124  1  0.82526840  0.31407964  0.17371979  1.0
  C  C125  1  0.87673137  0.36832665  0.12265805  1.0
  C  C126  1  0.96562356  0.35957646  0.12135454  1.0
  C  C127  1  0.01347271  0.41039545  0.07291408  1.0
  C  C128  1  0.97456708  0.47256218  0.02522141  1.0
  C  C129  1  0.88507118  0.48007109  0.02716067  1.0
  C  C130  1  0.83725237  0.42858726  0.07436506  1.0
  C  C131  1  0.65661269  0.15228838  0.15662795  1.0
  C  C132  1  0.51721762  0.11869390  0.12992277  1.0
  C  C133  1  0.47522101  0.07528034  0.08687616  1.0
  C  C134  1  0.83611070  0.13239030  0.35411409  1.0
  C  C135  1  0.77168680  0.04715669  0.29208092  1.0
  C  C136  1  0.80280893  0.98051055  0.33708760  1.0
  C  C137  1  0.85320684  0.99154335  0.39396354  1.0
  C  C138  1  0.86977586  0.06971107  0.40173318  1.0
  C  C139  1  0.89736169  0.84661807  0.43305127  1.0
  C  C140  1  0.94222545  0.79639642  0.49359712  1.0
  C  C141  1  0.93960519  0.82073544  0.57284501  1.0
  C  C142  1  0.98496677  0.76972153  0.62446750  1.0
  C  C143  1  0.03199977  0.69426275  0.59762289  1.0
  C  C144  1  0.03255904  0.66790370  0.51946347  1.0
  C  C145  1  0.98800623  0.71976045  0.46782450  1.0
  C  C146  1  0.10684687  0.39687307  0.27426068  1.0
  C  C147  1  0.06789303  0.46598709  0.31820304  1.0
  C  C148  1  0.10292581  0.48560589  0.38371529  1.0
  C  C149  1  0.17734380  0.43390096  0.40105487  1.0
  C  C150  1  0.21199169  0.36626711  0.35314260  1.0
  C  C151  1  0.08173793  0.58505238  0.49527341  1.0
  C  C152  1  0.60717804  0.11297589  0.10929688  1.0
  C  C153  1  0.52149732  0.02454244  0.02218520  1.0
  C  C154  1  0.61129273  0.02188802  0.00064418  1.0
  C  C155  1  0.65302967  0.06536935  0.04322313  1.0
  C  C156  1  0.32526418  0.17372192  0.31407939  1.0
  C  C157  1  0.37672968  0.12265828  0.36832663  1.0
  C  C158  1  0.46561932  0.12135334  0.35957303  1.0
  C  C159  1  0.51347045  0.07290869  0.41039077  1.0
  C  C160  1  0.47456640  0.02521626  0.47256118  1.0
  C  C161  1  0.38507112  0.02716080  0.48007029  1.0
  C  C162  1  0.33724834  0.07436842  0.42858887  1.0
  C  C163  1  0.15661202  0.15662879  0.15228917  1.0
  C  C164  1  0.01721898  0.12992664  0.11868889  1.0
  C  C165  1  0.97522046  0.08687919  0.07527683  1.0
  C  C166  1  0.33611084  0.35411447  0.13238558  1.0
  C  C167  1  0.27168402  0.29207903  0.04715536  1.0
  C  C168  1  0.30280436  0.33708302  0.98050609  1.0
  C  C169  1  0.35320414  0.39396286  0.99153685  1.0
  C  C170  1  0.36977364  0.40173126  0.06970526  1.0
  C  C171  1  0.39735623  0.43305644  0.84660799  1.0
  C  C172  1  0.44222527  0.49360176  0.79638821  1.0
  C  C173  1  0.43961496  0.57284505  0.82073529  1.0
  C  C174  1  0.48497712  0.62446887  0.76972110  1.0
  C  C175  1  0.53200661  0.59762854  0.69426104  1.0
  C  C176  1  0.53255767  0.51947149  0.66789283  1.0
  C  C177  1  0.48800032  0.46783462  0.71974769  1.0
  C  C178  1  0.60684160  0.27427189  0.39686724  1.0
  C  C179  1  0.56788363  0.31821946  0.46597799  1.0
  C  C180  1  0.60291788  0.38372963  0.48559799  1.0
  C  C181  1  0.67734496  0.40105718  0.43390120  1.0
  C  C182  1  0.71199213  0.35314438  0.36626547  1.0
  C  C183  1  0.58173018  0.49528505  0.58504141  1.0
  C  C184  1  0.10717810  0.10929569  0.11297664  1.0
  C  C185  1  0.02149479  0.02218779  0.02453958  1.0
  C  C186  1  0.11129007  0.00064502  0.02188828  1.0
  C  C187  1  0.15302734  0.04321838  0.06537394  1.0
  C  C188  1  0.17473040  0.68591796  0.82627550  1.0
  C  C189  1  0.12326921  0.63167155  0.87733868  1.0
  C  C190  1  0.03437574  0.64042174  0.87864479  1.0
  C  C191  1  0.98652647  0.58960334  0.92708822  1.0
  C  C192  1  0.02543249  0.52743782  0.97478374  1.0
  C  C193  1  0.11492918  0.51993133  0.97284364  1.0
  C  C194  1  0.16274773  0.57141336  0.92563402  1.0
  C  C195  1  0.34338589  0.84771344  0.84337373  1.0
  C  C196  1  0.48278180  0.88131339  0.87007257  1.0
  C  C197  1  0.52478072  0.92472816  0.91311752  1.0
  C  C198  1  0.16388482  0.86761093  0.64588817  1.0
  C  C199  1  0.22830896  0.95284332  0.70792313  1.0
  C  C200  1  0.19719013  0.01948885  0.66291292  1.0
  C  C201  1  0.14679159  0.00845606  0.60603650  1.0
  C  C202  1  0.13022244  0.93028894  0.59826864  1.0
  C  C203  1  0.10263749  0.15338073  0.56694984  1.0
  C  C204  1  0.05777361  0.20360299  0.50640221  1.0
  C  C205  1  0.06039551  0.17926215  0.42715648  1.0
  C  C206  1  0.01503010  0.23027606  0.37553349  1.0
  C  C207  1  0.96799925  0.30573362  0.40237895  1.0
  C  C208  1  0.96743962  0.33209449  0.48053717  1.0
  C  C209  1  0.01199053  0.28023775  0.53217589  1.0
  C  C210  1  0.89315371  0.60312513  0.72573902  1.0
  C  C211  1  0.93210819  0.53401111  0.68179416  1.0
  C  C212  1  0.89707493  0.51439473  0.61628189  1.0
  C  C213  1  0.82265805  0.56609723  0.59894400  1.0
  C  C214  1  0.78801199  0.63373472  0.64685459  1.0
  C  C215  1  0.91826126  0.41494642  0.50472473  1.0
  C  C216  1  0.39282273  0.88702775  0.89070374  1.0
  C  C217  1  0.47850365  0.97546667  0.97780859  1.0
  C  C218  1  0.38870831  0.97811744  0.99935452  1.0
  C  C219  1  0.34697145  0.93463247  0.95677987  1.0
  N  N220  1  0.71296719  0.70002741  0.87783483  1.0
  N  N221  1  0.61273696  0.55698313  0.07031335  1.0
  N  N222  1  0.32181633  0.70924733  0.65329312  1.0
  N  N223  1  0.43713737  0.57357002  0.44425458  1.0
  N  N224  1  0.78703480  0.12216909  0.29997001  1.0
  N  N225  1  0.88726324  0.92969383  0.44301914  1.0
  N  N226  1  0.17818588  0.34670844  0.29074613  1.0
  N  N227  1  0.06287472  0.55575717  0.42641758  1.0
  N  N228  1  0.28703223  0.29997017  0.12216867  1.0
  N  N229  1  0.38726175  0.44301810  0.92968596  1.0
  N  N230  1  0.67818441  0.29075329  0.34670525  1.0
  N  N231  1  0.56286578  0.42643119  0.55574689  1.0
  N  N232  1  0.21296112  0.87783335  0.70003094  1.0
  N  N233  1  0.11273697  0.07030618  0.55698054  1.0
  N  N234  1  0.82181673  0.65328914  0.70925144  1.0
  N  N235  1  0.93712550  0.44424285  0.57358032  1.0
  O  O236  1  0.64416878  0.77119195  0.73042053  1.0
  O  O237  1  0.75131916  0.83806992  0.68759500  1.0
  O  O238  1  0.88315746  0.77832069  0.80755537  1.0
  O  O239  1  0.76186373  0.86368195  0.85482718  1.0
  O  O240  1  0.62582631  0.62236594  0.18358423  1.0
  O  O241  1  0.36591796  0.46570749  0.45395786  1.0
  O  O242  1  0.85583606  0.26957971  0.22880625  1.0
  O  O243  1  0.74868967  0.31240658  0.16192797  1.0
  O  O244  1  0.61683937  0.19245468  0.22167210  1.0
  O  O245  1  0.73813354  0.14517782  0.13631656  1.0
  O  O246  1  0.87417901  0.81642405  0.37763077  1.0
  O  O247  1  0.13408823  0.54605387  0.53428208  1.0
  O  O248  1  0.35583120  0.22880928  0.26957914  1.0
  O  O249  1  0.24868626  0.16192947  0.31240555  1.0
  O  O250  1  0.11684016  0.22167628  0.19245027  1.0
  O  O251  1  0.23813251  0.13631564  0.14517809  1.0
  O  O252  1  0.37417029  0.37763953  0.81641468  1.0
  O  O253  1  0.63408138  0.53429373  0.54604253  1.0
  O  O254  1  0.14416182  0.73041608  0.77118691  1.0
  O  O255  1  0.25130852  0.68759405  0.83806908  1.0
  O  O256  1  0.38315997  0.80754654  0.77832828  1.0
  O  O257  1  0.26186512  0.85482036  0.86368824  1.0
  O  O258  1  0.12582058  0.18357596  0.62236843  1.0
  O  O259  1  0.86591259  0.45394312  0.46571525  1.0
