# generated using pymatgen
data_Zn2H13(C3O)7
_symmetry_space_group_name_H-M   'P 1'
_cell_length_a   15.04681773
_cell_length_b   15.07113392
_cell_length_c   19.62030515
_cell_angle_alpha   90.96267539
_cell_angle_beta   91.40038875
_cell_angle_gamma   90.08338559
_symmetry_Int_Tables_number   1
_chemical_formula_structural   Zn2H13(C3O)7
_chemical_formula_sum   'Zn4 H26 C42 O14'
_cell_volume   4447.38322034
_cell_formula_units_Z   2
loop_
 _symmetry_equiv_pos_site_id
 _symmetry_equiv_pos_as_xyz
  1  'x, y, z'
loop_
 _atom_site_type_symbol
 _atom_site_label
 _atom_site_symmetry_multiplicity
 _atom_site_fract_x
 _atom_site_fract_y
 _atom_site_fract_z
 _atom_site_occupancy
  Zn  Zn0  1  0.56507702  0.56906580  0.56853352  1.0
  Zn  Zn1  1  0.57845561  0.43081830  0.43845188  1.0
  Zn  Zn2  1  0.42902984  0.57281687  0.43891331  1.0
  Zn  Zn3  1  0.42490066  0.41878290  0.55287018  1.0
  H  H4  1  0.62637443  0.52728321  0.76770710  1.0
  H  H5  1  0.83508167  0.53392132  0.63120180  1.0
  H  H6  1  0.99929325  0.47286396  0.36220538  1.0
  H  H7  1  0.43939149  0.64311200  0.23506432  1.0
  H  H8  1  0.00033790  0.52772510  0.64403123  1.0
  H  H9  1  0.16470633  0.48026637  0.37325032  1.0
  H  H10  1  0.14874851  0.50633514  0.59128727  1.0
  H  H11  1  0.61156737  0.41662348  0.22459965  1.0
  H  H12  1  0.37871775  0.40669728  0.90035113  1.0
  H  H13  1  0.44422472  0.65814270  0.10964638  1.0
  H  H14  1  0.49799393  0.41089346  0.00880234  1.0
  H  H15  1  0.61504723  0.42929342  0.09804128  1.0
  H  H16  1  0.63961568  0.52502604  0.89433640  1.0
  H  H17  1  0.52124454  0.63552708  0.93286531  1.0
  H  H18  1  0.48990154  0.68507632  0.01149166  1.0
  H  H19  1  0.60304676  0.66441471  0.99664473  1.0
  H  H20  1  0.37414020  0.29174625  0.71820310  1.0
  H  H21  1  0.26111601  0.31125356  0.74164476  1.0
  H  H22  1  0.34178704  0.27966816  0.80559482  1.0
  H  H23  1  0.46119353  0.14775736  0.57888060  1.0
  H  H24  1  0.54364534  0.15963285  0.37101107  1.0
  H  H25  1  0.45267312  0.00139373  0.63580868  1.0
  H  H26  1  0.53922144  0.99444201  0.36111613  1.0
  H  H27  1  0.46185026  0.83630925  0.62885474  1.0
  H  H28  1  0.51039300  0.84777329  0.41392923  1.0
  H  H29  1  0.85168894  0.47775361  0.41642882  1.0
  C  C30  1  0.49976680  0.26143772  0.48080505  1.0
  C  C31  1  0.51298382  0.47176687  0.98168351  1.0
  C  C32  1  0.52665143  0.54731265  0.01896521  1.0
  C  C33  1  0.48724498  0.73429308  0.51561855  1.0
  C  C34  1  0.52422646  0.52829492  0.23751069  1.0
  C  C35  1  0.50078376  0.16257114  0.47562348  1.0
  C  C36  1  0.48528581  0.83321452  0.52026620  1.0
  C  C37  1  0.46673220  0.96758215  0.58761414  1.0
  C  C38  1  0.47091887  0.87642697  0.58386579  1.0
  C  C39  1  0.49932029  0.88205981  0.46241945  1.0
  C  C40  1  0.50157183  0.97589213  0.46586729  1.0
  C  C41  1  0.51002360  0.46612378  0.90675355  1.0
  C  C42  1  0.48198579  0.01967489  0.52931505  1.0
  C  C43  1  0.47921742  0.11343264  0.53185843  1.0
  C  C44  1  0.52498061  0.11928514  0.41396429  1.0
  C  C45  1  0.73558000  0.50458824  0.51575894  1.0
  C  C46  1  0.52313414  0.02812301  0.40890587  1.0
  C  C47  1  0.83449807  0.50471932  0.52277562  1.0
  C  C48  1  0.16542306  0.49276837  0.48336743  1.0
  C  C49  1  0.03219496  0.48172622  0.41206698  1.0
  C  C50  1  0.12337405  0.48496962  0.41796165  1.0
  C  C51  1  0.11533602  0.50048629  0.54140712  1.0
  C  C52  1  0.43504280  0.43094919  0.87191589  1.0
  C  C53  1  0.02138864  0.50307907  0.53639841  1.0
  C  C54  1  0.97885780  0.49112934  0.47053025  1.0
  C  C55  1  0.88499930  0.48969275  0.46572923  1.0
  C  C56  1  0.87653483  0.52064414  0.58744881  1.0
  C  C57  1  0.26442861  0.49413331  0.48891695  1.0
  C  C58  1  0.96773442  0.51779152  0.59416886  1.0
  C  C59  1  0.51837316  0.51855611  0.31271477  1.0
  C  C60  1  0.49354289  0.47428243  0.68682288  1.0
  C  C61  1  0.49692757  0.46740670  0.76253194  1.0
  C  C62  1  0.57298219  0.50015371  0.79762810  1.0
  C  C63  1  0.42703975  0.43276222  0.80077133  1.0
  C  C64  1  0.58000172  0.49934053  0.86821409  1.0
  C  C65  1  0.53562159  0.63742381  0.98786403  1.0
  C  C66  1  0.33089960  0.31740414  0.75846070  1.0
  C  C67  1  0.48118802  0.60481619  0.13422019  1.0
  C  C68  1  0.47809848  0.59683938  0.20458728  1.0
  C  C69  1  0.57425758  0.46852983  0.19863174  1.0
  C  C70  1  0.57565272  0.47562670  0.12805897  1.0
  C  C71  1  0.52814305  0.54305492  0.09431085  1.0
  O  O72  1  0.50013197  0.49712330  0.49953767  1.0
  O  O73  1  0.56717139  0.45961309  0.34100083  1.0
  O  O74  1  0.44850152  0.41702126  0.65187511  1.0
  O  O75  1  0.46399463  0.56971532  0.34324045  1.0
  O  O76  1  0.53860875  0.53786939  0.66260737  1.0
  O  O77  1  0.34653173  0.41037003  0.77024764  1.0
  O  O78  1  0.69340341  0.54875334  0.56075026  1.0
  O  O79  1  0.30042219  0.45718508  0.54073974  1.0
  O  O80  1  0.55258187  0.30301715  0.44247654  1.0
  O  O81  1  0.44717521  0.69853264  0.46407456  1.0
  O  O82  1  0.44627614  0.29565282  0.52336769  1.0
  O  O83  1  0.52925571  0.69449846  0.56340721  1.0
  O  O84  1  0.70183820  0.46046226  0.46534487  1.0
  O  O85  1  0.30469721  0.53246174  0.44085903  1.0
