# generated using pymatgen
data_AlH8C14Cl2O5
_symmetry_space_group_name_H-M   'P 1'
_cell_length_a   6.87781774
_cell_length_b   11.07048161
_cell_length_c   15.13429915
_cell_angle_alpha   89.41010003
_cell_angle_beta   79.91142918
_cell_angle_gamma   72.66267241
_symmetry_Int_Tables_number   1
_chemical_formula_structural   AlH8C14Cl2O5
_chemical_formula_sum   'Al2 H16 C28 Cl4 O10'
_cell_volume   1081.89780906
_cell_formula_units_Z   2
loop_
 _symmetry_equiv_pos_site_id
 _symmetry_equiv_pos_as_xyz
  1  'x, y, z'
loop_
 _atom_site_type_symbol
 _atom_site_label
 _atom_site_symmetry_multiplicity
 _atom_site_fract_x
 _atom_site_fract_y
 _atom_site_fract_z
 _atom_site_occupancy
  Al  Al0  1  0.99671455  0.50131250  0.49982497  1.0
  Al  Al1  1  0.49748303  0.49891097  0.49938437  1.0
  H  H2  1  0.33791189  0.35389459  0.43723455  1.0
  H  H3  1  0.64672652  0.64880909  0.55722876  1.0
  H  H4  1  0.65924555  0.49247662  0.04722887  1.0
  H  H5  1  0.34551914  0.49730729  0.95165768  1.0
  H  H6  1  0.84592364  0.50274424  0.75487429  1.0
  H  H7  1  0.73352098  0.50256275  0.91886613  1.0
  H  H8  1  0.14573490  0.50926159  0.24549001  1.0
  H  H9  1  0.25940241  0.50927086  0.08147058  1.0
  H  H10  1  0.56969292  0.23753851  0.62358226  1.0
  H  H11  1  0.81632245  0.76676343  0.62030141  1.0
  H  H12  1  0.37897152  0.58646341  0.19625511  1.0
  H  H13  1  0.44755762  0.48755484  0.28538701  1.0
  H  H14  1  0.45985137  0.41979460  0.17723298  1.0
  H  H15  1  0.53902967  0.57792948  0.82039179  1.0
  H  H16  1  0.55270436  0.50794097  0.71325848  1.0
  H  H17  1  0.62187724  0.41094737  0.80365248  1.0
  C  C18  1  0.86231047  0.27652186  0.50637098  1.0
  C  C19  1  0.79822822  0.50395714  0.33961749  1.0
  C  C20  1  0.13474477  0.72447226  0.49544497  1.0
  C  C21  1  0.19757898  0.49716521  0.66011445  1.0
  C  C22  1  0.84292898  0.50430817  0.23941249  1.0
  C  C23  1  0.15349876  0.49832730  0.76021539  1.0
  C  C24  1  0.70331497  0.49996734  0.18240163  1.0
  C  C25  1  0.77021843  0.49746517  0.08934095  1.0
  C  C26  1  0.29634313  0.49747707  0.81675808  1.0
  C  C27  1  0.23132059  0.49783842  0.90984937  1.0
  C  C28  1  0.95251342  0.50080781  0.80010282  1.0
  C  C29  1  0.89176277  0.50071966  0.89215080  1.0
  C  C30  1  0.04175626  0.50669098  0.19992209  1.0
  C  C31  1  0.10365383  0.50595808  0.10783580  1.0
  C  C32  1  0.96812084  0.50080318  0.04923497  1.0
  C  C33  1  0.03111301  0.49933015  0.95036682  1.0
  C  C34  1  0.93218870  0.13451048  0.50519284  1.0
  C  C35  1  0.81181328  0.06912718  0.56192600  1.0
  C  C36  1  0.11115584  0.06719282  0.44730611  1.0
  C  C37  1  0.62589496  0.13454581  0.62071573  1.0
  C  C38  1  0.50933321  0.06974003  0.67360076  1.0
  C  C39  1  0.06582662  0.86656517  0.49957398  1.0
  C  C40  1  0.17810196  0.93224547  0.44405425  1.0
  C  C41  1  0.88099796  0.93334982  0.55976076  1.0
  C  C42  1  0.76298440  0.86942090  0.61786203  1.0
  C  C43  1  0.57935344  0.93501781  0.67223544  1.0
  C  C44  1  0.48615298  0.49736108  0.21329616  1.0
  C  C45  1  0.51399604  0.49893061  0.78545324  1.0
  Cl  Cl46  1  0.39271396  0.85237475  0.36718433  1.0
  Cl  Cl47  1  0.24934124  0.14410255  0.37321046  1.0
  Cl  Cl48  1  0.28034129  0.15318394  0.74096271  1.0
  Cl  Cl49  1  0.43620376  0.85194436  0.73751932  1.0
  O  O50  1  0.99021857  0.33200961  0.52239767  1.0
  O  O51  1  0.61133690  0.52192253  0.37933787  1.0
  O  O52  1  0.31558751  0.66962906  0.51038806  1.0
  O  O53  1  0.04112884  0.52215359  0.62040761  1.0
  O  O54  1  0.00286617  0.67163012  0.47957211  1.0
  O  O55  1  0.38567132  0.47214800  0.61978250  1.0
  O  O56  1  0.68059789  0.32856069  0.49092395  1.0
  O  O57  1  0.95359987  0.48423443  0.37948978  1.0
  O  O58  1  0.28960353  0.44188436  0.45911926  1.0
  O  O59  1  0.70262759  0.55896572  0.54067391  1.0
