# generated using pymatgen
data_Zn2H18C20O11
_symmetry_space_group_name_H-M   'P 1'
_cell_length_a   17.10701604
_cell_length_b   17.10697209
_cell_length_c   17.10697261
_cell_angle_alpha   108.46624083
_cell_angle_beta   108.46628569
_cell_angle_gamma   108.46632014
_symmetry_Int_Tables_number   1
_chemical_formula_structural   Zn2H18C20O11
_chemical_formula_sum   'Zn12 H108 C120 O66'
_cell_volume   3990.83577501
_cell_formula_units_Z   6
loop_
 _symmetry_equiv_pos_site_id
 _symmetry_equiv_pos_as_xyz
  1  'x, y, z'
loop_
 _atom_site_type_symbol
 _atom_site_label
 _atom_site_symmetry_multiplicity
 _atom_site_fract_x
 _atom_site_fract_y
 _atom_site_fract_z
 _atom_site_occupancy
  Zn  Zn0  1  0.77316813  0.33828275  0.13618883  1.0
  Zn  Zn1  1  0.13618772  0.77316431  0.33828415  1.0
  Zn  Zn2  1  0.33827947  0.13618574  0.77315973  1.0
  Zn  Zn3  1  0.22683677  0.66171821  0.86381192  1.0
  Zn  Zn4  1  0.86381035  0.22683386  0.66171415  1.0
  Zn  Zn5  1  0.66171703  0.86381172  0.22683727  1.0
  Zn  Zn6  1  0.57518685  0.22947692  0.88453487  1.0
  Zn  Zn7  1  0.88453702  0.57518796  0.22947973  1.0
  Zn  Zn8  1  0.22947704  0.88453503  0.57518771  1.0
  Zn  Zn9  1  0.42481396  0.77051916  0.11546306  1.0
  Zn  Zn10  1  0.11546327  0.42481369  0.77052154  1.0
  Zn  Zn11  1  0.77052009  0.11546244  0.42481124  1.0
  H  H12  1  0.55329804  0.01918157  0.82840824  1.0
  H  H13  1  0.82840809  0.55329996  0.01918220  1.0
  H  H14  1  0.01918140  0.82840862  0.55329740  1.0
  H  H15  1  0.44670470  0.98081869  0.17159512  1.0
  H  H16  1  0.17159533  0.44670447  0.98081860  1.0
  H  H17  1  0.98082143  0.17159720  0.44670658  1.0
  H  H18  1  0.46095977  0.78716191  0.88628103  1.0
  H  H19  1  0.88628165  0.46096335  0.78716298  1.0
  H  H20  1  0.78716321  0.88628317  0.46096342  1.0
  H  H21  1  0.53903708  0.21283765  0.11371849  1.0
  H  H22  1  0.11371648  0.53903898  0.21283432  1.0
  H  H23  1  0.21283740  0.11371918  0.53904168  1.0
  H  H24  1  0.66715328  0.06019172  0.10965760  1.0
  H  H25  1  0.10965792  0.66715828  0.06019159  1.0
  H  H26  1  0.06019214  0.10965899  0.66715823  1.0
  H  H27  1  0.33284297  0.93980783  0.89034407  1.0
  H  H28  1  0.89034209  0.33284544  0.93980557  1.0
  H  H29  1  0.93980880  0.89034406  0.33284895  1.0
  H  H30  1  0.34358769  0.72581120  0.72885706  1.0
  H  H31  1  0.72885765  0.34358982  0.72581319  1.0
  H  H32  1  0.72581147  0.72885937  0.34358805  1.0
  H  H33  1  0.65641255  0.27418767  0.27114273  1.0
  H  H34  1  0.27114266  0.65641321  0.27418794  1.0
  H  H35  1  0.27418944  0.27114227  0.65641225  1.0
  H  H36  1  0.44905655  0.71827178  0.74507226  1.0
  H  H37  1  0.74507024  0.44905742  0.71827154  1.0
  H  H38  1  0.71827032  0.74507140  0.44905677  1.0
  H  H39  1  0.55094495  0.28172848  0.25492895  1.0
  H  H40  1  0.25492848  0.55094352  0.28172726  1.0
  H  H41  1  0.28172745  0.25492746  0.55094165  1.0
  H  H42  1  0.32514801  0.72819317  0.57612549  1.0
  H  H43  1  0.57612779  0.32514881  0.72819771  1.0
  H  H44  1  0.72819687  0.57612910  0.32514951  1.0
  H  H45  1  0.67485287  0.27180708  0.42387495  1.0
  H  H46  1  0.42387497  0.67485285  0.27180551  1.0
  H  H47  1  0.27180902  0.42387534  0.67485441  1.0
  H  H48  1  0.32660415  0.62491600  0.57634603  1.0
  H  H49  1  0.57634526  0.32660387  0.62491984  1.0
  H  H50  1  0.62491870  0.57634576  0.32660344  1.0
  H  H51  1  0.67339608  0.37508286  0.42365318  1.0
  H  H52  1  0.42365284  0.67339570  0.37508242  1.0
  H  H53  1  0.37508491  0.42365242  0.67339603  1.0
  H  H54  1  0.42768685  0.71557101  0.59260945  1.0
  H  H55  1  0.59260852  0.42768703  0.71557438  1.0
  H  H56  1  0.71557335  0.59261097  0.42768728  1.0
  H  H57  1  0.57231309  0.28442855  0.40739047  1.0
  H  H58  1  0.40738987  0.57231184  0.28442716  1.0
  H  H59  1  0.28443034  0.40739138  0.57231353  1.0
  H  H60  1  0.67319960  0.61511294  0.15373596  1.0
  H  H61  1  0.15374289  0.67319919  0.61511351  1.0
  H  H62  1  0.61511575  0.15374074  0.67319692  1.0
  H  H63  1  0.32679993  0.38488175  0.84625586  1.0
  H  H64  1  0.84626050  0.32680385  0.38488509  1.0
  H  H65  1  0.38488411  0.84625465  0.32679990  1.0
  H  H66  1  0.38346175  0.51036907  0.08371789  1.0
  H  H67  1  0.08371920  0.38345839  0.51037097  1.0
  H  H68  1  0.51036728  0.08371940  0.38345629  1.0
  H  H69  1  0.61653942  0.48963049  0.91627774  1.0
  H  H70  1  0.91628110  0.61654327  0.48963557  1.0
  H  H71  1  0.48962894  0.91627876  0.61654200  1.0
  H  H72  1  0.50635135  0.32403062  0.06088625  1.0
  H  H73  1  0.06088570  0.50634711  0.32403019  1.0
  H  H74  1  0.32403111  0.06088927  0.50635031  1.0
  H  H75  1  0.49364762  0.67596684  0.93910861  1.0
  H  H76  1  0.93911417  0.49364829  0.67597132  1.0
  H  H77  1  0.67596855  0.93911099  0.49365266  1.0
  H  H78  1  0.27518806  0.38129514  0.96196356  1.0
  H  H79  1  0.96196361  0.27518377  0.38129809  1.0
  H  H80  1  0.38129572  0.96196545  0.27518686  1.0
  H  H81  1  0.72480968  0.61870232  0.03803267  1.0
  H  H82  1  0.03803909  0.72481373  0.61870906  1.0
  H  H83  1  0.61870485  0.03803413  0.72481794  1.0
  H  H84  1  0.25311667  0.36565475  0.05269301  1.0
  H  H85  1  0.05269212  0.25311321  0.36565596  1.0
  H  H86  1  0.36565238  0.05269294  0.25311085  1.0
  H  H87  1  0.74688638  0.63434620  0.94730599  1.0
  H  H88  1  0.94730998  0.74688567  0.63434851  1.0
  H  H89  1  0.63434818  0.94730663  0.74689101  1.0
  H  H90  1  0.12460363  0.24108842  0.89431443  1.0
  H  H91  1  0.89431182  0.12459945  0.24108888  1.0
  H  H92  1  0.24108680  0.89431029  0.12460305  1.0
  H  H93  1  0.87539476  0.75891044  0.10568594  1.0
  H  H94  1  0.10568749  0.87539873  0.75891567  1.0
  H  H95  1  0.75891620  0.10568790  0.87539974  1.0
  H  H96  1  0.20539057  0.20962720  0.86616217  1.0
  H  H97  1  0.86616254  0.20538962  0.20962929  1.0
  H  H98  1  0.20962858  0.86616123  0.20539338  1.0
  H  H99  1  0.79460688  0.79037097  0.13383711  1.0
  H  H100  1  0.13383956  0.79460926  0.79037577  1.0
  H  H101  1  0.79037319  0.13383695  0.79460726  1.0
  H  H102  1  0.18124917  0.19104946  0.95479863  1.0
  H  H103  1  0.95479898  0.18124733  0.19105187  1.0
  H  H104  1  0.19104716  0.95479391  0.18124741  1.0
  H  H105  1  0.81875110  0.80895080  0.04520336  1.0
  H  H106  1  0.04520341  0.81875086  0.80895423  1.0
  H  H107  1  0.80895238  0.04520079  0.81875084  1.0
  H  H108  1  0.75646863  0.33161218  0.95509784  1.0
  H  H109  1  0.95509837  0.75647136  0.33161263  1.0
  H  H110  1  0.33161295  0.95509847  0.75647106  1.0
  H  H111  1  0.24353163  0.66838807  0.04490298  1.0
  H  H112  1  0.04490256  0.24353168  0.66838753  1.0
  H  H113  1  0.66838731  0.04490179  0.24352918  1.0
  H  H114  1  0.71211614  0.36977456  0.88745159  1.0
  H  H115  1  0.88745243  0.71211668  0.36977363  1.0
  H  H116  1  0.36977243  0.88745154  0.71211627  1.0
  H  H117  1  0.28788257  0.63022500  0.11254911  1.0
  H  H118  1  0.11254939  0.28788427  0.63022673  1.0
  H  H119  1  0.63022689  0.11254801  0.28788345  1.0
  C  C120  1  0.66700257  0.15165898  0.00634677  1.0
  C  C121  1  0.00634828  0.66700606  0.15166154  1.0
  C  C122  1  0.15165707  0.00634673  0.66700160  1.0
  C  C123  1  0.33300017  0.84834129  0.99365893  1.0
  C  C124  1  0.99365509  0.33299559  0.84833719  1.0
  C  C125  1  0.84834232  0.99365700  0.33299712  1.0
  C  C126  1  0.61502221  0.04950675  0.97246895  1.0
  C  C127  1  0.97247072  0.61502589  0.04950725  1.0
  C  C128  1  0.04950348  0.97247014  0.61502481  1.0
  C  C129  1  0.38497591  0.95049420  0.02753259  1.0
  C  C130  1  0.02753109  0.38497506  0.95049078  1.0
  C  C131  1  0.95049464  0.02753081  0.38497731  1.0
  C  C132  1  0.55758438  0.99062313  0.87736264  1.0
  C  C133  1  0.87736381  0.55758886  0.99062429  1.0
  C  C134  1  0.99062179  0.87736325  0.55758594  1.0
  C  C135  1  0.44241714  0.00937852  0.12263961  1.0
  C  C136  1  0.12263773  0.44241417  0.00937548  1.0
  C  C137  1  0.00937912  0.12263840  0.44241611  1.0
  C  C138  1  0.50484815  0.89530105  0.84526400  1.0
  C  C139  1  0.84526472  0.50485062  0.89530162  1.0
  C  C140  1  0.89529949  0.84526589  0.50484989  1.0
  C  C141  1  0.49515120  0.10469990  0.15473675  1.0
  C  C142  1  0.15473462  0.49515033  0.10469854  1.0
  C  C143  1  0.10470144  0.15473715  0.49515261  1.0
  C  C144  1  0.50576460  0.85960616  0.90834963  1.0
  C  C145  1  0.90835105  0.50576849  0.85960680  1.0
  C  C146  1  0.85960551  0.90835154  0.50576685  1.0
  C  C147  1  0.49423443  0.14039409  0.09164963  1.0
  C  C148  1  0.09164925  0.49423454  0.14039258  1.0
  C  C149  1  0.14039543  0.09165150  0.49423799  1.0
  C  C150  1  0.56510777  0.91945842  0.00377352  1.0
  C  C151  1  0.00377447  0.56511113  0.91945925  1.0
  C  C152  1  0.91945889  0.00377523  0.56510971  1.0
  C  C153  1  0.43489094  0.08054115  0.99622835  1.0
  C  C154  1  0.99622522  0.43489190  0.08053817  1.0
  C  C155  1  0.08054204  0.99622781  0.43489395  1.0
  C  C156  1  0.62107137  0.01365769  0.03593098  1.0
  C  C157  1  0.03593217  0.62107584  0.01365861  1.0
  C  C158  1  0.01365830  0.03593326  0.62107552  1.0
  C  C159  1  0.37892704  0.98634257  0.96407160  1.0
  C  C160  1  0.96406904  0.37892649  0.98633908  1.0
  C  C161  1  0.98634451  0.96407118  0.37893035  1.0
  C  C162  1  0.56437107  0.88195452  0.07132884  1.0
  C  C163  1  0.07133003  0.56437513  0.88195546  1.0
  C  C164  1  0.88195825  0.07133260  0.56437543  1.0
  C  C165  1  0.43562327  0.11804224  0.92866901  1.0
  C  C166  1  0.92866682  0.43562442  0.11803996  1.0
  C  C167  1  0.11804391  0.92867045  0.43562804  1.0
  C  C168  1  0.40192192  0.74248065  0.71196641  1.0
  C  C169  1  0.71196671  0.40192403  0.74248194  1.0
  C  C170  1  0.74247964  0.71196638  0.40192265  1.0
  C  C171  1  0.59807929  0.25752031  0.28803493  1.0
  C  C172  1  0.28803296  0.59807761  0.25751796  1.0
  C  C173  1  0.25751969  0.28803318  0.59807824  1.0
  C  C174  1  0.36861894  0.70062326  0.60812087  1.0
  C  C175  1  0.60812170  0.36861917  0.70062701  1.0
  C  C176  1  0.70062488  0.60812131  0.36861790  1.0
  C  C177  1  0.63138223  0.29937630  0.39187826  1.0
  C  C178  1  0.39187827  0.63138178  0.29937511  1.0
  C  C179  1  0.29937753  0.39187826  0.63138163  1.0
  C  C180  1  0.68090486  0.45250768  0.11974762  1.0
  C  C181  1  0.11975169  0.68090304  0.45250964  1.0
  C  C182  1  0.45251082  0.11975079  0.68090263  1.0
  C  C183  1  0.31909406  0.54748701  0.88024694  1.0
  C  C184  1  0.88024948  0.31909652  0.54749008  1.0
  C  C185  1  0.54748883  0.88024947  0.31909741  1.0
  C  C186  1  0.59840079  0.46826242  0.11048902  1.0
  C  C187  1  0.11049344  0.59839948  0.46826446  1.0
  C  C188  1  0.46826542  0.11049142  0.59839849  1.0
  C  C189  1  0.40159751  0.53173226  0.88950475  1.0
  C  C190  1  0.88950804  0.40159939  0.53173513  1.0
  C  C191  1  0.53173355  0.88950605  0.40159929  1.0
  C  C192  1  0.60681456  0.55733427  0.13095934  1.0
  C  C193  1  0.13096413  0.60681120  0.55733523  1.0
  C  C194  1  0.55733510  0.13096308  0.60680920  1.0
  C  C195  1  0.39318561  0.44266180  0.86903195  1.0
  C  C196  1  0.86903551  0.39318906  0.44266422  1.0
  C  C197  1  0.44266386  0.86903300  0.39318755  1.0
  C  C198  1  0.52888207  0.57107671  0.12157397  1.0
  C  C199  1  0.12157806  0.52887941  0.57107738  1.0
  C  C200  1  0.57107694  0.12157813  0.52887818  1.0
  C  C201  1  0.47111780  0.42892006  0.87841744  1.0
  C  C202  1  0.87841912  0.47112085  0.42892422  1.0
  C  C203  1  0.42892078  0.87841795  0.47111877  1.0
  C  C204  1  0.44258889  0.49668178  0.09078903  1.0
  C  C205  1  0.09079209  0.44258659  0.49668321  1.0
  C  C206  1  0.49667933  0.09079212  0.44258289  1.0
  C  C207  1  0.55741195  0.50331708  0.90920393  1.0
  C  C208  1  0.90920758  0.55741507  0.50332080  1.0
  C  C209  1  0.50331621  0.90920326  0.55741256  1.0
  C  C210  1  0.43411883  0.40712528  0.06777406  1.0
  C  C211  1  0.06777624  0.43411549  0.40712809  1.0
  C  C212  1  0.40712621  0.06777527  0.43411630  1.0
  C  C213  1  0.56588043  0.59287149  0.93222009  1.0
  C  C214  1  0.93222491  0.56588269  0.59287528  1.0
  C  C215  1  0.59287030  0.93222220  0.56588187  1.0
  C  C216  1  0.51294414  0.39367550  0.07994906  1.0
  C  C217  1  0.07995034  0.51294043  0.39367588  1.0
  C  C218  1  0.39367618  0.07995186  0.51294123  1.0
  C  C219  1  0.48705451  0.60632127  0.92004489  1.0
  C  C220  1  0.92004862  0.48705566  0.60632380  1.0
  C  C221  1  0.60632220  0.92004700  0.48705797  1.0
  C  C222  1  0.53647434  0.66537866  0.14086104  1.0
  C  C223  1  0.14086368  0.53647464  0.66537882  1.0
  C  C224  1  0.66537739  0.14086690  0.53646936  1.0
  C  C225  1  0.46352492  0.33461810  0.85912901  1.0
  C  C226  1  0.85913081  0.46353046  0.33462288  1.0
  C  C227  1  0.33461941  0.85912987  0.46352518  1.0
  C  C228  1  0.26704403  0.33508781  0.99457251  1.0
  C  C229  1  0.99457220  0.26703954  0.33509042  1.0
  C  C230  1  0.33508650  0.99457239  0.26704053  1.0
  C  C231  1  0.73295558  0.66491105  0.00542474  1.0
  C  C232  1  0.00542988  0.73295796  0.66491654  1.0
  C  C233  1  0.66491189  0.00542648  0.73296161  1.0
  C  C234  1  0.19014652  0.23809694  0.92345264  1.0
  C  C235  1  0.92345158  0.19014374  0.23809915  1.0
  C  C236  1  0.23809473  0.92344961  0.19014527  1.0
  C  C237  1  0.80985219  0.76190262  0.07654806  1.0
  C  C238  1  0.07655084  0.80985584  0.76190799  1.0
  C  C239  1  0.76190455  0.07654718  0.80985473  1.0
  O  O240  1  0.71663802  0.20311270  0.09443828  1.0
  O  O241  1  0.09444014  0.71663816  0.20311318  1.0
  O  O242  1  0.20311102  0.09443812  0.71663326  1.0
  O  O243  1  0.28336842  0.79688758  0.90556508  1.0
  O  O244  1  0.90556291  0.28336279  0.79688641  1.0
  O  O245  1  0.79688899  0.90556560  0.28336565  1.0
  O  O246  1  0.66016996  0.18273125  0.94759642  1.0
  O  O247  1  0.94759755  0.66017089  0.18273255  1.0
  O  O248  1  0.18272959  0.94759715  0.66016821  1.0
  O  O249  1  0.33983374  0.81727111  0.05240791  1.0
  O  O250  1  0.05240552  0.33983145  0.81726807  1.0
  O  O251  1  0.81727230  0.05240797  0.33983174  1.0
  O  O252  1  0.63351667  0.93063949  0.15426635  1.0
  O  O253  1  0.15426809  0.63352435  0.93064202  1.0
  O  O254  1  0.93064801  0.15427334  0.63352353  1.0
  O  O255  1  0.36647519  0.06935589  0.84573203  1.0
  O  O256  1  0.84572784  0.36647588  0.06935041  1.0
  O  O257  1  0.06935699  0.84573318  0.36647959  1.0
  O  O258  1  0.49676128  0.80484677  0.04433114  1.0
  O  O259  1  0.04433503  0.49676810  0.80485153  1.0
  O  O260  1  0.80485609  0.04434240  0.49676925  1.0
  O  O261  1  0.50323394  0.19514791  0.95566165  1.0
  O  O262  1  0.95566026  0.50323074  0.19514202  1.0
  O  O263  1  0.19515017  0.95566551  0.50323413  1.0
  O  O264  1  0.67312421  0.37421573  0.11542954  1.0
  O  O265  1  0.11543256  0.67312220  0.37421360  1.0
  O  O266  1  0.37421621  0.11543169  0.67312271  1.0
  O  O267  1  0.32687192  0.62577825  0.88456157  1.0
  O  O268  1  0.88456515  0.32687387  0.62577984  1.0
  O  O269  1  0.62577748  0.88456368  0.32687333  1.0
  O  O270  1  0.75309842  0.51702163  0.13103194  1.0
  O  O271  1  0.13103088  0.75309331  0.51701747  1.0
  O  O272  1  0.51702371  0.13103248  0.75309407  1.0
  O  O273  1  0.24690367  0.48297724  0.86896961  1.0
  O  O274  1  0.86896592  0.24690345  0.48297590  1.0
  O  O275  1  0.48297561  0.86896707  0.24690331  1.0
  O  O276  1  0.61585370  0.72918988  0.16450944  1.0
  O  O277  1  0.16451061  0.61585256  0.72918855  1.0
  O  O278  1  0.72919050  0.16451637  0.61584924  1.0
  O  O279  1  0.38414618  0.27080689  0.83548197  1.0
  O  O280  1  0.83548292  0.38415046  0.27081044  1.0
  O  O281  1  0.27080820  0.83548318  0.38414677  1.0
  O  O282  1  0.46380260  0.67498511  0.13241823  1.0
  O  O283  1  0.13241789  0.46380160  0.67498682  1.0
  O  O284  1  0.67498287  0.13242010  0.46379751  1.0
  O  O285  1  0.53619728  0.32501166  0.86757494  1.0
  O  O286  1  0.86757876  0.53620282  0.32501710  1.0
  O  O287  1  0.32501052  0.86757596  0.53619632  1.0
  O  O288  1  0.45290665  0.84284482  0.75019592  1.0
  O  O289  1  0.75019613  0.45290971  0.84284595  1.0
  O  O290  1  0.84284670  0.75019811  0.45290925  1.0
  O  O291  1  0.54709420  0.15715406  0.24980523  1.0
  O  O292  1  0.24980418  0.54709332  0.15715342  1.0
  O  O293  1  0.15715704  0.24980703  0.54709538  1.0
  O  O294  1  0.35258720  0.32923378  0.03086888  1.0
  O  O295  1  0.03086795  0.35258354  0.32923519  1.0
  O  O296  1  0.32923289  0.03087182  0.35258545  1.0
  O  O297  1  0.64741180  0.67076507  0.96912701  1.0
  O  O298  1  0.96913351  0.64741395  0.67077040  1.0
  O  O299  1  0.67076459  0.96912774  0.64741544  1.0
  O  O300  1  0.70207715  0.31510891  0.89836571  1.0
  O  O301  1  0.89836524  0.70207952  0.31510802  1.0
  O  O302  1  0.31510870  0.89836694  0.70207762  1.0
  O  O303  1  0.29792279  0.68489065  0.10163362  1.0
  O  O304  1  0.10163507  0.29792351  0.68489136  1.0
  O  O305  1  0.68489220  0.10163470  0.29792092  1.0
