# generated using pymatgen
data_AlH7C15Cl2O5
_symmetry_space_group_name_H-M   'P 1'
_cell_length_a   6.65831844
_cell_length_b   21.38946463
_cell_length_c   24.62029655
_cell_angle_alpha   80.91964638
_cell_angle_beta   89.99986284
_cell_angle_gamma   89.99879063
_symmetry_Int_Tables_number   1
_chemical_formula_structural   AlH7C15Cl2O5
_chemical_formula_sum   'Al4 H28 C60 Cl8 O20'
_cell_volume   3462.42821322
_cell_formula_units_Z   4
loop_
 _symmetry_equiv_pos_site_id
 _symmetry_equiv_pos_as_xyz
  1  'x, y, z'
loop_
 _atom_site_type_symbol
 _atom_site_label
 _atom_site_symmetry_multiplicity
 _atom_site_fract_x
 _atom_site_fract_y
 _atom_site_fract_z
 _atom_site_occupancy
  Al  Al0  1  0.21967767  0.75001028  0.75111317  1.0
  Al  Al1  1  0.78139080  0.25005432  0.24778583  1.0
  Al  Al2  1  0.71967628  0.74999654  0.74888299  1.0
  Al  Al3  1  0.28139670  0.24995627  0.25220683  1.0
  H  H4  1  0.19969794  0.91290322  0.49051657  1.0
  H  H5  1  0.70737162  0.06236177  0.48930522  1.0
  H  H6  1  0.69950817  0.58713522  0.00949126  1.0
  H  H7  1  0.20738001  0.43763701  0.01068300  1.0
  H  H8  1  0.76101050  0.93453448  0.64909005  1.0
  H  H9  1  0.31346308  0.09107551  0.37170552  1.0
  H  H10  1  0.26116316  0.56543405  0.85087287  1.0
  H  H11  1  0.81343220  0.40894133  0.12828504  1.0
  H  H12  1  0.78237410  0.02284110  0.57119432  1.0
  H  H13  1  0.31001786  0.00632575  0.45292053  1.0
  H  H14  1  0.28248707  0.47714213  0.92878707  1.0
  H  H15  1  0.80996577  0.49369998  0.04707536  1.0
  H  H16  1  0.69587616  0.97727920  0.91216916  1.0
  H  H17  1  0.30920537  0.02201257  0.08872908  1.0
  H  H18  1  0.19596280  0.52268137  0.58786167  1.0
  H  H19  1  0.80919528  0.47797910  0.41127429  1.0
  H  H20  1  0.25433867  0.83095104  0.88763501  1.0
  H  H21  1  0.74903823  0.16800285  0.11218031  1.0
  H  H22  1  0.75434961  0.66903166  0.61237187  1.0
  H  H23  1  0.24901521  0.33200003  0.38781486  1.0
  H  H24  1  0.27628808  0.89760334  0.96184926  1.0
  H  H25  1  0.72715645  0.10016019  0.03886780  1.0
  H  H26  1  0.77634523  0.60237613  0.53816707  1.0
  H  H27  1  0.22715021  0.39983639  0.46113728  1.0
  H  H28  1  0.47276443  0.82895336  0.76009002  1.0
  H  H29  1  0.52744351  0.16995948  0.24212769  1.0
  H  H30  1  0.97276688  0.67104485  0.73992939  1.0
  H  H31  1  0.02743347  0.33004580  0.25787259  1.0
  C  C32  1  0.46707876  0.67782224  0.68346992  1.0
  C  C33  1  0.53516871  0.32178902  0.31705010  1.0
  C  C34  1  0.96707129  0.82217834  0.81652852  1.0
  C  C35  1  0.03517314  0.17821434  0.18295018  1.0
  C  C36  1  0.47200704  0.67130367  0.83237874  1.0
  C  C37  1  0.52749495  0.32944043  0.16803895  1.0
  C  C38  1  0.97201338  0.82870057  0.66761476  1.0
  C  C39  1  0.02750668  0.17057341  0.33195267  1.0
  C  C40  1  0.10807706  0.91966326  0.52576056  1.0
  C  C41  1  0.84288757  0.06778913  0.46424010  1.0
  C  C42  1  0.60793221  0.58036060  0.97424634  1.0
  C  C43  1  0.34288444  0.43221770  0.03575046  1.0
  C  C44  1  0.10159821  0.87140683  0.57098322  1.0
  C  C45  1  0.84751911  0.11606840  0.41900999  1.0
  C  C46  1  0.60147236  0.62861040  0.92901918  1.0
  C  C47  1  0.34753602  0.38392757  0.08098101  1.0
  C  C48  1  0.97755055  0.87649616  0.61624673  1.0
  C  C49  1  0.01625632  0.12397127  0.38395827  1.0
  C  C50  1  0.47750268  0.62350938  0.88374717  1.0
  C  C51  1  0.51625616  0.37604082  0.11603830  1.0
  C  C52  1  0.85932064  0.93101153  0.61427582  1.0
  C  C53  1  0.18095697  0.08354475  0.39788433  1.0
  C  C54  1  0.35932005  0.56898057  0.88571121  1.0
  C  C55  1  0.68092845  0.41647252  0.10211127  1.0
  C  C56  1  0.86978396  0.98003251  0.57005319  1.0
  C  C57  1  0.17737973  0.03586016  0.44322191  1.0
  C  C58  1  0.36988606  0.51995045  0.92991659  1.0
  C  C59  1  0.67736275  0.46415068  0.05676795  1.0
  C  C60  1  0.99490418  0.97523756  0.52483253  1.0
  C  C61  1  0.00597800  0.02653794  0.47700511  1.0
  C  C62  1  0.49490857  0.52476574  0.97515231  1.0
  C  C63  1  0.50595720  0.47347301  0.02298777  1.0
  C  C64  1  0.81811833  0.94472461  0.90754799  1.0
  C  C65  1  0.18655168  0.05451482  0.09309341  1.0
  C  C66  1  0.31818926  0.55524420  0.59247943  1.0
  C  C67  1  0.68654078  0.44548239  0.40690963  1.0
  C  C68  1  0.80703264  0.90676014  0.86656044  1.0
  C  C69  1  0.19742409  0.09312300  0.13363327  1.0
  C  C70  1  0.30706964  0.59322461  0.63345667  1.0
  C  C71  1  0.69741861  0.40688427  0.36636275  1.0
  C  C72  1  0.96473452  0.86486695  0.85904232  1.0
  C  C73  1  0.03922207  0.13497267  0.14080573  1.0
  C  C74  1  0.46475820  0.63512323  0.64096478  1.0
  C  C75  1  0.53920289  0.36503283  0.35919289  1.0
  C  C76  1  0.13240441  0.86295312  0.89408466  1.0
  C  C77  1  0.87143207  0.13612944  0.10589521  1.0
  C  C78  1  0.63243251  0.63702596  0.60592603  1.0
  C  C79  1  0.37140991  0.36387768  0.39410314  1.0
  C  C80  1  0.14486585  0.90008237  0.93524903  1.0
  C  C81  1  0.85900068  0.09828995  0.06527367  1.0
  C  C82  1  0.64491730  0.59990018  0.56476534  1.0
  C  C83  1  0.35899868  0.40171320  0.43473169  1.0
  C  C84  1  0.98675719  0.94198456  0.94242589  1.0
  C  C85  1  0.01766804  0.05648962  0.05839587  1.0
  C  C86  1  0.48682625  0.55799161  0.55759603  1.0
  C  C87  1  0.51767097  0.44350599  0.44161184  1.0
  C  C88  1  0.99729464  0.98160617  0.98323127  1.0
  C  C89  1  0.00734838  0.01641768  0.01794478  1.0
  C  C90  1  0.49735568  0.51836331  0.51679888  1.0
  C  C91  1  0.50735179  0.48356675  0.48206831  1.0
  Cl  Cl92  1  0.24165689  0.80373638  0.56812944  1.0
  Cl  Cl93  1  0.64108990  0.16583533  0.41025571  1.0
  Cl  Cl94  1  0.74142131  0.69629868  0.93188842  1.0
  Cl  Cl95  1  0.14111625  0.33416700  0.08973339  1.0
  Cl  Cl96  1  0.59584671  0.91735984  0.82479894  1.0
  Cl  Cl97  1  0.40940297  0.08346395  0.17506721  1.0
  Cl  Cl98  1  0.09592221  0.58262037  0.67522247  1.0
  Cl  Cl99  1  0.90939512  0.41653694  0.32492537  1.0
  O  O100  1  0.64049789  0.68852524  0.81099954  1.0
  O  O101  1  0.36274376  0.31325706  0.19211796  1.0
  O  O102  1  0.14049777  0.81148509  0.68900079  1.0
  O  O103  1  0.86274248  0.18674710  0.30786848  1.0
  O  O104  1  0.29994444  0.69470203  0.70107667  1.0
  O  O105  1  0.70120964  0.30529980  0.29840466  1.0
  O  O106  1  0.79995005  0.80530274  0.79891491  1.0
  O  O107  1  0.20121154  0.19470513  0.20159384  1.0
  O  O108  1  0.29924208  0.68799605  0.81327213  1.0
  O  O109  1  0.70208323  0.31156743  0.18533827  1.0
  O  O110  1  0.79924365  0.81200525  0.68671534  1.0
  O  O111  1  0.20209365  0.18844384  0.31465610  1.0
  O  O112  1  0.13939438  0.80532468  0.80148720  1.0
  O  O113  1  0.86197743  0.19583641  0.19657238  1.0
  O  O114  1  0.63938750  0.69467220  0.69852303  1.0
  O  O115  1  0.36196638  0.30417500  0.30342062  1.0
  O  O116  1  0.46972597  0.78846466  0.74705879  1.0
  O  O117  1  0.53112323  0.21162403  0.25292884  1.0
  O  O118  1  0.96972572  0.71154609  0.75293757  1.0
  O  O119  1  0.03111747  0.28838261  0.24706896  1.0
