# generated using pymatgen
data_Zn2H26C36N10OF2
_symmetry_space_group_name_H-M   'P 1'
_cell_length_a   20.09051242
_cell_length_b   20.22525285
_cell_length_c   20.23967576
_cell_angle_alpha   105.32344579
_cell_angle_beta   113.04613662
_cell_angle_gamma   108.74580420
_symmetry_Int_Tables_number   1
_chemical_formula_structural   Zn2H26C36N10OF2
_chemical_formula_sum   'Zn4 H52 C72 N20 O2 F4'
_cell_volume   6408.15198057
_cell_formula_units_Z   2
loop_
 _symmetry_equiv_pos_site_id
 _symmetry_equiv_pos_as_xyz
  1  'x, y, z'
loop_
 _atom_site_type_symbol
 _atom_site_label
 _atom_site_symmetry_multiplicity
 _atom_site_fract_x
 _atom_site_fract_y
 _atom_site_fract_z
 _atom_site_occupancy
  Zn  Zn0  1  0.59617116  0.50591930  0.59973478  1.0
  Zn  Zn1  1  0.38936803  0.50552006  0.39088774  1.0
  Zn  Zn2  1  0.58957396  0.60954537  0.49767935  1.0
  Zn  Zn3  1  0.39544519  0.39606509  0.48520406  1.0
  H  H4  1  0.35352008  0.51734196  0.22076829  1.0
  H  H5  1  0.57127487  0.68448170  0.99189788  1.0
  H  H6  1  0.20362557  0.48585423  0.34190083  1.0
  H  H7  1  0.46825125  0.66537298  0.95795847  1.0
  H  H8  1  0.50129613  0.67912188  0.08744017  1.0
  H  H9  1  0.51908360  0.47213416  0.91095242  1.0
  H  H10  1  0.60022115  0.56843247  0.97893281  1.0
  H  H11  1  0.49188251  0.45500131  0.01003105  1.0
  H  H12  1  0.37271102  0.44784082  0.86218983  1.0
  H  H13  1  0.35929048  0.46320555  0.97507893  1.0
  H  H14  1  0.58860107  0.53915685  0.07981838  1.0
  H  H15  1  0.64376856  0.52926820  0.38281709  1.0
  H  H16  1  0.92903261  0.53535620  0.50392003  1.0
  H  H17  1  0.60817120  0.75751181  0.62976911  1.0
  H  H18  1  0.04240953  0.51640293  0.51848307  1.0
  H  H19  1  0.91566995  0.29751199  0.40119795  1.0
  H  H20  1  0.90238278  0.41116792  0.51817105  1.0
  H  H21  1  0.82333401  0.32044522  0.43596922  1.0
  H  H22  1  0.92242655  0.41741589  0.29382131  1.0
  H  H23  1  0.89113637  0.32080573  0.28222507  1.0
  H  H24  1  0.79710441  0.40109895  0.28249739  1.0
  H  H25  1  0.02576738  0.53378235  0.43414896  1.0
  H  H26  1  0.39629411  0.25610442  0.36410476  1.0
  H  H27  1  0.77679864  0.31391311  0.29306544  1.0
  H  H28  1  0.59496184  0.85458527  0.71091280  1.0
  H  H29  1  0.58937495  0.97876358  0.75086286  1.0
  H  H30  1  0.64343356  0.19030723  0.77203907  1.0
  H  H31  1  0.64301314  0.29973000  0.73810449  1.0
  H  H32  1  0.33398934  0.73192027  0.53567090  1.0
  H  H33  1  0.37888830  0.06778249  0.63670259  1.0
  H  H34  1  0.32932143  0.85649976  0.57880208  1.0
  H  H35  1  0.37706203  0.17733512  0.60448957  1.0
  H  H36  1  0.35833820  0.15272554  0.24618495  1.0
  H  H37  1  0.38781727  0.40102338  0.23990932  1.0
  H  H38  1  0.34229007  0.61495551  0.49568113  1.0
  H  H39  1  0.26179927  0.03215262  0.11765702  1.0
  H  H40  1  0.07018977  0.82615217  0.96164494  1.0
  H  H41  1  0.93016964  0.71826979  0.85300782  1.0
  H  H42  1  0.31960214  0.29121531  0.11957688  1.0
  H  H43  1  0.22524141  0.17037214  0.99148050  1.0
  H  H44  1  0.90297946  0.86595139  0.73423062  1.0
  H  H45  1  0.61518768  0.62179534  0.75258842  1.0
  H  H46  1  0.20829878  0.33463411  0.45812832  1.0
  H  H47  1  0.78115988  0.76519881  0.62821468  1.0
  H  H48  1  0.65314455  0.39392155  0.51716986  1.0
  H  H49  1  0.63767447  0.40030827  0.69811837  1.0
  H  H50  1  0.03146408  0.42210433  0.55663272  1.0
  H  H51  1  0.10330681  0.01823467  0.89093580  1.0
  H  H52  1  0.37454795  0.25067409  0.53706232  1.0
  H  H53  1  0.61992500  0.64298376  0.35542791  1.0
  H  H54  1  0.36373839  0.55478790  0.99000036  1.0
  H  H55  1  0.34865126  0.52456260  0.86266171  1.0
  C  C56  1  0.77162671  0.65310142  0.71688682  1.0
  C  C57  1  0.64351382  0.43183237  0.48942471  1.0
  C  C58  1  0.43843521  0.29590811  0.57132454  1.0
  C  C59  1  0.21757635  0.44992959  0.37093623  1.0
  C  C60  1  0.55496141  0.61238668  0.33487370  1.0
  C  C61  1  0.50754967  0.30203895  0.63402159  1.0
  C  C62  1  0.48647594  0.57679292  0.25634404  1.0
  C  C63  1  0.66954530  0.45062052  0.43844169  1.0
  C  C64  1  0.38117369  0.29953656  0.26948872  1.0
  C  C65  1  0.39227446  0.50893390  0.89903146  1.0
  C  C66  1  0.51215990  0.64418450  0.98125344  1.0
  C  C67  1  0.17376450  0.40786860  0.39891560  1.0
  C  C68  1  0.52473416  0.64452314  0.06097260  1.0
  C  C69  1  0.48548736  0.56969127  0.18476293  1.0
  C  C70  1  0.47993009  0.56087930  0.91868717  1.0
  C  C71  1  0.54411359  0.71274572  0.59021710  1.0
  C  C72  1  0.39332764  0.51965712  0.97798860  1.0
  C  C73  1  0.48326093  0.56026214  0.04988887  1.0
  C  C74  1  0.52801304  0.51699977  0.02707707  1.0
  C  C75  1  0.53632187  0.52782834  0.95738692  1.0
  C  C76  1  0.48443278  0.56237999  0.12266585  1.0
  C  C77  1  0.47953428  0.56206693  0.84712141  1.0
  C  C78  1  0.47213022  0.71541090  0.58196756  1.0
  C  C79  1  0.48165128  0.56149381  0.78770851  1.0
  C  C80  1  0.99665387  0.49498202  0.45489555  1.0
  C  C81  1  0.94234520  0.35892553  0.44312198  1.0
  C  C82  1  0.87614362  0.37486525  0.45399027  1.0
  C  C83  1  0.41882272  0.49924154  0.63780162  1.0
  C  C84  1  0.72347188  0.43206769  0.41894152  1.0
  C  C85  1  0.97443589  0.41009738  0.40561456  1.0
  C  C86  1  0.91940504  0.50029933  0.44597112  1.0
  C  C87  1  0.84560438  0.41771522  0.40549231  1.0
  C  C88  1  0.82415429  0.37455868  0.31860560  1.0
  C  C89  1  0.48371472  0.55135010  0.71716494  1.0
  C  C90  1  0.90230735  0.37851369  0.31888781  1.0
  C  C91  1  0.77646831  0.42296629  0.40903365  1.0
  C  C92  1  0.04487309  0.40700449  0.40378319  1.0
  C  C93  1  0.10348768  0.40593884  0.39997657  1.0
  C  C94  1  0.50992962  0.24524624  0.66546507  1.0
  C  C95  1  0.40840353  0.64032660  0.52125223  1.0
  C  C96  1  0.43589896  0.18040412  0.64079766  1.0
  C  C97  1  0.43617249  0.11925564  0.65909626  1.0
  C  C98  1  0.51155207  0.12122683  0.70414539  1.0
  C  C99  1  0.58555519  0.18878622  0.73572725  1.0
  C  C100  1  0.57257313  0.37179499  0.65297172  1.0
  C  C101  1  0.58472485  0.24964062  0.71635089  1.0
  C  C102  1  0.53383183  0.92405858  0.70460908  1.0
  C  C103  1  0.53638204  0.85451592  0.68126125  1.0
  C  C104  1  0.45917365  0.92548218  0.66535609  1.0
  C  C105  1  0.46556463  0.78413660  0.61767978  1.0
  C  C106  1  0.39006278  0.78525637  0.58413732  1.0
  C  C107  1  0.55119677  0.57983425  0.70715617  1.0
  C  C108  1  0.38683538  0.85461609  0.60777745  1.0
  C  C109  1  0.90582287  0.78409038  0.78537008  1.0
  C  C110  1  0.93878684  0.85499537  0.78248877  1.0
  C  C111  1  0.41881421  0.54844220  0.26600691  1.0
  C  C112  1  0.01800859  0.91530575  0.84237049  1.0
  C  C113  1  0.06617955  0.90507305  0.90919438  1.0
  C  C114  1  0.03261980  0.83268971  0.91030829  1.0
  C  C115  1  0.95462814  0.77313654  0.85007442  1.0
  C  C116  1  0.27563049  0.08931823  0.11896547  1.0
  C  C117  1  0.32912548  0.15713668  0.19054565  1.0
  C  C118  1  0.23466019  0.09362354  0.04689925  1.0
  C  C119  1  0.21958971  0.37205870  0.42969959  1.0
  C  C120  1  0.34300688  0.23128783  0.19358345  1.0
  C  C121  1  0.30846290  0.23491330  0.11995493  1.0
  C  C122  1  0.63879792  0.50128436  0.42086741  1.0
  C  C123  1  0.25538971  0.16737119  0.04782886  1.0
  C  C124  1  0.76908132  0.72244962  0.65089314  1.0
  C  C125  1  0.82206404  0.72385170  0.72271759  1.0
  C  C126  1  0.39777540  0.30141601  0.34461758  1.0
  C  C127  1  0.39274788  0.37512156  0.28107372  1.0
  N  N128  1  0.69734604  0.61359703  0.65019497  1.0
  N  N129  1  0.45148754  0.99312014  0.67124670  1.0
  N  N130  1  0.14033485  0.96374199  0.97678802  1.0
  N  N131  1  0.28408428  0.44023309  0.38460506  1.0
  N  N132  1  0.16810843  0.02961828  0.97466109  1.0
  N  N133  1  0.52384167  0.64254965  0.53749580  1.0
  N  N134  1  0.44387722  0.49533496  0.58543950  1.0
  N  N135  1  0.44052825  0.59794890  0.49521371  1.0
  N  N136  1  0.52699258  0.54570600  0.62893099  1.0
  N  N137  1  0.28536661  0.39181573  0.42135831  1.0
  N  N138  1  0.69584976  0.65747127  0.60818261  1.0
  N  N139  1  0.44499592  0.56521516  0.34349120  1.0
  N  N140  1  0.54424062  0.40404255  0.60555927  1.0
  N  N141  1  0.59950837  0.51260318  0.45996437  1.0
  N  N142  1  0.41549852  0.37168516  0.39507680  1.0
  N  N143  1  0.41234671  0.41698088  0.35596583  1.0
  N  N144  1  0.60227839  0.46985364  0.50189016  1.0
  N  N145  1  0.46055020  0.35651564  0.55456549  1.0
  N  N146  1  0.52983577  0.60504775  0.38639210  1.0
  N  N147  1  0.51927403  0.05670179  0.71254859  1.0
  O  O148  1  0.00548499  0.36872445  0.51581096  1.0
  O  O149  1  0.04677207  0.98267235  0.83795800  1.0
  F  F150  1  0.78864740  0.62231026  0.76908763  1.0
  F  F151  1  0.61051166  0.68067649  0.11792267  1.0
  F  F152  1  0.90011572  0.53931445  0.39810564  1.0
  F  F153  1  0.33981839  0.45461825  0.61291753  1.0
