# generated using pymatgen
data_ZnH11C11(N2O)2
_symmetry_space_group_name_H-M   'P 1'
_cell_length_a   14.69999412
_cell_length_b   16.63993544
_cell_length_c   17.33502592
_cell_angle_alpha   92.87605064
_cell_angle_beta   92.61057327
_cell_angle_gamma   98.35302425
_symmetry_Int_Tables_number   1
_chemical_formula_structural   ZnH11C11(N2O)2
_chemical_formula_sum   'Zn8 H88 C88 N32 O16'
_cell_volume   4184.00778805
_cell_formula_units_Z   8
loop_
 _symmetry_equiv_pos_site_id
 _symmetry_equiv_pos_as_xyz
  1  'x, y, z'
loop_
 _atom_site_type_symbol
 _atom_site_label
 _atom_site_symmetry_multiplicity
 _atom_site_fract_x
 _atom_site_fract_y
 _atom_site_fract_z
 _atom_site_occupancy
  Zn  Zn0  1  0.52834330  0.43059569  0.11145579  1.0
  Zn  Zn1  1  0.50117307  0.55917169  0.92059910  1.0
  Zn  Zn2  1  0.99242629  0.07232195  0.59025322  1.0
  Zn  Zn3  1  0.99612134  0.95428569  0.35016600  1.0
  Zn  Zn4  1  0.37367178  0.42007287  0.98679325  1.0
  Zn  Zn5  1  0.83019552  0.97254510  0.50183030  1.0
  Zn  Zn6  1  0.68838813  0.52215692  0.01195049  1.0
  Zn  Zn7  1  0.14425004  0.01806786  0.46659794  1.0
  H  H8  1  0.47976516  0.23121256  0.16279097  1.0
  H  H9  1  0.41130218  0.49034074  0.71923366  1.0
  H  H10  1  0.88657171  0.80295244  0.60046651  1.0
  H  H11  1  0.85376017  0.86163713  0.22444679  1.0
  H  H12  1  0.17019390  0.64833739  0.76274487  1.0
  H  H13  1  0.25099076  0.53472579  0.35058079  1.0
  H  H14  1  0.80150115  0.14372381  0.29771666  1.0
  H  H15  1  0.67731405  0.09189869  0.83972594  1.0
  H  H16  1  0.89232420  0.16661289  0.23507826  1.0
  H  H17  1  0.79097690  0.14487882  0.84260825  1.0
  H  H18  1  0.27993866  0.67161084  0.72453420  1.0
  H  H19  1  0.36308406  0.59000502  0.34522967  1.0
  H  H20  1  0.94877724  0.31647826  0.18135538  1.0
  H  H21  1  0.73012165  0.36921096  0.81450381  1.0
  H  H22  1  0.28823832  0.90437901  0.69479654  1.0
  H  H23  1  0.29875787  0.79955394  0.27772380  1.0
  H  H24  1  0.36948132  0.81487361  0.76030508  1.0
  H  H25  1  0.38382110  0.69546782  0.24264883  1.0
  H  H26  1  0.03465485  0.26268942  0.27803471  1.0
  H  H27  1  0.81363097  0.27433339  0.75980977  1.0
  H  H28  1  0.08497072  0.87019994  0.81140332  1.0
  H  H29  1  0.07335961  0.67257739  0.24846597  1.0
  H  H30  1  0.88704895  0.41984760  0.34888518  1.0
  H  H31  1  0.50396583  0.24580676  0.76882297  1.0
  H  H32  1  0.12494329  0.72917317  0.87799322  1.0
  H  H33  1  0.13742740  0.52049111  0.23545361  1.0
  H  H34  1  0.78275940  0.26392418  0.39640919  1.0
  H  H35  1  0.56709477  0.09879125  0.72574448  1.0
  H  H36  1  0.18623612  0.82996013  0.89911654  1.0
  H  H37  1  0.15102821  0.59538035  0.16635146  1.0
  H  H38  1  0.88657846  0.32168583  0.44202071  1.0
  H  H39  1  0.58193703  0.18718498  0.67293231  1.0
  H  H40  1  0.97220128  0.40772831  0.23998078  1.0
  H  H41  1  0.63718448  0.34443221  0.74550262  1.0
  H  H42  1  0.23606424  0.93475204  0.77895630  1.0
  H  H43  1  0.20665510  0.76197204  0.21095497  1.0
  H  H44  1  0.47577679  0.37392424  0.82813954  1.0
  H  H45  1  0.64223774  0.36066165  0.24099843  1.0
  H  H46  1  0.00361324  0.75751764  0.32841213  1.0
  H  H47  1  0.99077319  0.92074649  0.71552204  1.0
  H  H48  1  0.34546133  0.86921989  0.84535487  1.0
  H  H49  1  0.31116603  0.68407486  0.15736578  1.0
  H  H50  1  0.02375518  0.34137136  0.34749332  1.0
  H  H51  1  0.74040475  0.27606811  0.67630905  1.0
  H  H52  1  0.33992398  0.34723066  0.61090120  1.0
  H  H53  1  0.35729389  0.15739452  0.22764875  1.0
  H  H54  1  0.71551642  0.80526592  0.13992413  1.0
  H  H55  1  0.85077929  0.70770307  0.74419676  1.0
  H  H56  1  0.60312099  0.76134738  0.28123399  1.0
  H  H57  1  0.64863348  0.68066724  0.68162179  1.0
  H  H58  1  0.18056069  0.31592852  0.71934585  1.0
  H  H59  1  0.23151468  0.10422723  0.08234225  1.0
  H  H60  1  0.21235197  0.35874842  0.86167607  1.0
  H  H61  1  0.26776773  0.23092095  0.98081322  1.0
  H  H62  1  0.65970241  0.88910729  0.40072128  1.0
  H  H63  1  0.59085682  0.79459246  0.60818333  1.0
  H  H64  1  0.87513776  0.46179413  0.11488138  1.0
  H  H65  1  0.67963765  0.33871716  0.00531398  1.0
  H  H66  1  0.20068411  0.87683492  0.55814128  1.0
  H  H67  1  0.27827047  0.85542015  0.42001720  1.0
  H  H68  1  0.54154324  0.61480915  0.21639193  1.0
  H  H69  1  0.58468024  0.63953290  0.77767144  1.0
  H  H70  1  0.07924420  0.24810424  0.63961695  1.0
  H  H71  1  0.10962143  0.00652018  0.17488971  1.0
  H  H72  1  0.41469732  0.66291961  0.80703324  1.0
  H  H73  1  0.40972421  0.47654897  0.27412038  1.0
  H  H74  1  0.05573579  0.13335196  0.33022493  1.0
  H  H75  1  0.89897069  0.17803404  0.72654744  1.0
  H  H76  1  0.84662360  0.59693168  0.87877473  1.0
  H  H77  1  0.66233227  0.70911182  0.00965602  1.0
  H  H78  1  0.30050241  0.12065665  0.35982427  1.0
  H  H79  1  0.31171354  0.18578483  0.51710153  1.0
  H  H80  1  0.67344570  0.18287371  0.24366359  1.0
  H  H81  1  0.58867835  0.15643556  0.93555576  1.0
  H  H82  1  0.07431279  0.72744556  0.60986752  1.0
  H  H83  1  0.15605407  0.61530098  0.42945863  1.0
  H  H84  1  0.02969323  0.71975097  0.73209460  1.0
  H  H85  1  0.04098592  0.54688510  0.31796062  1.0
  H  H86  1  0.73735568  0.43941748  0.33720378  1.0
  H  H87  1  0.46572054  0.11235216  0.81658907  1.0
  H  H88  1  0.29953281  0.59526092  0.03232201  1.0
  H  H89  1  0.19632523  0.75579091  0.97833971  1.0
  H  H90  1  0.65346746  0.96611346  0.58282835  1.0
  H  H91  1  0.81502618  0.21582472  0.47821947  1.0
  H  H92  1  0.75134882  0.25851736  0.12475115  1.0
  H  H93  1  0.80808818  0.23805466  0.94686556  1.0
  H  H94  1  0.23929529  0.71327900  0.58830123  1.0
  H  H95  1  0.37478891  0.69947748  0.43663155  1.0
  C  C96  1  0.43552764  0.24333559  0.11408409  1.0
  C  C97  1  0.37055695  0.46457164  0.76522535  1.0
  C  C98  1  0.81463061  0.81104524  0.59445116  1.0
  C  C99  1  0.81657090  0.87888731  0.27393503  1.0
  C  C100  1  0.77487931  0.60002985  0.86311576  1.0
  C  C101  1  0.62757342  0.67403263  0.05383798  1.0
  C  C102  1  0.24386580  0.08659242  0.32393985  1.0
  C  C103  1  0.24625708  0.18876323  0.54296147  1.0
  C  C104  1  0.61647169  0.69645401  0.13111730  1.0
  C  C105  1  0.73666007  0.63533641  0.79939285  1.0
  C  C106  1  0.21987762  0.25082409  0.59163483  1.0
  C  C107  1  0.23342048  0.07798198  0.24268493  1.0
  C  C108  1  0.30882097  0.71301297  0.87723583  1.0
  C  C109  1  0.31475829  0.53448033  0.19582269  1.0
  C  C110  1  0.94218280  0.17876879  0.39243892  1.0
  C  C111  1  0.75336364  0.12199286  0.69147361  1.0
  C  C112  1  0.79133177  0.24946002  0.23234994  1.0
  C  C113  1  0.69168933  0.21700261  0.88734814  1.0
  C  C114  1  0.18165321  0.74580608  0.68246486  1.0
  C  C115  1  0.26049516  0.66564776  0.37584986  1.0
  C  C116  1  0.84826967  0.19385381  0.27533597  1.0
  C  C117  1  0.71831417  0.15092207  0.83020610  1.0
  C  C118  1  0.22201882  0.69861052  0.74722785  1.0
  C  C119  1  0.28953759  0.59097236  0.33078576  1.0
  C  C120  1  0.93931471  0.34385231  0.23884229  1.0
  C  C121  1  0.68539656  0.31800351  0.78378560  1.0
  C  C122  1  0.25286411  0.88140736  0.74532664  1.0
  C  C123  1  0.25474308  0.74376994  0.25510568  1.0
  C  C124  1  0.10452194  0.81200630  0.79001376  1.0
  C  C125  1  0.12230764  0.64162958  0.28181920  1.0
  C  C126  1  0.83140043  0.36747198  0.33793573  1.0
  C  C127  1  0.55359876  0.20964829  0.79461206  1.0
  C  C128  1  0.83512865  0.34104881  0.25005292  1.0
  C  C129  1  0.62800777  0.26883852  0.84320140  1.0
  C  C130  1  0.15997107  0.82882929  0.71719800  1.0
  C  C131  1  0.19655306  0.70772003  0.32131851  1.0
  C  C132  1  0.25439806  0.75516027  0.82014994  1.0
  C  C133  1  0.27190996  0.59544110  0.24300461  1.0
  C  C134  1  0.90935055  0.24175106  0.34224094  1.0
  C  C135  1  0.70262486  0.17195983  0.74511114  1.0
  C  C136  1  0.31330071  0.83275654  0.79396881  1.0
  C  C137  1  0.31160686  0.68201430  0.22050590  1.0
  C  C138  1  0.98494731  0.29823723  0.30342353  1.0
  C  C139  1  0.74138469  0.26310875  0.73786598  1.0
  C  C140  1  0.52155710  0.37635651  0.87932473  1.0
  C  C141  1  0.68957572  0.39362263  0.20355149  1.0
  C  C142  1  0.06589197  0.79319936  0.35504111  1.0
  C  C143  1  0.03833781  0.92003046  0.66945436  1.0
  C  C144  1  0.16682299  0.78107239  0.85339860  1.0
  C  C145  1  0.16639644  0.58427266  0.22715629  1.0
  C  C146  1  0.85145138  0.29725335  0.38648344  1.0
  C  C147  1  0.59765590  0.16337684  0.72930741  1.0
  C  C148  1  0.27370995  0.32179300  0.63235616  1.0
  C  C149  1  0.29823639  0.12232555  0.19444254  1.0
  C  C150  1  0.66365376  0.76943324  0.17265182  1.0
  C  C151  1  0.77731225  0.68400501  0.73843784  1.0
  C  C152  1  0.65737118  0.79290263  0.24785665  1.0
  C  C153  1  0.72141699  0.70692045  0.68177095  1.0
  C  C154  1  0.24496028  0.34886493  0.70064460  1.0
  C  C155  1  0.29084328  0.13490851  0.11818595  1.0
  C  C156  1  0.26831335  0.39840300  0.83794084  1.0
  C  C157  1  0.32792086  0.24257721  0.02084967  1.0
  C  C158  1  0.71767285  0.89254177  0.36367664  1.0
  C  C159  1  0.66361197  0.80735011  0.59687461  1.0
  C  C160  1  0.80864619  0.44401920  0.13882986  1.0
  C  C161  1  0.62528532  0.35829299  0.96995343  1.0
  C  C162  1  0.14493086  0.89791803  0.58817389  1.0
  C  C163  1  0.20567227  0.84428428  0.40198020  1.0
  C  C164  1  0.35125834  0.19845376  0.08379686  1.0
  C  C165  1  0.29091066  0.40519699  0.76054007  1.0
  C  C166  1  0.73628993  0.76823406  0.62582164  1.0
  C  C167  1  0.72440036  0.85352348  0.29070581  1.0
  C  C168  1  0.58962981  0.32818204  0.89648740  1.0
  C  C169  1  0.78501759  0.39341028  0.19985237  1.0
  C  C170  1  0.15586868  0.77542073  0.36079159  1.0
  C  C171  1  0.11170675  0.87562383  0.65999590  1.0
  C  C172  1  0.56511605  0.62540999  0.15875388  1.0
  C  C173  1  0.64154338  0.62088032  0.81098446  1.0
  C  C174  1  0.12846837  0.22047904  0.60619777  1.0
  C  C175  1  0.14680135  0.02883328  0.22910882  1.0
  C  C176  1  0.38336719  0.67191649  0.86182592  1.0
  C  C177  1  0.37998499  0.48514993  0.21708125  1.0
  C  C178  1  0.00661246  0.12777990  0.37508932  1.0
  C  C179  1  0.84963461  0.13610438  0.69003743  1.0
  C  C180  1  0.30514330  0.52246299  0.11446996  1.0
  C  C181  1  0.30086428  0.70395699  0.95733998  1.0
  C  C182  1  0.72774613  0.05956317  0.63252339  1.0
  C  C183  1  0.89745789  0.14150073  0.45444015  1.0
  N  N184  1  0.45862077  0.30935968  0.07374738  1.0
  N  N185  1  0.39404572  0.48884234  0.83940664  1.0
  N  N186  1  0.78843159  0.86990354  0.55168063  1.0
  N  N187  1  0.86061556  0.92857612  0.33207503  1.0
  N  N188  1  0.51730707  0.43247649  0.93830447  1.0
  N  N189  1  0.65934195  0.43912692  0.14962669  1.0
  N  N190  1  0.06261447  0.86741586  0.39080100  1.0
  N  N191  1  0.03037473  0.96597080  0.60762721  1.0
  N  N192  1  0.33088067  0.44767681  0.88430281  1.0
  N  N193  1  0.39164989  0.30899065  0.01589274  1.0
  N  N194  1  0.79872447  0.93731432  0.38813269  1.0
  N  N195  1  0.69494600  0.86929668  0.55391088  1.0
  N  N196  1  0.73226128  0.47134510  0.10870660  1.0
  N  N197  1  0.58301846  0.42148331  0.99451892  1.0
  N  N198  1  0.09610129  0.95195969  0.55790652  1.0
  N  N199  1  0.14963346  0.89825188  0.41925929  1.0
  N  N200  1  0.54956886  0.56582388  0.10319486  1.0
  N  N201  1  0.62473455  0.58139847  0.87509441  1.0
  N  N202  1  0.10441521  0.14608153  0.57157543  1.0
  N  N203  1  0.11000170  0.01056803  0.29737856  1.0
  N  N204  1  0.41453293  0.64034483  0.92646993  1.0
  N  N205  1  0.40639122  0.44474658  0.15444796  1.0
  N  N206  1  0.00091714  0.06347745  0.42074222  1.0
  N  N207  1  0.87877933  0.08803735  0.63499647  1.0
  N  N208  1  0.35900807  0.46779692  0.09074347  1.0
  N  N209  1  0.36231342  0.65945281  0.98658269  1.0
  N  N210  1  0.80351540  0.04135072  0.59808833  1.0
  N  N211  1  0.93189470  0.07225538  0.47207322  1.0
  N  N212  1  0.70700264  0.56761957  0.90848622  1.0
  N  N213  1  0.58802952  0.59500839  0.03716077  1.0
  N  N214  1  0.17037822  0.04700509  0.35552197  1.0
  N  N215  1  0.17686060  0.12569060  0.53210904  1.0
  O  O216  1  0.69910127  0.23954304  0.25719072  1.0
  O  O217  1  0.65102845  0.18227196  0.95332768  1.0
  O  O218  1  0.09913799  0.69585462  0.64995892  1.0
  O  O219  1  0.21845524  0.64234893  0.44580033  1.0
  O  O220  1  0.01946532  0.75829343  0.77468771  1.0
  O  O221  1  0.07207508  0.59844846  0.34159063  1.0
  O  O222  1  0.74790496  0.39087412  0.36341421  1.0
  O  O223  1  0.50553234  0.15538473  0.84701935  1.0
  O  O224  1  0.25384593  0.55713181  0.06366379  1.0
  O  O225  1  0.24196880  0.73152207  0.00799626  1.0
  O  O226  1  0.64361972  0.01932693  0.60958046  1.0
  O  O227  1  0.82854017  0.16367325  0.49542254  1.0
  O  O228  1  0.79109882  0.22600684  0.15243518  1.0
  O  O229  1  0.77168083  0.27097005  0.91648255  1.0
  O  O230  1  0.24365820  0.76243057  0.62259130  1.0
  O  O231  1  0.33856010  0.72433434  0.39852041  1.0
