# generated using pymatgen
data_ZnH15C37Br2N2O6F
_symmetry_space_group_name_H-M   'P 1'
_cell_length_a   14.74402302
_cell_length_b   15.67675301
_cell_length_c   27.79108262
_cell_angle_alpha   85.54000266
_cell_angle_beta   75.95416835
_cell_angle_gamma   80.77782862
_symmetry_Int_Tables_number   1
_chemical_formula_structural   ZnH15C37Br2N2O6F
_chemical_formula_sum   'Zn2 H30 C74 Br4 N4 O12 F2'
_cell_volume   6145.91762276
_cell_formula_units_Z   2
loop_
 _symmetry_equiv_pos_site_id
 _symmetry_equiv_pos_as_xyz
  1  'x, y, z'
loop_
 _atom_site_type_symbol
 _atom_site_label
 _atom_site_symmetry_multiplicity
 _atom_site_fract_x
 _atom_site_fract_y
 _atom_site_fract_z
 _atom_site_occupancy
  Zn  Zn0  1  0.91777872  0.48349032  0.48822687  1.0
  Zn  Zn1  1  0.08054787  0.51577157  0.51400296  1.0
  H  H2  1  0.98005255  0.52749424  0.67196155  1.0
  H  H3  1  0.01895841  0.47213955  0.33008165  1.0
  H  H4  1  0.99119416  0.21873377  0.47203246  1.0
  H  H5  1  0.04469475  0.77751313  0.49493256  1.0
  H  H6  1  0.22071883  0.24559098  0.53563531  1.0
  H  H7  1  0.80346409  0.75184998  0.44083891  1.0
  H  H8  1  0.94098863  0.14607055  0.43269946  1.0
  H  H9  1  0.14427882  0.84589890  0.49510836  1.0
  H  H10  1  0.43203570  0.69879857  0.56634737  1.0
  H  H11  1  0.57011532  0.30724342  0.42695287  1.0
  H  H12  1  0.71742835  0.53286961  0.51894932  1.0
  H  H13  1  0.27939370  0.46806602  0.48079900  1.0
  H  H14  1  0.88559189  0.35677578  0.42054468  1.0
  H  H15  1  0.11612482  0.64410127  0.58064595  1.0
  H  H16  1  0.26003962  0.69766398  0.59462810  1.0
  H  H17  1  0.74354681  0.30519654  0.40269433  1.0
  H  H18  1  0.89810482  0.52793912  0.76233197  1.0
  H  H19  1  0.10018341  0.47212346  0.23955679  1.0
  H  H20  1  0.63768517  0.71236333  0.88290028  1.0
  H  H21  1  0.36049280  0.28782283  0.11879176  1.0
  H  H22  1  0.26919543  0.52942626  0.36576616  1.0
  H  H23  1  0.72977135  0.47163386  0.63562978  1.0
  H  H24  1  0.35102417  0.53036561  0.27536540  1.0
  H  H25  1  0.64762772  0.47014688  0.72594275  1.0
  H  H26  1  0.35379912  0.71657873  0.12099535  1.0
  H  H27  1  0.64494963  0.28344337  0.88077593  1.0
  H  H28  1  0.45074165  0.71831259  0.03553189  1.0
  H  H29  1  0.54803475  0.28174730  0.96623424  1.0
  H  H30  1  0.83966739  0.05404248  0.41050103  1.0
  H  H31  1  0.24507446  0.93816767  0.51736651  1.0
  C  C32  1  0.93926747  0.66327554  0.48537902  1.0
  C  C33  1  0.06815282  0.33522094  0.50568437  1.0
  C  C34  1  0.61361970  0.49855003  0.90129592  1.0
  C  C35  1  0.38501731  0.50152280  0.10044825  1.0
  C  C36  1  0.64119997  0.57600856  0.87658254  1.0
  C  C37  1  0.35723063  0.42409816  0.12512673  1.0
  C  C38  1  0.61574929  0.65253650  0.90127808  1.0
  C  C39  1  0.38263316  0.34759286  0.10042102  1.0
  C  C40  1  0.64361448  0.42025894  0.87605846  1.0
  C  C41  1  0.35507382  0.57980626  0.12567651  1.0
  C  C42  1  0.85964812  0.49999778  0.64858310  1.0
  C  C43  1  0.13947279  0.50030964  0.35306391  1.0
  C  C44  1  0.46824791  0.58044862  0.02683182  1.0
  C  C45  1  0.53053800  0.41958774  0.97495163  1.0
  C  C46  1  0.47072550  0.42038661  0.02535462  1.0
  C  C47  1  0.52799185  0.57965205  0.97641346  1.0
  C  C48  1  0.44194334  0.50042677  0.05058726  1.0
  C  C49  1  0.55680176  0.49961276  0.95118763  1.0
  C  C50  1  0.43406225  0.65677258  0.05296596  1.0
  C  C51  1  0.56472720  0.34328383  0.94880902  1.0
  C  C52  1  0.37875703  0.65657747  0.10142205  1.0
  C  C53  1  0.62001895  0.34346308  0.90034351  1.0
  C  C54  1  0.90984473  0.50012762  0.59468101  1.0
  C  C55  1  0.08997821  0.49993621  0.40703020  1.0
  C  C56  1  0.56150509  0.65271906  0.94977495  1.0
  C  C57  1  0.43704804  0.34734451  0.05196495  1.0
  C  C58  1  0.92588401  0.75731093  0.46986047  1.0
  C  C59  1  0.10282891  0.24001487  0.50304702  1.0
  C  C60  1  0.84235239  0.88010316  0.43348792  1.0
  C  C61  1  0.21097073  0.11531364  0.51952554  1.0
  C  C62  1  0.85167206  0.79326089  0.44725835  1.0
  C  C63  1  0.18340526  0.20360574  0.52046998  1.0
  C  C64  1  0.98909479  0.80861332  0.47727145  1.0
  C  C65  1  0.05371525  0.18762988  0.48415126  1.0
  C  C66  1  0.98061805  0.89735388  0.46371724  1.0
  C  C67  1  0.08048904  0.09734094  0.48303139  1.0
  C  C68  1  0.90455325  0.93535206  0.44149664  1.0
  C  C69  1  0.16035632  0.05897561  0.50216282  1.0
  C  C70  1  0.04430908  0.95147891  0.47375937  1.0
  C  C71  1  0.02559761  0.04221999  0.46603898  1.0
  C  C72  1  0.95168318  0.07697712  0.44202069  1.0
  C  C73  1  0.12572344  0.91585813  0.49179774  1.0
  C  C74  1  0.89469209  0.02577193  0.42941292  1.0
  C  C75  1  0.18266387  0.96719119  0.50433829  1.0
  C  C76  1  0.69621373  0.57810057  0.82432379  1.0
  C  C77  1  0.30205726  0.42205942  0.17735566  1.0
  C  C78  1  0.26682601  0.64362588  0.57095570  1.0
  C  C79  1  0.73552062  0.35893759  0.42675926  1.0
  C  C80  1  0.18798357  0.61605504  0.56297378  1.0
  C  C81  1  0.81318706  0.38519851  0.43694209  1.0
  C  C82  1  0.28056923  0.51370921  0.50796541  1.0
  C  C83  1  0.71828596  0.48791848  0.49097858  1.0
  C  C84  1  0.36607157  0.53080612  0.51706557  1.0
  C  C85  1  0.63435235  0.47227820  0.47940109  1.0
  C  C86  1  0.35773737  0.60298258  0.54695170  1.0
  C  C87  1  0.64399715  0.40046051  0.44918124  1.0
  C  C88  1  0.45886526  0.48419899  0.49600943  1.0
  C  C89  1  0.54146154  0.51958877  0.49900316  1.0
  C  C90  1  0.52678582  0.60222056  0.52161233  1.0
  C  C91  1  0.47440636  0.40270030  0.47200289  1.0
  C  C92  1  0.43979178  0.63832191  0.54787675  1.0
  C  C93  1  0.56210484  0.36679277  0.44633661  1.0
  C  C94  1  0.69950783  0.41827321  0.82400173  1.0
  C  C95  1  0.29909144  0.58184857  0.17767631  1.0
  C  C96  1  0.72026203  0.48330925  0.71379475  1.0
  C  C97  1  0.27841988  0.51718957  0.28766528  1.0
  C  C98  1  0.76591398  0.48393924  0.66367746  1.0
  C  C99  1  0.23302695  0.51681508  0.33779415  1.0
  C  C100  1  0.90708164  0.51551224  0.68431153  1.0
  C  C101  1  0.09180631  0.48443380  0.31752928  1.0
  C  C102  1  0.86169956  0.51530651  0.73445863  1.0
  C  C103  1  0.13679096  0.48481930  0.26732493  1.0
  C  C104  1  0.76845501  0.49906919  0.74889879  1.0
  C  C105  1  0.22999759  0.50117435  0.25272816  1.0
  Br  Br106  1  0.73998551  0.92614849  0.40347467  1.0
  Br  Br107  1  0.31980861  0.06887533  0.54432678  1.0
  Br  Br108  1  0.62210525  0.67517352  0.51299750  1.0
  Br  Br109  1  0.37990281  0.33013288  0.47668408  1.0
  N  N110  1  0.72014265  0.49859193  0.80074600  1.0
  N  N111  1  0.27812403  0.50159320  0.20088332  1.0
  N  N112  1  0.19595018  0.55363062  0.53035305  1.0
  N  N113  1  0.80336084  0.44689024  0.47028957  1.0
  O  O114  1  0.88152009  0.61643958  0.47784509  1.0
  O  O115  1  0.12267815  0.38349841  0.51528290  1.0
  O  O116  1  0.00949240  0.63743661  0.50463400  1.0
  O  O117  1  0.98616555  0.36001946  0.49798104  1.0
  O  O118  1  0.86163497  0.49228866  0.56330289  1.0
  O  O119  1  0.13633531  0.51509947  0.43780665  1.0
  O  O120  1  0.99724387  0.50785032  0.58445897  1.0
  O  O121  1  0.00488870  0.48458374  0.41789005  1.0
  O  O122  1  0.71881275  0.64537236  0.80223191  1.0
  O  O123  1  0.27939428  0.35481222  0.19945383  1.0
  O  O124  1  0.27236040  0.64907061  0.20029485  1.0
  O  O125  1  0.72640938  0.35102363  0.80140829  1.0
  F  F126  1  0.54207372  0.73153620  0.97069152  1.0
  F  F127  1  0.45643797  0.26854407  0.03104389  1.0
