# generated using pymatgen
data_AlH9C15N2ClO5
_symmetry_space_group_name_H-M   'P 1'
_cell_length_a   6.64636179
_cell_length_b   16.94428893
_cell_length_c   17.74971489
_cell_angle_alpha   86.62261014
_cell_angle_beta   79.86036139
_cell_angle_gamma   83.26688089
_symmetry_Int_Tables_number   1
_chemical_formula_structural   AlH9C15N2ClO5
_chemical_formula_sum   'Al2 H18 C30 N4 Cl2 O10'
_cell_volume   1952.64571597
_cell_formula_units_Z   2
loop_
 _symmetry_equiv_pos_site_id
 _symmetry_equiv_pos_as_xyz
  1  'x, y, z'
loop_
 _atom_site_type_symbol
 _atom_site_label
 _atom_site_symmetry_multiplicity
 _atom_site_fract_x
 _atom_site_fract_y
 _atom_site_fract_z
 _atom_site_occupancy
  Al  Al0  1  0.50271201  0.50768492  0.49726120  1.0
  Al  Al1  1  0.00328716  0.50482030  0.49709562  1.0
  H  H2  1  0.75251601  0.59644149  0.44482633  1.0
  H  H3  1  0.26672406  0.41310537  0.54215786  1.0
  H  H4  1  0.13198958  0.27004270  0.44682447  1.0
  H  H5  1  0.19643218  0.12120167  0.44670772  1.0
  H  H6  1  0.56589493  0.10745777  0.55195883  1.0
  H  H7  1  0.37489072  0.90086384  0.55583031  1.0
  H  H8  1  0.83663267  0.89318980  0.45351228  1.0
  H  H9  1  0.90165196  0.74451813  0.45512804  1.0
  H  H10  1  0.66081341  0.52490396  0.26449201  1.0
  H  H11  1  0.73552088  0.52453706  0.12123303  1.0
  H  H12  1  0.14201175  0.44399825  0.12321861  1.0
  H  H13  1  0.87383403  0.46881153  0.87784735  1.0
  H  H14  1  0.32904357  0.55970485  0.72440691  1.0
  H  H15  1  0.24097573  0.55390571  0.86742868  1.0
  H  H16  1  0.98383314  0.45223366  0.32753820  1.0
  H  H17  1  0.92370899  0.42655226  0.24167509  1.0
  H  H18  1  0.04831127  0.48050219  0.67309355  1.0
  H  H19  1  0.11525104  0.46047082  0.76408266  1.0
  C  C20  1  0.32629544  0.49373640  0.35840396  1.0
  C  C21  1  0.20374970  0.65006507  0.50077050  1.0
  C  C22  1  0.68002033  0.51490658  0.63588471  1.0
  C  C23  1  0.79628088  0.36174069  0.49810702  1.0
  C  C24  1  0.81662393  0.27295069  0.50052171  1.0
  C  C25  1  0.00989895  0.23331631  0.47013207  1.0
  C  C26  1  0.04624987  0.15118087  0.46992457  1.0
  C  C27  1  0.88457024  0.10590082  0.50023110  1.0
  C  C28  1  0.68952791  0.14357396  0.52894390  1.0
  C  C29  1  0.65628192  0.22628952  0.53067183  1.0
  C  C30  1  0.27258496  0.86608297  0.53328776  1.0
  C  C31  1  0.10310332  0.90533489  0.50442984  1.0
  C  C32  1  0.96736753  0.86178153  0.47596650  1.0
  C  C33  1  0.00445725  0.77964070  0.47688712  1.0
  C  C34  1  0.17367147  0.73856011  0.50550345  1.0
  C  C35  1  0.30624800  0.78320917  0.53516575  1.0
  C  C36  1  0.36286202  0.48537396  0.27470103  1.0
  C  C37  1  0.55044962  0.50592864  0.23242357  1.0
  C  C38  1  0.59263164  0.50579008  0.15331209  1.0
  C  C39  1  0.44122150  0.48458024  0.11329068  1.0
  C  C40  1  0.25670622  0.46118057  0.15437392  1.0
  C  C41  1  0.21245138  0.46093297  0.23513583  1.0
  C  C42  1  0.47511085  0.49068772  0.03213733  1.0
  C  C43  1  0.50830205  0.49970854  0.96247009  1.0
  C  C44  1  0.55292620  0.50829267  0.88151455  1.0
  C  C45  1  0.75426795  0.48898315  0.84396655  1.0
  C  C46  1  0.80758049  0.49309173  0.76324387  1.0
  C  C47  1  0.64639848  0.51672176  0.71995323  1.0
  C  C48  1  0.44611422  0.53917237  0.75917617  1.0
  C  C49  1  0.39636740  0.53568413  0.83815975  1.0
  N  N50  1  0.90259891  0.02190008  0.50336683  1.0
  N  N51  1  0.08302535  0.98929822  0.50538854  1.0
  N  N52  1  0.03262841  0.43538708  0.27271213  1.0
  N  N53  1  0.00602448  0.47214276  0.73061443  1.0
  Cl  Cl54  1  0.41376738  0.26512473  0.57476693  1.0
  Cl  Cl55  1  0.50829896  0.73953755  0.57792366  1.0
  O  O56  1  0.48130265  0.49483075  0.39159066  1.0
  O  O57  1  0.04251598  0.61517851  0.50433268  1.0
  O  O58  1  0.86713466  0.50366731  0.60064327  1.0
  O  O59  1  0.61750779  0.39878712  0.50273867  1.0
  O  O60  1  0.52363316  0.52199078  0.60220914  1.0
  O  O61  1  0.96239847  0.39438711  0.49072176  1.0
  O  O62  1  0.13821428  0.50176191  0.39283328  1.0
  O  O63  1  0.38660785  0.61606486  0.49129256  1.0
  O  O64  1  0.76054685  0.54076575  0.46128692  1.0
  O  O65  1  0.24778539  0.47039706  0.53251600  1.0
