# generated using pymatgen
data_Zn4H12C44Br8O21
_symmetry_space_group_name_H-M   'P 1'
_cell_length_a   23.73207800
_cell_length_b   23.73244247
_cell_length_c   23.73083458
_cell_angle_alpha   65.76824088
_cell_angle_beta   72.85498829
_cell_angle_gamma   107.14548973
_symmetry_Int_Tables_number   1
_chemical_formula_structural   Zn4H12C44Br8O21
_chemical_formula_sum   'Zn8 H24 C88 Br16 O42'
_cell_volume   10235.04501400
_cell_formula_units_Z   2
loop_
 _symmetry_equiv_pos_site_id
 _symmetry_equiv_pos_as_xyz
  1  'x, y, z'
loop_
 _atom_site_type_symbol
 _atom_site_label
 _atom_site_symmetry_multiplicity
 _atom_site_fract_x
 _atom_site_fract_y
 _atom_site_fract_z
 _atom_site_occupancy
  Zn  Zn0  1  0.05918187  0.10036163  0.45618559  1.0
  Zn  Zn1  1  0.05917858  0.95880579  0.48463914  1.0
  Zn  Zn2  1  0.94081516  0.95616836  0.60038122  1.0
  Zn  Zn3  1  0.94082053  0.98464192  0.45880805  1.0
  Zn  Zn4  1  0.94344686  0.39962672  0.04119429  1.0
  Zn  Zn5  1  0.05654838  0.54119045  0.89962573  1.0
  Zn  Zn6  1  0.94344644  0.54381001  0.01536425  1.0
  Zn  Zn7  1  0.05654293  0.51535797  0.04382722  1.0
  H  H8  1  0.92047075  0.27084308  0.96339141  1.0
  H  H9  1  0.07946817  0.46340972  0.77081229  1.0
  H  H10  1  0.93178043  0.03191508  0.72973447  1.0
  H  H11  1  0.06815607  0.22969134  0.53192299  1.0
  H  H12  1  0.07953556  0.61616350  0.14960785  1.0
  H  H13  1  0.92051816  0.64970321  0.11606311  1.0
  H  H14  1  0.06811825  0.83841082  0.39995172  1.0
  H  H15  1  0.93179753  0.89988835  0.33847535  1.0
  H  H16  1  0.73836244  0.27027383  0.16156989  1.0
  H  H17  1  0.73835695  0.46806226  0.10006429  1.0
  H  H18  1  0.26577257  0.03658216  0.38392191  1.0
  H  H19  1  0.26576515  0.22913058  0.35039062  1.0
  H  H20  1  0.26162814  0.66161386  0.77027062  1.0
  H  H21  1  0.26163202  0.60010779  0.96807620  1.0
  H  H22  1  0.73423220  0.88392406  0.53658800  1.0
  H  H23  1  0.73422108  0.85034176  0.72916711  1.0
  H  H24  1  0.83724175  0.10254791  0.35308660  1.0
  H  H25  1  0.04439649  0.39745266  0.26530600  1.0
  H  H26  1  0.95560997  0.19031556  0.14692401  1.0
  H  H27  1  0.16278101  0.30970500  0.23465715  1.0
  H  H28  1  0.83724316  0.73470182  0.80969477  1.0
  H  H29  1  0.04438584  0.64692690  0.69031135  1.0
  H  H30  1  0.95563911  0.76532477  0.89744741  1.0
  H  H31  1  0.16276908  0.85306720  0.60255259  1.0
  C  C32  1  0.18359756  0.09177928  0.40822597  1.0
  C  C33  1  0.99999867  0.86260347  0.63741204  1.0
  C  C34  1  0.99997380  0.08978036  0.58981774  1.0
  C  C35  1  0.81639618  0.90821010  0.59179802  1.0
  C  C36  1  0.00001464  0.13740163  0.36259808  1.0
  C  C37  1  0.99997919  0.91018308  0.41021257  1.0
  C  C38  1  0.99998033  0.40820674  0.90819048  1.0
  C  C39  1  0.00001657  0.63740293  0.86259530  1.0
  C  C40  1  0.82039501  0.41018782  0.08979908  1.0
  C  C41  1  0.00000820  0.59182153  0.09177977  1.0
  C  C42  1  1.00000000  0.36259962  0.13740083  1.0
  C  C43  1  0.17959569  0.58981341  0.91019534  1.0
  C  C44  1  0.00001640  0.19558788  0.30441159  1.0
  C  C45  1  0.00000930  0.30442015  0.19558340  1.0
  C  C46  1  0.95734172  0.17951211  0.27668437  1.0
  C  C47  1  0.04381879  0.32048753  0.22217084  1.0
  C  C48  1  0.95619501  0.23401602  0.22332507  1.0
  C  C49  1  0.04267797  0.26598101  0.27782229  1.0
  C  C50  1  0.00000488  0.80442192  0.69559201  1.0
  C  C51  1  0.00001174  0.69558916  0.80441752  1.0
  C  C52  1  0.95734720  0.77782319  0.76599762  1.0
  C  C53  1  0.04381889  0.72333036  0.73400788  1.0
  C  C54  1  0.95620186  0.72217161  0.82050206  1.0
  C  C55  1  0.04267090  0.77669334  0.67950569  1.0
  C  C56  1  0.99996588  0.37079193  0.87077085  1.0
  C  C57  1  0.95517476  0.29895937  0.90763797  1.0
  C  C58  1  0.95563873  0.26436116  0.87262569  1.0
  C  C59  1  0.99998954  0.29965431  0.79963841  1.0
  C  C60  1  0.04432920  0.37263485  0.76434180  1.0
  C  C61  1  0.04477453  0.40766638  0.79892734  1.0
  C  C62  1  0.99999730  0.26432018  0.76430206  1.0
  C  C63  1  0.99999231  0.23363257  0.73363271  1.0
  C  C64  1  0.99998904  0.19829759  0.69828609  1.0
  C  C65  1  0.96123305  0.12401333  0.73493169  1.0
  C  C66  1  0.96130321  0.08884243  0.70049153  1.0
  C  C67  1  0.99997284  0.12721062  0.62722900  1.0
  C  C68  1  0.03863473  0.20046299  0.58885440  1.0
  C  C69  1  0.03872157  0.23491991  0.62401452  1.0
  C  C70  1  0.00002775  0.62926386  0.12917204  1.0
  C  C71  1  0.04483053  0.63720721  0.15620020  1.0
  C  C72  1  0.04436815  0.67175873  0.19126200  1.0
  C  C73  1  0.00000642  0.70037284  0.20033176  1.0
  C  C74  1  0.95566607  0.69132383  0.17168961  1.0
  C  C75  1  0.95521778  0.65628968  0.13710727  1.0
  C  C76  1  0.99998376  0.73568909  0.23568581  1.0
  C  C77  1  0.99997995  0.76635552  0.26638065  1.0
  C  C78  1  0.99997782  0.80168740  0.30172887  1.0
  C  C79  1  0.03869969  0.80377501  0.33727524  1.0
  C  C80  1  0.03861713  0.83814543  0.37252501  1.0
  C  C81  1  0.99996542  0.87274765  0.37280569  1.0
  C  C82  1  0.96131257  0.87246997  0.33819780  1.0
  C  C83  1  0.96123468  0.83722934  0.30382912  1.0
  C  C84  1  0.74554941  0.37276648  0.12722242  1.0
  C  C85  1  0.71067217  0.29950954  0.16184207  1.0
  C  C86  1  0.64105515  0.26506178  0.19621649  1.0
  C  C87  1  0.60341340  0.30169360  0.19830596  1.0
  C  C88  1  0.64105117  0.37597026  0.16274994  1.0
  C  C89  1  0.71066371  0.41113578  0.12749217  1.0
  C  C90  1  0.53273449  0.26635516  0.23364207  1.0
  C  C91  1  0.47137560  0.23566704  0.26433158  1.0
  C  C92  1  0.40070696  0.20033743  0.29966907  1.0
  C  C93  1  0.36301608  0.12735475  0.32830108  1.0
  C  C94  1  0.29340212  0.09232508  0.36288126  1.0
  C  C95  1  0.25843138  0.12919212  0.37082600  1.0
  C  C96  1  0.29340286  0.20102215  0.34379619  1.0
  C  C97  1  0.36302197  0.23562683  0.30873423  1.0
  C  C98  1  0.25443775  0.62726056  0.87276770  1.0
  C  C99  1  0.28931882  0.66187771  0.79950822  1.0
  C  C100  1  0.35894323  0.69626101  0.76504927  1.0
  C  C101  1  0.39657867  0.69834028  0.80167910  1.0
  C  C102  1  0.35893594  0.66278610  0.87597261  1.0
  C  C103  1  0.28932517  0.62753730  0.91114120  1.0
  C  C104  1  0.46725665  0.73366708  0.76635259  1.0
  C  C105  1  0.52862214  0.76434452  0.73567595  1.0
  C  C106  1  0.59928974  0.79966514  0.70034534  1.0
  C  C107  1  0.63698052  0.82830388  0.62736276  1.0
  C  C108  1  0.70659458  0.86287148  0.59233915  1.0
  C  C109  1  0.74156131  0.87080348  0.62920970  1.0
  C  C110  1  0.70658636  0.84375935  0.70105276  1.0
  C  C111  1  0.63697711  0.80870535  0.73564767  1.0
  C  C112  1  0.91704711  0.10479258  0.29786997  1.0
  C  C113  1  0.09735504  0.39520932  0.18774492  1.0
  C  C114  1  0.90265683  0.21490660  0.20214303  1.0
  C  C115  1  0.08298916  0.28509121  0.31224199  1.0
  C  C116  1  0.91704889  0.81224587  0.78511856  1.0
  C  C117  1  0.09735154  0.70214936  0.71489186  1.0
  C  C118  1  0.90267433  0.68774803  0.89523249  1.0
  C  C119  1  0.08296702  0.79788724  0.60477728  1.0
  Br  Br120  1  0.10519909  0.42454252  0.66712913  1.0
  Br  Br121  1  0.89477678  0.16714745  0.92454858  1.0
  Br  Br122  1  0.09230160  0.33382607  0.57027793  1.0
  Br  Br123  1  0.90766773  0.07030370  0.83384203  1.0
  Br  Br124  1  0.89479063  0.72765446  0.18065427  1.0
  Br  Br125  1  0.10526221  0.68073819  0.22757670  1.0
  Br  Br126  1  0.90767326  0.83738751  0.25847766  1.0
  Br  Br127  1  0.09225108  0.75842185  0.33745177  1.0
  Br  Br128  1  0.59586532  0.42969369  0.16257326  1.0
  Br  Br129  1  0.59587296  0.16615042  0.24158218  1.0
  Br  Br130  1  0.40830670  0.33283224  0.27242232  1.0
  Br  Br131  1  0.40831438  0.07545191  0.31931315  1.0
  Br  Br132  1  0.40412673  0.66261082  0.92969458  1.0
  Br  Br133  1  0.40411691  0.74164427  0.66613127  1.0
  Br  Br134  1  0.59167946  0.77236328  0.83286200  1.0
  Br  Br135  1  0.59168929  0.81936134  0.57544149  1.0
  O  O136  1  0.99999878  0.99999330  0.50000310  1.0
  O  O137  1  0.15456431  0.12664321  0.41905421  1.0
  O  O138  1  0.05152229  0.89796557  0.57735924  1.0
  O  O139  1  0.96573109  0.02273589  0.62795687  1.0
  O  O140  1  0.15456445  0.02787546  0.42642605  1.0
  O  O141  1  0.03422288  0.12791723  0.52276420  1.0
  O  O142  1  0.94848027  0.87111841  0.65358527  1.0
  O  O143  1  0.84542771  0.91900780  0.62667572  1.0
  O  O144  1  0.94848627  0.07735999  0.39796451  1.0
  O  O145  1  0.84543098  0.92643612  0.52787871  1.0
  O  O146  1  0.05153589  0.15356306  0.37111561  1.0
  O  O147  1  0.03421818  0.90629278  0.44301711  1.0
  O  O148  1  0.96574546  0.94300304  0.40630643  1.0
  O  O149  1  0.99999600  0.49999385  0.00000392  1.0
  O  O150  1  0.95429455  0.37332562  0.97210945  1.0
  O  O151  1  0.02470028  0.60205579  0.84642188  1.0
  O  O152  1  0.84931021  0.47723927  0.05698529  1.0
  O  O153  1  0.04566369  0.47211140  0.87331431  1.0
  O  O154  1  0.84930780  0.37205495  0.09370081  1.0
  O  O155  1  0.97532861  0.62887513  0.92264800  1.0
  O  O156  1  0.95430356  0.58098114  0.07358162  1.0
  O  O157  1  0.02468173  0.42263934  0.12888305  1.0
  O  O158  1  0.04569281  0.57360097  0.08096913  1.0
  O  O159  1  0.97531562  0.34643648  0.10204270  1.0
  O  O160  1  0.15068350  0.59369884  0.87206257  1.0
  O  O161  1  0.15068722  0.55700031  0.97725090  1.0
  O  O162  1  0.84990857  0.07263484  0.33941341  1.0
  O  O163  1  0.94320533  0.07728048  0.27373281  1.0
  O  O164  1  0.08798144  0.42736325  0.22271973  1.0
  O  O165  1  0.14900380  0.42272535  0.13405177  1.0
  O  O166  1  0.91202378  0.18931121  0.16060527  1.0
  O  O167  1  0.85100370  0.21693412  0.22629056  1.0
  O  O168  1  0.15011942  0.31069644  0.27724794  1.0
  O  O169  1  0.05682611  0.28306093  0.36592116  1.0
  O  O170  1  0.84991931  0.77727538  0.81071146  1.0
  O  O171  1  0.94321915  0.86591713  0.78309894  1.0
  O  O172  1  0.08797834  0.66061777  0.68929297  1.0
  O  O173  1  0.14901002  0.72629709  0.71691124  1.0
  O  O174  1  0.91206008  0.72273109  0.92738346  1.0
  O  O175  1  0.85102368  0.63406623  0.92275262  1.0
  O  O176  1  0.15010660  0.83941982  0.57262009  1.0
  O  O177  1  0.05680284  0.77376199  0.57725854  1.0
