# generated using pymatgen
data_AlH11C15NO6
_symmetry_space_group_name_H-M   'P 1'
_cell_length_a   6.63280477
_cell_length_b   15.38775132
_cell_length_c   16.91106817
_cell_angle_alpha   95.04885214
_cell_angle_beta   96.56582695
_cell_angle_gamma   101.71295674
_symmetry_Int_Tables_number   1
_chemical_formula_structural   AlH11C15NO6
_chemical_formula_sum   'Al2 H22 C30 N2 O12'
_cell_volume   1667.97466206
_cell_formula_units_Z   2
loop_
 _symmetry_equiv_pos_site_id
 _symmetry_equiv_pos_as_xyz
  1  'x, y, z'
loop_
 _atom_site_type_symbol
 _atom_site_label
 _atom_site_symmetry_multiplicity
 _atom_site_fract_x
 _atom_site_fract_y
 _atom_site_fract_z
 _atom_site_occupancy
  Al  Al0  1  0.99849630  0.49877416  0.50152661  1.0
  Al  Al1  1  0.49768473  0.49775636  0.50056507  1.0
  H  H2  1  0.18539577  0.42949621  0.40946474  1.0
  H  H3  1  0.81168254  0.60743545  0.54697548  1.0
  H  H4  1  0.64460853  0.55981814  0.74266553  1.0
  H  H5  1  0.71189892  0.55848642  0.89162534  1.0
  H  H6  1  0.06969944  0.43410835  0.88994315  1.0
  H  H7  1  0.93158026  0.56819297  0.11187008  1.0
  H  H8  1  0.29184542  0.43848371  0.10685793  1.0
  H  H9  1  0.35628675  0.43441309  0.25523513  1.0
  H  H10  1  0.69187892  0.76930278  0.53481184  1.0
  H  H11  1  0.30739381  0.23119894  0.47223236  1.0
  H  H12  1  0.94456440  0.22877112  0.54879425  1.0
  H  H13  1  0.85087949  0.06571865  0.54501478  1.0
  H  H14  1  0.05883245  0.77076734  0.44905278  1.0
  H  H15  1  0.15329852  0.93329094  0.45201930  1.0
  H  H16  1  0.83646998  0.39298594  0.77340664  1.0
  H  H17  1  0.94083971  0.36905468  0.68337044  1.0
  H  H18  1  0.86542385  0.47085276  0.70113274  1.0
  H  H19  1  0.14016885  0.52933581  0.29619907  1.0
  H  H20  1  0.05516860  0.62761403  0.32096899  1.0
  H  H21  1  0.15839277  0.61231686  0.22907671  1.0
  H  H22  1  0.91218430  0.89346713  0.55341571  1.0
  H  H23  1  0.08714533  0.10667518  0.45368608  1.0
  C  C24  1  0.68177496  0.33939719  0.50753966  1.0
  C  C25  1  0.70005933  0.49350363  0.35509018  1.0
  C  C26  1  0.31757693  0.65992513  0.49576885  1.0
  C  C27  1  0.29739082  0.50180018  0.64478787  1.0
  C  C28  1  0.32008258  0.49895450  0.73319114  1.0
  C  C29  1  0.51961843  0.53293021  0.77609233  1.0
  C  C30  1  0.55790991  0.53224743  0.85818666  1.0
  C  C31  1  0.39260100  0.49557533  0.89875026  1.0
  C  C32  1  0.19344403  0.46226199  0.85625386  1.0
  C  C33  1  0.15180618  0.46281514  0.77331616  1.0
  C  C34  1  0.80765789  0.53830205  0.14475350  1.0
  C  C35  1  0.61004989  0.50416143  0.10135267  1.0
  C  C36  1  0.44476747  0.46538361  0.14093686  1.0
  C  C37  1  0.48174241  0.46336812  0.22286427  1.0
  C  C38  1  0.67973179  0.49803572  0.26686297  1.0
  C  C39  1  0.84779954  0.53647360  0.22760220  1.0
  C  C40  1  0.36880355  0.75847408  0.49387043  1.0
  C  C41  1  0.63178634  0.24086175  0.50872695  1.0
  C  C42  1  0.57224895  0.80594818  0.51741424  1.0
  C  C43  1  0.62725330  0.89875536  0.52072487  1.0
  C  C44  1  0.42732889  0.19382919  0.48726708  1.0
  C  C45  1  0.37278235  0.10098626  0.48365546  1.0
  C  C46  1  0.78432641  0.19296534  0.52957834  1.0
  C  C47  1  0.72988623  0.10061365  0.52709222  1.0
  C  C48  1  0.21819102  0.80637073  0.47026595  1.0
  C  C49  1  0.27308364  0.89870715  0.47223957  1.0
  C  C50  1  0.47673520  0.95027323  0.49900106  1.0
  C  C51  1  0.52475759  0.04935027  0.50281218  1.0
  C  C52  1  0.93697945  0.42194917  0.73095254  1.0
  C  C53  1  0.06150277  0.57861868  0.27048126  1.0
  N  N54  1  0.41003106  0.48825875  0.98179658  1.0
  N  N55  1  0.59372217  0.51221736  0.01839098  1.0
  O  O56  1  0.87265115  0.37865796  0.51600365  1.0
  O  O57  1  0.53984195  0.49909853  0.38894059  1.0
  O  O58  1  0.47007248  0.62115279  0.50533335  1.0
  O  O59  1  0.12638090  0.51393627  0.60990240  1.0
  O  O60  1  0.12568707  0.62178392  0.48919122  1.0
  O  O61  1  0.45418589  0.49356236  0.61001825  1.0
  O  O62  1  0.52881020  0.37732523  0.49629079  1.0
  O  O63  1  0.87270408  0.48310330  0.39046716  1.0
  O  O64  1  0.21712108  0.45679602  0.46449516  1.0
  O  O65  1  0.77844431  0.54301199  0.53478551  1.0
  O  O66  1  0.83118315  0.93911380  0.54578787  1.0
  O  O67  1  0.16761384  0.06078972  0.46120491  1.0
