# generated using pymatgen
data_Al4H20C36I5N3O26
_symmetry_space_group_name_H-M   'P 1'
_cell_length_a   6.79238321
_cell_length_b   16.52718210
_cell_length_c   18.49492042
_cell_angle_alpha   73.48060955
_cell_angle_beta   89.76935177
_cell_angle_gamma   89.44993343
_symmetry_Int_Tables_number   1
_chemical_formula_structural   Al4H20C36I5N3O26
_chemical_formula_sum   'Al4 H20 C36 I5 N3 O26'
_cell_volume   1990.42788988
_cell_formula_units_Z   1
loop_
 _symmetry_equiv_pos_site_id
 _symmetry_equiv_pos_as_xyz
  1  'x, y, z'
loop_
 _atom_site_type_symbol
 _atom_site_label
 _atom_site_symmetry_multiplicity
 _atom_site_fract_x
 _atom_site_fract_y
 _atom_site_fract_z
 _atom_site_occupancy
  Al  Al0  1  0.87034466  0.50242017  0.50002055  1.0
  Al  Al1  1  0.36815303  0.50394576  0.49771552  1.0
  Al  Al2  1  0.35554355  0.00141244  0.00353130  1.0
  Al  Al3  1  0.85778126  0.00020720  0.00286975  1.0
  H  H4  1  0.34963721  0.85111941  0.24604701  1.0
  H  H5  1  0.02907011  0.78136969  0.36010852  1.0
  H  H6  1  0.28404617  0.75672800  0.36562276  1.0
  H  H7  1  0.38378335  0.76787189  0.15393291  1.0
  H  H8  1  0.41531143  0.67511287  0.27704102  1.0
  H  H9  1  0.82375305  0.77160346  0.15799134  1.0
  H  H10  1  0.80988848  0.82511933  0.22735933  1.0
  H  H11  1  0.79319762  0.69130021  0.31469586  1.0
  H  H12  1  0.17292865  0.71476041  0.13510847  1.0
  H  H13  1  0.26048640  0.60879019  0.24386793  1.0
  H  H14  1  0.35507213  0.26201080  0.66323630  1.0
  H  H15  1  0.32007970  0.16172732  0.78094471  1.0
  H  H16  1  0.33176858  0.23799090  0.82806152  1.0
  H  H17  1  0.88970150  0.26282705  0.67098840  1.0
  H  H18  1  0.68635560  0.22943516  0.62753014  1.0
  H  H19  1  0.87797159  0.34193958  0.74273911  1.0
  H  H20  1  0.61670835  0.59911548  0.51742065  1.0
  H  H21  1  0.12299669  0.40173448  0.55589929  1.0
  H  H22  1  0.60667709  0.90400725  0.98634270  1.0
  H  H23  1  0.10179809  0.11208820  0.98784862  1.0
  C  C24  1  0.62003756  0.39108061  0.61684199  1.0
  C  C25  1  0.62397429  0.41733452  0.41494781  1.0
  C  C26  1  0.11598644  0.61218186  0.38223422  1.0
  C  C27  1  0.11571239  0.59101632  0.58408981  1.0
  C  C28  1  0.11546029  0.63876322  0.63806561  1.0
  C  C29  1  0.11505539  0.68153122  0.68244783  1.0
  C  C30  1  0.11464838  0.72877062  0.73050529  1.0
  C  C31  1  0.11443116  0.77291303  0.77421714  1.0
  C  C32  1  0.11404010  0.82057296  0.82191745  1.0
  C  C33  1  0.11333615  0.86399035  0.86577467  1.0
  C  C34  1  0.19277089  0.83734597  0.25581510  1.0
  C  C35  1  0.15474140  0.76616467  0.32858042  1.0
  C  C36  1  0.24212867  0.74097026  0.17713273  1.0
  C  C37  1  0.89737142  0.77847832  0.20840258  1.0
  C  C38  1  0.10604758  0.81268214  0.18833518  1.0
  C  C39  1  0.11084508  0.68242635  0.30832916  1.0
  C  C40  1  0.27002323  0.67166200  0.25245029  1.0
  C  C41  1  0.90637305  0.69494412  0.27169517  1.0
  C  C42  1  0.40670515  0.28504378  0.70970313  1.0
  C  C43  1  0.40576936  0.21577332  0.78483614  1.0
  C  C44  1  0.72186594  0.34123642  0.75762319  1.0
  C  C45  1  0.73546745  0.24405053  0.67886377  1.0
  C  C46  1  0.61502214  0.31953635  0.69163268  1.0
  C  C47  1  0.61368046  0.18839634  0.81385953  1.0
  C  C48  1  0.69752733  0.26958929  0.83236715  1.0
  C  C49  1  0.71376559  0.16530380  0.74530648  1.0
  C  C50  1  0.62551305  0.36820342  0.36197087  1.0
  C  C51  1  0.62278809  0.32413107  0.31868657  1.0
  C  C52  1  0.61927595  0.27561500  0.27166288  1.0
  C  C53  1  0.61498293  0.23045258  0.22882771  1.0
  C  C54  1  0.61065858  0.18174144  0.18198522  1.0
  C  C55  1  0.60678428  0.13763667  0.13874225  1.0
  C  C56  1  0.60560202  0.08711448  0.08700719  1.0
  C  C57  1  0.60592277  0.11419478  0.88699006  1.0
  C  C58  1  0.11007062  0.91340350  0.91840189  1.0
  C  C59  1  0.10799804  0.88656725  0.11686960  1.0
  I  I60  1  0.82465674  0.58749783  0.23015510  1.0
  I  I61  1  0.69898516  0.47037373  0.76268965  1.0
  I  I62  1  0.51816612  0.29933825  0.92053560  1.0
  I  I63  1  0.07603089  0.95723803  0.26690646  1.0
  I  I64  1  0.98100884  0.08798345  0.75451818  1.0
  N  N65  1  0.25622802  0.35142187  0.71329981  1.0
  N  N66  1  0.56523727  0.10102696  0.72476177  1.0
  N  N67  1  0.90553466  0.24812730  0.86847063  1.0
  O  O68  1  0.45502671  0.43620214  0.43576626  1.0
  O  O69  1  0.78722272  0.41429222  0.58884463  1.0
  O  O70  1  0.94720013  0.57163741  0.56429502  1.0
  O  O71  1  0.79065940  0.43561244  0.43682021  1.0
  O  O72  1  0.95202393  0.58751551  0.41362013  1.0
  O  O73  1  0.45358347  0.41695744  0.58819933  1.0
  O  O74  1  0.61822999  0.55359412  0.49379896  1.0
  O  O75  1  0.28492075  0.58649918  0.40899903  1.0
  O  O76  1  0.28453153  0.57435627  0.56103675  1.0
  O  O77  1  0.12119959  0.45133386  0.51206476  1.0
  O  O78  1  0.77347491  0.08788856  0.91399921  1.0
  O  O79  1  0.43752492  0.06857374  0.06625298  1.0
  O  O80  1  0.27565633  0.91478781  0.09125522  1.0
  O  O81  1  0.43820661  0.09002268  0.91381394  1.0
  O  O82  1  0.27687068  0.93291266  0.93956752  1.0
  O  O83  1  0.77331393  0.06647616  0.06657185  1.0
  O  O84  1  0.60685022  0.95102871  0.00807199  1.0
  O  O85  1  0.94040334  0.93205511  0.93882424  1.0
  O  O86  1  0.94198346  0.91268122  0.08764427  1.0
  O  O87  1  0.10537805  0.05188433  0.99305201  1.0
  O  O88  1  0.27995825  0.39206977  0.75883422  1.0
  O  O89  1  0.11034042  0.35838900  0.67154556  1.0
  O  O90  1  0.50235638  0.11756008  0.65976395  1.0
  O  O91  1  0.52226443  0.03824910  0.77664835  1.0
  O  O92  1  0.93576621  0.24050609  0.93538578  1.0
  O  O93  1  0.02918022  0.23737986  0.82306980  1.0
