# generated using pymatgen
data_CuH4(C2O)4
_symmetry_space_group_name_H-M   'P 1'
_cell_length_a   5.29225659
_cell_length_b   9.74430915
_cell_length_c   10.88396616
_cell_angle_alpha   88.67038096
_cell_angle_beta   89.09881897
_cell_angle_gamma   88.15400677
_symmetry_Int_Tables_number   1
_chemical_formula_structural   CuH4(C2O)4
_chemical_formula_sum   'Cu2 H8 C16 O8'
_cell_volume   560.77406303
_cell_formula_units_Z   2
loop_
 _symmetry_equiv_pos_site_id
 _symmetry_equiv_pos_as_xyz
  1  'x, y, z'
loop_
 _atom_site_type_symbol
 _atom_site_label
 _atom_site_symmetry_multiplicity
 _atom_site_fract_x
 _atom_site_fract_y
 _atom_site_fract_z
 _atom_site_occupancy
  Cu  Cu0  1  0.29603367  0.43736561  0.50497981  1.0
  Cu  Cu1  1  0.70397249  0.56263374  0.49501929  1.0
  H  H2  1  0.15742274  0.19031644  0.36574184  1.0
  H  H3  1  0.84256828  0.80968181  0.63426002  1.0
  H  H4  1  0.62760948  0.04171852  0.63811281  1.0
  H  H5  1  0.37238549  0.95827665  0.36189001  1.0
  H  H6  1  0.83526113  0.61565361  0.11272303  1.0
  H  H7  1  0.16474668  0.38434881  0.88727695  1.0
  H  H8  1  0.16441325  0.37831564  0.11772504  1.0
  H  H9  1  0.83559277  0.62168576  0.88227402  1.0
  C  C10  1  0.08963110  0.10674605  0.42426095  1.0
  C  C11  1  0.91037736  0.89324818  0.57573637  1.0
  C  C12  1  0.88170231  0.12963335  0.50329102  1.0
  C  C13  1  0.11827931  0.87036175  0.49671546  1.0
  C  C14  1  0.74974101  0.26688489  0.50610148  1.0
  C  C15  1  0.25025591  0.73311135  0.49389764  1.0
  C  C16  1  0.79159601  0.02255317  0.57843521  1.0
  C  C17  1  0.20839668  0.97744921  0.42156475  1.0
  C  C18  1  0.68930285  0.56568268  0.06227298  1.0
  C  C19  1  0.31070123  0.43432079  0.93772330  1.0
  C  C20  1  0.50052946  0.49650844  0.12843726  1.0
  C  C21  1  0.49946344  0.50349086  0.87156274  1.0
  C  C22  1  0.50236617  0.49451646  0.26574134  1.0
  C  C23  1  0.49763771  0.50548801  0.73425861  1.0
  C  C24  1  0.31106386  0.43085226  0.06550998  1.0
  C  C25  1  0.68894560  0.56915220  0.93449273  1.0
  O  O26  1  0.50984698  0.26718936  0.51438993  1.0
  O  O27  1  0.49015146  0.73280992  0.48561375  1.0
  O  O28  1  0.88230092  0.37491607  0.49947444  1.0
  O  O29  1  0.11769434  0.62507918  0.50052010  1.0
  O  O30  1  0.31991608  0.43666007  0.32277371  1.0
  O  O31  1  0.68009970  0.56333726  0.67722449  1.0
  O  O32  1  0.68741761  0.55193103  0.31562902  1.0
  O  O33  1  0.31258019  0.44807959  0.68437084  1.0
