# generated using pymatgen
data_Zn4H26C45BrN5O13
_symmetry_space_group_name_H-M   'P 1'
_cell_length_a   15.61799343
_cell_length_b   19.11874554
_cell_length_c   19.34676184
_cell_angle_alpha   95.09329741
_cell_angle_beta   102.10992483
_cell_angle_gamma   97.01290009
_symmetry_Int_Tables_number   1
_chemical_formula_structural   Zn4H26C45BrN5O13
_chemical_formula_sum   'Zn4 H26 C45 Br1 N5 O13'
_cell_volume   5566.97993968
_cell_formula_units_Z   1
loop_
 _symmetry_equiv_pos_site_id
 _symmetry_equiv_pos_as_xyz
  1  'x, y, z'
loop_
 _atom_site_type_symbol
 _atom_site_label
 _atom_site_symmetry_multiplicity
 _atom_site_fract_x
 _atom_site_fract_y
 _atom_site_fract_z
 _atom_site_occupancy
  Zn  Zn0  1  0.42967828  0.55262673  0.55132655  1.0
  Zn  Zn1  1  0.56807057  0.44784246  0.57187178  1.0
  Zn  Zn2  1  0.57724581  0.55637315  0.45676048  1.0
  Zn  Zn3  1  0.41746326  0.42753623  0.42412457  1.0
  H  H4  1  0.83905974  0.53783707  0.68065117  1.0
  H  H5  1  0.35647803  0.42426934  0.06889349  1.0
  H  H6  1  0.14198525  0.53185414  0.67829219  1.0
  H  H7  1  0.36557048  0.41376532  0.19891582  1.0
  H  H8  1  0.62397107  0.47279375  0.78535977  1.0
  H  H9  1  0.64431234  0.48111931  0.91817712  1.0
  H  H10  1  0.57920505  0.58707769  0.25143163  1.0
  H  H11  1  0.00359354  0.54278103  0.71269506  1.0
  H  H12  1  0.84113008  0.50435357  0.45915045  1.0
  H  H13  1  0.15240929  0.43436698  0.33582677  1.0
  H  H14  1  0.90506792  0.46559780  0.38874153  1.0
  H  H15  1  0.57340370  0.10391801  0.58463975  1.0
  H  H16  1  0.98826266  0.43026038  0.30027338  1.0
  H  H17  1  0.22720236  0.50980484  0.58785443  1.0
  H  H18  1  0.57246429  0.23571157  0.59037834  1.0
  H  H19  1  0.61318165  0.64863652  0.16730096  1.0
  H  H20  1  0.49526641  0.64926442  0.03398850  1.0
  H  H21  1  0.59459521  0.62161456  0.01813496  1.0
  H  H22  1  0.59829154  0.70486219  0.07023727  1.0
  H  H23  1  0.44936395  0.90104675  0.60563358  1.0
  H  H24  1  0.44983768  0.76893021  0.60173238  1.0
  H  H25  1  0.43754485  0.21132844  0.37000268  1.0
  H  H26  1  0.57982589  0.90479933  0.43094951  1.0
  H  H27  1  0.44551380  0.08003802  0.36255602  1.0
  H  H28  1  0.58645788  0.77381071  0.43081703  1.0
  H  H29  1  0.37993600  0.53152296  0.89777989  1.0
  C  C30  1  0.50125507  0.30884579  0.48574064  1.0
  C  C31  1  0.87853333  0.51100535  0.51410263  1.0
  C  C32  1  0.87691413  0.53111032  0.63979284  1.0
  C  C33  1  0.51736856  0.68570815  0.51376470  1.0
  C  C34  1  0.16071018  0.47322883  0.44465462  1.0
  C  C35  1  0.51764401  0.76398664  0.51575704  1.0
  C  C36  1  0.55533105  0.80210863  0.46795642  1.0
  C  C37  1  0.55194041  0.87432492  0.46800836  1.0
  C  C38  1  0.51263511  0.90947902  0.51751602  1.0
  C  C39  1  0.47802272  0.87206681  0.56714858  1.0
  C  C40  1  0.47873218  0.79937646  0.56516088  1.0
  C  C41  1  0.02321611  0.44809730  0.35515179  1.0
  C  C42  1  0.54437659  0.12826952  0.53812928  1.0
  C  C43  1  0.54346266  0.20088821  0.54121742  1.0
  C  C44  1  0.50796957  0.08485595  0.47347559  1.0
  C  C45  1  0.49053693  0.49824136  0.68891656  1.0
  C  C46  1  0.50400661  0.23078404  0.48075462  1.0
  C  C47  1  0.46777318  0.18732149  0.41636763  1.0
  C  C48  1  0.47176154  0.11484640  0.41223008  1.0
  C  C49  1  0.47569478  0.49908141  0.23225427  1.0
  C  C50  1  0.53131980  0.55087540  0.21058302  1.0
  C  C51  1  0.52649703  0.55923489  0.13807342  1.0
  C  C52  1  0.97661180  0.46830424  0.40521899  1.0
  C  C53  1  0.46480908  0.50846491  0.08653525  1.0
  C  C54  1  0.40471862  0.45954867  0.11017295  1.0
  C  C55  1  0.40999498  0.45329777  0.18137622  1.0
  C  C56  1  0.43354669  0.51958310  0.87276356  1.0
  C  C57  1  0.48485006  0.49414935  0.31014904  1.0
  C  C58  1  0.42464475  0.51804382  0.79964076  1.0
  C  C59  1  0.51281856  0.50610704  0.91555594  1.0
  C  C60  1  0.49317084  0.50104918  0.76685560  1.0
  C  C61  1  0.57151640  0.48662554  0.81096936  1.0
  C  C62  1  0.58273222  0.49071918  0.88429290  1.0
  C  C63  1  0.01955443  0.49013777  0.47710535  1.0
  C  C64  1  0.73441958  0.51849736  0.54795693  1.0
  C  C65  1  0.25957749  0.47860666  0.46027993  1.0
  C  C66  1  0.96744615  0.53313440  0.65716910  1.0
  C  C67  1  0.83228397  0.52128189  0.56734045  1.0
  C  C68  1  0.11521406  0.45018960  0.37491702  1.0
  C  C69  1  0.56584906  0.64965026  0.05796468  1.0
  C  C70  1  0.11354646  0.49214288  0.49779516  1.0
  C  C71  1  0.97019221  0.50778421  0.53070168  1.0
  C  C72  1  0.01544741  0.52135790  0.60380212  1.0
  C  C73  1  0.10874511  0.52153510  0.62206593  1.0
  C  C74  1  0.15607129  0.50865613  0.57171527  1.0
  Br  Br75  1  0.31379835  0.53696804  0.74756295  1.0
  N  N76  1  0.50751364  0.98283839  0.52278168  1.0
  N  N77  1  0.50721554  0.01055228  0.46568027  1.0
  N  N78  1  0.45642703  0.49965371  0.01306189  1.0
  N  N79  1  0.52737347  0.51077929  0.99044846  1.0
  N  N80  1  0.57770762  0.61701894  0.12329707  1.0
  O  O81  1  0.49697980  0.49541297  0.49945136  1.0
  O  O82  1  0.69162120  0.49473943  0.59260671  1.0
  O  O83  1  0.29230706  0.43250471  0.42571975  1.0
  O  O84  1  0.70044790  0.53909374  0.48845165  1.0
  O  O85  1  0.30359736  0.53002422  0.50549768  1.0
  O  O86  1  0.44495501  0.53894697  0.65282006  1.0
  O  O87  1  0.42990225  0.44796866  0.32815769  1.0
  O  O88  1  0.55394726  0.34647780  0.53932838  1.0
  O  O89  1  0.56425354  0.65719128  0.47550528  1.0
  O  O90  1  0.44666174  0.33123750  0.43670430  1.0
  O  O91  1  0.46935906  0.65365078  0.55047228  1.0
  O  O92  1  0.53706565  0.45530580  0.66516892  1.0
  O  O93  1  0.54716582  0.53664754  0.35246051  1.0
