# generated using pymatgen
data_MgH9C18O5
_symmetry_space_group_name_H-M   'P 1'
_cell_length_a   6.91732385
_cell_length_b   43.61599709
_cell_length_c   43.61882534
_cell_angle_alpha   119.72687139
_cell_angle_beta   93.03489979
_cell_angle_gamma   93.02714898
_symmetry_Int_Tables_number   1
_chemical_formula_structural   MgH9C18O5
_chemical_formula_sum   'Mg6 H54 C108 O30'
_cell_volume   11364.62603779
_cell_formula_units_Z   6
loop_
 _symmetry_equiv_pos_site_id
 _symmetry_equiv_pos_as_xyz
  1  'x, y, z'
loop_
 _atom_site_type_symbol
 _atom_site_label
 _atom_site_symmetry_multiplicity
 _atom_site_fract_x
 _atom_site_fract_y
 _atom_site_fract_z
 _atom_site_occupancy
  Mg  Mg0  1  0.98699568  0.67029616  0.31142081  1.0
  Mg  Mg1  1  0.67563415  0.68858274  0.35887959  1.0
  Mg  Mg2  1  0.31660454  0.64111424  0.32971335  1.0
  Mg  Mg3  1  0.70553389  0.33745160  0.69235028  1.0
  Mg  Mg4  1  0.01330408  0.30767717  0.64508852  1.0
  Mg  Mg5  1  0.36817560  0.35495826  0.66258056  1.0
  H  H6  1  0.87721362  0.98785025  0.62444765  1.0
  H  H7  1  0.25360020  0.37554008  0.36341370  1.0
  H  H8  1  0.89000988  0.63656190  0.01217509  1.0
  H  H9  1  0.30101314  0.97233732  0.55396841  1.0
  H  H10  1  0.74748474  0.44593941  0.41826212  1.0
  H  H11  1  0.32895282  0.58170998  0.02769571  1.0
  H  H12  1  0.38678917  0.84997697  0.46557513  1.0
  H  H13  1  0.92187472  0.53444839  0.38436269  1.0
  H  H14  1  0.53738573  0.61560565  0.15006486  1.0
  H  H15  1  0.68180977  0.83455757  0.42509233  1.0
  H  H16  1  0.25722442  0.57489308  0.40952776  1.0
  H  H17  1  0.84763503  0.59043357  0.16535063  1.0
  H  H18  1  0.82354796  0.89020695  0.47843235  1.0
  H  H19  1  0.34590278  0.52155047  0.41178595  1.0
  H  H20  1  0.93401890  0.58811090  0.10972069  1.0
  H  H21  1  0.71611017  0.77210984  0.37977310  1.0
  H  H22  1  0.33654160  0.62021735  0.39239933  1.0
  H  H23  1  0.94375030  0.60766910  0.22781833  1.0
  H  H24  1  0.41764183  0.78717823  0.42042200  1.0
  H  H25  1  0.99734868  0.57962763  0.36675893  1.0
  H  H26  1  0.63057094  0.63321951  0.21289819  1.0
  H  H27  1  0.46975050  0.86640522  0.51490629  1.0
  H  H28  1  0.95563496  0.48511829  0.35154099  1.0
  H  H29  1  0.60351303  0.64850666  0.13360750  1.0
  H  H30  1  0.79540914  0.89194996  0.54700946  1.0
  H  H31  1  0.24914088  0.45299309  0.34496884  1.0
  H  H32  1  0.90377482  0.65502496  0.10806969  1.0
  H  H33  1  0.00411771  0.94919509  0.56256821  1.0
  H  H34  1  0.44216862  0.43739577  0.38657872  1.0
  H  H35  1  0.05528223  0.61337425  0.05085205  1.0
  H  H36  1  0.45801800  0.01897725  0.55860632  1.0
  H  H37  1  0.89967237  0.44135262  0.46030091  1.0
  H  H38  1  0.43895953  0.53969792  0.98106725  1.0
  H  H39  1  0.28751920  0.14583854  0.59976056  1.0
  H  H40  1  0.68754479  0.40020482  0.54601406  1.0
  H  H41  1  0.14123248  0.45403223  0.85418959  1.0
  H  H42  1  0.00498885  0.17087260  0.63180479  1.0
  H  H43  1  0.37298618  0.36816327  0.53900459  1.0
  H  H44  1  0.83378149  0.46094862  0.82915303  1.0
  H  H45  1  0.84602702  0.11069316  0.60932160  1.0
  H  H46  1  0.23654053  0.39064549  0.50131051  1.0
  H  H47  1  0.73514816  0.49860136  0.88935444  1.0
  H  H48  1  0.97893140  0.23463659  0.65220979  1.0
  H  H49  1  0.32659804  0.34776983  0.58237265  1.0
  H  H50  1  0.74401527  0.41761247  0.76539556  1.0
  H  H51  1  0.26727966  0.21005642  0.61704133  1.0
  H  H52  1  0.65033661  0.38302443  0.59303420  1.0
  H  H53  1  0.05684637  0.40705940  0.78998208  1.0
  H  H54  1  0.64822321  0.11178094  0.65822622  1.0
  H  H55  1  0.98989852  0.34172269  0.45348367  1.0
  H  H56  1  0.53667845  0.54645327  0.88824586  1.0
  H  H57  1  0.80426377  0.07408758  0.67878293  1.0
  H  H58  1  0.12592825  0.32120316  0.39529785  1.0
  H  H59  1  0.73094802  0.60464369  0.92592360  1.0
  C  C60  1  0.72635966  0.02564629  0.63002092  1.0
  C  C61  1  0.09699695  0.36996577  0.39561778  1.0
  C  C62  1  0.70144194  0.60432949  0.97435685  1.0
  C  C63  1  0.62278292  0.00886258  0.59575666  1.0
  C  C64  1  0.02754335  0.40421531  0.41307133  1.0
  C  C65  1  0.61428523  0.58690360  0.99115650  1.0
  C  C66  1  0.58964540  0.96985649  0.57260227  1.0
  C  C67  1  0.01774615  0.42738256  0.39724012  1.0
  C  C68  1  0.62013323  0.60276356  0.03016084  1.0
  C  C69  1  0.41089179  0.95481211  0.55261484  1.0
  C  C70  1  0.85895124  0.44734483  0.40216026  1.0
  C  C71  1  0.45646001  0.59783873  0.04521012  1.0
  C  C72  1  0.36614522  0.91805542  0.52997664  1.0
  C  C73  1  0.83681724  0.46999807  0.38806199  1.0
  C  C74  1  0.44840263  0.61192932  0.08195479  1.0
  C  C75  1  0.17260852  0.90753085  0.51012663  1.0
  C  C76  1  0.66303614  0.48982983  0.39735122  1.0
  C  C77  1  0.26542769  0.60260024  0.09248122  1.0
  C  C78  1  0.11305432  0.87343392  0.47680944  1.0
  C  C79  1  0.63687521  0.52314464  0.39656715  1.0
  C  C80  1  0.24017676  0.60336266  0.12656613  1.0
  C  C81  1  0.23120734  0.84656285  0.45809618  1.0
  C  C82  1  0.77372092  0.54189887  0.38845177  1.0
  C  C83  1  0.38517754  0.61152417  0.15345260  1.0
  C  C84  1  0.15243321  0.81365112  0.42874401  1.0
  C  C85  1  0.72410241  0.57127981  0.38494414  1.0
  C  C86  1  0.33909615  0.61505579  0.18634658  1.0
  C  C87  1  0.94965882  0.80881879  0.41680809  1.0
  C  C88  1  0.53326392  0.58320963  0.39206010  1.0
  C  C89  1  0.14105361  0.60794701  0.19114236  1.0
  C  C90  1  0.83454740  0.83764802  0.43469802  1.0
  C  C91  1  0.40038989  0.56530171  0.40299439  1.0
  C  C92  1  0.99728607  0.59699128  0.16229435  1.0
  C  C93  1  0.91240535  0.86844727  0.46394742  1.0
  C  C94  1  0.44909168  0.53602626  0.40448886  1.0
  C  C95  1  0.04450150  0.59544394  0.13151098  1.0
  C  C96  1  0.87010152  0.77584240  0.38873649  1.0
  C  C97  1  0.48158153  0.61126627  0.38714683  1.0
  C  C98  1  0.09410738  0.61287051  0.22410672  1.0
  C  C99  1  0.97799107  0.74664709  0.37276196  1.0
  C  C100  1  0.60520225  0.62724991  0.37389766  1.0
  C  C101  1  0.23100621  0.62610118  0.25334043  1.0
  C  C102  1  0.18343224  0.75135560  0.38458328  1.0
  C  C103  1  0.79881300  0.61543912  0.36678473  1.0
  C  C104  1  0.43182242  0.63323541  0.24867163  1.0
  C  C105  1  0.26395643  0.78451146  0.41157858  1.0
  C  C106  1  0.85256218  0.58846658  0.37296371  1.0
  C  C107  1  0.47951005  0.62704755  0.21552393  1.0
  C  C108  1  0.30985288  0.72178595  0.37074471  1.0
  C  C109  1  0.93904219  0.62927786  0.35106679  1.0
  C  C110  1  0.58787297  0.64894229  0.27823539  1.0
  C  C111  1  0.50416887  0.89500374  0.52898391  1.0
  C  C112  1  0.97598255  0.47104118  0.36606222  1.0
  C  C113  1  0.60951884  0.63396129  0.10500905  1.0
  C  C114  1  0.68468412  0.90912811  0.54773959  1.0
  C  C115  1  0.13770277  0.45226982  0.36142156  1.0
  C  C116  1  0.77590638  0.63858231  0.09088266  1.0
  C  C117  1  0.73078220  0.94594308  0.56785666  1.0
  C  C118  1  0.16364615  0.43212440  0.37808328  1.0
  C  C119  1  0.78523502  0.62190309  0.05406700  1.0
  C  C120  1  0.53521278  0.03068670  0.58493443  1.0
  C  C121  1  0.95053166  0.41502657  0.44568959  1.0
  C  C122  1  0.50465089  0.55427947  0.96934110  1.0
  C  C123  1  0.54652016  0.06751368  0.60631165  1.0
  C  C124  1  0.94040990  0.39365659  0.46114422  1.0
  C  C125  1  0.47916840  0.53880872  0.93251253  1.0
  C  C126  1  0.45505265  0.08904452  0.59257189  1.0
  C  C127  1  0.86248035  0.40739174  0.49639755  1.0
  C  C128  1  0.36584524  0.50357581  0.91097765  1.0
  C  C129  1  0.55335322  0.12503419  0.60457758  1.0
  C  C130  1  0.94862369  0.39540863  0.52040599  1.0
  C  C131  1  0.42799230  0.47958767  0.87498812  1.0
  C  C132  1  0.44378329  0.15184527  0.60735487  1.0
  C  C133  1  0.83626550  0.39264728  0.54444707  1.0
  C  C134  1  0.29150461  0.45559182  0.84817574  1.0
  C  C135  1  0.53094884  0.18670343  0.62045897  1.0
  C  C136  1  0.91038226  0.37954455  0.56620611  1.0
  C  C137  1  0.34384902  0.43383471  0.81332681  1.0
  C  C138  1  0.73726693  0.19398270  0.63019258  1.0
  C  C139  1  0.10690114  0.36978198  0.56372719  1.0
  C  C140  1  0.54290316  0.43629057  0.80605004  1.0
  C  C141  1  0.84788039  0.16559437  0.62525809  1.0
  C  C142  1  0.22239431  0.37468737  0.54025173  1.0
  C  C143  1  0.68193425  0.45972068  0.83443877  1.0
  C  C144  1  0.75875294  0.13218537  0.61303551  1.0
  C  C145  1  0.14554368  0.38692636  0.51907971  1.0
  C  C146  1  0.62629662  0.48086719  0.86785614  1.0
  C  C147  1  0.82292176  0.22884408  0.64460208  1.0
  C  C148  1  0.17826751  0.35541168  0.58421075  1.0
  C  C149  1  0.59380101  0.41581585  0.77119813  1.0
  C  C150  1  0.71566076  0.25693283  0.65009799  1.0
  C  C151  1  0.06561336  0.34994209  0.60682601  1.0
  C  C152  1  0.45846579  0.39322618  0.74310241  1.0
  C  C153  1  0.50815156  0.24955439  0.63944854  1.0
  C  C154  1  0.86874655  0.36059654  0.61011085  1.0
  C  C155  1  0.25831641  0.38995242  0.75047712  1.0
  C  C156  1  0.42308002  0.21503237  0.62505398  1.0
  C  C157  1  0.79804719  0.37498753  0.58998104  1.0
  C  C158  1  0.20767235  0.41007850  0.78499595  1.0
  C  C159  1  0.38211351  0.27726639  0.64270936  1.0
  C  C160  1  0.73948093  0.35735032  0.63458130  1.0
  C  C161  1  0.10465507  0.36548468  0.72276220  1.0
  C  C162  1  0.64203647  0.08317939  0.64066442  1.0
  C  C163  1  0.00150601  0.35929949  0.44245885  1.0
  C  C164  1  0.55916873  0.55748150  0.91684422  1.0
  C  C165  1  0.72851706  0.06245793  0.65234849  1.0
  C  C166  1  0.07655598  0.34763340  0.41008418  1.0
  C  C167  1  0.66666667  0.58985190  0.93755395  1.0
  O  O168  1  0.48819179  0.72646580  0.38219640  1.0
  O  O169  1  0.10589028  0.61780761  0.34427924  1.0
  O  O170  1  0.76151808  0.65572183  0.27356462  1.0
  O  O171  1  0.23362877  0.69065700  0.34666516  1.0
  O  O172  1  0.88705722  0.65337408  0.34403706  1.0
  O  O173  1  0.54284803  0.65595728  0.30935385  1.0
  O  O174  1  0.88497579  0.71545823  0.34793805  1.0
  O  O175  1  0.53689813  0.65207737  0.36754780  1.0
  O  O176  1  0.16905376  0.63244493  0.28451323  1.0
  O  O177  1  0.20289182  0.26975612  0.63137028  1.0
  O  O178  1  0.57171248  0.36873734  0.63845494  1.0
  O  O179  1  0.93296345  0.36160950  0.73026027  1.0
  O  O180  1  0.45982433  0.30959457  0.65772419  1.0
  O  O181  1  0.80214701  0.34230286  0.65185872  1.0
  O  O182  1  0.15009661  0.34819862  0.69044229  1.0
  O  O183  1  0.80903537  0.28957647  0.66484678  1.0
  O  O184  1  0.14431732  0.33518068  0.62470489  1.0
  O  O185  1  0.51928018  0.37533853  0.71046877  1.0
  O  O186  1  0.81958880  0.00798753  0.64380029  1.0
  O  O187  1  0.17671588  0.35618483  0.36420843  1.0
  O  O188  1  0.81254104  0.63574379  0.99199505  1.0
  O  O189  1  0.04512127  0.92903894  0.52182330  1.0
  O  O190  1  0.52374304  0.47813977  0.40714425  1.0
  O  O191  1  0.11635687  0.59280120  0.07098975  1.0
  O  O192  1  0.91694648  0.95899681  0.58269307  1.0
  O  O193  1  0.33488756  0.41726355  0.37627958  1.0
  O  O194  1  0.95835073  0.62369289  0.04103097  1.0
  O  O195  1  0.30450242  0.07770728  0.57216535  1.0
  O  O196  1  0.73230458  0.42778097  0.50541978  1.0
  O  O197  1  0.22646860  0.49455236  0.92230292  1.0
