# generated using pymatgen
data_Zn8H37C66NO28
_symmetry_space_group_name_H-M   'P 1'
_cell_length_a   18.47571645
_cell_length_b   18.47987085
_cell_length_c   18.48671309
_cell_angle_alpha   89.89549358
_cell_angle_beta   60.03713988
_cell_angle_gamma   119.87005626
_symmetry_Int_Tables_number   1
_chemical_formula_structural   Zn8H37C66NO28
_chemical_formula_sum   'Zn8 H37 C66 N1 O28'
_cell_volume   4470.37407520
_cell_formula_units_Z   1
loop_
 _symmetry_equiv_pos_site_id
 _symmetry_equiv_pos_as_xyz
  1  'x, y, z'
loop_
 _atom_site_type_symbol
 _atom_site_label
 _atom_site_symmetry_multiplicity
 _atom_site_fract_x
 _atom_site_fract_y
 _atom_site_fract_z
 _atom_site_occupancy
  Zn  Zn0  1  0.08573385  0.54359311  0.04447216  1.0
  Zn  Zn1  1  0.08744513  0.54472814  0.86999212  1.0
  Zn  Zn2  1  0.91241843  0.54301586  0.04471056  1.0
  Zn  Zn3  1  0.91304628  0.37049571  0.04286215  1.0
  Zn  Zn4  1  0.91175179  0.95718608  0.45785536  1.0
  Zn  Zn5  1  0.08665127  0.95795726  0.45612667  1.0
  Zn  Zn6  1  0.91350941  0.95944886  0.62983997  1.0
  Zn  Zn7  1  0.08660791  0.13128883  0.45608007  1.0
  H  H8  1  0.87529638  0.40123503  0.42965521  1.0
  H  H9  1  0.06514111  0.28870046  0.03181080  1.0
  H  H10  1  0.12519391  0.19582628  0.97423648  1.0
  H  H11  1  0.12499610  0.09987551  0.07011933  1.0
  H  H12  1  0.06503561  0.09771261  0.22290703  1.0
  H  H13  1  0.93377617  0.21136391  0.46783695  1.0
  H  H14  1  0.87588671  0.30568454  0.52507565  1.0
  H  H15  1  0.93320273  0.40232451  0.27740576  1.0
  H  H16  1  0.88952615  0.70951848  0.19698822  1.0
  H  H17  1  0.89056411  0.80548039  0.29109759  1.0
  H  H18  1  0.20994856  0.83701693  0.25999150  1.0
  H  H19  1  0.10809099  0.74112386  0.35642027  1.0
  H  H20  1  0.20915783  0.74004927  0.16392868  1.0
  H  H21  1  0.10771081  0.64417890  0.26043976  1.0
  H  H22  1  0.59416486  0.41332661  0.20396788  1.0
  H  H23  1  0.40416131  0.31822135  0.29879329  1.0
  H  H24  1  0.40403589  0.03209579  0.34500786  1.0
  H  H25  1  0.40382938  0.03291048  0.24870866  1.0
  H  H26  1  0.59697628  0.12869340  0.24835901  1.0
  H  H27  1  0.59679715  0.12965326  0.15205883  1.0
  H  H28  1  0.10921564  0.41574958  0.68094170  1.0
  H  H29  1  0.10922481  0.32093489  0.58580384  1.0
  H  H30  1  0.78963759  0.03257454  0.87260132  1.0
  H  H31  1  0.89084742  0.03711987  0.86734306  1.0
  H  H32  1  0.79020398  0.12908337  0.96903072  1.0
  H  H33  1  0.89112959  0.13340890  0.96408676  1.0
  H  H34  1  0.88258639  0.70297520  0.91375373  1.0
  H  H35  1  0.88450082  0.79933004  0.81747931  1.0
  H  H36  1  0.11788735  0.74559077  0.53536541  1.0
  H  H37  1  0.21698926  0.84405907  0.53142494  1.0
  H  H38  1  0.21634266  0.74825579  0.63049126  1.0
  H  H39  1  0.40445751  0.70091320  0.91488415  1.0
  H  H40  1  0.59449493  0.79577560  0.81985463  1.0
  H  H41  1  0.59612192  0.84845645  0.53403650  1.0
  H  H42  1  0.59586756  0.75191222  0.53326244  1.0
  H  H43  1  0.40302522  0.75219793  0.63042999  1.0
  H  H44  1  0.40287690  0.65589607  0.62969177  1.0
  C  C45  1  0.00149435  0.36386058  0.86087442  1.0
  C  C46  1  0.99786836  0.63800350  0.13972302  1.0
  C  C47  1  0.27607295  0.63953950  0.86340806  1.0
  C  C48  1  0.72306416  0.36234047  0.13859149  1.0
  C  C49  1  0.99813577  0.63804230  0.86315297  1.0
  C  C50  1  0.99880671  0.36129404  0.13878918  1.0
  C  C51  1  0.06520891  0.24755755  0.07402259  1.0
  C  C52  1  0.09836040  0.19537595  0.04196164  1.0
  C  C53  1  0.09835382  0.14096195  0.09636148  1.0
  C  C54  1  0.06524800  0.14003570  0.18158186  1.0
  C  C55  1  0.03039547  0.19351473  0.21758691  1.0
  C  C56  1  0.03031402  0.24884290  0.16228251  1.0
  C  C57  1  0.99876623  0.19575153  0.30396896  1.0
  C  C58  1  0.96730020  0.25066223  0.33783976  1.0
  C  C59  1  0.96726685  0.30605339  0.28256207  1.0
  C  C60  1  0.99866482  0.30368160  0.19619167  1.0
  C  C61  1  0.93333691  0.25237438  0.42585461  1.0
  C  C62  1  0.90125440  0.30522837  0.45778266  1.0
  C  C63  1  0.90107983  0.35958872  0.40351227  1.0
  C  C64  1  0.93308979  0.35995527  0.31856997  1.0
  C  C65  1  0.05940568  0.72010462  0.22757516  1.0
  C  C66  1  0.99883901  0.69529332  0.19605772  1.0
  C  C67  1  0.93781919  0.72765103  0.22049917  1.0
  C  C68  1  0.93838051  0.78141633  0.27324368  1.0
  C  C69  1  0.99998347  0.80621275  0.30493083  1.0
  C  C70  1  0.05993248  0.77399125  0.28050704  1.0
  C  C71  1  0.13675868  0.77244809  0.28884368  1.0
  C  C72  1  0.13629624  0.71160551  0.22878824  1.0
  C  C73  1  0.55331614  0.21281621  0.22291322  1.0
  C  C74  1  0.60950294  0.30492671  0.19537432  1.0
  C  C75  1  0.55260453  0.34150075  0.22434983  1.0
  C  C76  1  0.44613156  0.28821184  0.27752160  1.0
  C  C77  1  0.38980448  0.19490576  0.30517838  1.0
  C  C78  1  0.44654972  0.15936511  0.27631614  1.0
  C  C79  1  0.43987620  0.07413853  0.27902519  1.0
  C  C80  1  0.56074687  0.13468261  0.21853756  1.0
  C  C81  1  0.94025362  0.21498592  0.83967684  1.0
  C  C82  1  0.00076486  0.30703908  0.80414904  1.0
  C  C83  1  0.06178078  0.34396969  0.71090471  1.0
  C  C84  1  0.06147661  0.29074016  0.65757208  1.0
  C  C85  1  0.00012524  0.19747489  0.69411680  1.0
  C  C86  1  0.93993040  0.16169544  0.78621807  1.0
  C  C87  1  0.86267763  0.07644353  0.86438955  1.0
  C  C88  1  0.86300977  0.13682124  0.92489286  1.0
  C  C89  1  0.06202261  0.72349780  0.71391366  1.0
  C  C90  1  0.99834705  0.69507202  0.80600320  1.0
  C  C91  1  0.93401441  0.72395030  0.84191954  1.0
  C  C92  1  0.93522780  0.77805366  0.78787230  1.0
  C  C93  1  0.00051652  0.80660035  0.69468379  1.0
  C  C94  1  0.06326790  0.77703698  0.65970831  1.0
  C  C95  1  0.14413895  0.77904340  0.57478615  1.0
  C  C96  1  0.14474118  0.72035228  0.63673439  1.0
  C  C97  1  0.44611324  0.72439675  0.71403228  1.0
  C  C98  1  0.38966688  0.69558421  0.80622170  1.0
  C  C99  1  0.44626481  0.72268837  0.84299334  1.0
  C  C100  1  0.55273339  0.77577214  0.78973979  1.0
  C  C101  1  0.60937285  0.80495468  0.69635084  1.0
  C  C102  1  0.55292050  0.77751599  0.66062317  1.0
  C  C103  1  0.55994076  0.78198298  0.57527526  1.0
  C  C104  1  0.43909040  0.72179102  0.63570336  1.0
  C  C105  1  0.27623835  0.13859669  0.36193598  1.0
  C  C106  1  0.72296187  0.86208640  0.63994094  1.0
  C  C107  1  0.99983727  0.86328898  0.36149603  1.0
  C  C108  1  0.00011870  0.14101598  0.63701693  1.0
  C  C109  1  0.00068927  0.86393503  0.63785501  1.0
  C  C110  1  0.99894435  0.13848615  0.36138144  1.0
  N  N111  1  0.11190213  0.62930093  0.62817337  1.0
  O  O112  1  0.99990757  0.50066174  0.00019042  1.0
  O  O113  1  0.94086539  0.32345390  0.94459505  1.0
  O  O114  1  0.05667775  0.61304364  0.12074147  1.0
  O  O115  1  0.23262504  0.61870296  0.82318049  1.0
  O  O116  1  0.76689440  0.44594725  0.11795016  1.0
  O  O117  1  0.06113579  0.61751049  0.82236675  1.0
  O  O118  1  0.93618257  0.32196170  0.11792977  1.0
  O  O119  1  0.93624665  0.61536946  0.94658416  1.0
  O  O120  1  0.06155650  0.44463995  0.11587624  1.0
  O  O121  1  0.23153790  0.61720330  0.94715632  1.0
  O  O122  1  0.76722223  0.32268770  0.11524159  1.0
  O  O123  1  0.06213502  0.44749162  0.82192689  1.0
  O  O124  1  0.93885577  0.61850726  0.11510273  1.0
  O  O125  1  0.99980797  0.00116667  0.49989851  1.0
  O  O126  1  0.23187643  0.17795873  0.38497980  1.0
  O  O127  1  0.76655642  0.88293557  0.55624907  1.0
  O  O128  1  0.05963164  0.88292390  0.38538530  1.0
  O  O129  1  0.94077422  0.05738214  0.67722694  1.0
  O  O130  1  0.06293110  0.88557837  0.55432618  1.0
  O  O131  1  0.06358407  0.17822781  0.38003297  1.0
  O  O132  1  0.93928792  0.88611129  0.67717096  1.0
  O  O133  1  0.93439137  0.05513789  0.38656727  1.0
  O  O134  1  0.94062659  0.88783761  0.38144317  1.0
  O  O135  1  0.05860935  0.17991585  0.55328548  1.0
  O  O136  1  0.23262535  0.05487446  0.38289323  1.0
  O  O137  1  0.76747443  0.88569419  0.67918207  1.0
  O  O138  1  0.17191016  0.60871301  0.60920070  1.0
  O  O139  1  0.02819197  0.58268419  0.63941262  1.0
