# generated using pymatgen
data_ZnH11C23N3O5
_symmetry_space_group_name_H-M   'P 1'
_cell_length_a   12.03686218
_cell_length_b   13.13549916
_cell_length_c   14.66691196
_cell_angle_alpha   90.75739161
_cell_angle_beta   108.31917633
_cell_angle_gamma   96.40507920
_symmetry_Int_Tables_number   1
_chemical_formula_structural   ZnH11C23N3O5
_chemical_formula_sum   'Zn2 H22 C46 N6 O10'
_cell_volume   2184.85424486
_cell_formula_units_Z   2
loop_
 _symmetry_equiv_pos_site_id
 _symmetry_equiv_pos_as_xyz
  1  'x, y, z'
loop_
 _atom_site_type_symbol
 _atom_site_label
 _atom_site_symmetry_multiplicity
 _atom_site_fract_x
 _atom_site_fract_y
 _atom_site_fract_z
 _atom_site_occupancy
  Zn  Zn0  1  0.88474545  0.49839648  0.51582547  1.0
  Zn  Zn1  1  0.11525141  0.50160900  0.48417210  1.0
  H  H2  1  0.79126984  0.60549559  0.63849779  1.0
  H  H3  1  0.20872400  0.39449146  0.36149814  1.0
  H  H4  1  0.40032814  0.36979998  0.33587741  1.0
  H  H5  1  0.59967057  0.63018410  0.66412119  1.0
  H  H6  1  0.99168741  0.44866260  0.16339500  1.0
  H  H7  1  0.00832055  0.55134078  0.83660693  1.0
  H  H8  1  0.12710611  0.56342810  0.01222827  1.0
  H  H9  1  0.87288412  0.43655125  0.98777003  1.0
  H  H10  1  0.51522279  0.51290610  0.19347410  1.0
  H  H11  1  0.48476332  0.48705483  0.80653249  1.0
  H  H12  1  0.10700120  0.17530117  0.44107484  1.0
  H  H13  1  0.89298576  0.82468730  0.55892128  1.0
  H  H14  1  0.84046671  0.18206948  0.57754938  1.0
  H  H15  1  0.15952941  0.81792986  0.42244863  1.0
  H  H16  1  0.17204461  0.00794638  0.40911616  1.0
  H  H17  1  0.82794807  0.99205367  0.59088229  1.0
  H  H18  1  0.70803722  0.27828521  0.44597680  1.0
  H  H19  1  0.62763930  0.26297565  0.31982076  1.0
  H  H20  1  0.54819602  0.25995699  0.40539827  1.0
  H  H21  1  0.37236564  0.73700930  0.68017954  1.0
  H  H22  1  0.29195429  0.72170033  0.55403622  1.0
  H  H23  1  0.45178933  0.74003220  0.59459469  1.0
  C  C24  1  0.01955819  0.69760581  0.50111825  1.0
  C  C25  1  0.98044328  0.30239284  0.49887371  1.0
  C  C26  1  0.47065527  0.51473315  0.11686042  1.0
  C  C27  1  0.52933277  0.48524389  0.88314477  1.0
  C  C28  1  0.35323499  0.52883984  0.08687874  1.0
  C  C29  1  0.64675234  0.47113794  0.91312285  1.0
  C  C30  1  0.97380759  0.18859674  0.50682295  1.0
  C  C31  1  0.02618207  0.81139942  0.49317191  1.0
  C  C32  1  0.11195056  0.96790636  0.44284278  1.0
  C  C33  1  0.88804896  0.03209306  0.55716093  1.0
  C  C34  1  0.10560209  0.86322745  0.45025763  1.0
  C  C35  1  0.89439145  0.13677261  0.54974173  1.0
  C  C36  1  0.95444941  0.86609832  0.52738911  1.0
  C  C37  1  0.04555533  0.13390652  0.47260719  1.0
  C  C38  1  0.95970955  0.97381972  0.52161758  1.0
  C  C39  1  0.04028527  0.02617577  0.47837937  1.0
  C  C40  1  0.39819977  0.41729217  0.39645210  1.0
  C  C41  1  0.60180778  0.58269971  0.60354692  1.0
  C  C42  1  0.29273568  0.43074342  0.40964771  1.0
  C  C43  1  0.70726062  0.56924901  0.59034552  1.0
  C  C44  1  0.38227398  0.54096405  0.54515574  1.0
  C  C45  1  0.61772506  0.45903764  0.45484240  1.0
  C  C46  1  0.07614499  0.50089016  0.68739923  1.0
  C  C47  1  0.92386693  0.49912399  0.31260046  1.0
  C  C48  1  0.49663808  0.53185516  0.53840396  1.0
  C  C49  1  0.50336308  0.46814431  0.46160565  1.0
  C  C50  1  0.14872595  0.50382144  0.79218891  1.0
  C  C51  1  0.85127535  0.49618566  0.20781534  1.0
  C  C52  1  0.16576552  0.54293747  0.95747244  1.0
  C  C53  1  0.83423401  0.45706117  0.04252717  1.0
  C  C54  1  0.09985774  0.53574382  0.86147798  1.0
  C  C55  1  0.90014365  0.46426404  0.13852630  1.0
  C  C56  1  0.26488371  0.47871023  0.82026396  1.0
  C  C57  1  0.73510938  0.52129976  0.17972922  1.0
  C  C58  1  0.34033495  0.49867322  0.91793681  1.0
  C  C59  1  0.65966360  0.50132308  0.08205501  1.0
  C  C60  1  0.28532792  0.52537262  0.98668123  1.0
  C  C61  1  0.71466402  0.47461286  0.01331281  1.0
  C  C62  1  0.46711262  0.49502347  0.94995437  1.0
  C  C63  1  0.53287271  0.50496807  0.05005156  1.0
  C  C64  1  0.29673990  0.54447437  0.15713869  1.0
  C  C65  1  0.70325389  0.45547752  0.84287060  1.0
  C  C66  1  0.69949833  0.57880136  0.24724276  1.0
  C  C67  1  0.30049492  0.42119485  0.75274899  1.0
  C  C68  1  0.62766173  0.29363749  0.38963552  1.0
  C  C69  1  0.37233078  0.70635414  0.61036486  1.0
  N  N70  1  0.71482921  0.50770046  0.51715808  1.0
  N  N71  1  0.28517948  0.49228608  0.48284052  1.0
  N  N72  1  0.24892640  0.55714455  0.21375600  1.0
  N  N73  1  0.75104406  0.44279390  0.78624139  1.0
  N  N74  1  0.66829183  0.63511816  0.29401753  1.0
  N  N75  1  0.33167719  0.36488303  0.70598131  1.0
  O  O76  1  0.93492727  0.65303984  0.52581567  1.0
  O  O77  1  0.06508104  0.34696583  0.47418297  1.0
  O  O78  1  0.10025562  0.65406071  0.48233644  1.0
  O  O79  1  0.89974019  0.34592024  0.51765725  1.0
  O  O80  1  0.96616996  0.50323516  0.66691265  1.0
  O  O81  1  0.03383710  0.49677508  0.33308705  1.0
  O  O82  1  0.13472850  0.50007555  0.62910377  1.0
  O  O83  1  0.86527106  0.49993762  0.37089255  1.0
  O  O84  1  0.62776811  0.40344341  0.38009146  1.0
  O  O85  1  0.37223835  0.59654848  0.61991681  1.0
