# generated using pymatgen
data_AlP3H20(C6O5)2
_symmetry_space_group_name_H-M   'P 1'
_cell_length_a   12.30451051
_cell_length_b   20.76464421
_cell_length_c   20.76430616
_cell_angle_alpha   116.19392108
_cell_angle_beta   101.38271116
_cell_angle_gamma   101.39478143
_symmetry_Int_Tables_number   1
_chemical_formula_structural   AlP3H20(C6O5)2
_chemical_formula_sum   'Al6 P18 H120 C72 O60'
_cell_volume   4415.64454514
_cell_formula_units_Z   6
loop_
 _symmetry_equiv_pos_site_id
 _symmetry_equiv_pos_as_xyz
  1  'x, y, z'
loop_
 _atom_site_type_symbol
 _atom_site_label
 _atom_site_symmetry_multiplicity
 _atom_site_fract_x
 _atom_site_fract_y
 _atom_site_fract_z
 _atom_site_occupancy
  Al  Al0  1  0.72477513  0.26818788  0.66247793  1.0
  Al  Al1  1  0.45655684  0.39428534  0.73183878  1.0
  Al  Al2  1  0.06232207  0.33755539  0.60578273  1.0
  Al  Al3  1  0.27522681  0.73181306  0.33752255  1.0
  Al  Al4  1  0.54344370  0.60571446  0.26816152  1.0
  Al  Al5  1  0.93767764  0.66244442  0.39421699  1.0
  P  P6  1  0.44307816  0.24398963  0.58169328  1.0
  P  P7  1  0.19909772  0.33766412  0.75609543  1.0
  P  P8  1  0.86140459  0.41837226  0.66234344  1.0
  P  P9  1  0.55691824  0.75601017  0.41830653  1.0
  P  P10  1  0.80090393  0.66233624  0.24390477  1.0
  P  P11  1  0.13859567  0.58162697  0.33765706  1.0
  P  P12  1  0.39566576  0.91049287  0.39164616  1.0
  P  P13  1  0.48516166  0.48110947  0.08949960  1.0
  P  P14  1  0.00399182  0.60834239  0.51881862  1.0
  P  P15  1  0.60433421  0.08950580  0.60835309  1.0
  P  P16  1  0.51483888  0.51889033  0.91050022  1.0
  P  P17  1  0.99600678  0.39165684  0.48118071  1.0
  P  P18  1  0.82974546  0.19218601  0.52420120  1.0
  P  P19  1  0.63745887  0.33199452  0.80782360  1.0
  P  P20  1  0.30547273  0.47583307  0.66803575  1.0
  P  P21  1  0.17025731  0.80781492  0.47579890  1.0
  P  P22  1  0.36254115  0.66800755  0.19217812  1.0
  P  P23  1  0.69452864  0.52416673  0.33196465  1.0
  H  H24  1  0.90372646  0.32116318  0.77196981  1.0
  H  H25  1  0.58258968  0.45083651  0.67890882  1.0
  H  H26  1  0.13183539  0.22809598  0.54923766  1.0
  H  H27  1  0.09627629  0.67883605  0.22803001  1.0
  H  H28  1  0.41740838  0.54916329  0.32108974  1.0
  H  H29  1  0.86816350  0.77190382  0.45076244  1.0
  H  H30  1  0.96126556  0.29933420  0.70543169  1.0
  H  H31  1  0.66189560  0.40609817  0.70071491  1.0
  H  H32  1  0.25587367  0.29465389  0.59398783  1.0
  H  H33  1  0.03873526  0.70066617  0.29456793  1.0
  H  H34  1  0.33810357  0.59390220  0.29928500  1.0
  H  H35  1  0.74412659  0.70534535  0.40601170  1.0
  H  H36  1  0.41189211  0.13250187  0.57514760  1.0
  H  H37  1  0.27948109  0.44262997  0.86757961  1.0
  H  H38  1  0.83685835  0.42492543  0.55739030  1.0
  H  H39  1  0.58810761  0.86749793  0.42485212  1.0
  H  H40  1  0.72051891  0.55737040  0.13242087  1.0
  H  H41  1  0.16314302  0.57507437  0.44260962  1.0
  H  H42  1  0.40299449  0.00461133  0.50702694  1.0
  H  H43  1  0.39841141  0.50245142  0.99542267  1.0
  H  H44  1  0.89594418  0.49291839  0.49753409  1.0
  H  H45  1  0.59700827  0.99538961  0.49297364  1.0
  H  H46  1  0.60158942  0.49754895  0.00457791  1.0
  H  H47  1  0.10405414  0.50708027  0.50246448  1.0
  H  H48  1  0.76378374  0.08961418  0.53095565  1.0
  H  H49  1  0.67411541  0.44135080  0.91033532  1.0
  H  H50  1  0.23277701  0.46904055  0.55870126  1.0
  H  H51  1  0.23621708  0.91038619  0.46904493  1.0
  H  H52  1  0.32588570  0.55865014  0.08966651  1.0
  H  H53  1  0.76722324  0.53095868  0.44129876  1.0
  H  H54  1  0.30477789  0.20988495  0.46538388  1.0
  H  H55  1  0.09477954  0.25543467  0.79018669  1.0
  H  H56  1  0.83923345  0.53465180  0.74451607  1.0
  H  H57  1  0.69522211  0.79011542  0.53461612  1.0
  H  H58  1  0.90521934  0.74456513  0.20981341  1.0
  H  H59  1  0.16076791  0.46534800  0.25548433  1.0
  H  H60  1  0.43376489  0.27977945  0.48563665  1.0
  H  H61  1  0.15387370  0.20580345  0.72028893  1.0
  H  H62  1  0.94794107  0.51443168  0.79420818  1.0
  H  H63  1  0.56623566  0.72022035  0.51436365  1.0
  H  H64  1  0.84612546  0.79419692  0.27971146  1.0
  H  H65  1  0.05205975  0.48556869  0.20579192  1.0
  H  H66  1  0.22449169  0.10557221  0.42151768  1.0
  H  H67  1  0.11885944  0.31595584  0.89454947  1.0
  H  H68  1  0.80282136  0.57847594  0.68399863  1.0
  H  H69  1  0.77550802  0.89442760  0.57848253  1.0
  H  H70  1  0.88113999  0.68404339  0.10545045  1.0
  H  H71  1  0.19717862  0.42152273  0.31600014  1.0
  H  H72  1  0.24529672  0.02353504  0.41987533  1.0
  H  H73  1  0.22180620  0.39632308  0.97653211  1.0
  H  H74  1  0.82540772  0.58010651  0.60361755  1.0
  H  H75  1  0.75470271  0.97646419  0.58012459  1.0
  H  H76  1  0.77819268  0.60367672  0.02346800  1.0
  H  H77  1  0.17459117  0.41989329  0.39638159  1.0
  H  H78  1  0.20366740  0.02505843  0.33413267  1.0
  H  H79  1  0.17848125  0.30910477  0.97508822  1.0
  H  H80  1  0.86935622  0.66586752  0.69084373  1.0
  H  H81  1  0.79633343  0.97494194  0.66586792  1.0
  H  H82  1  0.82151735  0.69089446  0.02491208  1.0
  H  H83  1  0.13064292  0.33413115  0.30915542  1.0
  H  H84  1  0.40187708  0.91677353  0.28102734  1.0
  H  H85  1  0.48505049  0.36423152  0.08328153  1.0
  H  H86  1  0.12076399  0.71893599  0.63568046  1.0
  H  H87  1  0.59812264  0.08322627  0.71897286  1.0
  H  H88  1  0.51494894  0.63576772  0.91671887  1.0
  H  H89  1  0.87923544  0.28106325  0.36431849  1.0
  H  H90  1  0.28158516  0.93874226  0.30819590  1.0
  H  H91  1  0.34280580  0.36944578  0.06135785  1.0
  H  H92  1  0.97330903  0.69180931  0.63049985  1.0
  H  H93  1  0.71841538  0.06125754  0.69180440  1.0
  H  H94  1  0.65719391  0.63055402  0.93864283  1.0
  H  H95  1  0.02669040  0.30818992  0.36949958  1.0
  H  H96  1  0.57204526  0.94513785  0.31407382  1.0
  H  H97  1  0.62691907  0.36905459  0.05486376  1.0
  H  H98  1  0.25793526  0.68589011  0.63104756  1.0
  H  H99  1  0.42795557  0.05486252  0.68592484  1.0
  H  H100  1  0.37308175  0.63094578  0.94513682  1.0
  H  H101  1  0.74206334  0.31410912  0.36895130  1.0
  H  H102  1  0.70246006  0.01229686  0.38554218  1.0
  H  H103  1  0.69000529  0.37332210  0.98760470  1.0
  H  H104  1  0.31677527  0.61436988  0.62675719  1.0
  H  H105  1  0.29754077  0.98770351  0.61445647  1.0
  H  H106  1  0.30999471  0.62667826  0.01239578  1.0
  H  H107  1  0.68322499  0.38562935  0.37324186  1.0
  H  H108  1  0.65935680  0.01244927  0.29906700  1.0
  H  H109  1  0.64698153  0.28674469  0.98757893  1.0
  H  H110  1  0.36020367  0.70086725  0.71336800  1.0
  H  H111  1  0.34064265  0.98755167  0.70093174  1.0
  H  H112  1  0.35301736  0.71325511  0.01242069  1.0
  H  H113  1  0.63979576  0.29913199  0.28663096  1.0
  H  H114  1  0.78198248  0.21729330  0.42254667  1.0
  H  H115  1  0.56458632  0.20524917  0.78270750  1.0
  H  H116  1  0.35925041  0.57743225  0.79477533  1.0
  H  H117  1  0.21801778  0.78270593  0.57745335  1.0
  H  H118  1  0.43541313  0.79475176  0.21729269  1.0
  H  H119  1  0.64074904  0.42256869  0.20522438  1.0
  H  H120  1  0.78613404  0.12406392  0.38974527  1.0
  H  H121  1  0.66195379  0.26563745  0.87592876  1.0
  H  H122  1  0.39628650  0.61030790  0.73440834  1.0
  H  H123  1  0.21386650  0.87593588  0.61025503  1.0
  H  H124  1  0.33804592  0.73436235  0.12407144  1.0
  H  H125  1  0.60371267  0.38969247  0.26559109  1.0
  H  H126  1  0.70715308  0.28780888  0.46315516  1.0
  H  H127  1  0.41911182  0.17514671  0.71223982  1.0
  H  H128  1  0.24373489  0.53687863  0.82476830  1.0
  H  H129  1  0.29284663  0.71219092  0.53684456  1.0
  H  H130  1  0.58088901  0.82485365  0.28776077  1.0
  H  H131  1  0.75626565  0.46312117  0.17523056  1.0
  H  H132  1  0.63003182  0.30790090  0.52781157  1.0
  H  H133  1  0.32195136  0.21971626  0.69212385  1.0
  H  H134  1  0.10195531  0.47224352  0.78016725  1.0
  H  H135  1  0.36996789  0.69209890  0.47218863  1.0
  H  H136  1  0.67804863  0.78028411  0.30787616  1.0
  H  H137  1  0.89804412  0.52775571  0.21983218  1.0
  H  H138  1  0.56648156  0.29450569  0.43671963  1.0
  H  H139  1  0.27175809  0.14208140  0.70561058  1.0
  H  H140  1  0.12941595  0.56332645  0.85782182  1.0
  H  H141  1  0.43351815  0.70549411  0.56328057  1.0
  H  H142  1  0.72824219  0.85791954  0.29438971  1.0
  H  H143  1  0.87058376  0.43667335  0.14217742  1.0
  C  C144  1  0.44747210  0.16573720  0.43677761  1.0
  C  C145  1  0.28159692  0.27093186  0.83432629  1.0
  C  C146  1  0.01056699  0.56329292  0.72901697  1.0
  C  C147  1  0.55252789  0.83426317  0.56322239  1.0
  C  C148  1  0.71840279  0.72906794  0.16567343  1.0
  C  C149  1  0.98943189  0.43670688  0.27098265  1.0
  C  C150  1  0.38572965  0.08764612  0.40090702  1.0
  C  C151  1  0.29796546  0.31316330  0.91241699  1.0
  C  C152  1  0.98472173  0.59913942  0.68676435  1.0
  C  C153  1  0.61426978  0.91235311  0.59909242  1.0
  C  C154  1  0.70203342  0.68683650  0.08758312  1.0
  C  C155  1  0.01527576  0.40085925  0.31323412  1.0
  C  C156  1  0.44312635  0.03460471  0.36816909  1.0
  C  C157  1  0.40841662  0.33349901  0.96544411  1.0
  C  C158  1  0.07486628  0.63184189  0.66643544  1.0
  C  C159  1  0.55687419  0.96539509  0.63183121  1.0
  C  C160  1  0.59158420  0.66650136  0.03455696  1.0
  C  C161  1  0.92513232  0.36815735  0.33356390  1.0
  C  C162  1  0.56182078  0.05937227  0.37398996  1.0
  C  C163  1  0.50234909  0.31459441  0.94065344  1.0
  C  C164  1  0.18772025  0.62601525  0.68539884  1.0
  C  C165  1  0.43817893  0.94062753  0.62600928  1.0
  C  C166  1  0.49765008  0.68540596  0.05934647  1.0
  C  C167  1  0.81227752  0.37398399  0.31459992  1.0
  C  C168  1  0.62181619  0.13794047  0.40956185  1.0
  C  C169  1  0.48374200  0.27155074  0.86208246  1.0
  C  C170  1  0.21211145  0.59046949  0.72843827  1.0
  C  C171  1  0.37818324  0.86205877  0.59043759  1.0
  C  C172  1  0.51625773  0.72845077  0.13791849  1.0
  C  C173  1  0.78788798  0.40952974  0.27156069  1.0
  C  C174  1  0.56298267  0.19073383  0.43705591  1.0
  C  C175  1  0.37208699  0.24619650  0.80931225  1.0
  C  C176  1  0.12576434  0.56299885  0.75374939  1.0
  C  C177  1  0.43701732  0.80926654  0.56294457  1.0
  C  C178  1  0.62791301  0.75380386  0.19068823  1.0
  C  C179  1  0.87423537  0.43700095  0.24624985  1.0
  C  C180  1  0.40069958  0.22601552  0.48427877  1.0
  C  C181  1  0.17458261  0.25819673  0.77405370  1.0
  C  C182  1  0.91628353  0.51578282  0.74179326  1.0
  C  C183  1  0.59930125  0.77398484  0.51572181  1.0
  C  C184  1  0.82541738  0.74180364  0.22594727  1.0
  C  C185  1  0.08371590  0.48421641  0.25820618  1.0
  C  C186  1  0.25879200  0.05939697  0.39420179  1.0
  C  C187  1  0.19932514  0.33477639  0.94069746  1.0
  C  C188  1  0.86447687  0.60580594  0.66515935  1.0
  C  C189  1  0.74120854  0.94060283  0.60579851  1.0
  C  C190  1  0.80067429  0.66522284  0.05930246  1.0
  C  C191  1  0.13552202  0.39419386  0.33484027  1.0
  C  C192  1  0.37639787  0.95076401  0.32988251  1.0
  C  C193  1  0.42557073  0.37908378  0.04928737  1.0
  C  C194  1  0.04643111  0.67010451  0.62085431  1.0
  C  C195  1  0.62360184  0.04923579  0.67011769  1.0
  C  C196  1  0.57442899  0.62091602  0.95071283  1.0
  C  C197  1  0.95356832  0.32989472  0.37914513  1.0
  C  C198  1  0.62643817  0.00435550  0.34149214  1.0
  C  C199  1  0.62204006  0.33721527  0.99563693  1.0
  C  C200  1  0.28485930  0.65846826  0.66286027  1.0
  C  C201  1  0.37356154  0.99564430  0.65850710  1.0
  C  C202  1  0.37795994  0.66278510  0.00436356  1.0
  C  C203  1  0.71514096  0.34153098  0.33713878  1.0
  C  C204  1  0.75292697  0.16636233  0.42692222  1.0
  C  C205  1  0.58644406  0.26053508  0.83365258  1.0
  C  C206  1  0.32586752  0.57310141  0.73948880  1.0
  C  C207  1  0.24707248  0.83363860  0.57307797  1.0
  C  C208  1  0.41355705  0.73946586  0.16634829  1.0
  C  C209  1  0.67413302  0.42689839  0.26051101  1.0
  C  C210  1  0.61978811  0.27396814  0.46774940  1.0
  C  C211  1  0.34563120  0.19361489  0.72609028  1.0
  C  C212  1  0.15178998  0.53229562  0.80629631  1.0
  C  C213  1  0.38021132  0.72603109  0.53224956  1.0
  C  C214  1  0.65436908  0.80638604  0.27391001  1.0
  C  C215  1  0.84821028  0.46770362  0.19370274  1.0
  O  O216  1  0.88979602  0.28509709  0.71898214  1.0
  O  O217  1  0.60473034  0.43392346  0.71498639  1.0
  O  O218  1  0.17088245  0.28109171  0.56617767  1.0
  O  O219  1  0.11020452  0.71490271  0.28101719  1.0
  O  O220  1  0.39526965  0.56607690  0.28501409  1.0
  O  O221  1  0.82911781  0.71890753  0.43382186  1.0
  O  O222  1  0.36748786  0.16915278  0.57504455  1.0
  O  O223  1  0.19843504  0.40584140  0.83097412  1.0
  O  O224  1  0.79257625  0.42509386  0.59418177  1.0
  O  O225  1  0.63251157  0.83084645  0.42495441  1.0
  O  O226  1  0.80156385  0.59415840  0.16902598  1.0
  O  O227  1  0.20742375  0.57490651  0.40581775  1.0
  O  O228  1  0.57278551  0.25868059  0.61316805  1.0
  O  O229  1  0.31409141  0.35439918  0.74135676  1.0
  O  O230  1  0.95965691  0.38690847  0.64560224  1.0
  O  O231  1  0.42721612  0.74131808  0.38683236  1.0
  O  O232  1  0.68590858  0.64560119  0.25864468  1.0
  O  O233  1  0.04034197  0.61309133  0.35439834  1.0
  O  O234  1  0.39997569  0.30896597  0.62834398  1.0
  O  O235  1  0.09103469  0.31940540  0.69115417  1.0
  O  O236  1  0.77157782  0.37168351  0.68060710  1.0
  O  O237  1  0.60002485  0.69103383  0.37165680  1.0
  O  O238  1  0.90896668  0.68059440  0.30884574  1.0
  O  O239  1  0.22842135  0.62831686  0.31939281  1.0
  O  O240  1  0.52668778  0.92606676  0.42664289  1.0
  O  O241  1  0.60059078  0.50047949  0.07385826  1.0
  O  O242  1  0.10009536  0.57337261  0.49944726  1.0
  O  O243  1  0.47331499  0.07393417  0.57335720  1.0
  O  O244  1  0.39940976  0.49952031  0.92614203  1.0
  O  O245  1  0.89990324  0.42662662  0.50055160  1.0
  O  O246  1  0.34565049  0.95356780  0.45787878  1.0
  O  O247  1  0.39208645  0.50427909  0.04645056  1.0
  O  O248  1  0.88777817  0.54208295  0.49562692  1.0
  O  O249  1  0.65435088  0.04643200  0.54212210  1.0
  O  O250  1  0.60791437  0.49572128  0.95355002  1.0
  O  O251  1  0.11222043  0.45791628  0.50437194  1.0
  O  O252  1  0.32099768  0.82813413  0.34645513  1.0
  O  O253  1  0.49296279  0.51832394  0.17188000  1.0
  O  O254  1  0.97454721  0.65351318  0.48162295  1.0
  O  O255  1  0.67900565  0.17186794  0.65354650  1.0
  O  O256  1  0.50703804  0.48167642  0.82812154  1.0
  O  O257  1  0.02545085  0.34648662  0.51837705  1.0
  O  O258  1  0.83383112  0.11600383  0.52307937  1.0
  O  O259  1  0.71775526  0.40705822  0.88396500  1.0
  O  O260  1  0.31069309  0.47692529  0.59296687  1.0
  O  O261  1  0.16616804  0.88399654  0.47692102  1.0
  O  O262  1  0.28224556  0.59294214  0.11603559  1.0
  O  O263  1  0.68930691  0.52307508  0.40703361  1.0
  O  O264  1  0.95665403  0.23875186  0.54738762  1.0
  O  O265  1  0.71782800  0.30857868  0.76126419  1.0
  O  O266  1  0.40925879  0.45269188  0.69143190  1.0
  O  O267  1  0.04334485  0.76124794  0.45261297  1.0
  O  O268  1  0.28217669  0.69142112  0.23873563  1.0
  O  O269  1  0.59074009  0.54730792  0.30856820  1.0
  O  O270  1  0.76180411  0.23135637  0.57406897  1.0
  O  O271  1  0.53037089  0.34268674  0.76866112  1.0
  O  O272  1  0.18770919  0.42596695  0.65736638  1.0
  O  O273  1  0.23819478  0.76864343  0.42593114  1.0
  O  O274  1  0.46963325  0.65731363  0.23133985  1.0
  O  O275  1  0.81228969  0.57403285  0.34263276  1.0
