# generated using pymatgen
data_CuH6C10(NO)4
_symmetry_space_group_name_H-M   'P 1'
_cell_length_a   7.90124181
_cell_length_b   24.83368848
_cell_length_c   24.84237054
_cell_angle_alpha   118.88659117
_cell_angle_beta   96.08355125
_cell_angle_gamma   96.08211280
_symmetry_Int_Tables_number   1
_chemical_formula_structural   CuH6C10(NO)4
_chemical_formula_sum   'Cu12 H72 C120 N48 O48'
_cell_volume   4174.25774022
_cell_formula_units_Z   12
loop_
 _symmetry_equiv_pos_site_id
 _symmetry_equiv_pos_as_xyz
  1  'x, y, z'
loop_
 _atom_site_type_symbol
 _atom_site_label
 _atom_site_symmetry_multiplicity
 _atom_site_fract_x
 _atom_site_fract_y
 _atom_site_fract_z
 _atom_site_occupancy
  Cu  Cu0  1  0.24654428  0.99427525  0.24683838  1.0
  Cu  Cu1  1  0.49376012  0.74190987  0.24195485  1.0
  Cu  Cu2  1  0.99987228  0.75320373  0.74767593  1.0
  Cu  Cu3  1  0.25160041  0.75802042  0.50030009  1.0
  Cu  Cu4  1  0.25149623  0.25235058  0.00555829  1.0
  Cu  Cu5  1  0.75164377  0.49996818  0.25809158  1.0
  Cu  Cu6  1  0.75344482  0.00573161  0.75316632  1.0
  Cu  Cu7  1  0.50624998  0.25809175  0.75804097  1.0
  Cu  Cu8  1  0.00012331  0.24679510  0.25232923  1.0
  Cu  Cu9  1  0.74839351  0.24197389  0.49969666  1.0
  Cu  Cu10  1  0.74850731  0.74765391  0.99444220  1.0
  Cu  Cu11  1  0.24835456  0.50002767  0.74190891  1.0
  H  H12  1  0.92637366  0.91889022  0.23502004  1.0
  H  H13  1  0.44150647  0.91420574  0.28573517  1.0
  H  H14  1  0.06453256  0.79419105  0.29996763  1.0
  H  H15  1  0.06849058  0.57396672  0.26475018  1.0
  H  H16  1  0.55081662  0.57261772  0.21028842  1.0
  H  H17  1  0.92124740  0.68536123  0.18418859  1.0
  H  H18  1  0.76551912  0.00117630  0.19387142  1.0
  H  H19  1  0.02351201  0.86692004  0.07432433  1.0
  H  H20  1  0.50368022  0.81133816  0.06947647  1.0
  H  H21  1  0.99515975  0.17672605  0.42692156  1.0
  H  H22  1  0.47313678  0.12255611  0.42061879  1.0
  H  H23  1  0.72839580  0.98809830  0.29995138  1.0
  H  H24  1  0.69114333  0.76501674  0.68422002  1.0
  H  H25  1  0.15565318  0.71436064  0.62885966  1.0
  H  H26  1  0.76439805  0.70002096  0.49461478  1.0
  H  H27  1  0.80402065  0.73515906  0.30922652  1.0
  H  H28  1  0.34078693  0.78956093  0.36244965  1.0
  H  H29  1  0.73749506  0.81560045  0.50114542  1.0
  H  H30  1  0.57206202  0.80646934  0.80757101  1.0
  H  H31  1  0.94896669  0.92598650  0.79257710  1.0
  H  H32  1  0.43379658  0.93039269  0.74157589  1.0
  H  H33  1  0.56782099  0.57289254  0.74959102  1.0
  H  H34  1  0.05220438  0.57938045  0.70183002  1.0
  H  H35  1  0.42828882  0.70033521  0.68851048  1.0
  H  H36  1  0.00661246  0.31598830  0.08079694  1.0
  H  H37  1  0.52663744  0.37126531  0.08564900  1.0
  H  H38  1  0.26986160  0.50552584  0.20572965  1.0
  H  H39  1  0.49451215  0.69082146  0.42645177  1.0
  H  H40  1  0.97800972  0.63751586  0.42744706  1.0
  H  H41  1  0.23593079  0.49890728  0.31445896  1.0
  H  H42  1  0.76348008  0.19264540  0.99894100  1.0
  H  H43  1  0.15567354  0.20746319  0.13320445  1.0
  H  H44  1  0.69131153  0.25814493  0.18874524  1.0
  H  H45  1  0.81796642  0.25038229  0.82324240  1.0
  H  H46  1  0.34998508  0.29807834  0.87743223  1.0
  H  H47  1  0.73939781  0.31144263  0.01168865  1.0
  H  H48  1  0.07362350  0.08111325  0.76498045  1.0
  H  H49  1  0.55849179  0.08580197  0.71426486  1.0
  H  H50  1  0.93547846  0.20581070  0.70003006  1.0
  H  H51  1  0.93151899  0.42602960  0.73524470  1.0
  H  H52  1  0.44918997  0.42737209  0.78970319  1.0
  H  H53  1  0.07874335  0.31462868  0.81579928  1.0
  H  H54  1  0.23446725  0.99882516  0.80613562  1.0
  H  H55  1  0.97648828  0.13308501  0.92568504  1.0
  H  H56  1  0.49631657  0.18866378  0.93052589  1.0
  H  H57  1  0.00482537  0.82327556  0.57307005  1.0
  H  H58  1  0.52684347  0.87745226  0.57937049  1.0
  H  H59  1  0.27158760  0.01190447  0.70004443  1.0
  H  H60  1  0.30883629  0.23497205  0.31577626  1.0
  H  H61  1  0.84432547  0.28562487  0.37113990  1.0
  H  H62  1  0.23559783  0.29996450  0.50538103  1.0
  H  H63  1  0.19599987  0.26484313  0.69076977  1.0
  H  H64  1  0.65923996  0.21045018  0.63754383  1.0
  H  H65  1  0.26251765  0.18440569  0.49885040  1.0
  H  H66  1  0.42795053  0.19353565  0.19243743  1.0
  H  H67  1  0.05103045  0.07402509  0.20743601  1.0
  H  H68  1  0.56619775  0.06961745  0.25844190  1.0
  H  H69  1  0.43217984  0.42710018  0.25040947  1.0
  H  H70  1  0.94779646  0.42061179  0.29816533  1.0
  H  H71  1  0.57171372  0.29965472  0.31148580  1.0
  H  H72  1  0.99338769  0.68401411  0.91920449  1.0
  H  H73  1  0.47336689  0.62873842  0.91435570  1.0
  H  H74  1  0.73013346  0.49447641  0.79427178  1.0
  H  H75  1  0.50549491  0.30917017  0.57355106  1.0
  H  H76  1  0.02199399  0.36247652  0.57255671  1.0
  H  H77  1  0.76407187  0.50108489  0.68554527  1.0
  H  H78  1  0.23653264  0.80736289  0.00106511  1.0
  H  H79  1  0.84432964  0.79254185  0.86680305  1.0
  H  H80  1  0.30869026  0.74185952  0.81125946  1.0
  H  H81  1  0.18204112  0.74961765  0.17675341  1.0
  H  H82  1  0.65001678  0.70192121  0.12255985  1.0
  H  H83  1  0.26060036  0.68855776  0.98830624  1.0
  C  C84  1  0.77424493  0.82856077  0.25254592  1.0
  C  C85  1  0.96578538  0.85120727  0.26352413  1.0
  C  C86  1  0.02015077  0.89858240  0.25129334  1.0
  C  C87  1  0.30509436  0.89701614  0.28106347  1.0
  C  C88  1  0.09532269  0.82993028  0.28711674  1.0
  C  C89  1  0.21567212  0.65659853  0.23650763  1.0
  C  C90  1  0.02439512  0.63447262  0.22735748  1.0
  C  C91  1  0.97283506  0.59121424  0.24530628  1.0
  C  C92  1  0.68654859  0.58960101  0.21376450  1.0
  C  C93  1  0.89269956  0.65245827  0.20075552  1.0
  C  C94  1  0.44061079  0.91917036  0.15906920  1.0
  C  C95  1  0.61001458  0.90771914  0.13669275  1.0
  C  C96  1  0.76075566  0.95262088  0.15806979  1.0
  C  C97  1  0.90409518  0.87943467  0.09135325  1.0
  C  C98  1  0.61752721  0.84801064  0.08963279  1.0
  C  C99  1  0.05495229  0.06917945  0.33549620  1.0
  C  C100  1  0.88622745  0.08096152  0.35830270  1.0
  C  C101  1  0.88024927  0.14045987  0.40612728  1.0
  C  C102  1  0.59254036  0.10976749  0.40369830  1.0
  C  C103  1  0.73431770  0.03648839  0.33635500  1.0
  C  C104  1  0.52146249  0.74741859  0.57632774  1.0
  C  C105  1  0.70202288  0.73643575  0.58802740  1.0
  C  C106  1  0.76860557  0.74871263  0.64763255  1.0
  C  C107  1  0.02388585  0.71899426  0.61631730  1.0
  C  C108  1  0.80801371  0.71286858  0.54318541  1.0
  C  C109  1  0.97942955  0.76329478  0.42014821  1.0
  C  C110  1  0.79738469  0.77245523  0.40710840  1.0
  C  C111  1  0.72783294  0.75456122  0.34593477  1.0
  C  C112  1  0.47305945  0.78607968  0.37591006  1.0
  C  C113  1  0.69231349  0.79904137  0.45169677  1.0
  C  C114  1  0.28158235  0.84094677  0.76007544  1.0
  C  C115  1  0.47331656  0.86333397  0.77093257  1.0
  C  C116  1  0.60284927  0.84215682  0.79463831  1.0
  C  C117  1  0.81259969  0.90887538  0.78804376  1.0
  C  C118  1  0.52765038  0.91033779  0.75816426  1.0
  C  C119  1  0.71930103  0.66449315  0.73381848  1.0
  C  C120  1  0.52769878  0.64173488  0.72272576  1.0
  C  C121  1  0.47376371  0.59376619  0.73420068  1.0
  C  C122  1  0.18853610  0.59629907  0.70599784  1.0
  C  C123  1  0.39781775  0.66381082  0.70033489  1.0
  C  C124  1  0.94512734  0.42388532  0.17131372  1.0
  C  C125  1  0.11389510  0.41214061  0.14859323  1.0
  C  C126  1  0.12075359  0.35255350  0.10115797  1.0
  C  C127  1  0.40741846  0.38380658  0.10281906  1.0
  C  C128  1  0.26483513  0.45695484  0.16993754  1.0
  C  C129  1  0.55908413  0.58000532  0.34343522  1.0
  C  C130  1  0.38996603  0.59294697  0.36561219  1.0
  C  C131  1  0.38163124  0.65408685  0.40904846  1.0
  C  C132  1  0.09684380  0.62406893  0.41049520  1.0
  C  C133  1  0.24024915  0.54833417  0.34748597  1.0
  C  C134  1  0.52038825  0.23976552  0.08083937  1.0
  C  C135  1  0.70131740  0.22894135  0.09235627  1.0
  C  C136  1  0.80721498  0.20542813  0.04749139  1.0
  C  C137  1  0.02375869  0.21195628  0.12066863  1.0
  C  C138  1  0.76853345  0.24164399  0.15207830  1.0
  C  C139  1  0.98509149  0.26617878  0.93065552  1.0
  C  C140  1  0.80458201  0.27719860  0.91890071  1.0
  C  C141  1  0.73924004  0.26572746  0.85948302  1.0
  C  C142  1  0.48213419  0.29389700  0.89017139  1.0
  C  C143  1  0.69701573  0.29959014  0.96334582  1.0
  C  C144  1  0.22575887  0.17143670  0.74744756  1.0
  C  C145  1  0.03420688  0.14879258  0.73647169  1.0
  C  C146  1  0.97984893  0.10142116  0.74870715  1.0
  C  C147  1  0.69490770  0.10299008  0.71893656  1.0
  C  C148  1  0.90467923  0.17007377  0.71288048  1.0
  C  C149  1  0.78432807  0.34340542  0.76348865  1.0
  C  C150  1  0.97560361  0.36552549  0.77263600  1.0
  C  C151  1  0.02717024  0.40878310  0.75468766  1.0
  C  C152  1  0.31345594  0.41039040  0.78622805  1.0
  C  C153  1  0.10729088  0.34753454  0.79923422  1.0
  C  C154  1  0.55937385  0.08083052  0.84093176  1.0
  C  C155  1  0.38997629  0.09228105  0.86331055  1.0
  C  C156  1  0.23923513  0.04738245  0.84193585  1.0
  C  C157  1  0.09589839  0.12056858  0.90865285  1.0
  C  C158  1  0.38246670  0.15199212  0.91037144  1.0
  C  C159  1  0.94503668  0.93082477  0.66450056  1.0
  C  C160  1  0.11375492  0.91904225  0.64169359  1.0
  C  C161  1  0.11974005  0.85954426  0.59386760  1.0
  C  C162  1  0.40744272  0.89023652  0.59629424  1.0
  C  C163  1  0.26566443  0.96351475  0.66364082  1.0
  C  C164  1  0.47852673  0.25256910  0.42366481  1.0
  C  C165  1  0.29796588  0.26355316  0.41196936  1.0
  C  C166  1  0.23137856  0.25127618  0.35236513  1.0
  C  C167  1  0.97609919  0.28099387  0.38368226  1.0
  C  C168  1  0.19197908  0.28711908  0.45681181  1.0
  C  C169  1  0.02058726  0.23670744  0.57985088  1.0
  C  C170  1  0.20263155  0.22754677  0.59288695  1.0
  C  C171  1  0.27218860  0.24543997  0.65406105  1.0
  C  C172  1  0.52696585  0.21392511  0.62408295  1.0
  C  C173  1  0.30769663  0.20096187  0.54829904  1.0
  C  C174  1  0.71841962  0.15905435  0.23993487  1.0
  C  C175  1  0.52669239  0.13666992  0.22907634  1.0
  C  C176  1  0.39715620  0.15784646  0.20536872  1.0
  C  C177  1  0.18739935  0.09113164  0.21196561  1.0
  C  C178  1  0.47234554  0.08966901  0.24184652  1.0
  C  C179  1  0.28069942  0.33550602  0.26618622  1.0
  C  C180  1  0.47229749  0.35826257  0.27727567  1.0
  C  C181  1  0.52623612  0.40622954  0.26580028  1.0
  C  C182  1  0.81146313  0.40369443  0.29399938  1.0
  C  C183  1  0.60218322  0.33618318  0.29966326  1.0
  C  C184  1  0.05487669  0.57611333  0.82869051  1.0
  C  C185  1  0.88610085  0.58785894  0.85141007  1.0
  C  C186  1  0.87924669  0.64745027  0.89884626  1.0
  C  C187  1  0.59257739  0.61619363  0.89718143  1.0
  C  C188  1  0.73516827  0.54304836  0.83006529  1.0
  C  C189  1  0.44091947  0.41998691  0.65656574  1.0
  C  C190  1  0.61003145  0.40704609  0.63438923  1.0
  C  C191  1  0.61837433  0.34590571  0.59095391  1.0
  C  C192  1  0.90316756  0.37592450  0.58950856  1.0
  C  C193  1  0.75974725  0.45165626  0.65251593  1.0
  C  C194  1  0.47962239  0.76024357  0.91916767  1.0
  C  C195  1  0.29868801  0.77106541  0.90764796  1.0
  C  C196  1  0.19279470  0.79457841  0.95251378  1.0
  C  C197  1  0.97624786  0.78804923  0.87933794  1.0
  C  C198  1  0.23146916  0.75836044  0.84792547  1.0
  C  C199  1  0.01491926  0.73382870  0.06934404  1.0
  C  C200  1  0.19542128  0.72280397  0.08109417  1.0
  C  C201  1  0.26076471  0.73427175  0.14051233  1.0
  C  C202  1  0.51786891  0.70610018  0.10982069  1.0
  C  C203  1  0.30298221  0.70041001  0.03664860  1.0
  N  N204  1  0.18834139  0.92170531  0.26019534  1.0
  N  N205  1  0.26420887  0.85259771  0.29545780  1.0
  N  N206  1  0.80546010  0.56840552  0.23824073  1.0
  N  N207  1  0.72450437  0.63032431  0.19441779  1.0
  N  N208  1  0.76281063  0.83377889  0.06671535  1.0
  N  N209  1  0.90730024  0.93828377  0.13560757  1.0
  N  N210  1  0.73489006  0.15500847  0.42888490  1.0
  N  N211  1  0.58811785  0.05102164  0.35896399  1.0
  N  N212  1  0.92793613  0.73985335  0.66185068  1.0
  N  N213  1  0.96861960  0.70457840  0.55752321  1.0
  N  N214  1  0.56748900  0.76164021  0.33022644  1.0
  N  N215  1  0.53041997  0.80539671  0.43594636  1.0
  N  N216  1  0.69575680  0.93336214  0.76689565  1.0
  N  N217  1  0.77181278  0.86470880  0.80277558  1.0
  N  N218  1  0.30564455  0.57096923  0.72590680  1.0
  N  N219  1  0.22896903  0.64117847  0.69219528  1.0
  N  N220  1  0.26584934  0.33830041  0.07805917  1.0
  N  N221  1  0.41107431  0.44259672  0.14729257  1.0
  N  N222  1  0.23699456  0.66975188  0.43186549  1.0
  N  N223  1  0.09413653  0.56404860  0.36961501  1.0
  N  N224  1  0.92808257  0.23299852  0.16631841  1.0
  N  N225  1  0.96812907  0.19732475  0.06183761  1.0
  N  N226  1  0.57937280  0.27400862  0.84496899  1.0
  N  N227  1  0.53630003  0.30770225  0.94884956  1.0
  N  N228  1  0.81165581  0.07830057  0.73980515  1.0
  N  N229  1  0.73580138  0.14740729  0.70454082  1.0
  N  N230  1  0.19453962  0.43158958  0.76175228  1.0
  N  N231  1  0.27549922  0.36966616  0.80557289  1.0
  N  N232  1  0.23719162  0.16622522  0.93329029  1.0
  N  N233  1  0.09269069  0.06172174  0.86440087  1.0
  N  N234  1  0.26510213  0.84499404  0.57110812  1.0
  N  N235  1  0.41186360  0.94898281  0.64103042  1.0
  N  N236  1  0.07204893  0.26013599  0.33814887  1.0
  N  N237  1  0.03137333  0.29541102  0.44247681  1.0
  N  N238  1  0.43252979  0.23836309  0.66976891  1.0
  N  N239  1  0.46960337  0.19460902  0.56405039  1.0
  N  N240  1  0.30423101  0.06664394  0.23311419  1.0
  N  N241  1  0.22819218  0.13529957  0.19723286  1.0
  N  N242  1  0.69435504  0.42902587  0.27409370  1.0
  N  N243  1  0.77103526  0.35881359  0.30780194  1.0
  N  N244  1  0.73416136  0.66170304  0.92194038  1.0
  N  N245  1  0.58892416  0.55741048  0.85271306  1.0
  N  N246  1  0.76300894  0.33024148  0.56813780  1.0
  N  N247  1  0.90587006  0.43594216  0.63038688  1.0
  N  N248  1  0.07192269  0.76700614  0.83368816  1.0
  N  N249  1  0.03187956  0.80268078  0.93816802  1.0
  N  N250  1  0.42063123  0.72598869  0.15502496  1.0
  N  N251  1  0.46370172  0.69229763  0.05114486  1.0
  O  O252  1  0.73508265  0.77279201  0.24433986  1.0
  O  O253  1  0.67175620  0.86316701  0.25200479  1.0
  O  O254  1  0.25312420  0.70956793  0.23833203  1.0
  O  O255  1  0.31921633  0.62421711  0.24171595  1.0
  O  O256  1  0.45651249  0.96669447  0.21478051  1.0
  O  O257  1  0.30404097  0.88376207  0.12432190  1.0
  O  O258  1  0.03743264  0.02209496  0.27939934  1.0
  O  O259  1  0.19234058  0.10392055  0.37016725  1.0
  O  O260  1  0.49065272  0.75569187  0.52881699  1.0
  O  O261  1  0.41938012  0.74792750  0.61141656  1.0
  O  O262  1  0.01475742  0.76156437  0.47134107  1.0
  O  O263  1  0.07801300  0.75803286  0.38262860  1.0
  O  O264  1  0.24182638  0.78523698  0.75194605  1.0
  O  O265  1  0.17972604  0.87570519  0.75944784  1.0
  O  O266  1  0.75818626  0.72069649  0.74309681  1.0
  O  O267  1  0.82178318  0.62966121  0.73367391  1.0
  O  O268  1  0.96200102  0.47137164  0.22712410  1.0
  O  O269  1  0.80788159  0.38886425  0.13675108  1.0
  O  O270  1  0.54348687  0.52885564  0.29048183  1.0
  O  O271  1  0.69502831  0.61759241  0.37576246  1.0
  O  O272  1  0.48890527  0.24795160  0.03330993  1.0
  O  O273  1  0.41906193  0.24033159  0.11616468  1.0
  O  O274  1  0.01462313  0.25705753  0.97766797  1.0
  O  O275  1  0.08778748  0.26623241  0.89596868  1.0
  O  O276  1  0.26492669  0.22720401  0.75564942  1.0
  O  O277  1  0.32824200  0.13682701  0.74798776  1.0
  O  O278  1  0.74686873  0.29043898  0.76166753  1.0
  O  O279  1  0.68079338  0.37578928  0.75827893  1.0
  O  O280  1  0.54347402  0.03330861  0.78521905  1.0
  O  O281  1  0.69594525  0.11623634  0.87567719  1.0
  O  O282  1  0.96255571  0.97790629  0.72059881  1.0
  O  O283  1  0.80764431  0.89608968  0.62983137  1.0
  O  O284  1  0.50935171  0.24431113  0.47118537  1.0
  O  O285  1  0.58059086  0.25204473  0.38856524  1.0
  O  O286  1  0.98523921  0.23842414  0.52865101  1.0
  O  O287  1  0.92201625  0.24198395  0.61737984  1.0
  O  O288  1  0.75817067  0.21475716  0.24804930  1.0
  O  O289  1  0.82027308  0.12430180  0.24057976  1.0
  O  O290  1  0.24180925  0.27930596  0.25691583  1.0
  O  O291  1  0.17822338  0.37033497  0.26632004  1.0
  O  O292  1  0.03800195  0.52862520  0.77288060  1.0
  O  O293  1  0.19212625  0.61113412  0.86325315  1.0
  O  O294  1  0.45651598  0.47114097  0.70951492  1.0
  O  O295  1  0.30497652  0.38239711  0.62424364  1.0
  O  O296  1  0.51110188  0.75205526  0.96669524  1.0
  O  O297  1  0.58095248  0.75968238  0.88384469  1.0
  O  O298  1  0.98538253  0.74294938  0.02233159  1.0
  O  O299  1  0.91222839  0.73377685  0.10403087  1.0
