# generated using pymatgen
data_ZnH8C11N(ClO2)2
_symmetry_space_group_name_H-M   'P 1'
_cell_length_a   21.99144424
_cell_length_b   21.99141581
_cell_length_c   24.65392182
_cell_angle_alpha   63.51309892
_cell_angle_beta   63.51466554
_cell_angle_gamma   90.00284743
_symmetry_Int_Tables_number   1
_chemical_formula_structural   ZnH8C11N(ClO2)2
_chemical_formula_sum   'Zn16 H128 C176 N16 Cl32 O64'
_cell_volume   9252.45342520
_cell_formula_units_Z   16
loop_
 _symmetry_equiv_pos_site_id
 _symmetry_equiv_pos_as_xyz
  1  'x, y, z'
loop_
 _atom_site_type_symbol
 _atom_site_label
 _atom_site_symmetry_multiplicity
 _atom_site_fract_x
 _atom_site_fract_y
 _atom_site_fract_z
 _atom_site_occupancy
  Zn  Zn0  1  0.97677699  0.45273263  0.57441888  1.0
  Zn  Zn1  1  0.44881948  0.97287323  0.57439003  1.0
  Zn  Zn2  1  0.72282438  0.22677105  0.07437629  1.0
  Zn  Zn3  1  0.20274847  0.69881435  0.07438745  1.0
  Zn  Zn4  1  0.27320461  0.77713486  0.92561063  1.0
  Zn  Zn5  1  0.80114620  0.29720295  0.92562435  1.0
  Zn  Zn6  1  0.52715076  0.05119866  0.42558096  1.0
  Zn  Zn7  1  0.04726539  0.52321216  0.42560765  1.0
  Zn  Zn8  1  0.77323273  0.79721167  0.92561328  1.0
  Zn  Zn9  1  0.30113345  0.27713676  0.92560133  1.0
  Zn  Zn10  1  0.02715601  0.02319454  0.42559501  1.0
  Zn  Zn11  1  0.54726234  0.55120886  0.42560417  1.0
  Zn  Zn12  1  0.47681061  0.47286714  0.57439912  1.0
  Zn  Zn13  1  0.94879020  0.95275024  0.57440477  1.0
  Zn  Zn14  1  0.22282402  0.19884634  0.07438605  1.0
  Zn  Zn15  1  0.70273637  0.72673625  0.07439831  1.0
  H  H16  1  0.78262345  0.40325384  0.80725059  1.0
  H  H17  1  0.85245179  0.44587462  0.80524085  1.0
  H  H18  1  0.84835041  0.24967561  0.81842581  1.0
  H  H19  1  0.77901233  0.29028700  0.81660138  1.0
  H  H20  1  0.64663907  0.41938344  0.59870162  1.0
  H  H21  1  0.98353590  0.12375724  0.59736542  1.0
  H  H22  1  0.94704574  0.38995905  0.80840390  1.0
  H  H23  1  0.94405996  0.30642058  0.81492853  1.0
  H  H24  1  0.41011368  0.78953431  0.80723018  1.0
  H  H25  1  0.34231861  0.74893800  0.80518402  1.0
  H  H26  1  0.33320404  0.93192338  0.81842418  1.0
  H  H27  1  0.40438218  0.89315135  0.81656911  1.0
  H  H28  1  0.75468540  0.98189766  0.59870267  1.0
  H  H29  1  0.41916743  0.27889616  0.59735110  1.0
  H  H30  1  0.24452599  0.80166396  0.80841478  1.0
  H  H31  1  0.24100874  0.87868793  0.81491092  1.0
  H  H32  1  0.53956225  0.03262336  0.30718825  1.0
  H  H33  1  0.49896151  0.10245136  0.30516287  1.0
  H  H34  1  0.68195802  0.09842566  0.31836626  1.0
  H  H35  1  0.64322538  0.02906841  0.31652207  1.0
  H  H36  1  0.73179315  0.89649881  0.09881409  1.0
  H  H37  1  0.02883569  0.23354970  0.09737202  1.0
  H  H38  1  0.55164178  0.19700492  0.30843418  1.0
  H  H39  1  0.62864883  0.19400800  0.31496385  1.0
  H  H40  1  0.15329758  0.66013846  0.30720304  1.0
  H  H41  1  0.19589765  0.59231820  0.30517420  1.0
  H  H42  1  0.99967498  0.58323548  0.31841776  1.0
  H  H43  1  0.04032437  0.65443569  0.31653750  1.0
  H  H44  1  0.16939027  0.00459175  0.09881756  1.0
  H  H45  1  0.87373698  0.66908800  0.09742577  1.0
  H  H46  1  0.13989185  0.49452403  0.30845065  1.0
  H  H47  1  0.05636031  0.49101674  0.31496033  1.0
  H  H48  1  0.46734126  0.96049788  0.69279866  1.0
  H  H49  1  0.39749449  0.00107134  0.69482376  1.0
  H  H50  1  0.40165239  0.81809268  0.68158255  1.0
  H  H51  1  0.47097273  0.85686252  0.68346045  1.0
  H  H52  1  0.60341037  0.76821018  0.90117990  1.0
  H  H53  1  0.26651623  0.47116270  0.90257362  1.0
  H  H54  1  0.30297544  0.94834330  0.69155056  1.0
  H  H55  1  0.30597769  0.87132418  0.68503611  1.0
  H  H56  1  0.83981046  0.34674645  0.69281578  1.0
  H  H57  1  0.90761365  0.30412073  0.69484070  1.0
  H  H58  1  0.91679234  0.50032487  0.68163405  1.0
  H  H59  1  0.84558921  0.45974556  0.68348045  1.0
  H  H60  1  0.49531342  0.33060887  0.90118682  1.0
  H  H61  1  0.83092206  0.62620737  0.90262905  1.0
  H  H62  1  0.00544194  0.36007814  0.69156583  1.0
  H  H63  1  0.00896976  0.44361403  0.68503865  1.0
  H  H64  1  0.71050318  0.08987100  0.19275224  1.0
  H  H65  1  0.75111310  0.15768960  0.19476134  1.0
  H  H66  1  0.56810071  0.16677154  0.18157734  1.0
  H  H67  1  0.60688791  0.09560968  0.18340355  1.0
  H  H68  1  0.51808655  0.74534003  0.40130005  1.0
  H  H69  1  0.22112165  0.08090008  0.40263568  1.0
  H  H70  1  0.69836261  0.25544450  0.19159893  1.0
  H  H71  1  0.62135106  0.25898704  0.18507254  1.0
  H  H72  1  0.09676256  0.71734444  0.19276701  1.0
  H  H73  1  0.05412253  0.64749980  0.19481481  1.0
  H  H74  1  0.25035023  0.65163724  0.18157248  1.0
  H  H75  1  0.20971583  0.72095551  0.18343227  1.0
  H  H76  1  0.08060107  0.85338678  0.40129826  1.0
  H  H77  1  0.37624823  0.51651937  0.40264907  1.0
  H  H78  1  0.11008754  0.55294133  0.19157976  1.0
  H  H79  1  0.19360653  0.55592319  0.18508787  1.0
  H  H80  1  0.96735897  0.84672893  0.69279908  1.0
  H  H81  1  0.89750560  0.80413473  0.69481471  1.0
  H  H82  1  0.90162371  0.00033376  0.68162761  1.0
  H  H83  1  0.97096234  0.95972738  0.68347500  1.0
  H  H84  1  0.10337770  0.83060575  0.90122251  1.0
  H  H85  1  0.76647153  0.12617385  0.90268298  1.0
  H  H86  1  0.80298985  0.86012964  0.69153856  1.0
  H  H87  1  0.80598710  0.94364572  0.68506487  1.0
  H  H88  1  0.33983882  0.46044519  0.69278430  1.0
  H  H89  1  0.40764789  0.50106481  0.69479266  1.0
  H  H90  1  0.41682460  0.31804944  0.68161753  1.0
  H  H91  1  0.34562800  0.35678168  0.68344501  1.0
  H  H92  1  0.99533046  0.26819027  0.90120850  1.0
  H  H93  1  0.33088740  0.97115358  0.90261596  1.0
  H  H94  1  0.50542716  0.44840142  0.69157417  1.0
  H  H95  1  0.50899793  0.37138064  0.68506992  1.0
  H  H96  1  0.21048071  0.21737592  0.19275207  1.0
  H  H97  1  0.25108296  0.14754584  0.19477808  1.0
  H  H98  1  0.06808462  0.15163106  0.18157552  1.0
  H  H99  1  0.10685238  0.22096377  0.18341798  1.0
  H  H100  1  0.01811024  0.35341805  0.40127381  1.0
  H  H101  1  0.72115260  0.01646467  0.40257495  1.0
  H  H102  1  0.19834659  0.05296511  0.19156550  1.0
  H  H103  1  0.12131287  0.05593912  0.18508778  1.0
  H  H104  1  0.59673057  0.58986227  0.19279141  1.0
  H  H105  1  0.55414099  0.65769959  0.19477940  1.0
  H  H106  1  0.75032338  0.66678361  0.18161647  1.0
  H  H107  1  0.70973783  0.59560028  0.18342807  1.0
  H  H108  1  0.58063911  0.24537486  0.40121397  1.0
  H  H109  1  0.87627908  0.58099169  0.40260523  1.0
  H  H110  1  0.61010843  0.75545906  0.19158929  1.0
  H  H111  1  0.69365229  0.75898284  0.18504556  1.0
  H  H112  1  0.28265371  0.28951876  0.80720843  1.0
  H  H113  1  0.35248041  0.24891990  0.80522029  1.0
  H  H114  1  0.34839116  0.43193735  0.81838677  1.0
  H  H115  1  0.27902327  0.39316121  0.81657143  1.0
  H  H116  1  0.14658808  0.48185120  0.59878753  1.0
  H  H117  1  0.48359532  0.77888457  0.59739623  1.0
  H  H118  1  0.44704651  0.30169777  0.80841115  1.0
  H  H119  1  0.44402563  0.37869729  0.81495728  1.0
  H  H120  1  0.91012954  0.90323307  0.80724618  1.0
  H  H121  1  0.84232393  0.94585967  0.80522248  1.0
  H  H122  1  0.83321130  0.74965993  0.81842108  1.0
  H  H123  1  0.90438626  0.79027160  0.81657708  1.0
  H  H124  1  0.25469332  0.91938252  0.59872457  1.0
  H  H125  1  0.91903882  0.62372627  0.59742571  1.0
  H  H126  1  0.74452915  0.88990669  0.80843721  1.0
  H  H127  1  0.74103016  0.80639634  0.81491136  1.0
  H  H128  1  0.03953031  0.16016059  0.30719614  1.0
  H  H129  1  0.99895170  0.09232265  0.30518149  1.0
  H  H130  1  0.18196076  0.08325221  0.31837203  1.0
  H  H131  1  0.14320250  0.15443882  0.31652307  1.0
  H  H132  1  0.23182449  0.50459742  0.09878019  1.0
  H  H133  1  0.52885770  0.16915498  0.09731543  1.0
  H  H134  1  0.05166817  0.99453075  0.30845908  1.0
  H  H135  1  0.12870745  0.99104922  0.31493797  1.0
  H  H136  1  0.65323015  0.53262456  0.30721453  1.0
  H  H137  1  0.69585640  0.60244060  0.30520977  1.0
  H  H138  1  0.49966617  0.59844164  0.31838287  1.0
  H  H139  1  0.54022737  0.52907296  0.31655549  1.0
  H  H140  1  0.66939643  0.39653964  0.09879002  1.0
  H  H141  1  0.37376955  0.73350242  0.09738418  1.0
  H  H142  1  0.63997044  0.69700252  0.30842838  1.0
  H  H143  1  0.55644624  0.69406651  0.31493146  1.0
  C  C144  1  0.99628210  0.17699069  0.49450202  1.0
  C  C145  1  0.00503843  0.30013201  0.50417934  1.0
  C  C146  1  0.00878056  0.36828679  0.50439980  1.0
  C  C147  1  0.99220701  0.10893550  0.49417989  1.0
  C  C148  1  0.83954574  0.41405584  0.78620185  1.0
  C  C149  1  0.83608571  0.29995697  0.79451524  1.0
  C  C150  1  0.69732599  0.45493044  0.55565893  1.0
  C  C151  1  0.99087300  0.17437684  0.55431323  1.0
  C  C152  1  0.99531052  0.23449072  0.55961187  1.0
  C  C153  1  0.75739802  0.44532068  0.56099337  1.0
  C  C154  1  0.93338300  0.35749476  0.79030440  1.0
  C  C155  1  0.50926651  0.32852376  0.49449735  1.0
  C  C156  1  0.49083050  0.19571464  0.50415327  1.0
  C  C157  1  0.48684455  0.12736934  0.50433126  1.0
  C  C158  1  0.51360175  0.39688570  0.49421310  1.0
  C  C159  1  0.37424498  0.79979666  0.78616775  1.0
  C  C160  1  0.36939016  0.90557303  0.79449547  1.0
  C  C161  1  0.74703043  0.98942307  0.55565369  1.0
  C  C162  1  0.45488086  0.27132293  0.55430523  1.0
  C  C163  1  0.44513677  0.20592441  0.55957956  1.0
  C  C164  1  0.68163198  0.99372916  0.56097485  1.0
  C  C165  1  0.27630945  0.85223311  0.79029149  1.0
  C  C166  1  0.07845234  0.24627973  0.99451931  1.0
  C  C167  1  0.94569459  0.25513034  0.00410894  1.0
  C  C168  1  0.87736007  0.25885562  0.00430226  1.0
  C  C169  1  0.14679787  0.24221167  0.99423870  1.0
  C  C170  1  0.54982327  0.08955224  0.28613455  1.0
  C  C171  1  0.65559778  0.08613068  0.29446264  1.0
  C  C172  1  0.73930935  0.94720348  0.05578269  1.0
  C  C173  1  0.02126732  0.24091290  0.05430411  1.0
  C  C174  1  0.95586651  0.24540441  0.05955364  1.0
  C  C175  1  0.74366696  0.00728654  0.06108231  1.0
  C  C176  1  0.60221428  0.18335775  0.29031049  1.0
  C  C177  1  0.92695933  0.75920589  0.99455630  1.0
  C  C178  1  0.05014267  0.74076749  0.00411837  1.0
  C  C179  1  0.11832009  0.73684393  0.00425836  1.0
  C  C180  1  0.85890735  0.76356813  0.99423613  1.0
  C  C181  1  0.16406320  0.62425919  0.28615995  1.0
  C  C182  1  0.04994684  0.61942123  0.29449532  1.0
  C  C183  1  0.20492087  0.99698018  0.05573905  1.0
  C  C184  1  0.92435292  0.70481684  0.05436826  1.0
  C  C185  1  0.98452694  0.69507575  0.05955970  1.0
  C  C186  1  0.19529856  0.93157791  0.06106409  1.0
  C  C187  1  0.10745457  0.52630150  0.29031230  1.0
  C  C188  1  0.25376118  0.42151452  0.00544512  1.0
  C  C189  1  0.24488325  0.55425836  0.99588355  1.0
  C  C190  1  0.24110068  0.62257655  0.99574520  1.0
  C  C191  1  0.25780516  0.35314251  0.00576140  1.0
  C  C192  1  0.41041825  0.95022120  0.71384097  1.0
  C  C193  1  0.41391616  0.84444228  0.70550460  1.0
  C  C194  1  0.55272106  0.76066270  0.94425893  1.0
  C  C195  1  0.25918570  0.47872007  0.94563130  1.0
  C  C196  1  0.25463605  0.54408524  0.94044021  1.0
  C  C197  1  0.49264528  0.75636724  0.93893171  1.0
  C  C198  1  0.31661419  0.89776637  0.70968733  1.0
  C  C199  1  0.74079837  0.57297106  0.00548055  1.0
  C  C200  1  0.75923578  0.44980354  0.99588986  1.0
  C  C201  1  0.76315428  0.38166323  0.99569868  1.0
  C  C202  1  0.73644937  0.64103694  0.00575926  1.0
  C  C203  1  0.87568610  0.33595473  0.71386919  1.0
  C  C204  1  0.88059269  0.45005951  0.70553921  1.0
  C  C205  1  0.50298734  0.29509424  0.94421567  1.0
  C  C206  1  0.79521565  0.57557048  0.94569660  1.0
  C  C207  1  0.80495459  0.51541931  0.94044707  1.0
  C  C208  1  0.56836984  0.30475106  0.93891655  1.0
  C  C209  1  0.97366895  0.39252470  0.70969112  1.0
  C  C210  1  0.17149231  0.99078305  0.50549779  1.0
  C  C211  1  0.30431372  0.00921592  0.49581816  1.0
  C  C212  1  0.37268767  0.01317786  0.49559608  1.0
  C  C213  1  0.10311276  0.98638361  0.50582729  1.0
  C  C214  1  0.70025496  0.12574449  0.21380090  1.0
  C  C215  1  0.59447127  0.13059657  0.20548875  1.0
  C  C216  1  0.51059001  0.75298578  0.44434244  1.0
  C  C217  1  0.22869029  0.04518526  0.44568818  1.0
  C  C218  1  0.29410146  0.05492092  0.44038894  1.0
  C  C219  1  0.50631345  0.81839090  0.43900749  1.0
  C  C220  1  0.64779816  0.22368384  0.20969792  1.0
  C  C221  1  0.32302153  0.50376405  0.50550407  1.0
  C  C222  1  0.19986773  0.49498481  0.49584681  1.0
  C  C223  1  0.13170550  0.49117896  0.49566701  1.0
  C  C224  1  0.39109820  0.50781434  0.50579051  1.0
  C  C225  1  0.08596413  0.66041232  0.21383143  1.0
  C  C226  1  0.20006834  0.66388951  0.20550406  1.0
  C  C227  1  0.04507856  0.80268428  0.44434685  1.0
  C  C228  1  0.32562803  0.50918783  0.44569625  1.0
  C  C229  1  0.26550421  0.50471802  0.44042044  1.0
  C  C230  1  0.05470496  0.74260633  0.43902558  1.0
  C  C231  1  0.14252834  0.56660178  0.20970694  1.0
  C  C232  1  0.75373491  0.07293307  0.00552567  1.0
  C  C233  1  0.74479779  0.94977430  0.99594235  1.0
  C  C234  1  0.74106278  0.88161825  0.99574676  1.0
  C  C235  1  0.75780122  0.14101160  0.00580718  1.0
  C  C236  1  0.91043551  0.83594728  0.71384880  1.0
  C  C237  1  0.91389402  0.95005243  0.70553393  1.0
  C  C238  1  0.05269976  0.79509416  0.94427613  1.0
  C  C239  1  0.75911000  0.07553911  0.94573492  1.0
  C  C240  1  0.75458480  0.01540585  0.94048348  1.0
  C  C241  1  0.99260217  0.80472156  0.93900401  1.0
  C  C242  1  0.81662614  0.89254692  0.70969779  1.0
  C  C243  1  0.24079581  0.92148634  0.00549985  1.0
  C  C244  1  0.25922540  0.05427614  0.99588383  1.0
  C  C245  1  0.26310059  0.12261238  0.99572743  1.0
  C  C246  1  0.23642068  0.85311317  0.00581273  1.0
  C  C247  1  0.37571622  0.45019965  0.71383466  1.0
  C  C248  1  0.38061693  0.34440384  0.70552047  1.0
  C  C249  1  0.00298741  0.26066654  0.94425201  1.0
  C  C250  1  0.29518766  0.97869416  0.94569160  1.0
  C  C251  1  0.30492391  0.04409035  0.94044440  1.0
  C  C252  1  0.06838213  0.25634732  0.93893910  1.0
  C  C253  1  0.47367991  0.39780818  0.70970324  1.0
  C  C254  1  0.67153102  0.00376673  0.50542342  1.0
  C  C255  1  0.80431089  0.99492707  0.49580539  1.0
  C  C256  1  0.87264045  0.99112325  0.49563640  1.0
  C  C257  1  0.60315577  0.00782650  0.50575549  1.0
  C  C258  1  0.20022411  0.16045069  0.21380787  1.0
  C  C259  1  0.09444942  0.16389088  0.20549727  1.0
  C  C260  1  0.01058709  0.30270976  0.44431850  1.0
  C  C261  1  0.72871600  0.00912247  0.44562965  1.0
  C  C262  1  0.79411044  0.00463193  0.44038021  1.0
  C  C263  1  0.00631711  0.24264432  0.43897625  1.0
  C  C264  1  0.14778784  0.06662949  0.20969241  1.0
  C  C265  1  0.82303456  0.49087036  0.50547418  1.0
  C  C266  1  0.69988935  0.50924702  0.49581215  1.0
  C  C267  1  0.63174013  0.51318935  0.49561839  1.0
  C  C268  1  0.89110399  0.48647240  0.50575936  1.0
  C  C269  1  0.58595530  0.62575155  0.21382342  1.0
  C  C270  1  0.70007071  0.63058202  0.20550962  1.0
  C  C271  1  0.54513726  0.25300263  0.44429102  1.0
  C  C272  1  0.82565824  0.54526969  0.44565711  1.0
  C  C273  1  0.76551245  0.55499610  0.44041369  1.0
  C  C274  1  0.55476530  0.31841797  0.43894703  1.0
  C  C275  1  0.64256448  0.72369127  0.20969617  1.0
  C  C276  1  0.49634265  0.82850902  0.49452701  1.0
  C  C277  1  0.50505951  0.69570131  0.50418840  1.0
  C  C278  1  0.50880371  0.62735805  0.50438498  1.0
  C  C279  1  0.49222898  0.89686195  0.49424282  1.0
  C  C280  1  0.33957487  0.29977759  0.78617630  1.0
  C  C281  1  0.33608600  0.40557863  0.79449149  1.0
  C  C282  1  0.19729331  0.48942897  0.55570898  1.0
  C  C283  1  0.49092430  0.77131461  0.55434371  1.0
  C  C284  1  0.49540762  0.70592598  0.55958879  1.0
  C  C285  1  0.25736348  0.49371224  0.56105537  1.0
  C  C286  1  0.43338623  0.35226189  0.79030412  1.0
  C  C287  1  0.00918927  0.67695355  0.49457662  1.0
  C  C288  1  0.99073435  0.80011678  0.50419490  1.0
  C  C289  1  0.98676217  0.86827344  0.50436710  1.0
  C  C290  1  0.01358106  0.60891011  0.49424183  1.0
  C  C291  1  0.87426038  0.91403266  0.78619037  1.0
  C  C292  1  0.86939132  0.79994633  0.79449995  1.0
  C  C293  1  0.24702841  0.95490251  0.55568074  1.0
  C  C294  1  0.95475210  0.67434581  0.55437080  1.0
  C  C295  1  0.94501280  0.73449125  0.55961908  1.0
  C  C296  1  0.18162191  0.94529020  0.56102371  1.0
  C  C297  1  0.77632304  0.85747733  0.79030705  1.0
  C  C298  1  0.57845913  0.25926213  0.99447220  1.0
  C  C299  1  0.44571772  0.24074219  0.00405649  1.0
  C  C300  1  0.37737001  0.23681449  0.00424464  1.0
  C  C301  1  0.64681584  0.26360834  0.99419535  1.0
  C  C302  1  0.04979752  0.12428606  0.28614811  1.0
  C  C303  1  0.15558763  0.11942923  0.29446488  1.0
  C  C304  1  0.23936927  0.49697477  0.05572352  1.0
  C  C305  1  0.52127528  0.20484631  0.05426299  1.0
  C  C306  1  0.45589118  0.19507035  0.05951389  1.0
  C  C307  1  0.24372362  0.43160468  0.06099704  1.0
  C  C308  1  0.10224438  0.02632378  0.29030216  1.0
  C  C309  1  0.42698698  0.74629806  0.99449846  1.0
  C  C310  1  0.55016164  0.75511020  0.00411453  1.0
  C  C311  1  0.61834320  0.75883171  0.00426759  1.0
  C  C312  1  0.35892641  0.74223602  0.99418353  1.0
  C  C313  1  0.66403466  0.58955288  0.28616544  1.0
  C  C314  1  0.54992403  0.58613689  0.29448058  1.0
  C  C315  1  0.70491546  0.44723843  0.05574710  1.0
  C  C316  1  0.42438821  0.74088125  0.05430520  1.0
  C  C317  1  0.48453684  0.74536904  0.05955404  1.0
  C  C318  1  0.69528432  0.50731960  0.06106004  1.0
  C  C319  1  0.60750950  0.68338476  0.29029699  1.0
  N  N320  1  0.85646533  0.34542801  0.81699597  1.0
  N  N321  1  0.32653657  0.83761363  0.81696982  1.0
  N  N322  1  0.58762482  0.10645388  0.31695641  1.0
  N  N323  1  0.09542697  0.57655517  0.31697576  1.0
  N  N324  1  0.39353002  0.91239969  0.68302666  1.0
  N  N325  1  0.92340963  0.40457914  0.68304578  1.0
  N  N326  1  0.66242052  0.17345707  0.18300850  1.0
  N  N327  1  0.15458652  0.64350906  0.18302615  1.0
  N  N328  1  0.89353820  0.90458725  0.68304032  1.0
  N  N329  1  0.42344165  0.41239005  0.68302746  1.0
  N  N330  1  0.16240165  0.14353049  0.18301614  1.0
  N  N331  1  0.65459507  0.67344761  0.18302273  1.0
  N  N332  1  0.35646700  0.33761697  0.81697799  1.0
  N  N333  1  0.82654864  0.84541635  0.81698324  1.0
  N  N334  1  0.08762672  0.07657956  0.31695925  1.0
  N  N335  1  0.59541515  0.60647022  0.31697297  1.0
  Cl  Cl336  1  0.77543832  0.62650717  0.36510775  1.0
  Cl  Cl337  1  0.74760088  0.37434482  0.63653010  1.0
  Cl  Cl338  1  0.85947065  0.00840055  0.36509076  1.0
  Cl  Cl339  1  0.61589610  0.98910959  0.63653884  1.0
  Cl  Cl340  1  0.75841647  0.02536705  0.86514638  1.0
  Cl  Cl341  1  0.73911945  0.99749104  0.13662978  1.0
  Cl  Cl342  1  0.37641848  0.10946710  0.86515063  1.0
  Cl  Cl343  1  0.12430739  0.86582273  0.13659364  1.0
  Cl  Cl344  1  0.47462400  0.74156785  0.13484630  1.0
  Cl  Cl345  1  0.50242235  0.76090627  0.86340175  1.0
  Cl  Cl346  1  0.39051460  0.12356440  0.13485185  1.0
  Cl  Cl347  1  0.63412015  0.37574925  0.86337497  1.0
  Cl  Cl348  1  0.49160850  0.64054546  0.63489651  1.0
  Cl  Cl349  1  0.51087045  0.88413166  0.36347441  1.0
  Cl  Cl350  1  0.87349240  0.72456283  0.63490991  1.0
  Cl  Cl351  1  0.12565111  0.75243385  0.36345929  1.0
  Cl  Cl352  1  0.97461690  0.62355267  0.13486616  1.0
  Cl  Cl353  1  0.00238284  0.87570229  0.86345645  1.0
  Cl  Cl354  1  0.89049961  0.24157337  0.13487514  1.0
  Cl  Cl355  1  0.13413258  0.26090027  0.86341060  1.0
  Cl  Cl356  1  0.99152959  0.22454761  0.63491093  1.0
  Cl  Cl357  1  0.01092032  0.25248499  0.36340045  1.0
  Cl  Cl358  1  0.37363528  0.14056575  0.63489367  1.0
  Cl  Cl359  1  0.62571743  0.38418791  0.36336233  1.0
  Cl  Cl360  1  0.27545775  0.50852775  0.36510840  1.0
  Cl  Cl361  1  0.24755167  0.48907714  0.63664207  1.0
  Cl  Cl362  1  0.35946005  0.12643955  0.36509242  1.0
  Cl  Cl363  1  0.11588101  0.87431519  0.63660033  1.0
  Cl  Cl364  1  0.25842399  0.60947828  0.86513440  1.0
  Cl  Cl365  1  0.23915346  0.36583925  0.13654419  1.0
  Cl  Cl366  1  0.87644231  0.52536889  0.86512670  1.0
  Cl  Cl367  1  0.62430781  0.49754149  0.13658882  1.0
  O  O368  1  0.05029334  0.42215703  0.44582436  1.0
  O  O369  1  0.96939766  0.36723688  0.56135672  1.0
  O  O370  1  0.03453264  0.10938475  0.43823307  1.0
  O  O371  1  0.94432790  0.49913565  0.44842894  1.0
  O  O372  1  0.50390158  0.13207337  0.44574752  1.0
  O  O373  1  0.46922554  0.07146781  0.56128886  1.0
  O  O374  1  0.52720830  0.45238368  0.43828115  1.0
  O  O375  1  0.60726549  0.05244228  0.44838910  1.0
  O  O376  1  0.88207569  0.30029253  0.94569695  1.0
  O  O377  1  0.82145483  0.21949864  0.06125504  1.0
  O  O378  1  0.20229281  0.28454242  0.93830666  1.0
  O  O379  1  0.80237948  0.19426156  0.94841134  1.0
  O  O380  1  0.17218675  0.75395275  0.94567300  1.0
  O  O381  1  0.11732225  0.71928217  0.06119149  1.0
  O  O382  1  0.85939037  0.77718933  0.93827884  1.0
  O  O383  1  0.24916180  0.85719994  0.94846943  1.0
  O  O384  1  0.19962486  0.61785467  0.05433240  1.0
  O  O385  1  0.28047259  0.67851213  0.93881225  1.0
  O  O386  1  0.21546371  0.29766627  0.06172281  1.0
  O  O387  1  0.30566860  0.69763041  0.05152950  1.0
  O  O388  1  0.74598557  0.32777675  0.05430099  1.0
  O  O389  1  0.78075218  0.38271064  0.93874246  1.0
  O  O390  1  0.72284745  0.64059770  0.06169613  1.0
  O  O391  1  0.64267038  0.25079212  0.05158768  1.0
  O  O392  1  0.36798518  0.99611817  0.55416815  1.0
  O  O393  1  0.42859553  0.03075744  0.43863507  1.0
  O  O394  1  0.04762362  0.97276696  0.56176399  1.0
  O  O395  1  0.44756236  0.89275570  0.55157126  1.0
  O  O396  1  0.07782265  0.44965415  0.55424863  1.0
  O  O397  1  0.13276173  0.53051792  0.43870602  1.0
  O  O398  1  0.39066328  0.46549178  0.56172138  1.0
  O  O399  1  0.00082457  0.55565010  0.55161199  1.0
  O  O400  1  0.69958184  0.82774146  0.05433217  1.0
  O  O401  1  0.78047655  0.88266641  0.93880310  1.0
  O  O402  1  0.71548737  0.14057716  0.06174193  1.0
  O  O403  1  0.80563227  0.75078590  0.05159460  1.0
  O  O404  1  0.24594821  0.11791222  0.05432165  1.0
  O  O405  1  0.28066546  0.17851438  0.93877513  1.0
  O  O406  1  0.22278645  0.79762742  0.06177916  1.0
  O  O407  1  0.14265824  0.19761697  0.05161875  1.0
  O  O408  1  0.86790798  0.94965010  0.55423132  1.0
  O  O409  1  0.92856938  0.03047134  0.43868551  1.0
  O  O410  1  0.54766602  0.96551300  0.56168560  1.0
  O  O411  1  0.94756799  0.05569714  0.55152648  1.0
  O  O412  1  0.57786600  0.49608544  0.55420350  1.0
  O  O413  1  0.63276618  0.53079233  0.43867153  1.0
  O  O414  1  0.89066788  0.47288707  0.56169401  1.0
  O  O415  1  0.50083449  0.39276500  0.55157959  1.0
  O  O416  1  0.55028704  0.63207298  0.44579395  1.0
  O  O417  1  0.46946361  0.57144118  0.56132766  1.0
  O  O418  1  0.53457906  0.95236198  0.43830597  1.0
  O  O419  1  0.44434547  0.55241525  0.44842138  1.0
  O  O420  1  0.00388965  0.92213995  0.44576500  1.0
  O  O421  1  0.96915979  0.86725747  0.56131109  1.0
  O  O422  1  0.02720242  0.60935032  0.43831235  1.0
  O  O423  1  0.10722521  0.99909124  0.44847043  1.0
  O  O424  1  0.38207387  0.25391567  0.94566945  1.0
  O  O425  1  0.32146900  0.21928198  0.06119863  1.0
  O  O426  1  0.70232084  0.27723182  0.93825540  1.0
  O  O427  1  0.30237818  0.35722779  0.94840660  1.0
  O  O428  1  0.67223227  0.80027288  0.94567967  1.0
  O  O429  1  0.61729150  0.71944213  0.06122400  1.0
  O  O430  1  0.35940864  0.78456673  0.93821827  1.0
  O  O431  1  0.74923227  0.69427630  0.94838436  1.0
