# generated using pymatgen
data_Zn2H2C21N3(OF)10
_symmetry_space_group_name_H-M   'P 1'
_cell_length_a   9.80129139
_cell_length_b   11.02489015
_cell_length_c   22.08532304
_cell_angle_alpha   89.63900230
_cell_angle_beta   89.75076812
_cell_angle_gamma   90.86802856
_symmetry_Int_Tables_number   1
_chemical_formula_structural   Zn2H2C21N3(OF)10
_chemical_formula_sum   'Zn4 H4 C42 N6 O20 F20'
_cell_volume   2386.15457304
_cell_formula_units_Z   2
loop_
 _symmetry_equiv_pos_site_id
 _symmetry_equiv_pos_as_xyz
  1  'x, y, z'
loop_
 _atom_site_type_symbol
 _atom_site_label
 _atom_site_symmetry_multiplicity
 _atom_site_fract_x
 _atom_site_fract_y
 _atom_site_fract_z
 _atom_site_occupancy
  Zn  Zn0  1  0.36244753  0.49780712  0.49729220  1.0
  Zn  Zn1  1  0.64169284  0.50401514  0.50051901  1.0
  Zn  Zn2  1  0.63751970  0.50511533  0.99640327  1.0
  Zn  Zn3  1  0.35812051  0.50258233  0.99987523  1.0
  H  H4  1  0.19335195  0.58254721  0.19488503  1.0
  H  H5  1  0.18537050  0.42106364  0.19643996  1.0
  H  H6  1  0.19263662  0.42407542  0.31038609  1.0
  H  H7  1  0.20025514  0.58570721  0.30882683  1.0
  C  C8  1  0.49080105  0.73321199  0.50097030  1.0
  C  C9  1  0.51496789  0.50175485  0.38206569  1.0
  C  C10  1  0.49769894  0.26784835  0.49825199  1.0
  C  C11  1  0.49990425  0.50016912  0.61521775  1.0
  C  C12  1  0.50407985  0.73657875  0.99524509  1.0
  C  C13  1  0.49824230  0.49983539  0.11472714  1.0
  C  C14  1  0.50368562  0.27105726  0.00028130  1.0
  C  C15  1  0.48809547  0.50173656  0.88192165  1.0
  C  C16  1  0.07201765  0.41967501  0.53272738  1.0
  C  C17  1  0.93322254  0.58744399  0.47108215  1.0
  C  C18  1  0.92964633  0.42567126  0.53633267  1.0
  C  C19  1  0.07543369  0.58064089  0.46707590  1.0
  C  C20  1  0.49618982  0.13140250  0.50023407  1.0
  C  C21  1  0.49228538  0.86964811  0.50230316  1.0
  C  C22  1  0.61674740  0.06409225  0.50087473  1.0
  C  C23  1  0.37177707  0.93704359  0.50224678  1.0
  C  C24  1  0.61489278  0.93752525  0.50224788  1.0
  C  C25  1  0.37365553  0.06358775  0.50145006  1.0
  C  C26  1  0.50594891  0.49184215  0.18233365  1.0
  C  C27  1  0.51515973  0.50010921  0.31420892  1.0
  C  C28  1  0.38951298  0.49642885  0.21833380  1.0
  C  C29  1  0.63423092  0.49440562  0.27801956  1.0
  C  C30  1  0.39377746  0.49973046  0.28162857  1.0
  C  C31  1  0.62974949  0.48828754  0.21483189  1.0
  C  C32  1  0.23520380  0.50116043  0.21631566  1.0
  C  C33  1  0.23973774  0.50335487  0.28781073  1.0
  C  C34  1  0.49633015  0.50084136  0.68328395  1.0
  C  C35  1  0.49030681  0.50224307  0.81378596  1.0
  C  C36  1  0.37322420  0.50181097  0.71605206  1.0
  C  C37  1  0.61348920  0.50205071  0.78093813  1.0
  C  C38  1  0.37029983  0.50198128  0.77922649  1.0
  C  C39  1  0.61634584  0.50069331  0.71781443  1.0
  C  C40  1  0.92569796  0.42915012  0.96256309  1.0
  C  C41  1  0.06853501  0.57975165  0.03381896  1.0
  C  C42  1  0.06841722  0.42792177  0.96389025  1.0
  C  C43  1  0.92605427  0.58387079  0.03097089  1.0
  C  C44  1  0.50377106  0.13462754  0.99851324  1.0
  C  C45  1  0.50413416  0.87304210  0.99528631  1.0
  C  C46  1  0.38225575  0.06530260  0.99660054  1.0
  C  C47  1  0.62552482  0.94217200  0.99698818  1.0
  C  C48  1  0.38251314  0.93884838  0.99474878  1.0
  C  C49  1  0.62546840  0.06872802  0.99840112  1.0
  N  N50  1  0.14278567  0.49706555  0.49797019  1.0
  N  N51  1  0.86205963  0.50850422  0.50488752  1.0
  N  N52  1  0.85668476  0.50752487  0.99586626  1.0
  N  N53  1  0.13780830  0.50263732  0.99986370  1.0
  N  N54  1  0.77132727  0.49524050  0.30641017  1.0
  N  N55  1  0.76106050  0.47445998  0.18207471  1.0
  O  O56  1  0.38034652  0.67865688  0.51604053  1.0
  O  O57  1  0.60013697  0.68307325  0.48420943  1.0
  O  O58  1  0.62456012  0.47391986  0.40914424  1.0
  O  O59  1  0.40218854  0.52953252  0.40668467  1.0
  O  O60  1  0.60650596  0.32170452  0.51491498  1.0
  O  O61  1  0.38939567  0.31840523  0.48013698  1.0
  O  O62  1  0.39306477  0.46350963  0.58821720  1.0
  O  O63  1  0.61038852  0.53639040  0.59017618  1.0
  O  O64  1  0.61233553  0.68538078  0.97750738  1.0
  O  O65  1  0.39554205  0.68340566  0.01352933  1.0
  O  O66  1  0.38357359  0.47227459  0.09140241  1.0
  O  O67  1  0.60470817  0.53691382  0.08680109  1.0
  O  O68  1  0.39297880  0.32250991  0.98613957  1.0
  O  O69  1  0.61408026  0.32415001  0.01547983  1.0
  O  O70  1  0.59669785  0.46800072  0.90783614  1.0
  O  O71  1  0.37907731  0.53439751  0.90811319  1.0
  O  O72  1  0.81339579  0.59280640  0.32642613  1.0
  O  O73  1  0.83392368  0.39864320  0.30596326  1.0
  O  O74  1  0.77691926  0.37937171  0.15400850  1.0
  O  O75  1  0.84598832  0.55827506  0.18667019  1.0
  F  F76  1  0.13815227  0.33664204  0.56395093  1.0
  F  F77  1  0.86793458  0.67320203  0.44177794  1.0
  F  F78  1  0.86052967  0.34890957  0.57147503  1.0
  F  F79  1  0.14486984  0.65769971  0.43211128  1.0
  F  F80  1  0.74063766  0.11882124  0.49918332  1.0
  F  F81  1  0.24774600  0.88243718  0.50194676  1.0
  F  F82  1  0.73723332  0.88357415  0.50412994  1.0
  F  F83  1  0.25128570  0.11773619  0.50255873  1.0
  F  F84  1  0.25157584  0.50430899  0.68777806  1.0
  F  F85  1  0.73563746  0.50462896  0.80879124  1.0
  F  F86  1  0.24603051  0.50019109  0.80567829  1.0
  F  F87  1  0.74062658  0.49734448  0.69150128  1.0
  F  F88  1  0.85757565  0.35251195  0.92773403  1.0
  F  F89  1  0.13647184  0.65313079  0.07049975  1.0
  F  F90  1  0.13623811  0.35219411  0.92916295  1.0
  F  F91  1  0.85851360  0.66440475  0.06284357  1.0
  F  F92  1  0.25885818  0.11764222  0.99716140  1.0
  F  F93  1  0.74850634  0.88915741  0.99841762  1.0
  F  F94  1  0.25957297  0.88262792  0.99156696  1.0
  F  F95  1  0.74870774  0.12447458  0.99903707  1.0
