# generated using pymatgen
data_Zn4H26C28S2O15
_symmetry_space_group_name_H-M   'P 1'
_cell_length_a   17.85373602
_cell_length_b   18.62339575
_cell_length_c   19.35312605
_cell_angle_alpha   118.57254025
_cell_angle_beta   116.06007466
_cell_angle_gamma   90.07940035
_symmetry_Int_Tables_number   1
_chemical_formula_structural   Zn4H26C28S2O15
_chemical_formula_sum   'Zn8 H52 C56 S4 O30'
_cell_volume   4890.81708178
_cell_formula_units_Z   2
loop_
 _symmetry_equiv_pos_site_id
 _symmetry_equiv_pos_as_xyz
  1  'x, y, z'
loop_
 _atom_site_type_symbol
 _atom_site_label
 _atom_site_symmetry_multiplicity
 _atom_site_fract_x
 _atom_site_fract_y
 _atom_site_fract_z
 _atom_site_occupancy
  Zn  Zn0  1  0.12990071  0.53686062  0.07867730  1.0
  Zn  Zn1  1  0.96315595  0.38030994  0.93090771  1.0
  Zn  Zn2  1  0.96738465  0.55270097  0.93337330  1.0
  Zn  Zn3  1  0.95350357  0.54685260  0.09056713  1.0
  Zn  Zn4  1  0.37670640  0.96530503  0.93340717  1.0
  Zn  Zn5  1  0.54089217  0.95709163  0.08492826  1.0
  Zn  Zn6  1  0.53710322  0.12815141  0.08663656  1.0
  Zn  Zn7  1  0.55849617  0.96781424  0.93182609  1.0
  H  H8  1  0.21353372  0.80386479  0.12002164  1.0
  H  H9  1  0.12769387  0.78575333  0.01652700  1.0
  H  H10  1  0.21739696  0.88057781  0.01996983  1.0
  H  H11  1  0.30297500  0.89754265  0.12304927  1.0
  H  H12  1  0.19665123  0.76421943  0.87040852  1.0
  H  H13  1  0.26762791  0.69840267  0.86555172  1.0
  H  H14  1  0.10771432  0.66821908  0.86695301  1.0
  H  H15  1  0.18030172  0.60397442  0.86391792  1.0
  H  H16  1  0.31755859  0.70995506  0.11646713  1.0
  H  H17  1  0.30363245  0.62836811  0.01191977  1.0
  H  H18  1  0.39276124  0.72264288  0.01439891  1.0
  H  H19  1  0.40650597  0.80421302  0.11879130  1.0
  H  H20  1  0.90900196  0.31255703  0.12991153  1.0
  H  H21  1  0.89152169  0.23118565  0.02255578  1.0
  H  H22  1  0.80295190  0.13760514  0.02156003  1.0
  H  H23  1  0.82056231  0.21979700  0.12868223  1.0
  H  H24  1  0.67994230  0.11609708  0.87814471  1.0
  H  H25  1  0.60818191  0.18118466  0.88147859  1.0
  H  H26  1  0.76737298  0.21068198  0.87894243  1.0
  H  H27  1  0.69610320  0.27615547  0.88437578  1.0
  H  H28  1  0.80855968  0.40882734  0.13883583  1.0
  H  H29  1  0.72181130  0.39456615  0.03891994  1.0
  H  H30  1  0.63273798  0.30067508  0.03693070  1.0
  H  H31  1  0.71936665  0.31500138  0.13673945  1.0
  H  H32  1  0.17445372  0.27934354  0.08514835  1.0
  H  H33  1  0.26552044  0.36442488  0.14106886  1.0
  H  H34  1  0.35448869  0.27283373  0.14549555  1.0
  H  H35  1  0.26269755  0.18802060  0.08848597  1.0
  H  H36  1  0.40233898  0.30446750  0.05607774  1.0
  H  H37  1  0.34571287  0.24177666  0.93628364  1.0
  H  H38  1  0.31228741  0.39547126  0.05044906  1.0
  H  H39  1  0.25556645  0.33136646  0.93066986  1.0
  H  H40  1  0.09116541  0.18781703  0.91212130  1.0
  H  H41  1  0.12422877  0.20935870  0.84927324  1.0
  H  H42  1  0.21392682  0.11834872  0.85358319  1.0
  H  H43  1  0.18082741  0.09682886  0.91635560  1.0
  H  H44  1  0.91380137  0.81779706  0.09868875  1.0
  H  H45  1  0.87796181  0.79422281  0.15939872  1.0
  H  H46  1  0.79065805  0.88735634  0.15612433  1.0
  H  H47  1  0.82525361  0.90862822  0.09331899  1.0
  H  H48  1  0.66130288  0.76607243  0.07551463  1.0
  H  H49  1  0.60196522  0.70262130  0.95585423  1.0
  H  H50  1  0.74897028  0.67256832  0.07669442  1.0
  H  H51  1  0.69014022  0.61082301  0.95688367  1.0
  H  H52  1  0.83059080  0.72937104  0.92578435  1.0
  H  H53  1  0.74033334  0.64387835  0.86729982  1.0
  H  H54  1  0.64977716  0.73407835  0.86418320  1.0
  H  H55  1  0.73995701  0.81915628  0.92071428  1.0
  H  H56  1  0.38596432  0.71328295  0.42658089  1.0
  H  H57  1  0.13263528  0.79410153  0.58836096  1.0
  H  H58  1  0.78917434  0.45085360  0.57882755  1.0
  H  H59  1  0.71647285  0.05760850  0.43790845  1.0
  C  C60  1  0.14135359  0.36058508  0.99608933  1.0
  C  C61  1  0.87954131  0.38378144  0.76350232  1.0
  C  C62  1  0.14390893  0.63577361  0.99920046  1.0
  C  C63  1  0.86487766  0.64701857  0.01640673  1.0
  C  C64  1  0.12944342  0.62616020  0.25297073  1.0
  C  C65  1  0.86376747  0.37013280  0.01541158  1.0
  C  C66  1  0.36038184  0.86226164  0.00429745  1.0
  C  C67  1  0.61844040  0.12569160  0.25438219  1.0
  C  C68  1  0.35848227  0.14074425  0.00506134  1.0
  C  C69  1  0.64699590  0.14447786  0.01223922  1.0
  C  C70  1  0.38790851  0.88197902  0.76397053  1.0
  C  C71  1  0.64885438  0.86922857  0.01142219  1.0
  C  C72  1  0.27118658  0.70414838  0.40830847  1.0
  C  C73  1  0.24787172  0.80386486  0.60811797  1.0
  C  C74  1  0.18130979  0.67592808  0.35234150  1.0
  C  C75  1  0.33769727  0.83241067  0.66445736  1.0
  C  C76  1  0.22397312  0.75727712  0.51481502  1.0
  C  C77  1  0.29540829  0.75110179  0.50178848  1.0
  C  C78  1  0.80140587  0.36296283  0.60443851  1.0
  C  C79  1  0.70192413  0.14593145  0.41296280  1.0
  C  C80  1  0.83081597  0.33466138  0.66427102  1.0
  C  C81  1  0.67070561  0.17450942  0.35339290  1.0
  C  C82  1  0.74992879  0.21495938  0.50471297  1.0
  C  C83  1  0.75458781  0.29384027  0.51272959  1.0
  C  C84  1  0.19570771  0.78556200  0.05055115  1.0
  C  C85  1  0.25513642  0.84818922  0.05257574  1.0
  C  C86  1  0.30312370  0.79960782  0.00215013  1.0
  C  C87  1  0.23457000  0.73201150  0.90308351  1.0
  C  C88  1  0.17594008  0.66908357  0.90142462  1.0
  C  C89  1  0.20365873  0.69435244  0.99940225  1.0
  C  C90  1  0.29835682  0.69341182  0.04734458  1.0
  C  C91  1  0.35720482  0.75569353  0.04887362  1.0
  C  C92  1  0.85847895  0.26514330  0.05982580  1.0
  C  C93  1  0.79949377  0.20302302  0.05896012  1.0
  C  C94  1  0.70458406  0.20655436  0.01371701  1.0
  C  C95  1  0.67637873  0.18135560  0.91566885  1.0
  C  C96  1  0.73474618  0.24398090  0.91686928  1.0
  C  C97  1  0.80413036  0.31158141  0.01569802  1.0
  C  C98  1  0.75928773  0.36022963  0.06888619  1.0
  C  C99  1  0.70028284  0.29803708  0.06751443  1.0
  C  C100  1  0.23068302  0.29928692  0.08251208  1.0
  C  C101  1  0.28970002  0.23869285  0.08518449  1.0
  C  C102  1  0.29835008  0.19814038  0.99904416  1.0
  C  C103  1  0.33742764  0.27002912  0.99619298  1.0
  C  C104  1  0.27781326  0.33000520  0.99273097  1.0
  C  C105  1  0.19833770  0.29967069  0.99417361  1.0
  C  C106  1  0.14851635  0.20887210  0.91196831  1.0
  C  C107  1  0.20787664  0.14867671  0.91481179  1.0
  C  C108  1  0.85579523  0.79621619  0.09777009  1.0
  C  C109  1  0.79711067  0.85737984  0.09514752  1.0
  C  C110  1  0.70587683  0.80817581  0.01010148  1.0
  C  C111  1  0.66775712  0.73697479  0.01463539  1.0
  C  C112  1  0.72625130  0.67573185  0.01575825  1.0
  C  C113  1  0.80526910  0.70549537  0.01340809  1.0
  C  C114  1  0.77407950  0.70858822  0.92726986  1.0
  C  C115  1  0.71446946  0.76844525  0.92473847  1.0
  S  S116  1  0.12687572  0.70651330  0.41379282  1.0
  S  S117  1  0.39241946  0.80241035  0.60323829  1.0
  S  S118  1  0.80204514  0.22414225  0.60866196  1.0
  S  S119  1  0.70067826  0.28493918  0.40903862  1.0
  O  O120  1  0.00274593  0.50436365  0.00969494  1.0
  O  O121  1  0.17959570  0.43957556  0.05346915  1.0
  O  O122  1  0.89551904  0.34024318  0.80104974  1.0
  O  O123  1  0.06278823  0.62190656  0.94911858  1.0
  O  O124  1  0.06006743  0.32839799  0.94224882  1.0
  O  O125  1  0.17871523  0.60644620  0.04986287  1.0
  O  O126  1  0.90135802  0.46434089  0.80351189  1.0
  O  O127  1  0.89450200  0.62657451  0.96244433  1.0
  O  O128  1  0.04696121  0.60918777  0.21917532  1.0
  O  O129  1  0.88145815  0.62367819  0.07272836  1.0
  O  O130  1  0.17049030  0.60449012  0.20948004  1.0
  O  O131  1  0.89438468  0.33337869  0.96268496  1.0
  O  O132  1  0.87912268  0.45004814  0.06731840  1.0
  O  O133  1  0.50354536  0.00420461  0.00742218  1.0
  O  O134  1  0.32247568  0.89438636  0.95705643  1.0
  O  O135  1  0.59453095  0.04523477  0.21440447  1.0
  O  O136  1  0.43840122  0.17742043  0.06495343  1.0
  O  O137  1  0.44189534  0.87847595  0.05363501  1.0
  O  O138  1  0.32480738  0.06093659  0.95101194  1.0
  O  O139  1  0.60120437  0.16926867  0.21684850  1.0
  O  O140  1  0.61502811  0.17656033  0.06411703  1.0
  O  O141  1  0.47061201  0.90357208  0.80059540  1.0
  O  O142  1  0.63547033  0.06527231  0.95941239  1.0
  O  O143  1  0.34455193  0.89883072  0.80484277  1.0
  O  O144  1  0.62661700  0.89458344  0.07189343  1.0
  O  O145  1  0.62822725  0.89086606  0.95345807  1.0
  O  O146  1  0.32671829  0.68796170  0.37577437  1.0
  O  O147  1  0.19160578  0.81952229  0.63973067  1.0
  O  O148  1  0.81610460  0.44609110  0.63196012  1.0
  O  O149  1  0.68733761  0.06270256  0.38511477  1.0
