# generated using pymatgen
data_Zn4H33C53N16Cl5
_symmetry_space_group_name_H-M   'P 1'
_cell_length_a   15.78218363
_cell_length_b   15.86447631
_cell_length_c   17.68126342
_cell_angle_alpha   104.85348556
_cell_angle_beta   108.86071231
_cell_angle_gamma   110.02610253
_symmetry_Int_Tables_number   1
_chemical_formula_structural   Zn4H33C53N16Cl5
_chemical_formula_sum   'Zn4 H33 C53 N16 Cl5'
_cell_volume   3584.90000286
_cell_formula_units_Z   1
loop_
 _symmetry_equiv_pos_site_id
 _symmetry_equiv_pos_as_xyz
  1  'x, y, z'
loop_
 _atom_site_type_symbol
 _atom_site_label
 _atom_site_symmetry_multiplicity
 _atom_site_fract_x
 _atom_site_fract_y
 _atom_site_fract_z
 _atom_site_occupancy
  Zn  Zn0  1  0.37393916  0.37558842  0.49975283  1.0
  Zn  Zn1  1  0.62036074  0.62954098  0.49681260  1.0
  Zn  Zn2  1  0.37587327  0.50802807  0.38122608  1.0
  Zn  Zn3  1  0.62342602  0.50448734  0.62262559  1.0
  H  H4  1  0.85529812  0.70659752  0.52283157  1.0
  H  H5  1  0.36276682  0.35821041  0.20805572  1.0
  H  H6  1  0.68746432  0.50241760  0.37182901  1.0
  H  H7  1  0.35825677  0.20887767  0.34226935  1.0
  H  H8  1  0.86742263  0.54553243  0.68680246  1.0
  H  H9  1  0.31589077  0.25817611  0.62166203  1.0
  H  H10  1  0.32936528  0.66791935  0.48406001  1.0
  H  H11  1  0.61643150  0.81678255  0.61672544  1.0
  H  H12  1  0.63140000  0.45813169  0.80172252  1.0
  H  H13  1  0.33523707  0.68127915  0.31751519  1.0
  H  H14  1  0.83575067  0.93842657  0.03411043  1.0
  H  H15  1  0.83795379  0.09930525  0.96550091  1.0
  H  H16  1  0.04278601  0.01293861  0.41501733  1.0
  H  H17  1  0.16038143  0.09893636  0.50729254  1.0
  H  H18  1  0.04668212  0.09662753  0.50629049  1.0
  H  H19  1  0.13779537  0.23883251  0.47593714  1.0
  H  H20  1  0.02012108  0.15404344  0.38463454  1.0
  H  H21  1  0.10296770  0.07972691  0.31031095  1.0
  H  H22  1  0.22131008  0.15542305  0.40416372  1.0
  H  H23  1  0.87020254  0.99633889  0.49434349  1.0
  H  H24  1  0.89604191  0.90463594  0.52130114  1.0
  H  H25  1  0.88998960  0.91344641  0.42175944  1.0
  H  H26  1  0.72981293  0.77218660  0.39083478  1.0
  H  H27  1  0.70461531  0.86352606  0.36430556  1.0
  H  H28  1  0.70259156  0.93078822  0.50808821  1.0
  H  H29  1  0.73131348  0.84167144  0.53707800  1.0
  H  H30  1  0.78328755  0.24713052  0.68910735  1.0
  H  H31  1  0.77884590  0.35062420  0.75303574  1.0
  H  H32  1  0.70688663  0.23176656  0.74452689  1.0
  H  H33  1  0.59450502  0.27968971  0.64909375  1.0
  H  H34  1  0.59727194  0.17669606  0.58469458  1.0
  H  H35  1  0.71546978  0.27959788  0.54336241  1.0
  H  H36  1  0.73088232  0.38878742  0.61765142  1.0
  C  C37  1  0.16871278  0.23043417  0.33220728  1.0
  C  C38  1  0.84120499  0.66432364  0.56095946  1.0
  C  C39  1  0.43961077  0.40105742  0.26056294  1.0
  C  C40  1  0.58675991  0.30552706  0.50567645  1.0
  C  C41  1  0.60614474  0.47498075  0.34420000  1.0
  C  C42  1  0.43262555  0.25104466  0.39835793  1.0
  C  C43  1  0.84710454  0.58183979  0.64479306  1.0
  C  C44  1  0.16713372  0.32443443  0.25841915  1.0
  C  C45  1  0.11016670  0.22950860  0.25160914  1.0
  C  C46  1  0.90460488  0.63289150  0.60939653  1.0
  C  C47  1  0.53074139  0.41041495  0.25757085  1.0
  C  C48  1  0.50658329  0.22131199  0.42933856  1.0
  C  C49  1  0.39538565  0.31153223  0.65388621  1.0
  C  C50  1  0.58263662  0.78452182  0.43535521  1.0
  C  C51  1  0.33079255  0.61634044  0.51404838  1.0
  C  C52  1  0.63859669  0.69320089  0.73849973  1.0
  C  C53  1  0.62015239  0.76694008  0.64833954  1.0
  C  C54  1  0.31441626  0.52267835  0.58727468  1.0
  C  C55  1  0.55681457  0.41455984  0.74607703  1.0
  C  C56  1  0.41464492  0.70434006  0.35665646  1.0
  C  C57  1  0.46878251  0.34303495  0.74012519  1.0
  C  C58  1  0.49890917  0.79706886  0.38961773  1.0
  C  C59  1  0.28920951  0.59584900  0.57081308  1.0
  C  C60  1  0.64910294  0.78519030  0.73753672  1.0
  C  C61  1  0.50169079  0.12804309  0.40152279  1.0
  C  C62  1  0.50180062  0.04827721  0.38968536  1.0
  C  C63  1  0.50077091  0.96139486  0.38345525  1.0
  C  C64  1  0.50001547  0.88373257  0.38367703  1.0
  C  C65  1  0.99868357  0.64338513  0.61535365  1.0
  C  C66  1  0.07696955  0.64569623  0.61454597  1.0
  C  C67  1  0.15743967  0.63961159  0.60743568  1.0
  C  C68  1  0.22492778  0.62659013  0.59477121  1.0
  C  C69  1  0.54073659  0.37523374  0.18141390  1.0
  C  C70  1  0.54310095  0.34035883  0.02987427  1.0
  C  C71  1  0.45846246  0.30039493  0.95093980  1.0
  C  C72  1  0.45953880  0.30508896  0.87372813  1.0
  C  C73  1  0.54209339  0.35289932  0.11035875  1.0
  C  C74  1  0.45974462  0.31737891  0.80822800  1.0
  C  C75  1  0.69281955  0.87290532  0.81194345  1.0
  C  C76  1  0.81467503  0.02497643  0.96313680  1.0
  C  C77  1  0.86070657  0.01305859  0.03696543  1.0
  C  C78  1  0.94276351  0.08950552  0.11458651  1.0
  C  C79  1  0.74453131  0.94486204  0.88257213  1.0
  C  C80  1  0.01978552  0.15356158  0.18056402  1.0
  C  C81  1  0.14865960  0.15251818  0.36603304  1.0
  C  C82  1  0.09525749  0.16315449  0.42428433  1.0
  C  C83  1  0.08565450  0.08903273  0.46553424  1.0
  C  C84  1  0.69260202  0.85543282  0.48084645  1.0
  C  C85  1  0.74287603  0.84859530  0.41959005  1.0
  C  C86  1  0.85588253  0.91948868  0.46674316  1.0
  C  C87  1  0.67634077  0.31108704  0.57394517  1.0
  C  C88  1  0.64385570  0.25569085  0.62792890  1.0
  C  C89  1  0.73316008  0.27209861  0.70784970  1.0
  N  N90  1  0.25147610  0.31872867  0.38086433  1.0
  N  N91  1  0.75405694  0.63400392  0.56707063  1.0
  N  N92  1  0.46064704  0.45716522  0.34157791  1.0
  N  N93  1  0.56081978  0.37849101  0.51601597  1.0
  N  N94  1  0.56246469  0.50262798  0.39307014  1.0
  N  N95  1  0.46564920  0.34533250  0.45178919  1.0
  N  N96  1  0.75746615  0.58240843  0.61894303  1.0
  N  N97  1  0.25080176  0.37723975  0.33525625  1.0
  N  N98  1  0.43669956  0.36045642  0.61279480  1.0
  N  N99  1  0.54886615  0.69166853  0.42934395  1.0
  N  N100  1  0.37416708  0.55877364  0.49760589  1.0
  N  N101  1  0.60751339  0.62742723  0.65762950  1.0
  N  N102  1  0.59695897  0.67347877  0.60229829  1.0
  N  N103  1  0.36481245  0.50113516  0.54308115  1.0
  N  N104  1  0.53705125  0.42463567  0.67039287  1.0
  N  N105  1  0.44516796  0.64208026  0.38080174  1.0
  Cl  Cl106  1  0.66524376  0.66634383  0.82775139  1.0
  Cl  Cl107  1  0.28382238  0.46407215  0.64984083  1.0
  Cl  Cl108  1  0.34024405  0.24802143  0.94798126  1.0
  Cl  Cl109  1  0.66125040  0.38894503  0.03190370  1.0
  Cl  Cl110  1  0.14252150  0.37276816  0.18323319  1.0
