# generated using pymatgen
data_Zn3H31C30Br(ClO3)4
_symmetry_space_group_name_H-M   'P 1'
_cell_length_a   18.77851261
_cell_length_b   18.78909382
_cell_length_c   18.81259913
_cell_angle_alpha   109.20557995
_cell_angle_beta   109.60592084
_cell_angle_gamma   109.45738020
_symmetry_Int_Tables_number   1
_chemical_formula_structural   Zn3H31C30Br(ClO3)4
_chemical_formula_sum   'Zn6 H62 C60 Br2 Cl8 O24'
_cell_volume   5118.74441297
_cell_formula_units_Z   2
loop_
 _symmetry_equiv_pos_site_id
 _symmetry_equiv_pos_as_xyz
  1  'x, y, z'
loop_
 _atom_site_type_symbol
 _atom_site_label
 _atom_site_symmetry_multiplicity
 _atom_site_fract_x
 _atom_site_fract_y
 _atom_site_fract_z
 _atom_site_occupancy
  Zn  Zn0  1  0.05885416  0.00317129  0.56243500  1.0
  Zn  Zn1  1  0.94115000  0.99682898  0.43756502  1.0
  Zn  Zn2  1  0.49782894  0.55729417  0.55812977  1.0
  Zn  Zn3  1  0.50217066  0.44270664  0.44187368  1.0
  Zn  Zn4  1  0.93938089  0.43979483  0.99775745  1.0
  Zn  Zn5  1  0.06062197  0.56020366  0.00224261  1.0
  H  H6  1  0.79701249  0.58953680  0.90499306  1.0
  H  H7  1  0.20286584  0.41034504  0.09500082  1.0
  H  H8  1  0.09939487  0.19866252  0.40125779  1.0
  H  H9  1  0.90059878  0.80141196  0.59881892  1.0
  H  H10  1  0.12869990  0.27080939  0.50692254  1.0
  H  H11  1  0.87135183  0.72924215  0.49318681  1.0
  H  H12  1  0.24233021  0.38144164  0.51546342  1.0
  H  H13  1  0.75772347  0.61860693  0.48464455  1.0
  H  H14  1  0.20623659  0.31146326  0.40590371  1.0
  H  H15  1  0.79375575  0.68861508  0.59417542  1.0
  H  H16  1  0.16016038  0.10379174  0.37537355  1.0
  H  H17  1  0.83977071  0.89623472  0.62458827  1.0
  H  H18  1  0.26569051  0.20797809  0.37151206  1.0
  H  H19  1  0.73422817  0.79204841  0.62843871  1.0
  H  H20  1  0.13476514  0.25259565  0.78855538  1.0
  H  H21  1  0.86521426  0.74736185  0.21145843  1.0
  H  H22  1  0.05992261  0.16678083  0.78881142  1.0
  H  H23  1  0.94002222  0.83318088  0.21117677  1.0
  H  H24  1  0.04061447  0.26232837  0.88668510  1.0
  H  H25  1  0.95934861  0.73765145  0.11330559  1.0
  H  H26  1  0.12373762  0.34966753  0.89465643  1.0
  H  H27  1  0.87624568  0.65030376  0.10534674  1.0
  H  H28  1  0.69123148  0.59204895  0.79735421  1.0
  H  H29  1  0.30863512  0.40781802  0.20263564  1.0
  H  H30  1  0.08567504  0.29774443  0.67982961  1.0
  H  H31  1  0.91437021  0.70226162  0.32022169  1.0
  H  H32  1  0.09471142  0.39684970  0.79496731  1.0
  H  H33  1  0.90530513  0.60315391  0.20505603  1.0
  H  H34  1  0.86068505  0.13535535  0.61271534  1.0
  H  H35  1  0.13932236  0.86467866  0.38725965  1.0
  H  H36  1  0.89332870  0.09815946  0.68567847  1.0
  H  H37  1  0.10662459  0.90183185  0.31426754  1.0
  H  H38  1  0.89280200  0.20449810  0.79148654  1.0
  H  H39  1  0.10717152  0.79549369  0.20848076  1.0
  H  H40  1  0.79178522  0.38967422  0.70341189  1.0
  H  H41  1  0.20833696  0.61043552  0.29659030  1.0
  H  H42  1  0.67860778  0.38549188  0.59827016  1.0
  H  H43  1  0.32150854  0.61459973  0.40171880  1.0
  H  H44  1  0.61838488  0.48400314  0.76311214  1.0
  H  H45  1  0.38153267  0.51581539  0.23679485  1.0
  H  H46  1  0.72652145  0.36201055  0.74960400  1.0
  H  H47  1  0.27355321  0.63797410  0.25031936  1.0
  H  H48  1  0.72663927  0.47813474  0.86395877  1.0
  H  H49  1  0.27329718  0.52171122  0.13595985  1.0
  H  H50  1  0.78083614  0.62406312  0.72678433  1.0
  H  H51  1  0.21911510  0.37599983  0.27332487  1.0
  H  H52  1  0.77883842  0.53834423  0.64849838  1.0
  H  H53  1  0.22121257  0.46181290  0.35160611  1.0
  H  H54  1  0.89389663  0.55044334  0.76079538  1.0
  H  H55  1  0.10614653  0.44971327  0.23931375  1.0
  H  H56  1  0.89135237  0.63140727  0.83892632  1.0
  H  H57  1  0.10860539  0.36866231  0.16118565  1.0
  H  H58  1  0.29386252  0.21817960  0.62068049  1.0
  H  H59  1  0.70615932  0.78175621  0.37926705  1.0
  H  H60  1  0.24911358  0.28693836  0.63732702  1.0
  H  H61  1  0.75095649  0.71303328  0.36270268  1.0
  H  H62  1  0.36102989  0.38984047  0.63684076  1.0
  H  H63  1  0.63903562  0.61012439  0.36317720  1.0
  H  H64  1  0.40179983  0.31796408  0.61381974  1.0
  H  H65  1  0.59821028  0.68196195  0.38610843  1.0
  H  H66  1  0.34787034  0.21327803  0.45702462  1.0
  H  H67  1  0.65205820  0.78669250  0.54286905  1.0
  C  C68  1  0.00285483  0.11947622  0.62227520  1.0
  C  C69  1  0.99714608  0.88052242  0.37772372  1.0
  C  C70  1  0.15484938  0.24374325  0.46762802  1.0
  C  C71  1  0.84516648  0.75630396  0.53244185  1.0
  C  C72  1  0.19065698  0.19220663  0.50312764  1.0
  C  C73  1  0.80934522  0.80779830  0.49687538  1.0
  C  C74  1  0.31068990  0.30988477  0.49980106  1.0
  C  C75  1  0.68930318  0.69011562  0.50019316  1.0
  C  C76  1  0.28879041  0.21871961  0.43805457  1.0
  C  C77  1  0.71115375  0.78127954  0.56189149  1.0
  C  C78  1  0.22715676  0.31676842  0.47043258  1.0
  C  C79  1  0.77285583  0.68327661  0.52963442  1.0
  C  C80  1  0.06937242  0.22386610  0.78081048  1.0
  C  C81  1  0.93060175  0.77610572  0.21918981  1.0
  C  C82  1  0.06121326  0.28885699  0.84847545  1.0
  C  C83  1  0.93876417  0.71112096  0.15152210  1.0
  C  C84  1  0.02129946  0.27320952  0.67476400  1.0
  C  C85  1  0.97873536  0.72680036  0.32525742  1.0
  C  C86  1  0.90921330  0.15626186  0.67844708  1.0
  C  C87  1  0.09076869  0.84374203  0.32152331  1.0
  C  C88  1  0.00044749  0.19244579  0.68781872  1.0
  C  C89  1  0.99954820  0.80754913  0.31217936  1.0
  C  C90  1  0.11975073  0.12206124  0.50293475  1.0
  C  C91  1  0.88025473  0.87794024  0.49706929  1.0
  C  C92  1  0.99271662  0.31135889  0.80264416  1.0
  C  C93  1  0.00728037  0.68863893  0.19735212  1.0
  C  C94  1  0.02610170  0.34664624  0.75028536  1.0
  C  C95  1  0.97391551  0.65335827  0.24972680  1.0
  C  C96  1  0.90532624  0.22544315  0.74694731  1.0
  C  C97  1  0.09466292  0.77456149  0.25303264  1.0
  C  C98  1  0.81175656  0.50083851  0.81013207  1.0
  C  C99  1  0.18824499  0.49917398  0.18988171  1.0
  C  C100  1  0.61703570  0.49761410  0.62028925  1.0
  C  C101  1  0.38295996  0.50240166  0.37973268  1.0
  C  C102  1  0.38050149  0.38063167  0.50013912  1.0
  C  C103  1  0.61949156  0.61938899  0.49987558  1.0
  C  C104  1  0.11857771  0.50012684  0.12001697  1.0
  C  C105  1  0.88142644  0.49988132  0.87999095  1.0
  C  C106  1  0.99568885  0.37977258  0.87732664  1.0
  C  C107  1  0.00430749  0.62022210  0.12267157  1.0
  C  C108  1  0.67845075  0.40637584  0.65982718  1.0
  C  C109  1  0.32161865  0.59364677  0.34013931  1.0
  C  C110  1  0.77610586  0.56006683  0.70891756  1.0
  C  C111  1  0.22389430  0.44001766  0.29116568  1.0
  C  C112  1  0.75503558  0.52544280  0.84553352  1.0
  C  C113  1  0.24489364  0.47445479  0.15443261  1.0
  C  C114  1  0.85058565  0.56542085  0.78246015  1.0
  C  C115  1  0.14941451  0.43466196  0.21762042  1.0
  C  C116  1  0.75286473  0.40867294  0.72981832  1.0
  C  C117  1  0.24720402  0.59135892  0.27015046  1.0
  C  C118  1  0.68584892  0.49636725  0.69092363  1.0
  C  C119  1  0.31414612  0.50362509  0.30907498  1.0
  C  C120  1  0.68311056  0.52666166  0.77591943  1.0
  C  C121  1  0.31681150  0.47322278  0.22404530  1.0
  C  C122  1  0.27038514  0.25530531  0.59487448  1.0
  C  C123  1  0.72964515  0.74466062  0.40511503  1.0
  C  C124  1  0.34259852  0.32338746  0.59277302  1.0
  C  C125  1  0.65742786  0.67657596  0.40720798  1.0
  C  C126  1  0.21831533  0.14872574  0.44005462  1.0
  C  C127  1  0.78163339  0.85127513  0.55989407  1.0
  Br  Br128  1  0.97699130  0.41525223  0.71499005  1.0
  Br  Br129  1  0.02303634  0.58475691  0.28501863  1.0
  Cl  Cl130  1  0.81300725  0.23713755  0.69605548  1.0
  Cl  Cl131  1  0.18699625  0.76288888  0.30392846  1.0
  Cl  Cl132  1  0.94858242  0.24776814  0.56847488  1.0
  Cl  Cl133  1  0.05149936  0.75227020  0.43154026  1.0
  Cl  Cl134  1  0.57267693  0.32457601  0.63150676  1.0
  Cl  Cl135  1  0.42739713  0.67535425  0.36837033  1.0
  Cl  Cl136  1  0.25678933  0.07979158  0.46743690  1.0
  Cl  Cl137  1  0.74313921  0.92016882  0.53244441  1.0
  O  O138  1  0.05771783  0.09725927  0.65377443  1.0
  O  O139  1  0.94229481  0.90275255  0.34622372  1.0
  O  O140  1  0.14582239  0.55422766  0.09538284  1.0
  O  O141  1  0.85418307  0.44577438  0.90461766  1.0
  O  O142  1  0.94411815  0.35182700  0.90382713  1.0
  O  O143  1  0.05588080  0.64816785  0.09617202  1.0
  O  O144  1  0.05361424  0.45842793  0.91070192  1.0
  O  O145  1  0.94638340  0.54156797  0.08929660  1.0
  O  O146  1  0.94879606  0.08468229  0.54191879  1.0
  O  O147  1  0.05119441  0.91530722  0.45807948  1.0
  O  O148  1  0.14424262  0.10112476  0.56085459  1.0
  O  O149  1  0.85576481  0.89886643  0.43913929  1.0
  O  O150  1  0.04083540  0.08879380  0.44407380  1.0
  O  O151  1  0.95916811  0.91121516  0.55593576  1.0
  O  O152  1  0.58929572  0.54909063  0.64508359  1.0
  O  O153  1  0.41070259  0.45089206  0.35491879  1.0
  O  O154  1  0.59509542  0.44969700  0.54181844  1.0
  O  O155  1  0.40490353  0.55030349  0.45816927  1.0
  O  O156  1  0.40538667  0.45889912  0.55248262  1.0
  O  O157  1  0.59460120  0.54109191  0.44750624  1.0
  O  O158  1  0.40851312  0.35744001  0.44839071  1.0
  O  O159  1  0.59149170  0.64255833  0.55160464  1.0
  O  O160  1  0.03869665  0.44701556  0.09041244  1.0
  O  O161  1  0.96130881  0.55299156  0.90959292  1.0
