# generated using pymatgen
data_Zn4H20C16N6O13
_symmetry_space_group_name_H-M   'P 1'
_cell_length_a   10.91993633
_cell_length_b   10.92285767
_cell_length_c   10.93438780
_cell_angle_alpha   97.80306315
_cell_angle_beta   99.79803973
_cell_angle_gamma   90.07736777
_symmetry_Int_Tables_number   1
_chemical_formula_structural   Zn4H20C16N6O13
_chemical_formula_sum   'Zn4 H20 C16 N6 O13'
_cell_volume   1272.89658736
_cell_formula_units_Z   1
loop_
 _symmetry_equiv_pos_site_id
 _symmetry_equiv_pos_as_xyz
  1  'x, y, z'
loop_
 _atom_site_type_symbol
 _atom_site_label
 _atom_site_symmetry_multiplicity
 _atom_site_fract_x
 _atom_site_fract_y
 _atom_site_fract_z
 _atom_site_occupancy
  Zn  Zn0  1  0.60628297  0.39365472  0.59951252  1.0
  Zn  Zn1  1  0.41514313  0.61752653  0.60472865  1.0
  Zn  Zn2  1  0.37355201  0.38612467  0.37088361  1.0
  Zn  Zn3  1  0.59778705  0.57949892  0.40990868  1.0
  H  H4  1  0.12515899  0.44343506  0.66094240  1.0
  H  H5  1  0.35501481  0.96947747  0.29550603  1.0
  H  H6  1  0.66508664  0.10636025  0.61667576  1.0
  H  H7  1  0.82389762  0.00239456  0.73094870  1.0
  H  H8  1  0.76878039  0.85864144  0.64170298  1.0
  H  H9  1  0.69847939  0.92110129  0.77212197  1.0
  H  H10  1  0.27457700  0.43542534  0.95155349  1.0
  H  H11  1  0.35756989  0.31107609  0.94639169  1.0
  H  H12  1  0.65337726  0.60242978  0.12985572  1.0
  H  H13  1  0.81350480  0.68894586  0.04712108  1.0
  H  H14  1  0.68845815  0.74557225  0.94417241  1.0
  H  H15  1  0.08423132  0.24526627  0.50517759  1.0
  H  H16  1  0.75967202  0.60318300  0.89775960  1.0
  H  H17  1  0.94565666  0.23451217  0.57060116  1.0
  H  H18  1  0.09351422  0.23063166  0.66770572  1.0
  H  H19  1  0.88571086  0.63260559  0.38586634  1.0
  H  H20  1  0.98383771  0.73387199  0.24947681  1.0
  H  H21  1  0.11745426  0.64271100  0.27788763  1.0
  H  H22  1  0.09779316  0.77532964  0.38683257  1.0
  H  H23  1  0.28032858  0.98198235  0.41364087  1.0
  C  C24  1  0.53291582  0.82620135  0.52228304  1.0
  C  C25  1  0.96925563  0.47617754  0.53882742  1.0
  C  C26  1  0.02892964  0.54068252  0.46403626  1.0
  C  C27  1  0.46414749  0.02838317  0.46330775  1.0
  C  C28  1  0.04132559  0.27239645  0.58934241  1.0
  C  C29  1  0.04857573  0.69704694  0.32295187  1.0
  C  C30  1  0.74043996  0.94451737  0.69312260  1.0
  C  C31  1  0.73027018  0.66154645  0.97714136  1.0
  C  C32  1  0.55299675  0.96462060  0.53407649  1.0
  C  C33  1  0.45800145  0.46823776  0.02375234  1.0
  C  C34  1  0.54534458  0.52741687  0.97250639  1.0
  C  C35  1  0.47247729  0.16094699  0.46590433  1.0
  C  C36  1  0.52687515  0.51582377  0.83115459  1.0
  C  C37  1  0.46647664  0.47161333  0.15765367  1.0
  C  C38  1  0.16774723  0.52520961  0.47410240  1.0
  C  C39  1  0.83586440  0.48197996  0.53427431  1.0
  N  N40  1  0.03894576  0.40600923  0.62567072  1.0
  N  N41  1  0.97854459  0.62049293  0.38640845  1.0
  N  N42  1  0.36263566  0.95539422  0.38691679  1.0
  N  N43  1  0.65635852  0.01239279  0.61093524  1.0
  N  N44  1  0.35893652  0.40256462  0.93603941  1.0
  N  N45  1  0.64593709  0.59422325  0.03459213  1.0
  O  O46  1  0.49135710  0.49352146  0.49790814  1.0
  O  O47  1  0.23354534  0.60238061  0.55779857  1.0
  O  O48  1  0.77495000  0.55304693  0.45944163  1.0
  O  O49  1  0.20370772  0.44029694  0.39850719  1.0
  O  O50  1  0.78379256  0.41752659  0.60203893  1.0
  O  O51  1  0.58197287  0.42785424  0.77674032  1.0
  O  O52  1  0.55949487  0.53448550  0.22952461  1.0
  O  O53  1  0.46834641  0.78843987  0.59666115  1.0
  O  O54  1  0.38510484  0.21331321  0.39806920  1.0
  O  O55  1  0.58816505  0.76198210  0.44359364  1.0
  O  O56  1  0.56872309  0.21961468  0.53628515  1.0
  O  O57  1  0.46408919  0.60065827  0.78304465  1.0
  O  O58  1  0.38314688  0.41280194  0.19898558  1.0
