# generated using pymatgen
data_Zn4H18C32S7(N2O17)2
_symmetry_space_group_name_H-M   'P 1'
_cell_length_a   10.77772763
_cell_length_b   19.10662818
_cell_length_c   19.10875272
_cell_angle_alpha   93.96260149
_cell_angle_beta   92.24113244
_cell_angle_gamma   95.85138347
_symmetry_Int_Tables_number   1
_chemical_formula_structural   Zn4H18C32S7(N2O17)2
_chemical_formula_sum   'Zn4 H18 C32 S7 N4 O34'
_cell_volume   3900.90421957
_cell_formula_units_Z   1
loop_
 _symmetry_equiv_pos_site_id
 _symmetry_equiv_pos_as_xyz
  1  'x, y, z'
loop_
 _atom_site_type_symbol
 _atom_site_label
 _atom_site_symmetry_multiplicity
 _atom_site_fract_x
 _atom_site_fract_y
 _atom_site_fract_z
 _atom_site_occupancy
  Zn  Zn0  1  0.39021715  0.42755712  0.42550922  1.0
  Zn  Zn1  1  0.60638451  0.56075407  0.44397455  1.0
  Zn  Zn2  1  0.58810883  0.44267452  0.55665871  1.0
  Zn  Zn3  1  0.38691197  0.54960711  0.54978649  1.0
  H  H4  1  0.00563879  0.52078043  0.57154860  1.0
  H  H5  1  0.73741123  0.37241350  0.90770577  1.0
  H  H6  1  0.88074247  0.60556553  0.17155494  1.0
  H  H7  1  0.54726926  0.40903983  0.76657825  1.0
  H  H8  1  0.53107048  0.90083278  0.42441500  1.0
  H  H9  1  0.22842451  0.10494290  0.30581572  1.0
  H  H10  1  0.38850190  0.20704194  0.38579640  1.0
  H  H11  1  0.53180656  0.64378732  0.65348458  1.0
  H  H12  1  0.56974306  0.10098856  0.59300931  1.0
  H  H13  1  0.33755081  0.86780895  0.72469773  1.0
  H  H14  1  0.53802234  0.76916234  0.41877811  1.0
  H  H15  1  0.98577079  0.47264634  0.41302627  1.0
  H  H16  1  0.57719906  0.23291956  0.59010950  1.0
  H  H17  1  0.33241681  0.47011307  0.21059778  1.0
  H  H18  1  0.34546969  0.47808283  0.07968736  1.0
  H  H19  1  0.38758122  0.71974887  0.85042327  1.0
  H  H20  1  0.39273184  0.60823222  0.76872969  1.0
  H  H21  1  0.91726753  0.48700398  0.18677933  1.0
  C  C22  1  0.50875254  0.68408132  0.51657485  1.0
  C  C23  1  0.51967325  0.76274938  0.52968941  1.0
  C  C24  1  0.51179073  0.79946446  0.59587548  1.0
  C  C25  1  0.48458518  0.30535822  0.48798908  1.0
  C  C26  1  0.50355966  0.87274622  0.59860090  1.0
  C  C27  1  0.47786040  0.51037550  0.76046298  1.0
  C  C28  1  0.51578483  0.45414208  0.79617652  1.0
  C  C29  1  0.51042834  0.45454798  0.86874606  1.0
  C  C30  1  0.46705664  0.51263130  0.90700886  1.0
  C  C31  1  0.42063622  0.56646974  0.86955960  1.0
  C  C32  1  0.42738291  0.56610515  0.79707290  1.0
  C  C33  1  0.53504124  0.19781489  0.54634946  1.0
  C  C34  1  0.42826138  0.48627637  0.11509179  1.0
  C  C35  1  0.42189905  0.48116383  0.18676458  1.0
  C  C36  1  0.54427884  0.50233853  0.08646275  1.0
  C  C37  1  0.51247989  0.49149345  0.30796610  1.0
  C  C38  1  0.53074004  0.48986622  0.23020298  1.0
  C  C39  1  0.64916352  0.50141396  0.20138686  1.0
  C  C40  1  0.65593498  0.51062931  0.12922323  1.0
  C  C41  1  0.48679290  0.50779957  0.68297024  1.0
  C  C42  1  0.82405285  0.51071604  0.51297850  1.0
  C  C43  1  0.16296402  0.48177156  0.47623582  1.0
  C  C44  1  0.53181282  0.12526214  0.54801197  1.0
  C  C45  1  0.02790842  0.48783312  0.46540156  1.0
  C  C46  1  0.96121319  0.50897918  0.51915512  1.0
  C  C47  1  0.48236948  0.22713759  0.48816168  1.0
  C  C48  1  0.47820479  0.08117902  0.49057335  1.0
  C  C49  1  0.42701804  0.11085308  0.43174105  1.0
  C  C50  1  0.42790216  0.18359258  0.43073451  1.0
  C  C51  1  0.52410896  0.87129812  0.47117274  1.0
  C  C52  1  0.52839860  0.79916809  0.46855184  1.0
  C  C53  1  0.51012410  0.90795743  0.53586651  1.0
  S  S54  1  0.35308721  0.63551107  0.91891559  1.0
  S  S55  1  0.78179610  0.49810434  0.26229355  1.0
  S  S56  1  0.53957342  0.37329176  0.90586755  1.0
  S  S57  1  0.79233495  0.53899423  0.08074567  1.0
  S  S58  1  0.36321470  0.05172126  0.35925355  1.0
  S  S59  1  0.53354851  0.75567752  0.67656159  1.0
  S  S60  1  0.47438985  0.93179295  0.67387571  1.0
  N  N61  1  0.47022657  0.00694419  0.48701846  1.0
  N  N62  1  0.51270410  0.98200397  0.54142037  1.0
  N  N63  1  0.46031282  0.51920396  0.98022394  1.0
  N  N64  1  0.55615371  0.50418866  0.01340874  1.0
  O  O65  1  0.49298585  0.49454271  0.49231637  1.0
  O  O66  1  0.77942388  0.54173985  0.46255846  1.0
  O  O67  1  0.21585363  0.50829757  0.53477779  1.0
  O  O68  1  0.76419251  0.47963644  0.56056897  1.0
  O  O69  1  0.21599584  0.45053070  0.42614249  1.0
  O  O70  1  0.23631103  0.60607498  0.94294823  1.0
  O  O71  1  0.44862887  0.67376365  0.96534253  1.0
  O  O72  1  0.31702651  0.68475545  0.85785071  1.0
  O  O73  1  0.83865277  0.56911770  0.28002338  1.0
  O  O74  1  0.74134920  0.45283325  0.31559825  1.0
  O  O75  1  0.87365888  0.45426467  0.21824630  1.0
  O  O76  1  0.44481409  0.43972433  0.32922487  1.0
  O  O77  1  0.45758082  0.36255101  0.96222317  1.0
  O  O78  1  0.54232771  0.32147651  0.84765964  1.0
  O  O79  1  0.67794402  0.38849251  0.94118823  1.0
  O  O80  1  0.83982887  0.47954441  0.04576844  1.0
  O  O81  1  0.76298308  0.60030304  0.04698542  1.0
  O  O82  1  0.90117625  0.56496203  0.14126393  1.0
  O  O83  1  0.46356940  0.01962840  0.32733408  1.0
  O  O84  1  0.25176726  0.01125782  0.37919168  1.0
  O  O85  1  0.31955208  0.10727331  0.30503508  1.0
  O  O86  1  0.63036083  0.79914807  0.71703987  1.0
  O  O87  1  0.45024257  0.55977066  0.65062971  1.0
  O  O88  1  0.41521365  0.73342129  0.70558747  1.0
  O  O89  1  0.59323719  0.68629429  0.64968038  1.0
  O  O90  1  0.58982960  0.96884270  0.70104095  1.0
  O  O91  1  0.36842184  0.96700253  0.65268184  1.0
  O  O92  1  0.42773904  0.88041501  0.73256021  1.0
  O  O93  1  0.59221011  0.65855721  0.48045335  1.0
  O  O94  1  0.56044425  0.34146014  0.53294843  1.0
  O  O95  1  0.41012989  0.65097075  0.53785306  1.0
  O  O96  1  0.41093106  0.32943005  0.44380926  1.0
  O  O97  1  0.55882936  0.54780233  0.34315589  1.0
  O  O98  1  0.52874742  0.45423088  0.65334613  1.0
