# generated using pymatgen
data_Al6H74C90O31
_symmetry_space_group_name_H-M   'P 1'
_cell_length_a   13.12678818
_cell_length_b   13.15362568
_cell_length_c   27.53064826
_cell_angle_alpha   88.84774381
_cell_angle_beta   89.27403267
_cell_angle_gamma   61.41061126
_symmetry_Int_Tables_number   1
_chemical_formula_structural   Al6H74C90O31
_chemical_formula_sum   'Al6 H74 C90 O31'
_cell_volume   4173.11052066
_cell_formula_units_Z   1
loop_
 _symmetry_equiv_pos_site_id
 _symmetry_equiv_pos_as_xyz
  1  'x, y, z'
loop_
 _atom_site_type_symbol
 _atom_site_label
 _atom_site_symmetry_multiplicity
 _atom_site_fract_x
 _atom_site_fract_y
 _atom_site_fract_z
 _atom_site_occupancy
  Al  Al0  1  0.58602098  0.56735755  0.50645578  1.0
  Al  Al1  1  0.81581553  0.59476051  0.50151606  1.0
  Al  Al2  1  0.58539462  0.80967555  0.50082672  1.0
  Al  Al3  1  0.09091371  0.08142949  0.01579940  1.0
  Al  Al4  1  0.84961863  0.07542747  0.01594109  1.0
  Al  Al5  1  0.07041250  0.84892782  0.01530732  1.0
  H  H6  1  0.69058911  0.80937723  0.82077499  1.0
  H  H7  1  0.99671764  0.83111448  0.77853697  1.0
  H  H8  1  0.20028361  0.00311880  0.78948990  1.0
  H  H9  1  0.65525124  0.38462833  0.80274592  1.0
  H  H10  1  0.96391893  0.67158331  0.22313019  1.0
  H  H11  1  0.36640761  0.95392450  0.21870500  1.0
  H  H12  1  0.67825720  0.32633115  0.23103497  1.0
  H  H13  1  0.98327140  0.69325183  0.13421483  1.0
  H  H14  1  0.31417987  0.97377328  0.13091582  1.0
  H  H15  1  0.70043677  0.27833732  0.14316889  1.0
  H  H16  1  0.66483386  0.98742541  0.28982790  1.0
  H  H17  1  0.47643038  0.65462677  0.81379877  1.0
  H  H18  1  0.33681454  0.66232685  0.29380617  1.0
  H  H19  1  0.98560184  0.34403533  0.28761099  1.0
  H  H20  1  0.74191502  0.04068929  0.23271935  1.0
  H  H21  1  0.19226234  0.75042859  0.24289840  1.0
  H  H22  1  0.04863999  0.18690601  0.24230445  1.0
  H  H23  1  0.75272529  0.05908763  0.14348187  1.0
  H  H24  1  0.15078516  0.76161712  0.15460008  1.0
  H  H25  1  0.06843546  0.14772158  0.15369296  1.0
  H  H26  1  0.00852142  0.69623886  0.29973967  1.0
  H  H27  1  0.30643477  0.00278796  0.29688528  1.0
  H  H28  1  0.01201711  0.30776247  0.80977205  1.0
  H  H29  1  0.70843618  0.26249572  0.31265338  1.0
  H  H30  1  0.64331539  0.84079801  0.73810027  1.0
  H  H31  1  0.47254354  0.64017902  0.72924445  1.0
  H  H32  1  0.00910428  0.35764592  0.72754708  1.0
  H  H33  1  0.97056846  0.67014445  0.38601597  1.0
  H  H34  1  0.38036223  0.96298161  0.38128516  1.0
  H  H35  1  0.67970414  0.34751519  0.39469190  1.0
  H  H36  1  0.82761957  0.97656739  0.70714674  1.0
  H  H37  1  0.17387894  0.88309038  0.71203064  1.0
  H  H38  1  0.83067704  0.20923647  0.70691267  1.0
  H  H39  1  0.75154376  0.69484074  0.73087173  1.0
  H  H40  1  0.68142393  0.00512051  0.71061204  1.0
  H  H41  1  0.25909689  0.73093550  0.70544885  1.0
  H  H42  1  0.97342277  0.18673147  0.71612765  1.0
  H  H43  1  0.80854379  0.01501914  0.79030506  1.0
  H  H44  1  0.15488855  0.83770585  0.79291954  1.0
  H  H45  1  0.80983963  0.18744633  0.78984217  1.0
  H  H46  1  0.96207616  0.65552426  0.72320576  1.0
  H  H47  1  0.41896792  0.94414906  0.73269957  1.0
  H  H48  1  0.68639655  0.53081439  0.72937645  1.0
  H  H49  1  0.99213648  0.76491736  0.70081212  1.0
  H  H50  1  0.54491625  0.72436613  0.72740916  1.0
  H  H51  1  0.27393588  0.01044154  0.71220003  1.0
  H  H52  1  0.65823579  0.41515211  0.71869863  1.0
  H  H53  1  0.01075921  0.69779244  0.79963409  1.0
  H  H54  1  0.33461916  0.98286506  0.81124269  1.0
  H  H55  1  0.68676696  0.49833089  0.81322184  1.0
  H  H56  1  0.54733012  0.06115522  0.35250697  1.0
  H  H57  1  0.54451073  0.95528837  0.39343156  1.0
  H  H58  1  0.60818274  0.03874068  0.41191900  1.0
  H  H59  1  0.38554879  0.54283413  0.35771697  1.0
  H  H60  1  0.50465524  0.53732978  0.39058734  1.0
  H  H61  1  0.89032250  0.49630750  0.73720841  1.0
  H  H62  1  0.36831593  0.59785658  0.41808616  1.0
  H  H63  1  0.04512715  0.42611002  0.34154820  1.0
  H  H64  1  0.94047787  0.52281279  0.38355282  1.0
  H  H65  1  0.04261228  0.38388943  0.40346174  1.0
  H  H66  1  0.58721896  0.17256216  0.76091548  1.0
  H  H67  1  0.64605141  0.17010307  0.81993083  1.0
  H  H68  1  0.51074933  0.16900987  0.81477000  1.0
  H  H69  1  0.16681813  0.69630953  0.84595167  1.0
  H  H70  1  0.31777869  0.62327538  0.85982941  1.0
  H  H71  1  0.25559369  0.54875150  0.82796252  1.0
  H  H72  1  0.82412340  0.68329978  0.80982884  1.0
  H  H73  1  0.99128135  0.96941882  0.81913097  1.0
  H  H74  1  0.90576232  0.08907622  0.85734660  1.0
  H  H75  1  0.06011237  0.02414583  0.85878259  1.0
  H  H76  1  0.50579665  0.77258161  0.81014308  1.0
  H  H77  1  0.90354702  0.45116667  0.82073046  1.0
  H  H78  1  0.54245175  0.41775197  0.49065895  1.0
  H  H79  1  0.17058894  0.19627151  0.98637840  1.0
  C  C80  1  0.45709512  0.76655978  0.57123241  1.0
  C  C81  1  0.85213117  0.85524683  0.85633084  1.0
  C  C82  1  0.29794844  0.83245793  0.85884637  1.0
  C  C83  1  0.83874706  0.30716085  0.86264012  1.0
  C  C84  1  0.79170586  0.81125137  0.66090693  1.0
  C  C85  1  0.38295355  0.81430767  0.66178071  1.0
  C  C86  1  0.83875372  0.38924075  0.66529831  1.0
  C  C87  1  0.77858202  0.80225665  0.61785516  1.0
  C  C88  1  0.40737218  0.79965619  0.61885851  1.0
  C  C89  1  0.82875968  0.41114748  0.62197353  1.0
  C  C90  1  0.87589441  0.22257442  0.95186602  1.0
  C  C91  1  0.79864184  0.45665463  0.57320346  1.0
  C  C92  1  0.89611834  0.89581674  0.94543261  1.0
  C  C93  1  0.20896274  0.88462146  0.94711074  1.0
  C  C94  1  0.79688825  0.81238905  0.38683923  1.0
  C  C95  1  0.40097358  0.79103354  0.38524338  1.0
  C  C96  1  0.81710494  0.39125275  0.38792899  1.0
  C  C97  1  0.71086730  0.90751240  0.36007428  1.0
  C  C98  1  0.38472979  0.70553981  0.36113421  1.0
  C  C99  1  0.90785362  0.38700764  0.35815785  1.0
  C  C100  1  0.73365682  0.91832314  0.31103574  1.0
  C  C101  1  0.34431376  0.72984846  0.31329181  1.0
  C  C102  1  0.75494670  0.78035574  0.56951920  1.0
  C  C103  1  0.92012659  0.34154334  0.31167275  1.0
  C  C104  1  0.83727269  0.84221579  0.28757995  1.0
  C  C105  1  0.31849160  0.83376106  0.28867618  1.0
  C  C106  1  0.84863212  0.29888355  0.29373461  1.0
  C  C107  1  0.45712307  0.76900109  0.43368014  1.0
  C  C108  1  0.78400740  0.45146389  0.43537239  1.0
  C  C109  1  0.77376962  0.77753559  0.43562121  1.0
  C  C110  1  0.92457075  0.75399947  0.31586299  1.0
  C  C111  1  0.32990866  0.91922957  0.31419016  1.0
  C  C112  1  0.76290659  0.29876642  0.32475967  1.0
  C  C113  1  0.95438310  0.77649948  0.77877518  1.0
  C  C114  1  0.90383941  0.73981564  0.36439619  1.0
  C  C115  1  0.37058861  0.89735891  0.36152956  1.0
  C  C116  1  0.74757492  0.34499614  0.37078579  1.0
  C  C117  1  0.91915805  0.75725432  0.20603272  1.0
  C  C118  1  0.31711404  0.91346191  0.20496926  1.0
  C  C119  1  0.76435658  0.28447920  0.21446339  1.0
  C  C120  1  0.92874443  0.76845646  0.15606342  1.0
  C  C121  1  0.29020611  0.92321383  0.15583880  1.0
  C  C122  1  0.77616303  0.25916627  0.16519394  1.0
  C  C123  1  0.79785814  0.97445648  0.16128434  1.0
  C  C124  1  0.29452572  0.94632674  0.78732047  1.0
  C  C125  1  0.19861093  0.80277588  0.16902693  1.0
  C  C126  1  0.98359227  0.18645753  0.17120970  1.0
  C  C127  1  0.79149177  0.96327516  0.21131128  1.0
  C  C128  1  0.22289160  0.79602313  0.21827489  1.0
  C  C129  1  0.97171622  0.20968574  0.22048600  1.0
  C  C130  1  0.85051694  0.85437317  0.23473077  1.0
  C  C131  1  0.28465711  0.84911239  0.23706937  1.0
  C  C132  1  0.86172642  0.26184235  0.24280409  1.0
  C  C133  1  0.86699968  0.87724244  0.13314626  1.0
  C  C134  1  0.23247450  0.86611417  0.13739460  1.0
  C  C135  1  0.71563208  0.41774831  0.79312353  1.0
  C  C136  1  0.88571359  0.21186349  0.14302227  1.0
  C  C137  1  0.90339105  0.18248209  0.09065942  1.0
  C  C138  1  0.88371912  0.89517157  0.08097090  1.0
  C  C139  1  0.19848219  0.88057974  0.08553325  1.0
  C  C140  1  0.73573008  0.77980861  0.74359019  1.0
  C  C141  1  0.46581490  0.72309507  0.73992627  1.0
  C  C142  1  0.92205305  0.40328096  0.74372998  1.0
  C  C143  1  0.76898918  0.94920343  0.72487273  1.0
  C  C144  1  0.25239071  0.80606578  0.72478716  1.0
  C  C145  1  0.88273798  0.23781539  0.72790034  1.0
  C  C146  1  0.93741404  0.74758248  0.72649067  1.0
  C  C147  1  0.76700685  0.96253280  0.78059717  1.0
  C  C148  1  0.24447299  0.78507625  0.77954994  1.0
  C  C149  1  0.87617931  0.21467900  0.78268500  1.0
  C  C150  1  0.86804766  0.87043226  0.89840770  1.0
  C  C151  1  0.26748195  0.84905959  0.90113462  1.0
  C  C152  1  0.84528310  0.28269851  0.90572665  1.0
  C  C153  1  0.80829801  0.82154151  0.71219582  1.0
  C  C154  1  0.35974289  0.82200654  0.71351219  1.0
  C  C155  1  0.84100657  0.36761016  0.71725482  1.0
  C  C156  1  0.76830949  0.77327542  0.79775627  1.0
  C  C157  1  0.33796228  0.93876672  0.73458552  1.0
  C  C158  1  0.45124306  0.73804459  0.79545749  1.0
  C  C159  1  0.92537009  0.37480519  0.79860730  1.0
  C  C160  1  0.83578801  0.84146128  0.80522662  1.0
  C  C161  1  0.32337210  0.82391602  0.80727917  1.0
  C  C162  1  0.83860589  0.32966148  0.81090455  1.0
  C  C163  1  0.59630706  0.99556482  0.38044706  1.0
  C  C164  1  0.41158918  0.58980840  0.38293356  1.0
  C  C165  1  0.98853400  0.43240194  0.37233527  1.0
  C  C166  1  0.59697438  0.13800045  0.79848598  1.0
  C  C167  1  0.25321947  0.63253897  0.83256090  1.0
  C  C168  1  0.71650924  0.43899523  0.73779097  1.0
  C  C169  1  0.98496996  0.04827143  0.83522881  1.0
  O  O170  1  0.70413814  0.46949207  0.55652225  1.0
  O  O171  1  0.68535599  0.47474239  0.45277098  1.0
  O  O172  1  0.84763848  0.67682759  0.45217197  1.0
  O  O173  1  0.48624748  0.84502582  0.44842127  1.0
  O  O174  1  0.47805587  0.67785736  0.45716412  1.0
  O  O175  1  0.85487669  0.47989094  0.45540188  1.0
  O  O176  1  0.67939815  0.84409030  0.45769238  1.0
  O  O177  1  0.66380563  0.65750699  0.50300538  1.0
  O  O178  1  0.00211320  0.00124702  0.01505208  1.0
  O  O179  1  0.97476029  0.19568663  0.96857322  1.0
  O  O180  1  0.82486677  0.99186816  0.96449645  1.0
  O  O181  1  0.83368885  0.69206567  0.54803201  1.0
  O  O182  1  0.19326980  0.80882455  0.97200784  1.0
  O  O183  1  0.19671323  0.96434895  0.06157934  1.0
  O  O184  1  0.82082386  0.17703296  0.06770745  1.0
  O  O185  1  0.97370636  0.81830662  0.05927740  1.0
  O  O186  1  0.00019003  0.16092106  0.07231415  1.0
  O  O187  1  0.81045706  0.99153021  0.06110775  1.0
  O  O188  1  0.16770793  0.80829309  0.06862983  1.0
  O  O189  1  0.65213391  0.01492977  0.80004338  1.0
  O  O190  1  0.27726744  0.66549175  0.78577076  1.0
  O  O191  1  0.98689786  0.12444049  0.79766662  1.0
  O  O192  1  0.46428790  0.84464371  0.54448178  1.0
  O  O193  1  0.17315180  0.98898422  0.95828976  1.0
  O  O194  1  0.80153191  0.19500562  0.97087507  1.0
  O  O195  1  0.99396206  0.82150389  0.96345970  1.0
  O  O196  1  0.49386268  0.66207997  0.56006599  1.0
  O  O197  1  0.86936605  0.48528967  0.55138618  1.0
  O  O198  1  0.65391262  0.84859003  0.55254722  1.0
  O  O199  1  0.51114418  0.48702142  0.50981463  1.0
  O  O200  1  0.17256685  0.15483485  0.01603785  1.0
