# generated using pymatgen
data_AlH3C15I2N2O5
_symmetry_space_group_name_H-M   'P 1'
_cell_length_a   6.69195062
_cell_length_b   20.20972681
_cell_length_c   20.28202501
_cell_angle_alpha   79.19414963
_cell_angle_beta   90.09098721
_cell_angle_gamma   90.05206960
_symmetry_Int_Tables_number   1
_chemical_formula_structural   AlH3C15I2N2O5
_chemical_formula_sum   'Al4 H12 C60 I8 N8 O20'
_cell_volume   2694.34930471
_cell_formula_units_Z   4
loop_
 _symmetry_equiv_pos_site_id
 _symmetry_equiv_pos_as_xyz
  1  'x, y, z'
loop_
 _atom_site_type_symbol
 _atom_site_label
 _atom_site_symmetry_multiplicity
 _atom_site_fract_x
 _atom_site_fract_y
 _atom_site_fract_z
 _atom_site_occupancy
  Al  Al0  1  0.72275316  0.24825741  0.25036743  1.0
  Al  Al1  1  0.27725531  0.75175560  0.74962772  1.0
  Al  Al2  1  0.22274930  0.25168038  0.24953505  1.0
  Al  Al3  1  0.77726065  0.74832557  0.75046054  1.0
  H  H4  1  0.93314478  0.43651722  0.61316600  1.0
  H  H5  1  0.06685922  0.56347383  0.38684544  1.0
  H  H6  1  0.43496375  0.06333830  0.88663712  1.0
  H  H7  1  0.56504175  0.93663821  0.11338121  1.0
  H  H8  1  0.65359455  0.45825243  0.50671470  1.0
  H  H9  1  0.34641095  0.54174014  0.49329692  1.0
  H  H10  1  0.15360489  0.04160853  0.99231408  1.0
  H  H11  1  0.84639612  0.95836754  0.00770780  1.0
  H  H12  1  0.47554881  0.27293719  0.32740256  1.0
  H  H13  1  0.52445367  0.72704870  0.67260204  1.0
  H  H14  1  0.97471541  0.22701273  0.17249161  1.0
  H  H15  1  0.02528858  0.77300379  0.82750183  1.0
  C  C16  1  0.46923780  0.16773233  0.17865663  1.0
  C  C17  1  0.53077512  0.83228102  0.82132859  1.0
  C  C18  1  0.97058848  0.33221301  0.32123184  1.0
  C  C19  1  0.02942598  0.66777905  0.67877939  1.0
  C  C20  1  0.47691070  0.34665512  0.15985916  1.0
  C  C21  1  0.52310083  0.65337130  0.84015200  1.0
  C  C22  1  0.97706236  0.15325502  0.34002413  1.0
  C  C23  1  0.02293855  0.84673598  0.65995427  1.0
  C  C24  1  0.01421562  0.90947912  0.60631837  1.0
  C  C25  1  0.98577929  0.09050771  0.39365250  1.0
  C  C26  1  0.51452233  0.59062134  0.89377579  1.0
  C  C27  1  0.48546528  0.40940605  0.10623271  1.0
  C  C28  1  0.02930901  0.96807225  0.41858596  1.0
  C  C29  1  0.97066649  0.03191768  0.58138872  1.0
  C  C30  1  0.52795685  0.53192623  0.08148039  1.0
  C  C31  1  0.47200981  0.46810051  0.91851936  1.0
  C  C32  1  0.00614239  0.02837872  0.37195375  1.0
  C  C33  1  0.99385700  0.97161060  0.62801513  1.0
  C  C34  1  0.50480670  0.47155009  0.12800665  1.0
  C  C35  1  0.49518688  0.52847778  0.87200027  1.0
  C  C36  1  0.99142470  0.09296263  0.46140497  1.0
  C  C37  1  0.00854929  0.90702271  0.53856767  1.0
  C  C38  1  0.49194800  0.40700598  0.03849088  1.0
  C  C39  1  0.50800077  0.59302643  0.96151560  1.0
  C  C40  1  0.99050814  0.03218567  0.51103759  1.0
  C  C41  1  0.00946138  0.96780223  0.48893700  1.0
  C  C42  1  0.49095068  0.46781801  0.98891117  1.0
  C  C43  1  0.50898760  0.53221128  0.01109052  1.0
  C  C44  1  0.12524504  0.44739761  0.51370638  1.0
  C  C45  1  0.87476643  0.55259396  0.48630545  1.0
  C  C46  1  0.62537407  0.05263864  0.98663543  1.0
  C  C47  1  0.37462096  0.94733839  0.01338378  1.0
  C  C48  1  0.96136503  0.46432199  0.56248300  1.0
  C  C49  1  0.03864196  0.53566805  0.43752864  1.0
  C  C50  1  0.46233315  0.03562481  0.93743014  1.0
  C  C51  1  0.53766936  0.96435172  0.06258917  1.0
  C  C52  1  0.03512248  0.62100515  0.63388003  1.0
  C  C53  1  0.96488302  0.37898794  0.36613247  1.0
  C  C54  1  0.53686294  0.87903652  0.86624205  1.0
  C  C55  1  0.46315748  0.12095993  0.13375941  1.0
  C  C56  1  0.19326128  0.52270058  0.49635786  1.0
  C  C57  1  0.80674571  0.47728998  0.50365466  1.0
  C  C58  1  0.69326443  0.97735165  0.00420073  1.0
  C  C59  1  0.30673658  0.02262588  0.99581789  1.0
  C  C60  1  0.03059431  0.54053650  0.54663458  1.0
  C  C61  1  0.96941568  0.45945357  0.45337853  1.0
  C  C62  1  0.53140146  0.95944990  0.95350056  1.0
  C  C63  1  0.46859657  0.04052514  0.04652004  1.0
  C  C64  1  0.04524103  0.58273912  0.59429993  1.0
  C  C65  1  0.95476895  0.41725340  0.40570875  1.0
  C  C66  1  0.54662957  0.91727572  0.90586334  1.0
  C  C67  1  0.45337293  0.08270679  0.09415131  1.0
  C  C68  1  0.98428910  0.97137284  0.69842491  1.0
  C  C69  1  0.01575064  0.02861552  0.30154615  1.0
  C  C70  1  0.48653588  0.52876208  0.80157031  1.0
  C  C71  1  0.51349508  0.47126392  0.19844538  1.0
  C  C72  1  0.09161533  0.91204241  0.39003031  1.0
  C  C73  1  0.90837811  0.08794655  0.60994752  1.0
  C  C74  1  0.58904730  0.58802038  0.11025060  1.0
  C  C75  1  0.41092830  0.41200918  0.88973674  1.0
  I  I76  1  0.96827869  0.81003538  0.51608942  1.0
  I  I77  1  0.03167441  0.18994907  0.48389030  1.0
  I  I78  1  0.46651649  0.68991781  0.98402141  1.0
  I  I79  1  0.53337252  0.31011071  0.01599473  1.0
  I  I80  1  0.31167951  0.36130660  0.53383793  1.0
  I  I81  1  0.68832002  0.63868249  0.46617686  1.0
  I  I82  1  0.81211361  0.13878243  0.96706274  1.0
  I  I83  1  0.18790084  0.86118950  0.03295356  1.0
  N  N84  1  0.97881978  0.96916047  0.75635272  1.0
  N  N85  1  0.02124984  0.03082532  0.24361591  1.0
  N  N86  1  0.48182128  0.53097975  0.74362203  1.0
  N  N87  1  0.51822160  0.46903548  0.25638450  1.0
  N  N88  1  0.15534785  0.87447961  0.35791568  1.0
  N  N89  1  0.84467251  0.12551349  0.64206724  1.0
  N  N90  1  0.65159422  0.62563487  0.14262538  1.0
  N  N91  1  0.34837395  0.37438839  0.85737852  1.0
  O  O92  1  0.30405714  0.32606981  0.17884959  1.0
  O  O93  1  0.69595883  0.67394386  0.82115478  1.0
  O  O94  1  0.80412989  0.17375107  0.32095103  1.0
  O  O95  1  0.19587702  0.82624653  0.67902949  1.0
  O  O96  1  0.64087511  0.18488583  0.19716807  1.0
  O  O97  1  0.35913333  0.81514004  0.80281066  1.0
  O  O98  1  0.14198258  0.31517922  0.30264184  1.0
  O  O99  1  0.85803337  0.68481384  0.69736918  1.0
  O  O100  1  0.64531925  0.32301808  0.18042635  1.0
  O  O101  1  0.35469980  0.67702266  0.81959423  1.0
  O  O102  1  0.14537667  0.17701068  0.31955629  1.0
  O  O103  1  0.85462727  0.82298703  0.68043013  1.0
  O  O104  1  0.80263315  0.31059698  0.30459440  1.0
  O  O105  1  0.19737832  0.68939660  0.69541702  1.0
  O  O106  1  0.30149874  0.18922237  0.19537630  1.0
  O  O107  1  0.69850670  0.81079241  0.80460369  1.0
  O  O108  1  0.47264339  0.24892802  0.29015803  1.0
  O  O109  1  0.52736655  0.75106735  0.70983922  1.0
  O  O110  1  0.97227411  0.25101645  0.20974105  1.0
  O  O111  1  0.02773287  0.74899858  0.79025368  1.0
