# generated using pymatgen
data_ZnH15C22(NO2)3
_symmetry_space_group_name_H-M   'P 1'
_cell_length_a   14.05564014
_cell_length_b   15.20847372
_cell_length_c   17.39588667
_cell_angle_alpha   96.71872668
_cell_angle_beta   97.18201408
_cell_angle_gamma   90.73899855
_symmetry_Int_Tables_number   1
_chemical_formula_structural   ZnH15C22(NO2)3
_chemical_formula_sum   'Zn2 H30 C44 N6 O12'
_cell_volume   3662.68513998
_cell_formula_units_Z   2
loop_
 _symmetry_equiv_pos_site_id
 _symmetry_equiv_pos_as_xyz
  1  'x, y, z'
loop_
 _atom_site_type_symbol
 _atom_site_label
 _atom_site_symmetry_multiplicity
 _atom_site_fract_x
 _atom_site_fract_y
 _atom_site_fract_z
 _atom_site_occupancy
  Zn  Zn0  1  0.39233323  0.49880124  0.49201257  1.0
  Zn  Zn1  1  0.60026599  0.50361731  0.50410053  1.0
  H  H2  1  0.62649105  0.41229810  0.26427654  1.0
  H  H3  1  0.36780858  0.53150183  0.74450114  1.0
  H  H4  1  0.89982904  0.44075911  0.37901814  1.0
  H  H5  1  0.08353066  0.64276628  0.54862875  1.0
  H  H6  1  0.72597857  0.44233536  0.39607238  1.0
  H  H7  1  0.25885724  0.62540872  0.54259128  1.0
  H  H8  1  0.95845692  0.58287992  0.61083096  1.0
  H  H9  1  0.04051154  0.37556882  0.43192327  1.0
  H  H10  1  0.66799675  0.48336314  0.74182392  1.0
  H  H11  1  0.33648806  0.49990976  0.24223820  1.0
  H  H12  1  0.38663682  0.51740204  0.88668790  1.0
  H  H13  1  0.62192397  0.39699617  0.11906988  1.0
  H  H14  1  0.35685806  0.04962426  0.49275259  1.0
  H  H15  1  0.63289110  0.94894376  0.48674386  1.0
  H  H16  1  0.35276778  0.21010747  0.47773193  1.0
  H  H17  1  0.63089606  0.78346207  0.46809064  1.0
  H  H18  1  0.64700426  0.24238190  0.58125193  1.0
  H  H19  1  0.37364618  0.77833793  0.57753321  1.0
  H  H20  1  0.70367333  0.57859682  0.63914791  1.0
  H  H21  1  0.82073470  0.61708456  0.67675743  1.0
  H  H22  1  0.18275074  0.30002322  0.40417243  1.0
  H  H23  1  0.29811460  0.34479323  0.43492709  1.0
  H  H24  1  0.57308346  0.57859423  0.08536704  1.0
  H  H25  1  0.36917098  0.32861666  0.00902268  1.0
  H  H26  1  0.32191002  0.51257536  0.03465477  1.0
  H  H27  1  0.26121999  0.52146932  0.11358911  1.0
  H  H28  1  0.76139700  0.46036940  0.85670343  1.0
  H  H29  1  0.72365851  0.48261686  0.94704146  1.0
  H  H30  1  0.66373940  0.01141098  0.63730103  1.0
  H  H31  1  0.37795233  0.02209657  0.64149436  1.0
  C  C32  1  0.50050065  0.33154961  0.51181448  1.0
  C  C33  1  0.49663964  0.67128360  0.50415380  1.0
  C  C34  1  0.41993876  0.09237546  0.51366159  1.0
  C  C35  1  0.57743329  0.91126639  0.50844528  1.0
  C  C36  1  0.41803952  0.18172836  0.50385641  1.0
  C  C37  1  0.57560986  0.81921187  0.49648174  1.0
  C  C38  1  0.50058648  0.23612145  0.52589506  1.0
  C  C39  1  0.50066650  0.77050060  0.51927886  1.0
  C  C40  1  0.58325204  0.20027367  0.56144147  1.0
  C  C41  1  0.43070194  0.81523084  0.55729730  1.0
  C  C42  1  0.58557822  0.11069628  0.57320494  1.0
  C  C43  1  0.43335499  0.90783873  0.57189092  1.0
  C  C44  1  0.50379319  0.05472865  0.54696369  1.0
  C  C45  1  0.50615771  0.95731824  0.54532704  1.0
  C  C46  1  0.87682220  0.47101309  0.43319688  1.0
  C  C47  1  0.11030560  0.58082237  0.52275410  1.0
  C  C48  1  0.78069089  0.47194606  0.44212755  1.0
  C  C49  1  0.20735871  0.57173740  0.51930497  1.0
  C  C50  1  0.80950268  0.54984630  0.56716207  1.0
  C  C51  1  0.18653703  0.42785441  0.45496757  1.0
  C  C52  1  0.90907404  0.55220502  0.56133333  1.0
  C  C53  1  0.08637518  0.43314499  0.45574950  1.0
  C  C54  1  0.48452657  0.47118276  0.34821064  1.0
  C  C55  1  0.50738476  0.51579513  0.64965717  1.0
  C  C56  1  0.94342925  0.51193286  0.49489955  1.0
  C  C57  1  0.04763367  0.50906976  0.49035635  1.0
  C  C58  1  0.48129909  0.45716522  0.26104965  1.0
  C  C59  1  0.51764969  0.50879640  0.73520087  1.0
  C  C60  1  0.56243611  0.42806424  0.22702773  1.0
  C  C61  1  0.43714933  0.51793870  0.77566570  1.0
  C  C62  1  0.55973295  0.42052271  0.14642377  1.0
  C  C63  1  0.44829115  0.50941693  0.85446621  1.0
  C  C64  1  0.47755368  0.44169601  0.09810863  1.0
  C  C65  1  0.53715292  0.49076895  0.89571642  1.0
  C  C66  1  0.39498557  0.46969260  0.13270335  1.0
  C  C67  1  0.61883111  0.48164132  0.85455537  1.0
  C  C68  1  0.39814243  0.47657968  0.21407774  1.0
  C  C69  1  0.60640018  0.49116254  0.77427809  1.0
  C  C70  1  0.47481930  0.43540469  0.01219095  1.0
  C  C71  1  0.53936119  0.48415979  0.97972054  1.0
  C  C72  1  0.60705724  0.54366076  0.03635871  1.0
  C  C73  1  0.40820578  0.36386393  0.96895945  1.0
  C  C74  1  0.67237142  0.07782337  0.61743011  1.0
  C  C75  1  0.36231146  0.95104686  0.61908892  1.0
  N  N76  1  0.74665209  0.50955917  0.50721361  1.0
  N  N77  1  0.24574872  0.49740167  0.48690936  1.0
  N  N78  1  0.77465488  0.58695033  0.63200788  1.0
  N  N79  1  0.22594228  0.35408179  0.42199591  1.0
  N  N80  1  0.31276163  0.49007803  0.08592129  1.0
  N  N81  1  0.70675660  0.45838419  0.88941017  1.0
  O  O82  1  0.42150327  0.36205203  0.48227944  1.0
  O  O83  1  0.57202516  0.63330204  0.48563290  1.0
  O  O84  1  0.57899860  0.37530939  0.53015034  1.0
  O  O85  1  0.41768683  0.63319276  0.51166137  1.0
  O  O86  1  0.40768749  0.49425457  0.37575507  1.0
  O  O87  1  0.58160133  0.54004767  0.62056917  1.0
  O  O88  1  0.56489550  0.45989836  0.38820542  1.0
  O  O89  1  0.42586570  0.49583775  0.61106073  1.0
  O  O90  1  0.69265436  0.55755157  0.03235818  1.0
  O  O91  1  0.39847179  0.33922136  0.89873610  1.0
  O  O92  1  0.74880200  0.11962917  0.63380983  1.0
  O  O93  1  0.29144009  0.91268653  0.63524336  1.0
