# generated using pymatgen
data_CoH15C19N2O5
_symmetry_space_group_name_H-M   'P 1'
_cell_length_a   15.81530245
_cell_length_b   19.15681760
_cell_length_c   19.15642547
_cell_angle_alpha   80.19729708
_cell_angle_beta   65.61995568
_cell_angle_gamma   65.61984961
_symmetry_Int_Tables_number   1
_chemical_formula_structural   CoH15C19N2O5
_chemical_formula_sum   'Co8 H120 C152 N16 O40'
_cell_volume   4814.89949339
_cell_formula_units_Z   8
loop_
 _symmetry_equiv_pos_site_id
 _symmetry_equiv_pos_as_xyz
  1  'x, y, z'
loop_
 _atom_site_type_symbol
 _atom_site_label
 _atom_site_symmetry_multiplicity
 _atom_site_fract_x
 _atom_site_fract_y
 _atom_site_fract_z
 _atom_site_occupancy
  Co  Co0  1  0.82226238  0.81332866  0.77804565  1.0
  Co  Co1  1  0.39972668  0.77796909  0.18662074  1.0
  Co  Co2  1  0.41361599  0.18669915  0.22202467  1.0
  Co  Co3  1  0.36435597  0.22198475  0.81332249  1.0
  Co  Co4  1  0.92765360  0.72201374  0.68668800  1.0
  Co  Co5  1  0.33634149  0.27803291  0.31336764  1.0
  Co  Co6  1  0.38564243  0.68666245  0.27800719  1.0
  Co  Co7  1  0.35037094  0.31325249  0.72194249  1.0
  H  H8  1  0.81566648  0.96679156  0.78272659  1.0
  H  H9  1  0.40167551  0.78266300  0.03305521  1.0
  H  H10  1  0.56510623  0.03322387  0.21732989  1.0
  H  H11  1  0.21752177  0.21736684  0.96689774  1.0
  H  H12  1  0.93431140  0.71731031  0.53323899  1.0
  H  H13  1  0.18477186  0.28274528  0.46677840  1.0
  H  H14  1  0.53256489  0.53318278  0.28266896  1.0
  H  H15  1  0.34827027  0.46683097  0.71733463  1.0
  H  H16  1  0.96401469  0.98117288  0.71195526  1.0
  H  H17  1  0.32384795  0.71197711  0.01877822  1.0
  H  H18  1  0.65738479  0.01889813  0.28795205  1.0
  H  H19  1  0.05464217  0.28803382  0.98118787  1.0
  H  H20  1  0.78569990  0.78793136  0.51897594  1.0
  H  H21  1  0.09277533  0.21196262  0.48117588  1.0
  H  H22  1  0.69539083  0.51882818  0.21193178  1.0
  H  H23  1  0.42617067  0.48114946  0.78801913  1.0
  H  H24  1  0.07535240  0.05398525  0.65826557  1.0
  H  H25  1  0.26611910  0.65821396  0.94604531  1.0
  H  H26  1  0.78779342  0.94599529  0.34172881  1.0
  H  H27  1  0.87041640  0.34173269  0.05399478  1.0
  H  H28  1  0.67440267  0.84171638  0.44608095  1.0
  H  H29  1  0.96235090  0.15821829  0.55395395  1.0
  H  H30  1  0.87958875  0.44609941  0.15824440  1.0
  H  H31  1  0.48386306  0.55396198  0.84172058  1.0
  H  H32  1  0.27765718  0.88410009  0.48127659  1.0
  H  H33  1  0.24078796  0.48136851  0.11601661  1.0
  H  H34  1  0.64316092  0.11588777  0.51874333  1.0
  H  H35  1  0.83812083  0.51871240  0.88410656  1.0
  H  H36  1  0.47216067  0.01874080  0.61595604  1.0
  H  H37  1  0.10702293  0.98122896  0.38405828  1.0
  H  H38  1  0.91189227  0.61602443  0.98137683  1.0
  H  H39  1  0.50904039  0.38411298  0.01872131  1.0
  H  H40  1  0.16410528  0.81120880  0.53556732  1.0
  H  H41  1  0.30012220  0.53569510  0.18880575  1.0
  H  H42  1  0.51110154  0.18877497  0.46439605  1.0
  H  H43  1  0.02456324  0.46440757  0.81127404  1.0
  H  H44  1  0.58569021  0.96442209  0.68883421  1.0
  H  H45  1  0.23913684  0.03554365  0.31120556  1.0
  H  H46  1  0.72543543  0.68885528  0.03564158  1.0
  H  H47  1  0.44977641  0.31123686  0.96441954  1.0
  H  H48  1  0.28638977  0.13133604  0.48130155  1.0
  H  H49  1  0.23215002  0.48144819  0.86858050  1.0
  H  H50  1  0.89920076  0.86847352  0.51868094  1.0
  H  H51  1  0.58209107  0.51866601  0.13146343  1.0
  H  H52  1  0.46361368  0.01869596  0.36852934  1.0
  H  H53  1  0.85094567  0.98129554  0.63133753  1.0
  H  H54  1  0.16777381  0.36862531  0.98146034  1.0
  H  H55  1  0.51778067  0.63139522  0.01867289  1.0
  H  H56  1  0.31787335  0.21104274  0.55073126  1.0
  H  H57  1  0.13128796  0.55099945  0.78884911  1.0
  H  H58  1  0.07980617  0.78878294  0.44919148  1.0
  H  H59  1  0.47103417  0.44914154  0.21124131  1.0
  H  H60  1  0.43221454  0.94922754  0.28881627  1.0
  H  H61  1  0.67035116  0.05072720  0.71101793  1.0
  H  H62  1  0.27882323  0.28885156  0.05097860  1.0
  H  H63  1  0.61852810  0.71120686  0.94919551  1.0
  H  H64  1  0.27306266  0.06358486  0.74704511  1.0
  H  H65  1  0.97973109  0.74722283  0.93647447  1.0
  H  H66  1  0.08381236  0.93631149  0.25292166  1.0
  H  H67  1  0.66319941  0.25290316  0.06360411  1.0
  H  H68  1  0.47691372  0.75291839  0.43629928  1.0
  H  H69  1  0.66625495  0.24703397  0.56355305  1.0
  H  H70  1  0.08655871  0.43643775  0.24725756  1.0
  H  H71  1  0.77023592  0.56364542  0.75288875  1.0
  H  H72  1  0.24133138  0.98322407  0.67802393  1.0
  H  H73  1  0.08029374  0.67801257  0.01696699  1.0
  H  H74  1  0.90273379  0.01667615  0.32202301  1.0
  H  H75  1  0.77511017  0.32200755  0.98316623  1.0
  H  H76  1  0.50848177  0.82203207  0.51672290  1.0
  H  H77  1  0.84741453  0.17798005  0.48318032  1.0
  H  H78  1  0.97468209  0.51697254  0.17807079  1.0
  H  H79  1  0.66968844  0.48316384  0.82196558  1.0
  H  H80  1  0.62184441  0.83203953  0.95373192  1.0
  H  H81  1  0.42439890  0.95363641  0.16775680  1.0
  H  H82  1  0.40768618  0.16792343  0.04626114  1.0
  H  H83  1  0.54590637  0.04638169  0.83211843  1.0
  H  H84  1  0.12809196  0.54630499  0.66792568  1.0
  H  H85  1  0.34241284  0.45369130  0.33202956  1.0
  H  H86  1  0.20420047  0.66788594  0.45373019  1.0
  H  H87  1  0.32583705  0.33202596  0.54621128  1.0
  H  H88  1  0.59131556  0.87858899  0.03903559  1.0
  H  H89  1  0.36960818  0.03900210  0.12131199  1.0
  H  H90  1  0.50895503  0.12132451  0.96095721  1.0
  H  H91  1  0.53003546  0.96103338  0.87863939  1.0
  H  H92  1  0.15879181  0.46097547  0.62132138  1.0
  H  H93  1  0.24112557  0.53900379  0.37859765  1.0
  H  H94  1  0.22008357  0.62140879  0.53906470  1.0
  H  H95  1  0.38051874  0.37858605  0.46091478  1.0
  H  H96  1  0.71114121  0.80509438  0.99578026  1.0
  H  H97  1  0.29302822  0.99585044  0.19489734  1.0
  H  H98  1  0.51206584  0.19487613  0.00412076  1.0
  H  H99  1  0.48389360  0.00411541  0.80502710  1.0
  H  H100  1  0.03896748  0.50409475  0.69488305  1.0
  H  H101  1  0.23800706  0.49580400  0.30509566  1.0
  H  H102  1  0.26636561  0.69492870  0.49587182  1.0
  H  H103  1  0.45717799  0.30508934  0.50408149  1.0
  H  H104  1  0.82064031  0.07979375  0.87696874  1.0
  H  H105  1  0.30253997  0.87684295  0.91999217  1.0
  H  H106  1  0.77733575  0.92013921  0.12314899  1.0
  H  H107  1  0.09948881  0.12312607  0.07986995  1.0
  H  H108  1  0.92938505  0.62313290  0.42013501  1.0
  H  H109  1  0.97256045  0.37699943  0.57978570  1.0
  H  H110  1  0.65069215  0.42006860  0.37672952  1.0
  H  H111  1  0.44747007  0.57988340  0.62328546  1.0
  H  H112  1  0.69146886  0.12900260  0.93221899  1.0
  H  H113  1  0.37646062  0.93207485  0.87082435  1.0
  H  H114  1  0.75264370  0.87096854  0.06784541  1.0
  H  H115  1  0.17946699  0.06791387  0.12904316  1.0
  H  H116  1  0.05855518  0.56783234  0.37096716  1.0
  H  H117  1  0.99728065  0.43225148  0.62899029  1.0
  H  H118  1  0.57068111  0.37091795  0.43202478  1.0
  H  H119  1  0.37359563  0.62904636  0.56800499  1.0
  H  H120  1  0.73288585  0.12055579  0.83145749  1.0
  H  H121  1  0.43582238  0.83132841  0.87924968  1.0
  H  H122  1  0.68483086  0.87937072  0.16860043  1.0
  H  H123  1  0.14650381  0.16865738  0.12060258  1.0
  H  H124  1  0.01720704  0.66859444  0.37936826  1.0
  H  H125  1  0.06507308  0.33148015  0.62054573  1.0
  H  H126  1  0.60355753  0.37936300  0.33126364  1.0
  H  H127  1  0.31416103  0.62055142  0.66875294  1.0
  C  C128  1  0.99091249  0.84704474  0.66125619  1.0
  C  C129  1  0.34772407  0.66129898  0.15292247  1.0
  C  C130  1  0.49940440  0.15300996  0.33868939  1.0
  C  C131  1  0.16192643  0.33870247  0.84705012  1.0
  C  C132  1  0.75888278  0.83867660  0.65303653  1.0
  C  C133  1  0.25074148  0.16126922  0.34707884  1.0
  C  C134  1  0.58806654  0.65294825  0.16125616  1.0
  C  C135  1  0.40233897  0.34702396  0.83870702  1.0
  C  C136  1  0.05737020  0.89079676  0.62785956  1.0
  C  C137  1  0.31450684  0.62796095  0.10922526  1.0
  C  C138  1  0.57628819  0.10927078  0.37205386  1.0
  C  C139  1  0.05167523  0.37210494  0.89081573  1.0
  C  C140  1  0.69231797  0.87205418  0.60934526  1.0
  C  C141  1  0.17393771  0.12785072  0.39078302  1.0
  C  C142  1  0.69832391  0.60925858  0.12791137  1.0
  C  C143  1  0.43540189  0.39079182  0.87212340  1.0
  C  C144  1  0.03299542  0.95952443  0.66168843  1.0
  C  C145  1  0.30510143  0.66172321  0.04047013  1.0
  C  C146  1  0.65443882  0.04051719  0.33824583  1.0
  C  C147  1  0.00730412  0.33830900  0.95955647  1.0
  C  C148  1  0.71674089  0.83823027  0.54059358  1.0
  C  C149  1  0.09574812  0.16168221  0.45951385  1.0
  C  C150  1  0.74270363  0.54051803  0.16169105  1.0
  C  C151  1  0.44483798  0.45952766  0.83831177  1.0
  C  C152  1  0.09526241  0.00035287  0.63205486  1.0
  C  C153  1  0.27245923  0.63203908  0.99967549  1.0
  C  C154  1  0.72784634  0.99963866  0.36793057  1.0
  C  C155  1  0.90419046  0.36795448  0.00039005  1.0
  C  C156  1  0.65452004  0.86791321  0.49972283  1.0
  C  C157  1  0.02231768  0.13201277  0.50032799  1.0
  C  C158  1  0.84581704  0.49970685  0.13203204  1.0
  C  C159  1  0.47748438  0.50035800  0.86794838  1.0
  C  C160  1  0.18415168  0.97180225  0.56766918  1.0
  C  C161  1  0.24795515  0.56766589  0.02824669  1.0
  C  C162  1  0.72382266  0.02815641  0.43232953  1.0
  C  C163  1  0.84385546  0.43233819  0.97184119  1.0
  C  C164  1  0.56563654  0.93232620  0.52823110  1.0
  C  C165  1  0.02638616  0.06761831  0.47176907  1.0
  C  C166  1  0.90613927  0.52826829  0.06766649  1.0
  C  C167  1  0.50197987  0.47180667  0.93233493  1.0
  C  C168  1  0.20900152  0.90417654  0.53213790  1.0
  C  C169  1  0.25868175  0.53216758  0.09585892  1.0
  C  C170  1  0.64553800  0.09579830  0.46784693  1.0
  C  C171  1  0.88665394  0.46787478  0.90423519  1.0
  C  C172  1  0.54076644  0.96785446  0.59586444  1.0
  C  C173  1  0.10470283  0.03209165  0.40415424  1.0
  C  C174  1  0.86331896  0.59587681  0.03216010  1.0
  C  C175  1  0.49125290  0.40420459  0.96786845  1.0
  C  C176  1  0.14567222  0.86409963  0.56239294  1.0
  C  C177  1  0.29171278  0.56248959  0.13591969  1.0
  C  C178  1  0.57240763  0.13590132  0.43756022  1.0
  C  C179  1  0.99008053  0.43760517  0.86416817  1.0
  C  C180  1  0.60408134  0.93757943  0.63596502  1.0
  C  C181  1  0.17784236  0.06236062  0.36408896  1.0
  C  C182  1  0.75991105  0.63596706  0.06245455  1.0
  C  C183  1  0.45816433  0.36412899  0.93761231  1.0
  C  C184  1  0.25957280  0.05412487  0.57636331  1.0
  C  C185  1  0.16378371  0.57646993  0.94592546  1.0
  C  C186  1  0.89024335  0.94575757  0.42365257  1.0
  C  C187  1  0.68607982  0.42360637  0.05416101  1.0
  C  C188  1  0.49030237  0.92364609  0.44582031  1.0
  C  C189  1  0.85993608  0.07633501  0.55409028  1.0
  C  C190  1  0.06378787  0.44594389  0.07649733  1.0
  C  C191  1  0.58613893  0.55412601  0.92360676  1.0
  C  C192  1  0.28196950  0.11763597  0.53993058  1.0
  C  C193  1  0.17794552  0.54007777  0.88232618  1.0
  C  C194  1  0.93969195  0.88223082  0.46007761  1.0
  C  C195  1  0.60020284  0.46005257  0.11771269  1.0
  C  C196  1  0.46797868  0.96008982  0.38228191  1.0
  C  C197  1  0.81046676  0.03991093  0.61760843  1.0
  C  C198  1  0.14962007  0.38235898  0.04009416  1.0
  C  C199  1  0.57202584  0.61766834  0.96005693  1.0
  C  C200  1  0.29960592  0.16181408  0.57887516  1.0
  C  C201  1  0.12143082  0.57907857  0.83812253  1.0
  C  C202  1  0.04043408  0.83806733  0.42110512  1.0
  C  C203  1  0.53849889  0.42105711  0.16194286  1.0
  C  C204  1  0.45039532  0.92112489  0.33809449  1.0
  C  C205  1  0.70971510  0.07886353  0.66179276  1.0
  C  C206  1  0.21135202  0.33813830  0.07907438  1.0
  C  C207  1  0.62848441  0.66191109  0.92108803  1.0
  C  C208  1  0.29548838  0.14301636  0.65401569  1.0
  C  C209  1  0.05048280  0.65421712  0.85692566  1.0
  C  C210  1  0.09264889  0.85687181  0.34598844  1.0
  C  C211  1  0.56140218  0.34593014  0.14314291  1.0
  C  C212  1  0.45451275  0.84599988  0.35686483  1.0
  C  C213  1  0.65746849  0.15399096  0.64302434  1.0
  C  C214  1  0.18836783  0.35692138  0.15422037  1.0
  C  C215  1  0.69949683  0.64313936  0.84595045  1.0
  C  C216  1  0.27429671  0.07848158  0.68923375  1.0
  C  C217  1  0.03632661  0.68942016  0.92152841  1.0
  C  C218  1  0.04216104  0.92140676  0.31073973  1.0
  C  C219  1  0.64704825  0.31071490  0.07854281  1.0
  C  C220  1  0.47566128  0.81074200  0.42141299  1.0
  C  C221  1  0.70795336  0.18921542  0.57845665  1.0
  C  C222  1  0.10271038  0.42151716  0.18943943  1.0
  C  C223  1  0.71365356  0.57854891  0.81071521  1.0
  C  C224  1  0.25656899  0.03381522  0.65089064  1.0
  C  C225  1  0.09221865  0.65098105  0.96629918  1.0
  C  C226  1  0.94144752  0.96607283  0.34912813  1.0
  C  C227  1  0.70934371  0.34910110  0.03381334  1.0
  C  C228  1  0.49328668  0.84912182  0.46611628  1.0
  C  C229  1  0.80869946  0.15086684  0.53377672  1.0
  C  C230  1  0.04045439  0.46630125  0.15102360  1.0
  C  C231  1  0.65770586  0.53380349  0.84907956  1.0
  C  C232  1  0.31589792  0.18945339  0.69532551  1.0
  C  C233  1  0.98885009  0.69550342  0.81044509  1.0
  C  C234  1  0.20078295  0.81041336  0.30465360  1.0
  C  C235  1  0.49455904  0.30464242  0.18958057  1.0
  C  C236  1  0.43421086  0.80464489  0.31039760  1.0
  C  C237  1  0.54932332  0.19532046  0.68948017  1.0
  C  C238  1  0.25515248  0.31044052  0.19553345  1.0
  C  C239  1  0.76118909  0.68958094  0.80463499  1.0
  C  C240  1  0.72677901  0.01784881  0.89527948  1.0
  C  C241  1  0.37793179  0.89521380  0.98200176  1.0
  C  C242  1  0.63988543  0.98212023  0.10478719  1.0
  C  C243  1  0.25527713  0.10478448  0.01787218  1.0
  C  C244  1  0.02320829  0.60478033  0.48211317  1.0
  C  C245  1  0.11006854  0.39529184  0.51785396  1.0
  C  C246  1  0.49487263  0.48208581  0.39518552  1.0
  C  C247  1  0.37211233  0.51787745  0.60479411  1.0
  C  C248  1  0.67624556  0.98425256  0.96134166  1.0
  C  C249  1  0.36228276  0.96131078  0.01561909  1.0
  C  C250  1  0.62182461  0.01568569  0.03870998  1.0
  C  C251  1  0.33932495  0.03867989  0.98422207  1.0
  C  C252  1  0.07378255  0.53870758  0.51567907  1.0
  C  C253  1  0.12816654  0.46134035  0.48425449  1.0
  C  C254  1  0.41082441  0.51568441  0.46130166  1.0
  C  C255  1  0.38781957  0.48426754  0.53866651  1.0
  C  C256  1  0.68990519  0.91289109  0.93703292  1.0
  C  C257  1  0.37282044  0.93705152  0.08701777  1.0
  C  C258  1  0.53986823  0.08708400  0.06296633  1.0
  C  C259  1  0.39701833  0.06296534  0.91285215  1.0
  C  C260  1  0.06006065  0.56296585  0.58708765  1.0
  C  C261  1  0.21017634  0.43702289  0.41289764  1.0
  C  C262  1  0.35308962  0.58707929  0.43707138  1.0
  C  C263  1  0.37717052  0.41289632  0.56291620  1.0
  C  C264  1  0.65096849  0.85433144  0.98406101  1.0
  C  C265  1  0.36485424  0.98405216  0.14556222  1.0
  C  C266  1  0.48942921  0.14562437  0.01589733  1.0
  C  C267  1  0.49460481  0.01595533  0.85433121  1.0
  C  C268  1  0.09904953  0.51590705  0.64562476  1.0
  C  C269  1  0.26066935  0.48403850  0.35433585  1.0
  C  C270  1  0.25556296  0.64563832  0.48410888  1.0
  C  C271  1  0.38527541  0.35433063  0.51586298  1.0
  C  C272  1  0.74385878  0.09060965  0.88319964  1.0
  C  C273  1  0.37308355  0.88306477  0.90920717  1.0
  C  C274  1  0.71760412  0.90934884  0.11688025  1.0
  C  C275  1  0.16546858  0.11691769  0.09064954  1.0
  C  C276  1  0.00617524  0.61687115  0.40934023  1.0
  C  C277  1  0.03229428  0.38322532  0.59060703  1.0
  C  C278  1  0.58467485  0.40929580  0.38300196  1.0
  C  C279  1  0.37696236  0.59064775  0.61700751  1.0
  N  N280  1  0.74510776  0.90390699  0.86150390  1.0
  N  N281  1  0.39317895  0.86152106  0.09601651  1.0
  N  N282  1  0.51055863  0.09611045  0.13849940  1.0
  N  N283  1  0.35086854  0.13851364  0.90390012  1.0
  N  N284  1  0.00479402  0.63849099  0.59611925  1.0
  N  N285  1  0.23946148  0.36150240  0.40391384  1.0
  N  N286  1  0.39923051  0.59609154  0.36153649  1.0
  N  N287  1  0.35670632  0.40391095  0.63847309  1.0
  N  N288  1  0.76549138  0.96784265  0.83768695  1.0
  N  N289  1  0.39674618  0.83765600  0.03204310  1.0
  N  N290  1  0.57099732  0.03215970  0.16235529  1.0
  N  N291  1  0.26658896  0.16236457  0.96787396  1.0
  N  N292  1  0.98444998  0.66233881  0.53216786  1.0
  N  N293  1  0.17893883  0.33769834  0.46784827  1.0
  N  N294  1  0.48351210  0.53213513  0.33765092  1.0
  N  N295  1  0.35317443  0.46786382  0.66234653  1.0
  O  O296  1  0.90726263  0.87729041  0.71759678  1.0
  O  O297  1  0.37534844  0.71745293  0.12251764  1.0
  O  O298  1  0.50227380  0.12266935  0.28244421  1.0
  O  O299  1  0.21537648  0.28252654  0.87740146  1.0
  O  O300  1  0.84259447  0.78245554  0.62262948  1.0
  O  O301  1  0.24777554  0.21758464  0.37737703  1.0
  O  O302  1  0.53465506  0.62261693  0.21747710  1.0
  O  O303  1  0.37484525  0.37736694  0.78247000  1.0
  O  O304  1  0.01882849  0.78152300  0.63375877  1.0
  O  O305  1  0.34721069  0.63390607  0.21848829  1.0
  O  O306  1  0.43429314  0.21855471  0.36612513  1.0
  O  O307  1  0.19953563  0.36604533  0.78143952  1.0
  O  O308  1  0.73108453  0.86608139  0.71858504  1.0
  O  O309  1  0.31588018  0.13380359  0.28155428  1.0
  O  O310  1  0.55045841  0.71847930  0.13379058  1.0
  O  O311  1  0.40287717  0.28144829  0.86608787  1.0
  O  O312  1  0.24791099  0.01047194  0.53319263  1.0
  O  O313  1  0.21853374  0.53325604  0.98962803  1.0
  O  O314  1  0.79177516  0.98946291  0.46680322  1.0
  O  O315  1  0.74139618  0.46675523  0.01044528  1.0
  O  O316  1  0.50191008  0.96679759  0.48953479  1.0
  O  O317  1  0.95841790  0.03315976  0.51043269  1.0
  O  O318  1  0.00859037  0.48966617  0.03326822  1.0
  O  O319  1  0.53139051  0.51041659  0.96677386  1.0
  O  O320  1  0.32464067  0.25208514  0.66423951  1.0
  O  O321  1  0.01131309  0.66450259  0.74771945  1.0
  O  O322  1  0.24107442  0.74770403  0.33563900  1.0
  O  O323  1  0.42324756  0.33565312  0.25227723  1.0
  O  O324  1  0.42570651  0.83557702  0.24764939  1.0
  O  O325  1  0.50889953  0.16438787  0.75219203  1.0
  O  O326  1  0.32642980  0.24770658  0.16455252  1.0
  O  O327  1  0.73884044  0.75226777  0.83563805  1.0
  O  O328  1  0.32449977  0.16480382  0.75930596  1.0
  O  O329  1  0.91615831  0.75940257  0.83520827  1.0
  O  O330  1  0.24869325  0.83513444  0.24072634  1.0
  O  O331  1  0.51058864  0.24070387  0.16485304  1.0
  O  O332  1  0.42546128  0.74074137  0.33518742  1.0
  O  O333  1  0.50152479  0.25925334  0.66468248  1.0
  O  O334  1  0.23914143  0.33521513  0.25944056  1.0
  O  O335  1  0.83378287  0.66484058  0.74068291  1.0
