# generated using pymatgen
data_ZnH7(C9O2)2
_symmetry_space_group_name_H-M   'P 1'
_cell_length_a   16.61022140
_cell_length_b   16.68949569
_cell_length_c   16.82840991
_cell_angle_alpha   68.48140663
_cell_angle_beta   68.50154246
_cell_angle_gamma   68.16344005
_symmetry_Int_Tables_number   1
_chemical_formula_structural   ZnH7(C9O2)2
_chemical_formula_sum   'Zn6 H42 C108 O24'
_cell_volume   3882.97743031
_cell_formula_units_Z   6
loop_
 _symmetry_equiv_pos_site_id
 _symmetry_equiv_pos_as_xyz
  1  'x, y, z'
loop_
 _atom_site_type_symbol
 _atom_site_label
 _atom_site_symmetry_multiplicity
 _atom_site_fract_x
 _atom_site_fract_y
 _atom_site_fract_z
 _atom_site_occupancy
  Zn  Zn0  1  0.01252873  0.01804413  0.43105076  1.0
  Zn  Zn1  1  0.02308848  0.03494749  0.57440103  1.0
  Zn  Zn2  1  0.41653270  0.93968908  0.05621302  1.0
  Zn  Zn3  1  0.57386882  0.95962393  0.04129333  1.0
  Zn  Zn4  1  0.97129696  0.42453911  0.97821766  1.0
  Zn  Zn5  1  0.98060138  0.57460292  0.99001036  1.0
  H  H6  1  0.11560731  0.67484959  0.17758366  1.0
  H  H7  1  0.24429123  0.67327773  0.85779979  1.0
  H  H8  1  0.33994368  0.95462298  0.83465933  1.0
  H  H9  1  0.76227657  0.87565272  0.28333552  1.0
  H  H10  1  0.06005878  0.56063858  0.17350429  1.0
  H  H11  1  0.90462740  0.51874756  0.78872923  1.0
  H  H12  1  0.23975050  0.95300117  0.60573509  1.0
  H  H13  1  0.85321610  0.92390513  0.49570449  1.0
  H  H14  1  0.48159993  0.15058300  0.10704525  1.0
  H  H15  1  0.43362772  0.77313881  0.93457192  1.0
  H  H16  1  0.10929651  0.77884961  0.40716187  1.0
  H  H17  1  0.85100510  0.40267299  0.78343259  1.0
  H  H18  1  0.89384009  0.27376368  0.55543249  1.0
  H  H19  1  0.73439023  0.39133632  0.09011575  1.0
  H  H20  1  0.22044471  0.52702690  0.88983929  1.0
  H  H21  1  0.47862819  0.96588254  0.84019030  1.0
  H  H22  1  0.61348262  0.90130586  0.26314900  1.0
  H  H23  1  0.02505006  0.80397386  0.75674543  1.0
  H  H24  1  0.10369877  0.69817718  0.77593688  1.0
  H  H25  1  0.12970525  0.78386409  0.67695698  1.0
  H  H26  1  0.08065515  0.19570567  0.25440414  1.0
  H  H27  1  0.98516805  0.23977130  0.21306710  1.0
  H  H28  1  0.25127559  0.94587863  0.74839835  1.0
  H  H29  1  0.07654429  0.28801522  0.15879235  1.0
  H  H30  1  0.79417199  0.88542063  0.86654551  1.0
  H  H31  1  0.88239274  0.90462106  0.76800181  1.0
  H  H32  1  0.81358446  0.99195102  0.81945768  1.0
  H  H33  1  0.22361534  0.09615267  0.28778863  1.0
  H  H34  1  0.32132990  0.06931957  0.20199217  1.0
  H  H35  1  0.24847574  0.99892211  0.25440570  1.0
  H  H36  1  0.70148620  0.79542475  0.93574082  1.0
  H  H37  1  0.75027892  0.73155798  0.02529965  1.0
  H  H38  1  0.79795297  0.70272620  0.92359180  1.0
  H  H39  1  0.85053963  0.88451729  0.36879561  1.0
  H  H40  1  0.12765765  0.23593462  0.04501238  1.0
  H  H41  1  0.20705403  0.17513793  0.96986059  1.0
  H  H42  1  0.21075751  0.13738476  0.08145365  1.0
  H  H43  1  0.60388906  0.15811504  0.14820941  1.0
  H  H44  1  0.32248687  0.76447343  0.87427523  1.0
  H  H45  1  0.13460136  0.75542164  0.26475520  1.0
  H  H46  1  0.84674266  0.31216484  0.69807632  1.0
  H  H47  1  0.69745219  0.24683929  0.14314428  1.0
  C  C48  1  0.04201981  0.70631975  0.53540310  1.0
  C  C49  1  0.53318260  0.65915742  0.98929329  1.0
  C  C50  1  0.54288403  0.41734798  0.03997767  1.0
  C  C51  1  0.58982778  0.92140545  0.46608371  1.0
  C  C52  1  0.50603385  0.94082121  0.63940523  1.0
  C  C53  1  0.07668365  0.75328397  0.72421542  1.0
  C  C54  1  0.03690556  0.25793439  0.22335583  1.0
  C  C55  1  0.81387400  0.93367353  0.80359885  1.0
  C  C56  1  0.27850007  0.04094952  0.26554356  1.0
  C  C57  1  0.73415911  0.72781329  0.96937109  1.0
  C  C58  1  0.19764716  0.19729030  0.02741984  1.0
  C  C59  1  0.34630321  0.95670740  0.48345755  1.0
  C  C60  1  0.73967074  0.95044698  0.60826077  1.0
  C  C61  1  0.99600425  0.58393348  0.53143888  1.0
  C  C62  1  0.98265111  0.48524552  0.43164490  1.0
  C  C63  1  0.59863155  0.93793666  0.60203517  1.0
  C  C64  1  0.49553408  0.93213021  0.50109162  1.0
  C  C65  1  0.51675017  0.51215764  0.00802032  1.0
  C  C66  1  0.41714253  0.40827132  0.00251353  1.0
  C  C67  1  0.86533802  0.00323361  0.60747063  1.0
  C  C68  1  0.95626937  0.35106476  0.42700174  1.0
  C  C69  1  0.19039461  0.00884251  0.45779733  1.0
  C  C70  1  0.53491571  0.79321766  0.02553234  1.0
  C  C71  1  0.39059167  0.11301783  0.02945516  1.0
  C  C72  1  0.99250573  0.60340685  0.82099774  1.0
  C  C73  1  0.98419011  0.45560162  0.14744223  1.0
  C  C74  1  0.14108707  0.39716502  0.96291270  1.0
  C  C75  1  0.80602841  0.53075359  0.00894908  1.0
  C  C76  1  0.46551829  0.94326363  0.21092989  1.0
  C  C77  1  0.61501683  0.96856520  0.88088939  1.0
  C  C78  1  0.98071409  0.19426478  0.41880043  1.0
  C  C79  1  0.60460625  0.95760544  0.73844814  1.0
  C  C80  1  0.04946355  0.85188120  0.54114700  1.0
  C  C81  1  0.00555653  0.63121876  0.58120800  1.0
  C  C82  1  0.98038306  0.43355592  0.38198469  1.0
  C  C83  1  0.64800114  0.94757019  0.65011858  1.0
  C  C84  1  0.44202267  0.94063305  0.44758079  1.0
  C  C85  1  0.56733905  0.56368284  0.00914394  1.0
  C  C86  1  0.36712045  0.35639292  0.00015852  1.0
  C  C87  1  0.04656623  0.75681816  0.58538309  1.0
  C  C88  1  0.97585191  0.29106706  0.37453888  1.0
  C  C89  1  0.65772809  0.96006191  0.78836074  1.0
  C  C90  1  0.48428066  0.93458641  0.35803396  1.0
  C  C91  1  0.42734977  0.95540461  0.30265896  1.0
  C  C92  1  0.70901880  0.57346732  0.01331664  1.0
  C  C93  1  0.23313649  0.34795900  0.97589980  1.0
  C  C94  1  0.99606296  0.41345953  0.23894706  1.0
  C  C95  1  0.00250957  0.64460312  0.72352309  1.0
  C  C96  1  0.34588664  0.20992547  0.02430451  1.0
  C  C97  1  0.58161672  0.70736747  0.00108490  1.0
  C  C98  1  0.29138846  0.98456412  0.42419408  1.0
  C  C99  1  0.78558336  0.96707683  0.65589617  1.0
  C  C100  1  0.03769933  0.54017563  0.24527298  1.0
  C  C101  1  0.65142191  0.51943543  0.03108297  1.0
  C  C102  1  0.93149006  0.53685928  0.71719710  1.0
  C  C103  1  0.31069839  0.94844789  0.57593799  1.0
  C  C104  1  0.78163361  0.93063704  0.52447617  1.0
  C  C105  1  0.46470482  0.22186496  0.07550188  1.0
  C  C106  1  0.45647509  0.70048774  0.95527006  1.0
  C  C107  1  0.07568065  0.72611779  0.44174862  1.0
  C  C108  1  0.91867476  0.33265547  0.52038109  1.0
  C  C109  1  0.67363722  0.42523798  0.06744948  1.0
  C  C110  1  0.27386538  0.49363679  0.92302918  1.0
  C  C111  1  0.51241616  0.95857497  0.77377776  1.0
  C  C112  1  0.29075224  0.40001495  0.96452977  1.0
  C  C113  1  0.58021477  0.91129641  0.32900998  1.0
  C  C114  1  0.03902939  0.71883799  0.67787645  1.0
  C  C115  1  0.99853895  0.32166212  0.28100478  1.0
  C  C116  1  0.75007921  0.95639212  0.74880127  1.0
  C  C117  1  0.33255769  0.98984095  0.33295374  1.0
  C  C118  1  0.67443311  0.66734941  0.99787241  1.0
  C  C119  1  0.25995829  0.25312257  0.00686744  1.0
  C  C120  1  0.91452663  0.38628337  0.56961130  1.0
  C  C121  1  0.06821895  0.67972284  0.39261268  1.0
  C  C122  1  0.63253921  0.90697508  0.37954366  1.0
  C  C123  1  0.00297402  0.46444827  0.28714513  1.0
  C  C124  1  0.46368997  0.94964250  0.72761008  1.0
  C  C125  1  0.32078795  0.54542056  0.92655644  1.0
  C  C126  1  0.62001740  0.37433497  0.07483992  1.0
  C  C127  1  0.92169160  0.48990172  0.66936281  1.0
  C  C128  1  0.04868949  0.58576810  0.29308878  1.0
  C  C129  1  0.41288638  0.65062663  0.94329599  1.0
  C  C130  1  0.51416211  0.27154710  0.07807701  1.0
  C  C131  1  0.73498204  0.91708155  0.47881459  1.0
  C  C132  1  0.36180201  0.94192531  0.62832739  1.0
  C  C133  1  0.87695915  0.36792469  0.66435080  1.0
  C  C134  1  0.97819455  0.60417605  0.67619875  1.0
  C  C135  1  0.10151475  0.70169447  0.29755681  1.0
  C  C136  1  0.72899955  0.89081989  0.34744857  1.0
  C  C137  1  0.37070956  0.94944836  0.76656090  1.0
  C  C138  1  0.29815890  0.64137168  0.89113572  1.0
  C  C139  1  0.63996494  0.27913981  0.11479116  1.0
  C  C140  1  0.87950968  0.41781700  0.71167208  1.0
  C  C141  1  0.09127842  0.65737872  0.24978096  1.0
  C  C142  1  0.34102531  0.69172402  0.90045102  1.0
  C  C143  1  0.58856751  0.23023003  0.11752447  1.0
  C  C144  1  0.77773131  0.89581150  0.39462317  1.0
  C  C145  1  0.39381106  0.26089468  0.03309219  1.0
  C  C146  1  0.32214686  0.94455097  0.71936936  1.0
  C  C147  1  0.95679502  0.51121860  0.57491288  1.0
  C  C148  1  0.01800635  0.56062218  0.38794563  1.0
  C  C149  1  0.64043221  0.92557771  0.51536760  1.0
  C  C150  1  0.45518879  0.93802812  0.58985363  1.0
  C  C151  1  0.44003597  0.55476851  0.97410527  1.0
  C  C152  1  0.49200630  0.36629472  0.03939405  1.0
  C  C153  1  0.95165556  0.46130198  0.52564070  1.0
  C  C154  1  0.02615878  0.60822537  0.43727062  1.0
  C  C155  1  0.39267361  0.50302846  0.96861099  1.0
  O  O156  1  0.88918505  0.02183700  0.52309844  1.0
  O  O157  1  0.53188427  0.97414162  0.91706920  1.0
  O  O158  1  0.99151726  0.16224127  0.49681763  1.0
  O  O159  1  0.03392522  0.88782245  0.46353518  1.0
  O  O160  1  0.97668834  0.14650730  0.37557465  1.0
  O  O161  1  0.05893625  0.89680000  0.58238015  1.0
  O  O162  1  0.41714111  0.92267238  0.18158467  1.0
  O  O163  1  0.66286384  0.97033588  0.92652500  1.0
  O  O164  1  0.09616724  0.35600115  0.95033023  1.0
  O  O165  1  0.84883882  0.57084593  0.02324043  1.0
  O  O166  1  0.98360559  0.65200560  0.87063663  1.0
  O  O167  1  0.15201525  0.02970956  0.53229441  1.0
  O  O168  1  0.96866928  0.41093392  0.10996357  1.0
  O  O169  1  0.57422061  0.82494727  0.05442530  1.0
  O  O170  1  0.34704927  0.06246554  0.02927207  1.0
  O  O171  1  0.90477913  0.02057759  0.65063227  1.0
  O  O172  1  0.14630428  0.00598199  0.41129841  1.0
  O  O173  1  0.45076071  0.83059055  0.02423622  1.0
  O  O174  1  0.47243532  0.08238372  0.03124315  1.0
  O  O175  1  0.99329248  0.52147185  0.85275764  1.0
  O  O176  1  0.98457202  0.53892710  0.11162602  1.0
  O  O177  1  0.10782942  0.47771563  0.96856111  1.0
  O  O178  1  0.84415527  0.45448473  0.98892490  1.0
  O  O179  1  0.54468471  0.95317468  0.16601931  1.0
