# generated using pymatgen
data_Zn3H11C20Br2(NO6)3
_symmetry_space_group_name_H-M   'P 1'
_cell_length_a   18.76090898
_cell_length_b   18.79939641
_cell_length_c   18.81648086
_cell_angle_alpha   109.60944352
_cell_angle_beta   109.15039105
_cell_angle_gamma   108.68097397
_symmetry_Int_Tables_number   1
_chemical_formula_structural   Zn3H11C20Br2(NO6)3
_chemical_formula_sum   'Zn6 H22 C40 Br4 N6 O36'
_cell_volume   5168.91754976
_cell_formula_units_Z   2
loop_
 _symmetry_equiv_pos_site_id
 _symmetry_equiv_pos_as_xyz
  1  'x, y, z'
loop_
 _atom_site_type_symbol
 _atom_site_label
 _atom_site_symmetry_multiplicity
 _atom_site_fract_x
 _atom_site_fract_y
 _atom_site_fract_z
 _atom_site_occupancy
  Zn  Zn0  1  0.57982390  0.07833933  0.99881950  1.0
  Zn  Zn1  1  0.45474946  0.95089890  0.99703505  1.0
  Zn  Zn2  1  0.55571853  0.49256100  0.56283479  1.0
  Zn  Zn3  1  0.43180145  0.47998215  0.42526436  1.0
  Zn  Zn4  1  0.98995018  0.05939876  0.56510742  1.0
  Zn  Zn5  1  0.98543601  0.93345651  0.43645325  1.0
  H  H6  1  0.48007690  0.24962883  0.12343820  1.0
  H  H7  1  0.58301541  0.26964574  0.19049732  1.0
  H  H8  1  0.59236816  0.36829605  0.31524310  1.0
  H  H9  1  0.50426005  0.36825018  0.24218755  1.0
  H  H10  1  0.35274882  0.13378995  0.08785503  1.0
  H  H11  1  0.35663059  0.25057088  0.18332443  1.0
  H  H12  1  0.60078650  0.22261765  0.29197909  1.0
  H  H13  1  0.56720543  0.28636713  0.39918391  1.0
  H  H14  1  0.46464134  0.19561733  0.34686468  1.0
  H  H15  1  0.88655504  0.16923284  0.39634822  1.0
  H  H16  1  0.75372063  0.97509135  0.30132732  1.0
  H  H17  1  0.47744018  0.62437635  0.72109611  1.0
  H  H18  1  0.43393207  0.70816609  0.81694781  1.0
  H  H19  1  0.51040151  0.84096817  0.76505979  1.0
  H  H20  1  0.19671838  0.93862637  0.61992067  1.0
  H  H21  1  0.20610507  0.07860560  0.77301738  1.0
  H  H22  1  0.75471439  0.69318097  0.36084191  1.0
  H  H23  1  0.80914345  0.81859254  0.54772849  1.0
  H  H24  1  0.62417234  0.61273643  0.37284452  1.0
  H  H25  1  0.76611623  0.68104140  0.55708107  1.0
  H  H26  1  0.15821382  0.24666808  0.54001910  1.0
  H  H27  1  0.20402710  0.12055748  0.43440533  1.0
  C  C28  1  0.65706288  0.04200025  0.11514813  1.0
  C  C29  1  0.48711351  0.10056198  0.11321528  1.0
  C  C30  1  0.43320095  0.05277504  0.88971846  1.0
  C  C31  1  0.48845445  0.87858064  0.87470032  1.0
  C  C32  1  0.51957959  0.25551473  0.18521811  1.0
  C  C33  1  0.52569841  0.32663971  0.26170874  1.0
  C  C34  1  0.38359791  0.14323666  0.15315998  1.0
  C  C35  1  0.53302984  0.18633566  0.27469800  1.0
  C  C36  1  0.47930667  0.16687107  0.18088108  1.0
  C  C37  1  0.46972708  0.28446564  0.29624060  1.0
  C  C38  1  0.38043191  0.21907596  0.21762190  1.0
  C  C39  1  0.50994189  0.23857651  0.33609204  1.0
  C  C40  1  0.82874499  0.10838093  0.34509455  1.0
  C  C41  1  0.81197831  0.03608865  0.35097798  1.0
  C  C42  1  0.77208279  0.10992667  0.27180622  1.0
  C  C43  1  0.72647137  0.04727942  0.18854123  1.0
  C  C44  1  0.45830714  0.66989815  0.70820571  1.0
  C  C45  1  0.44010441  0.66004061  0.62864951  1.0
  C  C46  1  0.45469823  0.73061571  0.77696693  1.0
  C  C47  1  0.48323859  0.81451747  0.79919011  1.0
  C  C48  1  0.22365692  0.98569565  0.68754903  1.0
  C  C49  1  0.18495464  0.03281713  0.70695544  1.0
  C  C50  1  0.29572077  0.98839172  0.75080338  1.0
  C  C51  1  0.36619767  0.05728710  0.82392712  1.0
  C  C52  1  0.63159008  0.58997721  0.50704562  1.0
  C  C53  1  0.46776346  0.35707799  0.36190374  1.0
  C  C54  1  0.41028330  0.37688016  0.53131322  1.0
  C  C55  1  0.45298565  0.59561701  0.56927984  1.0
  C  C56  1  0.87663875  0.85937440  0.48277228  1.0
  C  C57  1  0.87528474  0.03023100  0.41780846  1.0
  C  C58  1  0.10174893  0.08058603  0.46916257  1.0
  C  C59  1  0.11092579  0.02501465  0.63852616  1.0
  C  C60  1  0.75490349  0.71326266  0.42264139  1.0
  C  C61  1  0.81231437  0.79429994  0.48806912  1.0
  C  C62  1  0.68868758  0.65400325  0.42940778  1.0
  C  C63  1  0.70195002  0.64686532  0.50109847  1.0
  C  C64  1  0.19613656  0.22869036  0.51130573  1.0
  C  C65  1  0.17355568  0.14464457  0.46982023  1.0
  C  C66  1  0.26532627  0.29736885  0.51743612  1.0
  C  C67  1  0.34543269  0.31009086  0.53590191  1.0
  Br  Br68  1  0.76265114  0.21304801  0.30302732  1.0
  Br  Br69  1  0.39394849  0.72063928  0.58305762  1.0
  Br  Br70  1  0.28477550  0.87558777  0.71767437  1.0
  Br  Br71  1  0.38945818  0.17251409  0.85323326  1.0
  N  N72  1  0.32949251  0.05658084  0.14316397  1.0
  N  N73  1  0.31076616  0.18653340  0.24182422  1.0
  N  N74  1  0.73995256  0.97056619  0.16169857  1.0
  N  N75  1  0.24215972  0.36291525  0.50406833  1.0
  N  N76  1  0.37486134  0.25471567  0.56322496  1.0
  N  N77  1  0.53459174  0.10978170  0.28677408  1.0
  O  O78  1  0.68221106  0.09509399  0.08879716  1.0
  O  O79  1  0.58106828  0.98538377  0.08530037  1.0
  O  O80  1  0.54489236  0.12913220  0.09455460  1.0
  O  O81  1  0.43212545  0.02090877  0.07887401  1.0
  O  O82  1  0.51283250  0.10438785  0.91822263  1.0
  O  O83  1  0.40642095  0.00001193  0.91437689  1.0
  O  O84  1  0.54212387  0.95708384  0.90485802  1.0
  O  O85  1  0.43929498  0.85244479  0.90538225  1.0
  O  O86  1  0.65508611  0.57314120  0.56959746  1.0
  O  O87  1  0.55377610  0.56143855  0.45237029  1.0
  O  O88  1  0.52136972  0.39181820  0.44067903  1.0
  O  O89  1  0.41466297  0.38220667  0.33025136  1.0
  O  O90  1  0.48985831  0.40739765  0.58513797  1.0
  O  O91  1  0.38134117  0.39694954  0.47498476  1.0
  O  O92  1  0.50877659  0.57626070  0.60431324  1.0
  O  O93  1  0.40759477  0.56478557  0.48746270  1.0
  O  O94  1  0.90476990  0.93775039  0.53634774  1.0
  O  O95  1  0.89964726  0.83364010  0.42559162  1.0
  O  O96  1  0.90798457  0.08448462  0.49814662  1.0
  O  O97  1  0.89246958  0.97029241  0.38864310  1.0
  O  O98  1  0.07445699  0.10846854  0.51994300  1.0
  O  O99  1  0.07222445  0.00029506  0.41659754  1.0
  O  O100  1  0.08281448  0.07760524  0.66494388  1.0
  O  O101  1  0.08016886  0.96981705  0.56022648  1.0
  O  O102  1  0.26765212  0.00141366  0.07133530  1.0
  O  O103  1  0.35200134  0.04928030  0.20879302  1.0
  O  O104  1  0.23657902  0.13969700  0.18060579  1.0
  O  O105  1  0.33236539  0.21063688  0.31867968  1.0
  O  O106  1  0.67987664  0.90053814  0.13798276  1.0
  O  O107  1  0.80887946  0.98294749  0.16229520  1.0
  O  O108  1  0.17817161  0.33478283  0.43495697  1.0
  O  O109  1  0.28555528  0.43789761  0.56449785  1.0
  O  O110  1  0.38205598  0.20128924  0.51025055  1.0
  O  O111  1  0.39160256  0.26824295  0.63710148  1.0
  O  O112  1  0.52340728  0.10219772  0.34522557  1.0
  O  O113  1  0.55466465  0.06533184  0.24035889  1.0
