# generated using pymatgen
data_Al2H11C24S2N(O5F)2
_symmetry_space_group_name_H-M   'P 1'
_cell_length_a   6.70242428
_cell_length_b   12.70699566
_cell_length_c   17.73439114
_cell_angle_alpha   88.98803362
_cell_angle_beta   79.56874520
_cell_angle_gamma   75.35418721
_symmetry_Int_Tables_number   1
_chemical_formula_structural   Al2H11C24S2N(O5F)2
_chemical_formula_sum   'Al2 H11 C24 S2 N1 O10 F2'
_cell_volume   1436.54096183
_cell_formula_units_Z   1
loop_
 _symmetry_equiv_pos_site_id
 _symmetry_equiv_pos_as_xyz
  1  'x, y, z'
loop_
 _atom_site_type_symbol
 _atom_site_label
 _atom_site_symmetry_multiplicity
 _atom_site_fract_x
 _atom_site_fract_y
 _atom_site_fract_z
 _atom_site_occupancy
  Al  Al0  1  0.00191849  0.50272883  0.49912570  1.0
  Al  Al1  1  0.49782180  0.50626519  0.50075039  1.0
  H  H2  1  0.34082804  0.38125372  0.44667148  1.0
  H  H3  1  0.67714870  0.57487897  0.58918430  1.0
  H  H4  1  0.82991952  0.48176784  0.72810586  1.0
  H  H5  1  0.74694794  0.48387581  0.87124584  1.0
  H  H6  1  0.47339984  0.46897141  0.73638156  1.0
  H  H7  1  0.51629319  0.53790826  0.26789537  1.0
  H  H8  1  0.16750332  0.51150402  0.27136893  1.0
  H  H9  1  0.24634374  0.50228796  0.12784064  1.0
  H  H10  1  0.19828890  0.15304399  0.54190063  1.0
  H  H11  1  0.61232377  0.89591983  0.45536615  1.0
  H  H12  1  0.76729442  0.76545458  0.46030945  1.0
  C  C13  1  0.84978672  0.30763583  0.49933299  1.0
  C  C14  1  0.79734088  0.52092095  0.36345179  1.0
  C  C15  1  0.14649329  0.69968858  0.50176254  1.0
  C  C16  1  0.19831061  0.48606357  0.63822583  1.0
  C  C17  1  0.15432828  0.47771126  0.72331440  1.0
  C  C18  1  0.95111006  0.47981990  0.76185591  1.0
  C  C19  1  0.90495036  0.48098106  0.84132206  1.0
  C  C20  1  0.06111503  0.48052368  0.88528558  1.0
  C  C21  1  0.26525424  0.47386418  0.84468205  1.0
  C  C22  1  0.31424178  0.47247758  0.76554180  1.0
  C  C23  1  0.01458232  0.48958029  0.96601386  1.0
  C  C24  1  0.97139113  0.50121965  0.03570322  1.0
  C  C25  1  0.92744229  0.51234539  0.11637041  1.0
  C  C26  1  0.72273191  0.52443404  0.15815711  1.0
  C  C27  1  0.67585036  0.53019404  0.23738436  1.0
  C  C28  1  0.83918000  0.52382113  0.27812163  1.0
  C  C29  1  0.04393322  0.51521149  0.23839278  1.0
  C  C30  1  0.08763653  0.50977814  0.15888957  1.0
  C  C31  1  0.90338759  0.88353029  0.48232316  1.0
  C  C32  1  0.07767228  0.12148644  0.52360225  1.0
  C  C33  1  0.08647162  0.81695171  0.50304812  1.0
  C  C34  1  0.90082422  0.18846033  0.50225677  1.0
  C  C35  1  0.07724141  0.01100706  0.51780079  1.0
  C  C36  1  0.90110884  0.99533808  0.49141400  1.0
  S  S37  1  0.24837643  0.88975093  0.53334368  1.0
  S  S38  1  0.73315691  0.11738565  0.47532375  1.0
  N  N39  1  0.75750970  0.84641206  0.45446423  1.0
  O  O40  1  0.99457348  0.35238725  0.50829030  1.0
  O  O41  1  0.60731905  0.53601049  0.39733223  1.0
  O  O42  1  0.32850519  0.65186474  0.51553087  1.0
  O  O43  1  0.04032168  0.50421962  0.60458480  1.0
  O  O44  1  0.01083811  0.65049988  0.48750581  1.0
  O  O45  1  0.38840335  0.47728948  0.60600939  1.0
  O  O46  1  0.66706015  0.35599965  0.48708049  1.0
  O  O47  1  0.95679181  0.50068066  0.39613560  1.0
  O  O48  1  0.29107322  0.45636212  0.46513457  1.0
  O  O49  1  0.71241862  0.54887321  0.53621271  1.0
  F  F50  1  0.41920624  0.47071100  0.88598277  1.0
  F  F51  1  0.56571232  0.52922193  0.11804357  1.0
