# generated using pymatgen
data_Al6H59C84Cl3O28
_symmetry_space_group_name_H-M   'P 1'
_cell_length_a   12.80327298
_cell_length_b   12.81868766
_cell_length_c   27.71972795
_cell_angle_alpha   89.99009612
_cell_angle_beta   89.94606268
_cell_angle_gamma   118.07553808
_symmetry_Int_Tables_number   1
_chemical_formula_structural   Al6H59C84Cl3O28
_chemical_formula_sum   'Al6 H59 C84 Cl3 O28'
_cell_volume   4014.05425754
_cell_formula_units_Z   1
loop_
 _symmetry_equiv_pos_site_id
 _symmetry_equiv_pos_as_xyz
  1  'x, y, z'
loop_
 _atom_site_type_symbol
 _atom_site_label
 _atom_site_symmetry_multiplicity
 _atom_site_fract_x
 _atom_site_fract_y
 _atom_site_fract_z
 _atom_site_occupancy
  Al  Al0  1  0.57312273  0.42209036  0.50450810  1.0
  Al  Al1  1  0.59393228  0.18249501  0.50203056  1.0
  Al  Al2  1  0.81909966  0.41202690  0.50196851  1.0
  Al  Al3  1  0.08278039  0.89941545  0.01265434  1.0
  Al  Al4  1  0.08317855  0.15018348  0.01549272  1.0
  Al  Al5  1  0.84841785  0.93065388  0.01555010  1.0
  H  H6  1  0.70659979  0.24706263  0.73111159  1.0
  H  H7  1  0.66745534  0.04266549  0.21966188  1.0
  H  H8  1  0.96339009  0.62821044  0.21830676  1.0
  H  H9  1  0.36658816  0.33107619  0.22110267  1.0
  H  H10  1  0.69730155  0.01809238  0.13265802  1.0
  H  H11  1  0.98492106  0.68608472  0.13140079  1.0
  H  H12  1  0.30899835  0.30259514  0.13435001  1.0
  H  H13  1  0.97188940  0.35975723  0.28802617  1.0
  H  H14  1  0.63954333  0.61255548  0.28777016  1.0
  H  H15  1  0.38619642  0.02071671  0.28659202  1.0
  H  H16  1  0.04137097  0.27860670  0.23445963  1.0
  H  H17  1  0.76505694  0.46489420  0.73296534  1.0
  H  H18  1  0.71814379  0.76735847  0.23732563  1.0
  H  H19  1  0.22967440  0.95467880  0.23672715  1.0
  H  H20  1  0.06834083  0.25960182  0.14684849  1.0
  H  H21  1  0.73518114  0.81753734  0.14992693  1.0
  H  H22  1  0.18011064  0.92875159  0.14919192  1.0
  H  H23  1  0.69554128  0.99854002  0.29630679  1.0
  H  H24  1  0.00741758  0.69759305  0.29557987  1.0
  H  H25  1  0.29686189  0.30449770  0.29857135  1.0
  H  H26  1  0.85694426  0.35574151  0.72602693  1.0
  H  H27  1  0.65317535  0.50680121  0.72347042  1.0
  H  H28  1  0.53427192  0.28849923  0.72974044  1.0
  H  H29  1  0.50057973  0.13755822  0.72855865  1.0
  H  H30  1  0.66523163  0.02772036  0.38278832  1.0
  H  H31  1  0.97917569  0.63188114  0.38134003  1.0
  H  H32  1  0.36505106  0.33532510  0.38426405  1.0
  H  H33  1  0.97965725  0.14845889  0.70370914  1.0
  H  H34  1  0.85507702  0.82616473  0.70109600  1.0
  H  H35  1  0.17713268  0.01606837  0.70505092  1.0
  H  H36  1  0.99005230  0.12207225  0.78701057  1.0
  H  H37  1  0.86406170  0.86348536  0.78425190  1.0
  H  H38  1  0.13997644  0.01910203  0.78792540  1.0
  H  H39  1  0.73017932  0.23693428  0.81347865  1.0
  H  H40  1  0.76377371  0.98812555  0.71229130  1.0
  H  H41  1  0.01930635  0.77023506  0.71605042  1.0
  H  H42  1  0.22358087  0.23306067  0.70788881  1.0
  H  H43  1  0.66786126  0.02727875  0.80351883  1.0
  H  H44  1  0.97382852  0.64676913  0.80959571  1.0
  H  H45  1  0.35532519  0.34062744  0.79772852  1.0
  H  H46  1  0.77234542  0.97552446  0.79652516  1.0
  H  H47  1  0.01740492  0.79734155  0.79979737  1.0
  H  H48  1  0.20392387  0.23861782  0.79204204  1.0
  H  H49  1  0.01497524  0.29793400  0.71259256  1.0
  H  H50  1  0.76461732  0.50127327  0.81472264  1.0
  H  H51  1  0.70562638  0.71666977  0.70628987  1.0
  H  H52  1  0.29117353  0.97909609  0.71713332  1.0
  H  H53  1  0.03934242  0.27500712  0.79472007  1.0
  H  H54  1  0.71128141  0.76226919  0.78828192  1.0
  H  H55  1  0.24297300  0.96683073  0.79916856  1.0
  H  H56  1  0.65081276  0.02877618  0.71976832  1.0
  H  H57  1  0.98288097  0.62109099  0.72649428  1.0
  H  H58  1  0.37153215  0.34487399  0.71361961  1.0
  H  H59  1  0.50188934  0.27509145  0.81227239  1.0
  H  H60  1  0.94498863  0.38561507  0.37511013  1.0
  H  H61  1  0.61462799  0.55355637  0.37437028  1.0
  H  H62  1  0.44786298  0.04868726  0.37285095  1.0
  H  H63  1  0.51143316  0.56140904  0.48339925  1.0
  H  H64  1  0.20412962  0.81822228  0.03730898  1.0
  C  C65  1  0.78479381  0.54571900  0.57151257  1.0
  C  C66  1  0.86413998  0.15425175  0.85744696  1.0
  C  C67  1  0.83110911  0.71303814  0.85639643  1.0
  C  C68  1  0.29155096  0.15016665  0.85645598  1.0
  C  C69  1  0.81348549  0.18907651  0.66059445  1.0
  C  C70  1  0.82687427  0.62295036  0.66147962  1.0
  C  C71  1  0.37633171  0.17421855  0.66053615  1.0
  C  C72  1  0.80177898  0.20190361  0.61779498  1.0
  C  C73  1  0.81563846  0.59609990  0.61905538  1.0
  C  C74  1  0.40279005  0.18444473  0.61806445  1.0
  C  C75  1  0.21465402  0.11246416  0.94652858  1.0
  C  C76  1  0.45370540  0.21519231  0.57058749  1.0
  C  C77  1  0.89736569  0.11338216  0.94817303  1.0
  C  C78  1  0.87701764  0.78893410  0.94637992  1.0
  C  C79  1  0.80433771  0.20799277  0.38450229  1.0
  C  C80  1  0.79535122  0.58965715  0.38300586  1.0
  C  C81  1  0.40982986  0.19352637  0.38348640  1.0
  C  C82  1  0.89181258  0.30077223  0.35757866  1.0
  C  C83  1  0.70029457  0.58612117  0.35661966  1.0
  C  C84  1  0.41375852  0.10346915  0.35618084  1.0
  C  C85  1  0.90670800  0.28548435  0.30889599  1.0
  C  C86  1  0.71511005  0.61993443  0.30847209  1.0
  C  C87  1  0.77652470  0.22655301  0.56981987  1.0
  C  C88  1  0.37853312  0.08789194  0.30818079  1.0
  C  C89  1  0.83600214  0.17711563  0.28560043  1.0
  C  C90  1  0.82536572  0.65965842  0.28544254  1.0
  C  C91  1  0.33729275  0.16073712  0.28638904  1.0
  C  C92  1  0.77392878  0.54348395  0.43319375  1.0
  C  C93  1  0.45854316  0.21892068  0.43320543  1.0
  C  C94  1  0.78078314  0.22956354  0.43497370  1.0
  C  C95  1  0.74960385  0.08418418  0.31320059  1.0
  C  C96  1  0.92057595  0.66440064  0.31247660  1.0
  C  C97  1  0.33157425  0.24932596  0.31451502  1.0
  C  C98  1  0.75161124  0.04604218  0.78580131  1.0
  C  C99  1  0.73322440  0.09943807  0.36178620  1.0
  C  C100  1  0.90570906  0.62906474  0.36053546  1.0
  C  C101  1  0.36801250  0.26617109  0.36235821  1.0
  C  C102  1  0.75598355  0.08919266  0.20407783  1.0
  C  C103  1  0.91477723  0.67169788  0.20367986  1.0
  C  C104  1  0.32357041  0.24237292  0.20571790  1.0
  C  C105  1  0.77177413  0.07637059  0.15519037  1.0
  C  C106  1  0.92592657  0.70198829  0.15511326  1.0
  C  C107  1  0.29309104  0.22723789  0.15712295  1.0
  C  C108  1  0.98069020  0.21349512  0.16312039  1.0
  C  C109  1  0.95240056  0.70749014  0.78911700  1.0
  C  C110  1  0.78386564  0.77510720  0.16531885  1.0
  C  C111  1  0.22173912  0.01638117  0.16546772  1.0
  C  C112  1  0.96476690  0.22424619  0.21211072  1.0
  C  C113  1  0.77433642  0.74632057  0.21402034  1.0
  C  C114  1  0.25037217  0.03164145  0.21414031  1.0
  C  C115  1  0.85212177  0.16305322  0.23361440  1.0
  C  C116  1  0.83891452  0.69340287  0.23406146  1.0
  C  C117  1  0.30295416  0.14492744  0.23509113  1.0
  C  C118  1  0.88430858  0.13911849  0.13415929  1.0
  C  C119  1  0.85996245  0.75336077  0.13551910  1.0
  C  C120  1  0.29323089  0.25530176  0.78181241  1.0
  C  C121  1  0.24299969  0.11416390  0.13654456  1.0
  C  C122  1  0.20445424  0.09385942  0.08534149  1.0
  C  C123  1  0.90522859  0.11915539  0.08308673  1.0
  C  C124  1  0.87873198  0.79357994  0.08447764  1.0
  C  C125  1  0.79783066  0.26640430  0.73926344  1.0
  C  C126  1  0.74125008  0.53561346  0.73904791  1.0
  C  C127  1  0.46726094  0.19862894  0.73961295  1.0
  C  C128  1  0.95581862  0.20712391  0.72449476  1.0
  C  C129  1  0.79459612  0.74671811  0.72129848  1.0
  C  C130  1  0.25752869  0.04107884  0.72653722  1.0
  C  C131  1  0.74169884  0.05147824  0.73038992  1.0
  C  C132  1  0.96830307  0.19369717  0.77934396  1.0
  C  C133  1  0.79705246  0.77263959  0.77583167  1.0
  C  C134  1  0.23147928  0.03691152  0.78112142  1.0
  C  C135  1  0.87563624  0.14143404  0.90021726  1.0
  C  C136  1  0.84304401  0.73944194  0.89882628  1.0
  C  C137  1  0.26515828  0.14011849  0.89889086  1.0
  C  C138  1  0.82680199  0.17737349  0.71210502  1.0
  C  C139  1  0.83138465  0.64919299  0.71255089  1.0
  C  C140  1  0.35118694  0.16721946  0.71176480  1.0
  C  C141  1  0.81295031  0.25955854  0.79421548  1.0
  C  C142  1  0.95553591  0.68875713  0.73422744  1.0
  C  C143  1  0.74004067  0.55855574  0.79354158  1.0
  C  C144  1  0.44547951  0.19065922  0.79448409  1.0
  C  C145  1  0.85113458  0.16442413  0.80581369  1.0
  C  C146  1  0.82820419  0.68852413  0.80521473  1.0
  C  C147  1  0.31479300  0.15683706  0.80506940  1.0
  C  C148  1  0.30752485  0.25655713  0.72647556  1.0
  Cl  Cl149  1  0.91774048  0.40191369  0.81810876  1.0
  Cl  Cl150  1  0.59223366  0.52113113  0.81395244  1.0
  Cl  Cl151  1  0.48611294  0.08704311  0.82204917  1.0
  O  O152  1  0.47609504  0.31614946  0.55511834  1.0
  O  O153  1  0.47600360  0.31506723  0.45237709  1.0
  O  O154  1  0.68542320  0.15270798  0.45515105  1.0
  O  O155  1  0.85406327  0.52309936  0.45275933  1.0
  O  O156  1  0.67691385  0.52277920  0.45289924  1.0
  O  O157  1  0.48427873  0.14213792  0.45274216  1.0
  O  O158  1  0.85416452  0.32726472  0.45469154  1.0
  O  O159  1  0.66328459  0.33802281  0.50293670  1.0
  O  O160  1  0.00395917  0.99471516  0.01461762  1.0
  O  O161  1  0.18849656  0.01166681  0.96315373  1.0
  O  O162  1  0.99438194  0.18487843  0.96849072  1.0
  O  O163  1  0.67895929  0.15077264  0.55087756  1.0
  O  O164  1  0.80242226  0.80991400  0.97027174  1.0
  O  O165  1  0.96753525  0.79903052  0.06255200  1.0
  O  O166  1  0.19656814  0.17838221  0.06312265  1.0
  O  O167  1  0.82482221  0.02945131  0.06120841  1.0
  O  O168  1  0.17755539  0.99374689  0.06736328  1.0
  O  O169  1  0.00605514  0.18954609  0.06463395  1.0
  O  O170  1  0.80463024  0.82546151  0.06665774  1.0
  O  O171  1  0.86336753  0.52794624  0.54881723  1.0
  O  O172  1  0.97979501  0.81190934  0.95979280  1.0
  O  O173  1  0.19552615  0.19232935  0.96727171  1.0
  O  O174  1  0.81964811  0.01474021  0.96576682  1.0
  O  O175  1  0.68217274  0.51897726  0.55675192  1.0
  O  O176  1  0.47646611  0.13920539  0.54882649  1.0
  O  O177  1  0.85019020  0.32466529  0.55075370  1.0
  O  O178  1  0.49024265  0.49872433  0.50676813  1.0
  O  O179  1  0.15412463  0.81174125  0.01018402  1.0
