# generated using pymatgen
data_Zr3H37C49NO16
_symmetry_space_group_name_H-M   'P 1'
_cell_length_a   19.02763015
_cell_length_b   19.06881423
_cell_length_c   19.06992938
_cell_angle_alpha   90.14057820
_cell_angle_beta   119.89618240
_cell_angle_gamma   119.88675449
_symmetry_Int_Tables_number   1
_chemical_formula_structural   Zr3H37C49NO16
_chemical_formula_sum   'Zr6 H74 C98 N2 O32'
_cell_volume   4902.66324148
_cell_formula_units_Z   2
loop_
 _symmetry_equiv_pos_site_id
 _symmetry_equiv_pos_as_xyz
  1  'x, y, z'
loop_
 _atom_site_type_symbol
 _atom_site_label
 _atom_site_symmetry_multiplicity
 _atom_site_fract_x
 _atom_site_fract_y
 _atom_site_fract_z
 _atom_site_occupancy
  Zr  Zr0  1  0.49354997  0.90370877  0.90461636  1.0
  Zr  Zr1  1  0.50721269  0.09531905  0.09639625  1.0
  Zr  Zr2  1  0.68616144  0.08887103  0.08961163  1.0
  Zr  Zr3  1  0.31459949  0.91042063  0.91113412  1.0
  Zr  Zr4  1  0.50038080  0.90702521  0.09292320  1.0
  Zr  Zr5  1  0.50035621  0.09196083  0.90810161  1.0
  H  H6  1  0.64138547  0.92140982  0.06827812  1.0
  H  H7  1  0.35937593  0.93167388  0.07857411  1.0
  H  H8  1  0.65141581  0.21798823  0.07321741  1.0
  H  H9  1  0.34924493  0.92697946  0.78201063  1.0
  H  H10  1  0.51527406  0.46312874  0.11863951  1.0
  H  H11  1  0.53195287  0.55996114  0.90928741  1.0
  H  H12  1  0.43025954  0.64656009  0.06665609  1.0
  H  H13  1  0.42130917  0.51188077  0.06589399  1.0
  H  H14  1  0.46154737  0.29715269  0.87626693  1.0
  H  H15  1  0.44543070  0.41888701  0.86362470  1.0
  H  H16  1  0.46664841  0.08943893  0.43889112  1.0
  H  H17  1  0.48304340  0.88038052  0.53570462  1.0
  H  H18  1  0.53919419  0.12376702  0.70276698  1.0
  H  H19  1  0.55476192  0.13603891  0.58068504  1.0
  H  H20  1  0.56987304  0.93296716  0.35338060  1.0
  H  H21  1  0.57842740  0.93367893  0.48790535  1.0
  H  H22  1  0.84605862  0.46615015  0.90309831  1.0
  H  H23  1  0.14978942  0.55485321  0.11987333  1.0
  H  H24  1  0.08052035  0.65783073  0.87151868  1.0
  H  H25  1  0.94608983  0.51881512  0.85746884  1.0
  H  H26  1  0.91983125  0.28230983  0.06498691  1.0
  H  H27  1  0.05361659  0.40812351  0.06422419  1.0
  H  H28  1  0.85090694  0.88107509  0.44631071  1.0
  H  H29  1  0.15468283  0.09801966  0.53478789  1.0
  H  H30  1  0.08098221  0.93549836  0.71825745  1.0
  H  H31  1  0.94721526  0.93654556  0.59274725  1.0
  H  H32  1  0.92010969  0.12874834  0.34231376  1.0
  H  H33  1  0.05449504  0.14318621  0.48162677  1.0
  H  H34  1  0.29302696  0.12290406  0.11421122  1.0
  H  H35  1  0.24015391  0.18486614  0.17504591  1.0
  H  H36  1  0.07916503  0.90157232  0.88831022  1.0
  H  H37  1  0.70762884  0.88585252  0.87693016  1.0
  H  H38  1  0.76053332  0.82495802  0.81504085  1.0
  H  H39  1  0.92149803  0.11161858  0.09841964  1.0
  H  H40  1  0.06990492  0.47127885  0.44736864  1.0
  H  H41  1  0.93068049  0.55265902  0.52886407  1.0
  H  H42  1  0.28226416  0.65575067  0.71544336  1.0
  H  H43  1  0.16105014  0.51975731  0.59203821  1.0
  H  H44  1  0.71841920  0.28431470  0.34435716  1.0
  H  H45  1  0.83946676  0.40780308  0.48025023  1.0
  H  H46  1  0.54315570  0.38373693  0.19860461  1.0
  H  H47  1  0.59540029  0.33344231  0.18461853  1.0
  H  H48  1  0.46838349  0.27174550  0.14085059  1.0
  H  H49  1  0.56972529  0.67343761  0.86577522  1.0
  H  H50  1  0.59806151  0.76879461  0.92224686  1.0
  H  H51  1  0.47854897  0.69524979  0.82949350  1.0
  H  H52  1  0.42825593  0.13228981  0.32490995  1.0
  H  H53  1  0.40146426  0.07662794  0.23005401  1.0
  H  H54  1  0.52046376  0.16968362  0.30425876  1.0
  H  H55  1  0.45371577  0.80005802  0.61440554  1.0
  H  H56  1  0.40375514  0.81536359  0.66651489  1.0
  H  H57  1  0.53037490  0.85781745  0.72660312  1.0
  H  H58  1  0.68842641  0.38890562  0.85687827  1.0
  H  H59  1  0.65141262  0.32752784  0.91735998  1.0
  H  H60  1  0.63089527  0.27594136  0.82630199  1.0
  H  H61  1  0.30535398  0.67079811  0.20570078  1.0
  H  H62  1  0.34366044  0.76883840  0.18253917  1.0
  H  H63  1  0.36632534  0.69930274  0.15306374  1.0
  H  H64  1  0.69533972  0.79518406  0.33076068  1.0
  H  H65  1  0.65734063  0.81755158  0.23228316  1.0
  H  H66  1  0.63428202  0.84778865  0.30108461  1.0
  H  H67  1  0.31230149  0.14456289  0.61204971  1.0
  H  H68  1  0.34913885  0.08354158  0.67259008  1.0
  H  H69  1  0.36995829  0.17434529  0.72505110  1.0
  H  H70  1  0.04508230  0.39543821  0.33799926  1.0
  H  H71  1  0.92543595  0.33663948  0.23809099  1.0
  H  H72  1  0.96015447  0.28211709  0.30698094  1.0
  H  H73  1  0.95567985  0.66220861  0.60464571  1.0
  H  H74  1  0.07535589  0.76206468  0.66342682  1.0
  H  H75  1  0.04065600  0.69320884  0.71796698  1.0
  H  H76  1  0.06151983  0.18278848  0.19601922  1.0
  H  H77  1  0.18294001  0.23332569  0.23656715  1.0
  H  H78  1  0.93921039  0.80396157  0.81720733  1.0
  H  H79  1  0.81778254  0.76344468  0.76658801  1.0
  C  C80  1  0.48547693  0.75654095  0.99079586  1.0
  C  C81  1  0.51481403  0.00881426  0.24330032  1.0
  C  C82  1  0.50107413  0.23548209  0.00303998  1.0
  C  C83  1  0.49938174  0.99697963  0.76437467  1.0
  C  C84  1  0.72950836  0.99547957  0.98974701  1.0
  C  C85  1  0.25468923  0.76045053  0.76817236  1.0
  C  C86  1  0.27119763  0.01015300  0.00457488  1.0
  C  C87  1  0.74608787  0.23168192  0.23970608  1.0
  C  C88  1  0.73430448  0.99749263  0.23613613  1.0
  C  C89  1  0.73355967  0.22684826  0.98957035  1.0
  C  C90  1  0.26714875  0.01068265  0.77342095  1.0
  C  C91  1  0.26645990  0.76395744  0.00258698  1.0
  C  C92  1  0.49425896  0.30998545  0.00244700  1.0
  C  C93  1  0.48177587  0.67668060  0.98608811  1.0
  C  C94  1  0.50787319  0.35585871  0.07189224  1.0
  C  C95  1  0.50121653  0.42559316  0.06416952  1.0
  C  C96  1  0.50859615  0.65149377  0.93871008  1.0
  C  C97  1  0.50678099  0.57741885  0.94218016  1.0
  C  C98  1  0.45164831  0.62599791  0.03180837  1.0
  C  C99  1  0.44796326  0.55149113  0.03213771  1.0
  C  C100  1  0.47280861  0.33442037  0.92886742  1.0
  C  C101  1  0.46495040  0.40293048  0.92245655  1.0
  C  C102  1  0.48026210  0.45069284  0.99108159  1.0
  C  C103  1  0.47733623  0.52655818  0.98802195  1.0
  C  C104  1  0.51794565  0.01323181  0.32288201  1.0
  C  C105  1  0.50556773  0.99726442  0.68953567  1.0
  C  C106  1  0.49057011  0.06027834  0.34769114  1.0
  C  C107  1  0.49215904  0.05677740  0.42165071  1.0
  C  C108  1  0.49112890  0.92746406  0.64331050  1.0
  C  C109  1  0.49757964  0.93502536  0.57346697  1.0
  C  C110  1  0.52735637  0.07092694  0.66522743  1.0
  C  C111  1  0.53491979  0.07715000  0.59656168  1.0
  C  C112  1  0.54818721  0.96764417  0.37371783  1.0
  C  C113  1  0.55163405  0.96727327  0.44810784  1.0
  C  C114  1  0.52188175  0.01118954  0.47271738  1.0
  C  C115  1  0.51897916  0.00823380  0.54857278  1.0
  C  C116  1  0.80797924  0.30210317  0.98335858  1.0
  C  C117  1  0.19071353  0.68274861  0.00155050  1.0
  C  C118  1  0.78483097  0.35268797  0.93442280  1.0
  C  C119  1  0.86214494  0.42460725  0.93728727  1.0
  C  C120  1  0.21228101  0.65350991  0.07302222  1.0
  C  C121  1  0.13484856  0.57624538  0.06418115  1.0
  C  C122  1  0.09439568  0.63377843  0.92539849  1.0
  C  C123  1  0.01942526  0.55675786  0.91808693  1.0
  C  C124  1  0.90493239  0.32348452  0.02949759  1.0
  C  C125  1  0.97965833  0.39426140  0.02970912  1.0
  C  C126  1  0.95959522  0.44738421  0.98448431  1.0
  C  C127  1  0.03853663  0.52677163  0.98828947  1.0
  C  C128  1  0.80999960  0.99878705  0.31762517  1.0
  C  C129  1  0.19278598  0.01724025  0.69847633  1.0
  C  C130  1  0.78843586  0.92754778  0.34721639  1.0
  C  C131  1  0.86586468  0.93662364  0.42468281  1.0
  C  C132  1  0.21592435  0.06642601  0.64803994  1.0
  C  C133  1  0.13861062  0.06369444  0.57626369  1.0
  C  C134  1  0.09587040  0.97113922  0.67717367  1.0
  C  C135  1  0.02114104  0.97106985  0.60654672  1.0
  C  C136  1  0.90622915  0.07499009  0.36655073  1.0
  C  C137  1  0.98120264  0.08253810  0.44378090  1.0
  C  C138  1  0.96214592  0.01250734  0.47402471  1.0
  C  C139  1  0.04114652  0.01640552  0.55346756  1.0
  C  C140  1  0.21536814  0.07347373  0.06369813  1.0
  C  C141  1  0.14003339  0.07274017  0.06150486  1.0
  C  C142  1  0.16223370  0.13531261  0.12448285  1.0
  C  C143  1  0.09253298  0.94722357  0.93565213  1.0
  C  C144  1  0.01504735  0.94328161  0.93140998  1.0
  C  C145  1  0.91157768  0.87646537  0.86509972  1.0
  C  C146  1  0.78530720  0.93631652  0.92641302  1.0
  C  C147  1  0.86063564  0.93849105  0.92717513  1.0
  C  C148  1  0.83845274  0.87552523  0.86459101  1.0
  C  C149  1  0.90814480  0.06430858  0.05275203  1.0
  C  C150  1  0.98564407  0.06855433  0.05670615  1.0
  C  C151  1  0.08911274  0.13482962  0.12352189  1.0
  C  C152  1  0.19180445  0.01114864  0.00159247  1.0
  C  C153  1  0.03841011  0.00661378  0.99491481  1.0
  C  C154  1  0.80888507  0.99841150  0.98876886  1.0
  C  C155  1  0.96226953  0.00504876  0.99334841  1.0
  C  C156  1  0.82565978  0.30648059  0.32099168  1.0
  C  C157  1  0.17505784  0.67913683  0.69340881  1.0
  C  C158  1  0.92667121  0.35816885  0.35088666  1.0
  C  C159  1  0.99283001  0.42898140  0.42604377  1.0
  C  C160  1  0.07402881  0.64922159  0.64185019  1.0
  C  C161  1  0.00777230  0.57399963  0.57107704  1.0
  C  C162  1  0.20431801  0.63170263  0.67377704  1.0
  C  C163  1  0.13670684  0.55643020  0.60430479  1.0
  C  C164  1  0.79635127  0.32605803  0.36839604  1.0
  C  C165  1  0.86386549  0.39559259  0.44360711  1.0
  C  C166  1  0.96393677  0.44951866  0.47325198  1.0
  C  C167  1  0.03661418  0.52676901  0.55048483  1.0
  C  C168  1  0.53019287  0.33541170  0.15358004  1.0
  C  C169  1  0.54095013  0.69997443  0.88661938  1.0
  C  C170  1  0.45795035  0.11212818  0.29896285  1.0
  C  C171  1  0.46818616  0.84557314  0.66347449  1.0
  C  C172  1  0.68366125  0.33567070  0.88118662  1.0
  C  C173  1  0.31201836  0.70072514  0.15823807  1.0
  C  C174  1  0.68872973  0.84234795  0.30025325  1.0
  C  C175  1  0.31706273  0.11978893  0.66503529  1.0
  C  C176  1  0.96663192  0.34263029  0.30607470  1.0
  C  C177  1  0.03413119  0.69408579  0.65743400  1.0
  N  N178  1  0.11223275  0.19836107  0.18329353  1.0
  N  N179  1  0.88849793  0.81670411  0.80159781  1.0
  O  O180  1  0.48454074  0.78868482  0.93176356  1.0
  O  O181  1  0.51597043  0.06797254  0.21128999  1.0
  O  O182  1  0.50448767  0.20443652  0.06317215  1.0
  O  O183  1  0.49625633  0.93696395  0.79553717  1.0
  O  O184  1  0.75904259  0.05464839  0.05053025  1.0
  O  O185  1  0.22951755  0.79488247  0.80026917  1.0
  O  O186  1  0.24166068  0.94934410  0.94543577  1.0
  O  O187  1  0.77129131  0.19964786  0.20526143  1.0
  O  O188  1  0.64306953  0.93844046  0.20340401  1.0
  O  O189  1  0.64211444  0.19569923  0.93320203  1.0
  O  O190  1  0.35858145  0.06688989  0.80440670  1.0
  O  O191  1  0.35768409  0.79654427  0.06151095  1.0
  O  O192  1  0.76509221  0.19880751  0.05092643  1.0
  O  O193  1  0.23561711  0.94923840  0.80135529  1.0
  O  O194  1  0.23596763  0.79590014  0.94487931  1.0
  O  O195  1  0.76480942  0.05509562  0.20411377  1.0
  O  O196  1  0.63911298  0.93472681  0.93231952  1.0
  O  O197  1  0.65664335  0.20473924  0.20912899  1.0
  O  O198  1  0.36159032  0.06758568  0.06532783  1.0
  O  O199  1  0.34410646  0.79103841  0.79505191  1.0
  O  O200  1  0.49706086  0.05616730  0.79271685  1.0
  O  O201  1  0.49047324  0.78838618  0.05356279  1.0
  O  O202  1  0.51011131  0.94620342  0.21156645  1.0
  O  O203  1  0.50364063  0.20730442  0.94395530  1.0
  O  O204  1  0.39168721  0.94756476  0.84416843  1.0
  O  O205  1  0.60903472  0.15583258  0.05256130  1.0
  O  O206  1  0.39974918  0.95133241  0.05666267  1.0
  O  O207  1  0.60103048  0.94334434  0.04862110  1.0
  O  O208  1  0.58046786  0.03797188  0.11570647  1.0
  O  O209  1  0.42029807  0.88432995  0.96197425  1.0
  O  O210  1  0.42596825  0.04073798  0.96503195  1.0
  O  O211  1  0.57475004  0.03503059  0.95930122  1.0
