# generated using pymatgen
data_Zn4C24Cl12O13
_symmetry_space_group_name_H-M   'P 1'
_cell_length_a   18.65944089
_cell_length_b   18.65952333
_cell_length_c   18.65951813
_cell_angle_alpha   90.00025182
_cell_angle_beta   119.99978190
_cell_angle_gamma   119.99975752
_symmetry_Int_Tables_number   1
_chemical_formula_structural   Zn4C24Cl12O13
_chemical_formula_sum   'Zn8 C48 Cl24 O26'
_cell_volume   4593.95426175
_cell_formula_units_Z   2
loop_
 _symmetry_equiv_pos_site_id
 _symmetry_equiv_pos_as_xyz
  1  'x, y, z'
loop_
 _atom_site_type_symbol
 _atom_site_label
 _atom_site_symmetry_multiplicity
 _atom_site_fract_x
 _atom_site_fract_y
 _atom_site_fract_z
 _atom_site_occupancy
  Zn  Zn0  1  0.58580575  0.95710032  0.54290256  1.0
  Zn  Zn1  1  0.41419281  0.95709673  0.54289831  1.0
  Zn  Zn2  1  0.41420090  0.95710242  0.37129995  1.0
  Zn  Zn3  1  0.58579708  0.12869727  0.54289447  1.0
  Zn  Zn4  1  0.41419298  0.54289803  0.95709593  1.0
  Zn  Zn5  1  0.58579833  0.54289531  0.12869756  1.0
  Zn  Zn6  1  0.58580598  0.54290322  0.95709995  1.0
  Zn  Zn7  1  0.41420012  0.37130112  0.95710149  1.0
  C  C8  1  0.49999841  0.86273199  0.63726759  1.0
  C  C9  1  0.22546425  0.86273154  0.36272772  1.0
  C  C10  1  0.50000184  0.86273115  0.36273284  1.0
  C  C11  1  0.49999715  0.13726421  0.36273026  1.0
  C  C12  1  0.77453593  0.13727252  0.63726655  1.0
  C  C13  1  0.50000085  0.13726832  0.63726750  1.0
  C  C14  1  0.49999787  0.63726589  0.13726668  1.0
  C  C15  1  0.77453719  0.63726774  0.13726543  1.0
  C  C16  1  0.49999795  0.63726661  0.86272909  1.0
  C  C17  1  0.50000005  0.36273293  0.86273288  1.0
  C  C18  1  0.22546331  0.36272845  0.86273060  1.0
  C  C19  1  0.49999392  0.36272499  0.13726263  1.0
  C  C20  1  0.89000659  0.19500352  0.69500169  1.0
  C  C21  1  0.10999239  0.30499614  0.80499425  1.0
  C  C22  1  0.94623013  0.28805149  0.72311411  1.0
  C  C23  1  0.05376991  0.21194883  0.77688450  1.0
  C  C24  1  0.05377022  0.34182077  0.77688398  1.0
  C  C25  1  0.94622895  0.15817824  0.72311366  1.0
  C  C26  1  0.10999468  0.80499661  0.30499472  1.0
  C  C27  1  0.89000615  0.69500268  0.19500134  1.0
  C  C28  1  0.05376952  0.77688398  0.21194754  1.0
  C  C29  1  0.94622752  0.72311335  0.28804824  1.0
  C  C30  1  0.94622899  0.72311403  0.15817745  1.0
  C  C31  1  0.05377078  0.77688460  0.34181916  1.0
  C  C32  1  0.49999874  0.80499878  0.30499757  1.0
  C  C33  1  0.49999820  0.69500154  0.19500163  1.0
  C  C34  1  0.43506517  0.77688483  0.21194895  1.0
  C  C35  1  0.56493453  0.72311220  0.28804842  1.0
  C  C36  1  0.43506353  0.72311362  0.15817863  1.0
  C  C37  1  0.56493520  0.77688474  0.34182040  1.0
  C  C38  1  0.50000013  0.19500332  0.69500247  1.0
  C  C39  1  0.49999990  0.30499663  0.80499588  1.0
  C  C40  1  0.56493615  0.28805129  0.72311460  1.0
  C  C41  1  0.43506475  0.21194997  0.77688471  1.0
  C  C42  1  0.56493630  0.34182119  0.77688579  1.0
  C  C43  1  0.43506435  0.15817876  0.72311394  1.0
  C  C44  1  0.49999850  0.80499565  0.69500260  1.0
  C  C45  1  0.49999963  0.69500098  0.80499656  1.0
  C  C46  1  0.43506364  0.77688496  0.72311402  1.0
  C  C47  1  0.56493439  0.72311430  0.77688349  1.0
  C  C48  1  0.43506351  0.72311371  0.77688421  1.0
  C  C49  1  0.56493470  0.77688489  0.72311339  1.0
  C  C50  1  0.49999581  0.19500054  0.30499141  1.0
  C  C51  1  0.49999690  0.30499390  0.19499963  1.0
  C  C52  1  0.56493453  0.28804981  0.34181841  1.0
  C  C53  1  0.43506047  0.21194528  0.15817645  1.0
  C  C54  1  0.56493317  0.34181975  0.28804748  1.0
  C  C55  1  0.43506129  0.15817732  0.21194711  1.0
  Cl  Cl56  1  0.88943069  0.34249619  0.69471581  1.0
  Cl  Cl57  1  0.11056829  0.15750347  0.80528549  1.0
  Cl  Cl58  1  0.11056908  0.45306575  0.80528251  1.0
  Cl  Cl59  1  0.88943096  0.04693457  0.69471289  1.0
  Cl  Cl60  1  0.11056731  0.80528216  0.15750230  1.0
  Cl  Cl61  1  0.88942867  0.69471450  0.34249509  1.0
  Cl  Cl62  1  0.88943199  0.69471720  0.04693446  1.0
  Cl  Cl63  1  0.11056928  0.80528275  0.45306504  1.0
  Cl  Cl64  1  0.35222006  0.80528507  0.15750390  1.0
  Cl  Cl65  1  0.64777946  0.69471262  0.34249499  1.0
  Cl  Cl66  1  0.35221810  0.69471482  0.04693435  1.0
  Cl  Cl67  1  0.64778062  0.80528352  0.45306468  1.0
  Cl  Cl68  1  0.64777987  0.34249525  0.69471410  1.0
  Cl  Cl69  1  0.35222016  0.15750470  0.80528478  1.0
  Cl  Cl70  1  0.64778307  0.45306550  0.80528588  1.0
  Cl  Cl71  1  0.35221882  0.04693445  0.69471500  1.0
  Cl  Cl72  1  0.35221801  0.80528453  0.69471600  1.0
  Cl  Cl73  1  0.64778089  0.69471604  0.80528355  1.0
  Cl  Cl74  1  0.35221738  0.69471357  0.80528305  1.0
  Cl  Cl75  1  0.64778039  0.80528437  0.69471433  1.0
  Cl  Cl76  1  0.64777923  0.34249310  0.45306241  1.0
  Cl  Cl77  1  0.35221843  0.15750135  0.04693324  1.0
  Cl  Cl78  1  0.64777906  0.45306471  0.34249389  1.0
  Cl  Cl79  1  0.35221610  0.04693433  0.15750105  1.0
  O  O80  1  0.49999859  0.99999658  0.49999982  1.0
  O  O81  1  0.56023948  0.88511920  0.61488129  1.0
  O  O82  1  0.27023897  0.88511742  0.44536147  1.0
  O  O83  1  0.43975855  0.88511974  0.32487974  1.0
  O  O84  1  0.43975878  0.88512057  0.61488188  1.0
  O  O85  1  0.56024407  0.88511965  0.44536216  1.0
  O  O86  1  0.27023765  0.88512139  0.32487807  1.0
  O  O87  1  0.43975968  0.05464191  0.32487653  1.0
  O  O88  1  0.72976044  0.17512042  0.61487852  1.0
  O  O89  1  0.56023824  0.17511924  0.44535852  1.0
  O  O90  1  0.72976151  0.05463972  0.61488030  1.0
  O  O91  1  0.43976061  0.05464472  0.61487957  1.0
  O  O92  1  0.56024424  0.17512076  0.61488241  1.0
  O  O93  1  0.49999962  0.50000202  0.99999725  1.0
  O  O94  1  0.43975863  0.61488002  0.05463993  1.0
  O  O95  1  0.72975823  0.61487790  0.17512089  1.0
  O  O96  1  0.56024067  0.61487803  0.88511687  1.0
  O  O97  1  0.56023825  0.61487665  0.17511994  1.0
  O  O98  1  0.43975873  0.61487940  0.88511791  1.0
  O  O99  1  0.72976408  0.61488056  0.05464106  1.0
  O  O100  1  0.56024168  0.44536048  0.88511937  1.0
  O  O101  1  0.27023854  0.32487924  0.88512278  1.0
  O  O102  1  0.43976019  0.32488115  0.88512081  1.0
  O  O103  1  0.27023704  0.44535929  0.88511490  1.0
  O  O104  1  0.56024042  0.44535712  0.17511873  1.0
  O  O105  1  0.43975491  0.32487586  0.05463970  1.0
