# generated using pymatgen
data_CuH6C11N3O4
_symmetry_space_group_name_H-M   'P 1'
_cell_length_a   4.77606666
_cell_length_b   10.78864638
_cell_length_c   27.72190134
_cell_angle_alpha   90.00049540
_cell_angle_beta   90.00088396
_cell_angle_gamma   95.43135936
_symmetry_Int_Tables_number   1
_chemical_formula_structural   CuH6C11N3O4
_chemical_formula_sum   'Cu4 H24 C44 N12 O16'
_cell_volume   1422.02133654
_cell_formula_units_Z   4
loop_
 _symmetry_equiv_pos_site_id
 _symmetry_equiv_pos_as_xyz
  1  'x, y, z'
loop_
 _atom_site_type_symbol
 _atom_site_label
 _atom_site_symmetry_multiplicity
 _atom_site_fract_x
 _atom_site_fract_y
 _atom_site_fract_z
 _atom_site_occupancy
  Cu  Cu0  1  0.61016989  0.41094901  0.81446367  1.0
  Cu  Cu1  1  0.38982349  0.08906686  0.31446683  1.0
  Cu  Cu2  1  0.38982667  0.58905106  0.18553604  1.0
  Cu  Cu3  1  0.61017666  0.91093972  0.68553396  1.0
  H  H4  1  0.94156882  0.28270305  0.88145280  1.0
  H  H5  1  0.05841668  0.21729784  0.38145480  1.0
  H  H6  1  0.05842479  0.71729330  0.11854727  1.0
  H  H7  1  0.94157988  0.78270222  0.61854671  1.0
  H  H8  1  0.52278087  0.60192113  0.88914201  1.0
  H  H9  1  0.47721923  0.89808530  0.38914284  1.0
  H  H10  1  0.47721735  0.39807706  0.11085805  1.0
  H  H11  1  0.52277271  0.10191292  0.61085615  1.0
  H  H12  1  0.70283111  0.64984806  0.97145992  1.0
  H  H13  1  0.29716847  0.85015124  0.47145938  1.0
  H  H14  1  0.29716899  0.35014919  0.02853979  1.0
  H  H15  1  0.70282304  0.14984512  0.52853996  1.0
  H  H16  1  0.13986103  0.31590089  0.96298048  1.0
  H  H17  1  0.86012221  0.18409472  0.46298123  1.0
  H  H18  1  0.86012840  0.68409547  0.03701923  1.0
  H  H19  1  0.13987579  0.81590255  0.53701956  1.0
  H  H20  1  0.76167546  0.48790076  0.70840237  1.0
  H  H21  1  0.23831961  0.01210017  0.20840487  1.0
  H  H22  1  0.23833386  0.51210020  0.29159698  1.0
  H  H23  1  0.76167550  0.98790269  0.79159772  1.0
  H  H24  1  0.56257842  0.40033034  0.62967215  1.0
  H  H25  1  0.43742349  0.09965823  0.12967547  1.0
  H  H26  1  0.43743487  0.59966967  0.37032683  1.0
  H  H27  1  0.56256491  0.90034279  0.87032640  1.0
  C  C28  1  0.30683752  0.18327095  0.79687571  1.0
  C  C29  1  0.69319815  0.31675363  0.29687611  1.0
  C  C30  1  0.69317389  0.81673000  0.20312328  1.0
  C  C31  1  0.30681959  0.68325662  0.70312432  1.0
  C  C32  1  0.36212557  0.24289813  0.74808702  1.0
  C  C33  1  0.63788146  0.25710289  0.24809068  1.0
  C  C34  1  0.63788375  0.75710283  0.25191124  1.0
  C  C35  1  0.36212432  0.74290088  0.75191119  1.0
  C  C36  1  0.61364666  0.40465893  0.70698799  1.0
  C  C37  1  0.38634785  0.09534011  0.20699260  1.0
  C  C38  1  0.38636476  0.59534202  0.29301063  1.0
  C  C39  1  0.61364747  0.90466369  0.79300999  1.0
  C  C40  1  0.50398078  0.35435354  0.66375443  1.0
  C  C41  1  0.49601666  0.14563875  0.16375698  1.0
  C  C42  1  0.49602875  0.64564835  0.33624491  1.0
  C  C43  1  0.50397946  0.85435946  0.83624489  1.0
  C  C44  1  0.25549679  0.19487911  0.70422797  1.0
  C  C45  1  0.74451564  0.30511700  0.20423099  1.0
  C  C46  1  0.74450646  0.80512280  0.29577029  1.0
  C  C47  1  0.25548698  0.69488211  0.79576980  1.0
  C  C48  1  0.06929769  0.07414633  0.69972892  1.0
  C  C49  1  0.93071158  0.42584687  0.19973247  1.0
  C  C50  1  0.93070600  0.92585744  0.30026935  1.0
  C  C51  1  0.06929313  0.57415224  0.80026832  1.0
  C  C52  1  0.89147834  0.36190872  0.90309677  1.0
  C  C53  1  0.10850649  0.13808995  0.40309899  1.0
  C  C54  1  0.10851296  0.63808670  0.09690294  1.0
  C  C55  1  0.89148545  0.86190826  0.59690216  1.0
  C  C56  1  0.65900570  0.54082716  0.90736992  1.0
  C  C57  1  0.34099277  0.95917417  0.40737059  1.0
  C  C58  1  0.34099021  0.45917011  0.09262979  1.0
  C  C59  1  0.65899896  0.04082311  0.59262912  1.0
  C  C60  1  0.76251933  0.56668840  0.95349644  1.0
  C  C61  1  0.23747686  0.93331230  0.45349603  1.0
  C  C62  1  0.23747637  0.43330794  0.04650326  1.0
  C  C63  1  0.76251465  0.06668406  0.54650368  1.0
  C  C64  1  0.00236977  0.38227981  0.94897921  1.0
  C  C65  1  0.99761025  0.11771637  0.44898046  1.0
  C  C66  1  0.99762132  0.61771469  0.05102086  1.0
  C  C67  1  0.00238127  0.88227998  0.55102033  1.0
  C  C68  1  0.94077514  0.48718343  0.97561552  1.0
  C  C69  1  0.05921811  0.01281435  0.47561575  1.0
  C  C70  1  0.05921825  0.51281199  0.02438383  1.0
  C  C71  1  0.94077802  0.98718386  0.52438396  1.0
  N  N72  1  0.53886532  0.34784509  0.74842651  1.0
  N  N73  1  0.46113380  0.15215783  0.24842827  1.0
  N  N74  1  0.46113982  0.65215588  0.25157319  1.0
  N  N75  1  0.53886758  0.84784502  0.75157288  1.0
  N  N76  1  0.32664905  0.25101561  0.66198250  1.0
  N  N77  1  0.67335032  0.24897663  0.16198406  1.0
  N  N78  1  0.67335695  0.74898909  0.33801720  1.0
  N  N79  1  0.32664623  0.75102344  0.83801564  1.0
  N  N80  1  0.72302340  0.44018899  0.88264858  1.0
  N  N81  1  0.27696725  0.05981565  0.38264990  1.0
  N  N82  1  0.27696812  0.55980737  0.11735184  1.0
  N  N83  1  0.72302490  0.94018350  0.61735052  1.0
  O  O84  1  0.43173860  0.24298053  0.83263975  1.0
  O  O85  1  0.56826929  0.25703670  0.33264287  1.0
  O  O86  1  0.56826987  0.75701670  0.16735851  1.0
  O  O87  1  0.43173692  0.74296892  0.66735828  1.0
  O  O88  1  0.15708491  0.08291326  0.80033362  1.0
  O  O89  1  0.84292252  0.41708728  0.30033150  1.0
  O  O90  1  0.84292356  0.91708397  0.19966537  1.0
  O  O91  1  0.15708514  0.58291555  0.69966820  1.0
  O  O92  1  0.80440466  0.07905112  0.70508955  1.0
  O  O93  1  0.19560636  0.42093850  0.20509260  1.0
  O  O94  1  0.19559967  0.92095545  0.29490691  1.0
  O  O95  1  0.80439626  0.57906061  0.79490819  1.0
  O  O96  1  0.18062553  0.97854420  0.68708463  1.0
  O  O97  1  0.81938653  0.52144752  0.18708869  1.0
  O  O98  1  0.81937543  0.02145678  0.31291508  1.0
  O  O99  1  0.18061378  0.47855067  0.81291246  1.0
