# generated using pymatgen
data_ZnH10C24N2(ClO3)2
_symmetry_space_group_name_H-M   'P 1'
_cell_length_a   9.24212639
_cell_length_b   10.94534539
_cell_length_c   23.68266143
_cell_angle_alpha   86.01365972
_cell_angle_beta   78.80086030
_cell_angle_gamma   66.47426297
_symmetry_Int_Tables_number   1
_chemical_formula_structural   ZnH10C24N2(ClO3)2
_chemical_formula_sum   'Zn2 H20 C48 N4 Cl4 O12'
_cell_volume   2154.65642115
_cell_formula_units_Z   2
loop_
 _symmetry_equiv_pos_site_id
 _symmetry_equiv_pos_as_xyz
  1  'x, y, z'
loop_
 _atom_site_type_symbol
 _atom_site_label
 _atom_site_symmetry_multiplicity
 _atom_site_fract_x
 _atom_site_fract_y
 _atom_site_fract_z
 _atom_site_occupancy
  Zn  Zn0  1  0.69373774  0.43460706  0.48682303  1.0
  Zn  Zn1  1  0.34454766  0.55595016  0.50964396  1.0
  H  H2  1  0.54790906  0.78038430  0.93186131  1.0
  H  H3  1  0.54958929  0.78169156  0.03865421  1.0
  H  H4  1  0.87962296  0.68718926  0.31864809  1.0
  H  H5  1  0.85191284  0.49609894  0.37712327  1.0
  H  H6  1  0.95421443  0.33592989  0.55779276  1.0
  H  H7  1  0.43056382  0.21087809  0.06841759  1.0
  H  H8  1  0.42969558  0.20949130  0.96156136  1.0
  H  H9  1  0.24572306  0.56078478  0.23634339  1.0
  H  H10  1  0.25977845  0.56322526  0.34078418  1.0
  H  H11  1  0.77292166  0.42299649  0.29824225  1.0
  H  H12  1  0.75938769  0.42658762  0.19353053  1.0
  H  H13  1  0.74073784  0.46655725  0.66105259  1.0
  H  H14  1  0.73811572  0.46977184  0.76692758  1.0
  H  H15  1  0.24926277  0.51061923  0.69530396  1.0
  H  H16  1  0.24555700  0.51238165  0.80134397  1.0
  H  H17  1  0.50837114  0.78393741  0.39618811  1.0
  H  H18  1  0.52859432  0.90220813  0.30409702  1.0
  H  H19  1  0.57093984  0.21713105  0.38988447  1.0
  H  H20  1  0.54890839  0.08555842  0.58847808  1.0
  H  H21  1  0.15558107  0.42676307  0.57652546  1.0
  C  C22  1  0.50292434  0.73415970  0.50217860  1.0
  C  C23  1  0.46998413  0.39020115  0.12753443  1.0
  C  C24  1  0.36051216  0.53257260  0.25017951  1.0
  C  C25  1  0.52280492  0.49765298  0.38831977  1.0
  C  C26  1  0.36835025  0.53367359  0.30820345  1.0
  C  C27  1  0.51653160  0.49567553  0.32566657  1.0
  C  C28  1  0.65773459  0.45546197  0.28431651  1.0
  C  C29  1  0.65048290  0.45608493  0.22613694  1.0
  C  C30  1  0.50187084  0.49478008  0.20945261  1.0
  C  C31  1  0.63194034  0.47733351  0.75099157  1.0
  C  C32  1  0.63338078  0.47561386  0.69220169  1.0
  C  C33  1  0.53152365  0.70168410  0.95980068  1.0
  C  C34  1  0.49569198  0.48694957  0.67207630  1.0
  C  C35  1  0.35582068  0.50076098  0.71153880  1.0
  C  C36  1  0.35361465  0.50241855  0.77039923  1.0
  C  C37  1  0.55936756  0.24554213  0.49707746  1.0
  C  C38  1  0.49183753  0.49059366  0.78976606  1.0
  C  C39  1  0.52203511  0.87848467  0.39534967  1.0
  C  C40  1  0.53326648  0.94381619  0.34386964  1.0
  C  C41  1  0.55054514  0.06677959  0.34249218  1.0
  C  C42  1  0.55643765  0.12285494  0.39191967  1.0
  C  C43  1  0.54499239  0.05715492  0.44536903  1.0
  C  C44  1  0.53241570  0.70242618  0.01902650  1.0
  C  C45  1  0.52793009  0.93234806  0.44740103  1.0
  C  C46  1  0.51604353  0.86649104  0.50116571  1.0
  C  C47  1  0.52442684  0.92212007  0.55045021  1.0
  C  C48  1  0.54274455  0.04442386  0.54883173  1.0
  C  C49  1  0.49781056  0.48556794  0.60874819  1.0
  C  C50  1  0.55119281  0.11118152  0.49753457  1.0
  C  C51  1  0.03446875  0.72236477  0.43321966  1.0
  C  C52  1  0.97882224  0.74876691  0.38126595  1.0
  C  C53  1  0.92105468  0.66274751  0.35960807  1.0
  C  C54  1  0.90829958  0.55623316  0.39109351  1.0
  C  C55  1  0.51206720  0.60108905  0.05405882  1.0
  C  C56  1  0.95934691  0.52894394  0.44476431  1.0
  C  C57  1  0.03757646  0.60420977  0.46348136  1.0
  C  C58  1  0.08994497  0.46262225  0.54109306  1.0
  C  C59  1  0.98713390  0.40578759  0.52854441  1.0
  C  C60  1  0.46729218  0.38670974  0.88376013  1.0
  C  C61  1  0.51084170  0.60025718  0.87266665  1.0
  C  C62  1  0.51030763  0.59949687  0.93539509  1.0
  C  C63  1  0.48859313  0.49545561  0.97019809  1.0
  C  C64  1  0.46681439  0.39032855  0.94631912  1.0
  C  C65  1  0.48924741  0.49629694  0.03029012  1.0
  C  C66  1  0.46777858  0.39200791  0.06500544  1.0
  C  C67  1  0.44624260  0.28998507  0.04057550  1.0
  C  C68  1  0.44584603  0.28914092  0.98131614  1.0
  C  C69  1  0.51547229  0.60292272  0.11635542  1.0
  N  N70  1  0.48989028  0.49254590  0.85079893  1.0
  N  N71  1  0.49514015  0.49600654  0.14893750  1.0
  N  N72  1  0.11255768  0.56128098  0.50988590  1.0
  N  N73  1  0.92633337  0.43603209  0.48063289  1.0
  Cl  Cl74  1  0.51679391  0.84104112  0.61582172  1.0
  Cl  Cl75  1  0.56284999  0.14699967  0.27722839  1.0
  Cl  Cl76  1  0.09247178  0.83006641  0.46177867  1.0
  Cl  Cl77  1  0.97910585  0.88574707  0.34184000  1.0
  O  O78  1  0.62974446  0.63870185  0.47951230  1.0
  O  O79  1  0.63099521  0.46618602  0.57532317  1.0
  O  O80  1  0.36590898  0.50446893  0.59292220  1.0
  O  O81  1  0.44987900  0.29699489  0.86120841  1.0
  O  O82  1  0.52822371  0.68883587  0.84092234  1.0
  O  O83  1  0.53504908  0.69122893  0.13916896  1.0
  O  O84  1  0.45232579  0.30208414  0.15956125  1.0
  O  O85  1  0.36927376  0.72779541  0.52340636  1.0
  O  O86  1  0.65770459  0.43110252  0.40357491  1.0
  O  O87  1  0.39276012  0.56607572  0.42154461  1.0
  O  O88  1  0.69420233  0.24956685  0.49903407  1.0
  O  O89  1  0.42900169  0.34460071  0.49428163  1.0
