# generated using pymatgen
data_Zn4H18C27O13
_symmetry_space_group_name_H-M   'P 1'
_cell_length_a   18.27745668
_cell_length_b   18.36140349
_cell_length_c   18.34082927
_cell_angle_alpha   119.60810835
_cell_angle_beta   119.85417299
_cell_angle_gamma   60.30753286
_symmetry_Int_Tables_number   1
_chemical_formula_structural   Zn4H18C27O13
_chemical_formula_sum   'Zn8 H36 C54 O26'
_cell_volume   4380.07971532
_cell_formula_units_Z   2
loop_
 _symmetry_equiv_pos_site_id
 _symmetry_equiv_pos_as_xyz
  1  'x, y, z'
loop_
 _atom_site_type_symbol
 _atom_site_label
 _atom_site_symmetry_multiplicity
 _atom_site_fract_x
 _atom_site_fract_y
 _atom_site_fract_z
 _atom_site_occupancy
  Zn  Zn0  1  0.15048116  0.93821104  0.04242630  1.0
  Zn  Zn1  1  0.97737295  0.93287952  0.04148738  1.0
  Zn  Zn2  1  0.97785903  0.93209224  0.86674487  1.0
  Zn  Zn3  1  0.97251924  0.10780711  0.03802122  1.0
  Zn  Zn4  1  0.39174614  0.52189372  0.45518007  1.0
  Zn  Zn5  1  0.56555211  0.51970042  0.45357044  1.0
  Zn  Zn6  1  0.56124363  0.34536878  0.45170707  1.0
  Zn  Zn7  1  0.56481970  0.51962427  0.62817789  1.0
  H  H8  1  0.33321892  0.82276961  0.24906214  1.0
  H  H9  1  0.42688368  0.72209594  0.34163359  1.0
  H  H10  1  0.18033266  0.61792341  0.27417949  1.0
  H  H11  1  0.14220594  0.59487154  0.15712184  1.0
  H  H12  1  0.24930446  0.52996616  0.21207188  1.0
  H  H13  1  0.12182671  0.71809776  0.13670870  1.0
  H  H14  1  0.34062196  0.75456771  0.91076559  1.0
  H  H15  1  0.43308834  0.66006427  0.81044797  1.0
  H  H16  1  0.17980496  0.66776946  0.51700140  1.0
  H  H17  1  0.11894808  0.78298840  0.55513158  1.0
  H  H18  1  0.22297839  0.74695754  0.54141351  1.0
  H  H19  1  0.11227142  0.82315632  0.69003897  1.0
  H  H20  1  0.32514953  0.07809089  0.17732559  1.0
  H  H21  1  0.42031634  0.17609632  0.27809613  1.0
  H  H22  1  0.16727350  0.46702341  0.34059018  1.0
  H  H23  1  0.11687873  0.42392407  0.36541916  1.0
  H  H24  1  0.22327920  0.43742109  0.43731910  1.0
  H  H25  1  0.10211024  0.29395801  0.25218302  1.0
  H  H26  1  0.79623158  0.79350285  0.90541307  1.0
  H  H27  1  0.70225149  0.69428832  0.80519444  1.0
  H  H28  1  0.73931755  0.62219667  0.51681748  1.0
  H  H29  1  0.85739612  0.59905951  0.56375272  1.0
  H  H30  1  0.80858968  0.52804512  0.55058257  1.0
  H  H31  1  0.88699966  0.71341749  0.69330845  1.0
  H  H32  1  0.84362107  0.06853284  0.22861263  1.0
  H  H33  1  0.74409603  0.16834877  0.32189051  1.0
  H  H34  1  0.67190509  0.45553108  0.28269237  1.0
  H  H35  1  0.64459188  0.40991787  0.16475684  1.0
  H  H36  1  0.57574367  0.42407943  0.21655718  1.0
  H  H37  1  0.75910239  0.27947115  0.13427604  1.0
  H  H38  1  0.78205294  0.06596750  0.67967126  1.0
  H  H39  1  0.68800386  0.16582356  0.58611727  1.0
  H  H40  1  0.72765288  0.45317095  0.84012707  1.0
  H  H41  1  0.84636101  0.40654925  0.88069869  1.0
  H  H42  1  0.78980482  0.42284678  0.77514750  1.0
  H  H43  1  0.87469346  0.27764878  0.89833281  1.0
  C  C44  1  0.16268019  0.83833973  0.13527857  1.0
  C  C45  1  0.22123931  0.77714382  0.18898109  1.0
  C  C46  1  0.30799034  0.77789518  0.24536982  1.0
  C  C47  1  0.35962830  0.72196211  0.29629208  1.0
  C  C48  1  0.32640215  0.66459477  0.29154365  1.0
  C  C49  1  0.38456039  0.61098850  0.35289258  1.0
  C  C50  1  0.24004573  0.66063749  0.23214337  1.0
  C  C51  1  0.20089768  0.59738025  0.21798177  1.0
  C  C52  1  0.18897170  0.71845172  0.18247365  1.0
  C  C53  1  0.16264868  0.84801356  0.86263971  1.0
  C  C54  1  0.22041869  0.79347248  0.80541399  1.0
  C  C55  1  0.31138568  0.74848866  0.84061520  1.0
  C  C56  1  0.36239302  0.69627899  0.78487909  1.0
  C  C57  1  0.32453699  0.68776791  0.69410334  1.0
  C  C58  1  0.38392062  0.62655564  0.63858753  1.0
  C  C59  1  0.23290836  0.73469240  0.65805760  1.0
  C  C60  1  0.18607169  0.73321540  0.56288445  1.0
  C  C61  1  0.18296574  0.78662902  0.71558608  1.0
  C  C62  1  0.15007768  0.12396314  0.14523022  1.0
  C  C63  1  0.20752712  0.18134820  0.20785920  1.0
  C  C64  1  0.29779994  0.14675447  0.21573890  1.0
  C  C65  1  0.35019856  0.20112606  0.27151676  1.0
  C  C66  1  0.31416439  0.29010487  0.31985386  1.0
  C  C67  1  0.37451547  0.34479136  0.37249422  1.0
  C  C68  1  0.22371868  0.32523727  0.31491157  1.0
  C  C69  1  0.18051169  0.41828225  0.36754567  1.0
  C  C70  1  0.17212137  0.26908237  0.25804953  1.0
  C  C71  1  0.89544530  0.82504941  0.86028729  1.0
  C  C72  1  0.84492674  0.76093703  0.80377409  1.0
  C  C73  1  0.79494880  0.75429347  0.83708086  1.0
  C  C74  1  0.74318055  0.69923832  0.78151608  1.0
  C  C75  1  0.74026884  0.65022480  0.69280103  1.0
  C  C76  1  0.67551008  0.60009910  0.63581847  1.0
  C  C77  1  0.79427511  0.65255849  0.65972605  1.0
  C  C78  1  0.80037160  0.59744044  0.56785213  1.0
  C  C79  1  0.84551487  0.70894977  0.71682186  1.0
  C  C80  1  0.86954154  0.11207590  0.12366449  1.0
  C  C81  1  0.80817796  0.16914797  0.17718319  1.0
  C  C82  1  0.80357537  0.13652017  0.22903066  1.0
  C  C83  1  0.74848624  0.19202468  0.28069193  1.0
  C  C84  1  0.69815095  0.28023312  0.28228163  1.0
  C  C85  1  0.64589881  0.33689068  0.34485403  1.0
  C  C86  1  0.70015167  0.31341412  0.22828573  1.0
  C  C87  1  0.64509141  0.40551106  0.22255572  1.0
  C  C88  1  0.75579210  0.25611703  0.17652276  1.0
  C  C89  1  0.88601570  0.11070303  0.85372717  1.0
  C  C90  1  0.83230737  0.16721916  0.79527345  1.0
  C  C91  1  0.78103533  0.13412406  0.70658409  1.0
  C  C92  1  0.72897535  0.18957491  0.65510157  1.0
  C  C93  1  0.72685694  0.27789343  0.69075914  1.0
  C  C94  1  0.66419025  0.33460093  0.63255372  1.0
  C  C95  1  0.78085348  0.31127059  0.77921618  1.0
  C  C96  1  0.78666909  0.40325673  0.82094138  1.0
  C  C97  1  0.83262022  0.25420511  0.82974311  1.0
  O  O98  1  0.01958733  0.97759528  0.99725551  1.0
  O  O99  1  0.07906638  0.85043596  0.10396026  1.0
  O  O100  1  0.20084681  0.87358209  0.12526963  1.0
  O  O101  1  0.46879153  0.59554202  0.38138927  1.0
  O  O102  1  0.34549950  0.58618119  0.37373506  1.0
  O  O103  1  0.07860966  0.87682968  0.82313183  1.0
  O  O104  1  0.20183437  0.86100719  0.94619253  1.0
  O  O105  1  0.46834977  0.60174596  0.67923909  1.0
  O  O106  1  0.34581256  0.60229854  0.55426199  1.0
  O  O107  1  0.06587365  0.16091030  0.13061377  1.0
  O  O108  1  0.19032298  0.04215817  0.11053114  1.0
  O  O109  1  0.45864484  0.30331904  0.39434565  1.0
  O  O110  1  0.33740256  0.42871158  0.38957459  1.0
  O  O111  1  0.92579039  0.84023061  0.82145876  1.0
  O  O112  1  0.90289353  0.86049976  0.94248935  1.0
  O  O113  1  0.65223525  0.57857929  0.67569901  1.0
  O  O114  1  0.64637828  0.58495656  0.55206300  1.0
  O  O115  1  0.87930517  0.14956713  0.08757439  1.0
  O  O116  1  0.90801044  0.03044112  0.11882456  1.0
  O  O117  1  0.61950014  0.29761777  0.36387565  1.0
  O  O118  1  0.63350913  0.41993339  0.37596034  1.0
  O  O119  1  0.92122240  0.14902560  0.93652395  1.0
  O  O120  1  0.89207739  0.02883121  0.81674886  1.0
  O  O121  1  0.64641657  0.29527182  0.54855218  1.0
  O  O122  1  0.63183464  0.41749945  0.67123197  1.0
  O  O123  1  0.52218682  0.47587668  0.49756007  1.0
