# generated using pymatgen
data_ZnH8C18(NO4)3
_symmetry_space_group_name_H-M   'P 1'
_cell_length_a   9.78112268
_cell_length_b   10.84374940
_cell_length_c   19.51874852
_cell_angle_alpha   86.56300414
_cell_angle_beta   83.58373118
_cell_angle_gamma   86.25058203
_symmetry_Int_Tables_number   1
_chemical_formula_structural   ZnH8C18(NO4)3
_chemical_formula_sum   'Zn2 H16 C36 N6 O24'
_cell_volume   2049.97154083
_cell_formula_units_Z   2
loop_
 _symmetry_equiv_pos_site_id
 _symmetry_equiv_pos_as_xyz
  1  'x, y, z'
loop_
 _atom_site_type_symbol
 _atom_site_label
 _atom_site_symmetry_multiplicity
 _atom_site_fract_x
 _atom_site_fract_y
 _atom_site_fract_z
 _atom_site_occupancy
  Zn  Zn0  1  0.64603662  0.49163646  0.47732994  1.0
  Zn  Zn1  1  0.34937543  0.50310887  0.52411683  1.0
  H  H2  1  0.29641988  0.10783228  0.57297838  1.0
  H  H3  1  0.68284396  0.88694475  0.43265604  1.0
  H  H4  1  0.30484149  0.87741388  0.56815798  1.0
  H  H5  1  0.67633688  0.11691503  0.43872336  1.0
  H  H6  1  0.25492347  0.52461646  0.16069884  1.0
  H  H7  1  0.75751280  0.42623371  0.83866392  1.0
  H  H8  1  0.35148912  0.61092247  0.84288891  1.0
  H  H9  1  0.66383681  0.34690607  0.15979138  1.0
  H  H10  1  0.69967867  0.48958242  0.07121787  1.0
  H  H11  1  0.31429354  0.45692027  0.92941501  1.0
  H  H12  1  0.73959871  0.52243818  0.94483624  1.0
  H  H13  1  0.27440383  0.42340142  0.05591007  1.0
  H  H14  1  0.15697914  0.87973144  0.48363673  1.0
  H  H15  1  0.82855353  0.12174141  0.51834680  1.0
  H  H16  1  0.23316896  0.34492497  0.66983207  1.0
  H  H17  1  0.76754059  0.66441075  0.32677607  1.0
  C  C18  1  0.49209371  0.86916243  0.49865165  1.0
  C  C19  1  0.48791204  0.12553203  0.50734884  1.0
  C  C20  1  0.48474524  0.26279946  0.51035664  1.0
  C  C21  1  0.49437829  0.73220849  0.49426381  1.0
  C  C22  1  0.56681244  0.51744055  0.62729052  1.0
  C  C23  1  0.45148592  0.46780896  0.37160096  1.0
  C  C24  1  0.38097135  0.05900676  0.54259486  1.0
  C  C25  1  0.59888868  0.93576037  0.46342115  1.0
  C  C26  1  0.38381613  0.93119649  0.53872096  1.0
  C  C27  1  0.59684618  0.06338327  0.46790148  1.0
  C  C28  1  0.32949208  0.48026295  0.25871020  1.0
  C  C29  1  0.68715353  0.48573672  0.74160408  1.0
  C  C30  1  0.46306684  0.58104459  0.74434880  1.0
  C  C31  1  0.55544695  0.38864465  0.25751445  1.0
  C  C32  1  0.34085132  0.48304369  0.18674644  1.0
  C  C33  1  0.67274861  0.47255686  0.81358425  1.0
  C  C34  1  0.44619225  0.57160103  0.81578588  1.0
  C  C35  1  0.56925247  0.38782415  0.18620739  1.0
  C  C36  1  0.46300273  0.43998408  0.14902245  1.0
  C  C37  1  0.55053310  0.51288439  0.85203604  1.0
  C  C38  1  0.06385435  0.60325637  0.47716861  1.0
  C  C39  1  0.93127672  0.39590815  0.52037089  1.0
  C  C40  1  0.05551821  0.42162619  0.54472109  1.0
  C  C41  1  0.93960228  0.57758053  0.45268359  1.0
  C  C42  1  0.43871128  0.43990231  0.29711834  1.0
  C  C43  1  0.58042692  0.53411282  0.70347310  1.0
  C  C44  1  0.61535568  0.48001645  0.04012256  1.0
  C  C45  1  0.39856479  0.46611518  0.96059700  1.0
  C  C46  1  0.63779812  0.49896229  0.96880750  1.0
  C  C47  1  0.37614834  0.44697841  0.03193592  1.0
  C  C48  1  0.52948334  0.49302309  0.92776510  1.0
  C  C49  1  0.48412893  0.45418366  0.07304749  1.0
  C  C50  1  0.13491391  0.72114559  0.45272439  1.0
  C  C51  1  0.85856537  0.28003282  0.54707140  1.0
  C  C52  1  0.11393943  0.33697411  0.59954422  1.0
  C  C53  1  0.88028109  0.66567814  0.39962312  1.0
  N  N54  1  0.87313541  0.47526529  0.47488081  1.0
  N  N55  1  0.12237684  0.52325961  0.52208644  1.0
  N  N56  1  0.19209804  0.52484629  0.29136140  1.0
  N  N57  1  0.82591325  0.44583652  0.70907833  1.0
  N  N58  1  0.35077096  0.65237726  0.71168250  1.0
  N  N59  1  0.67198676  0.32481017  0.29065753  1.0
  O  O60  1  0.59843698  0.31445744  0.49604886  1.0
  O  O61  1  0.38451618  0.67988840  0.51857674  1.0
  O  O62  1  0.60435632  0.67727633  0.46711850  1.0
  O  O63  1  0.36758411  0.31850703  0.52646928  1.0
  O  O64  1  0.66737930  0.53037937  0.58176559  1.0
  O  O65  1  0.34601914  0.48287618  0.41402110  1.0
  O  O66  1  0.57635932  0.47786755  0.38211663  1.0
  O  O67  1  0.44694150  0.48720711  0.61835016  1.0
  O  O68  1  0.20816363  0.73244390  0.39859640  1.0
  O  O69  1  0.10483739  0.80706221  0.49979008  1.0
  O  O70  1  0.78811329  0.27193419  0.60222848  1.0
  O  O71  1  0.88319051  0.19223867  0.50091035  1.0
  O  O72  1  0.09411605  0.22711894  0.60714075  1.0
  O  O73  1  0.18584553  0.40158749  0.63807045  1.0
  O  O74  1  0.89541895  0.77657702  0.39650365  1.0
  O  O75  1  0.81359724  0.60437688  0.35737785  1.0
  O  O76  1  0.13226246  0.45398468  0.33489485  1.0
  O  O77  1  0.14448588  0.62617427  0.26927811  1.0
  O  O78  1  0.88057706  0.51727072  0.66401970  1.0
  O  O79  1  0.88031762  0.34831124  0.73241566  1.0
  O  O80  1  0.38596463  0.73729773  0.66962305  1.0
  O  O81  1  0.23100942  0.62727907  0.73217465  1.0
  O  O82  1  0.64343687  0.23526242  0.33071999  1.0
  O  O83  1  0.78870611  0.35920218  0.27146040  1.0
