# generated using pymatgen
data_AlH12C13O5
_symmetry_space_group_name_H-M   'P 1'
_cell_length_a   6.64198563
_cell_length_b   16.44547456
_cell_length_c   17.72483807
_cell_angle_alpha   89.96102899
_cell_angle_beta   89.91701677
_cell_angle_gamma   85.30299144
_symmetry_Int_Tables_number   1
_chemical_formula_structural   AlH12C13O5
_chemical_formula_sum   'Al4 H48 C52 O20'
_cell_volume   1929.59041048
_cell_formula_units_Z   4
loop_
 _symmetry_equiv_pos_site_id
 _symmetry_equiv_pos_as_xyz
  1  'x, y, z'
loop_
 _atom_site_type_symbol
 _atom_site_label
 _atom_site_symmetry_multiplicity
 _atom_site_fract_x
 _atom_site_fract_y
 _atom_site_fract_z
 _atom_site_occupancy
  Al  Al0  1  0.22587319  0.72310616  0.74929368  1.0
  Al  Al1  1  0.77492373  0.27593356  0.24925037  1.0
  Al  Al2  1  0.72073639  0.72564218  0.75020340  1.0
  Al  Al3  1  0.27926139  0.27607696  0.25003061  1.0
  H  H4  1  0.66735075  0.94385674  0.86472523  1.0
  H  H5  1  0.30960628  0.06698554  0.12930005  1.0
  H  H6  1  0.34370551  0.05416990  0.36194200  1.0
  H  H7  1  0.66245760  0.94152745  0.63600741  1.0
  H  H8  1  0.10443589  0.06247051  0.92768671  1.0
  H  H9  1  0.00339357  0.97456954  0.89145966  1.0
  H  H10  1  0.08033897  0.05046750  0.82864665  1.0
  H  H11  1  0.70495138  0.06388785  0.83881065  1.0
  H  H12  1  0.80595173  0.15023884  0.87537464  1.0
  H  H13  1  0.25746040  0.83587695  0.16114133  1.0
  H  H14  1  0.34256981  0.93036965  0.18991804  1.0
  H  H15  1  0.09364903  0.90615834  0.21316799  1.0
  H  H16  1  0.07462158  0.00408446  0.10596181  1.0
  H  H17  1  0.99779039  0.91056128  0.07657673  1.0
  H  H18  1  0.90016477  0.96144872  0.43203429  1.0
  H  H19  1  0.02666324  0.03956407  0.38918794  1.0
  H  H20  1  0.91764841  0.96587342  0.33226475  1.0
  H  H21  1  0.29157425  0.93301289  0.33825438  1.0
  H  H22  1  0.16090708  0.85588598  0.37912390  1.0
  H  H23  1  0.86713526  0.10695230  0.71899724  1.0
  H  H24  1  0.62219223  0.07962763  0.69396640  1.0
  H  H25  1  0.70498751  0.17381684  0.66302615  1.0
  H  H26  1  0.89843016  0.00456632  0.61503633  1.0
  H  H27  1  0.97730200  0.09738921  0.58433967  1.0
  H  H28  1  0.44306909  0.70977488  0.96382751  1.0
  H  H29  1  0.41148397  0.73467865  0.06071951  1.0
  H  H30  1  0.24452017  0.67055453  0.01563645  1.0
  H  H31  1  0.07136744  0.80877717  0.03145998  1.0
  H  H32  1  0.10840495  0.78775658  0.93491905  1.0
  H  H33  1  0.61450747  0.27232078  0.93140090  1.0
  H  H34  1  0.56713473  0.29890104  0.02719240  1.0
  H  H35  1  0.78201081  0.33256291  0.98099989  1.0
  H  H36  1  0.88164108  0.21341199  0.06624393  1.0
  H  H37  1  0.93797919  0.18929577  0.97172430  1.0
  H  H38  1  0.53592923  0.29339719  0.46004997  1.0
  H  H39  1  0.54824081  0.27186453  0.55807596  1.0
  H  H40  1  0.72011495  0.33638432  0.51627447  1.0
  H  H41  1  0.89569680  0.20006894  0.54074539  1.0
  H  H42  1  0.88134541  0.21804339  0.44292182  1.0
  H  H43  1  0.96614204  0.81409339  0.58364696  1.0
  H  H44  1  0.90700991  0.84400085  0.48942801  1.0
  H  H45  1  0.92248335  0.73941730  0.51459895  1.0
  H  H46  1  0.23578333  0.76748694  0.44619494  1.0
  H  H47  1  0.29058319  0.73994908  0.53986800  1.0
  H  H48  1  0.49769112  0.62008746  0.77552305  1.0
  H  H49  1  0.50767767  0.38034855  0.27611662  1.0
  H  H50  1  0.95870208  0.82316812  0.78166284  1.0
  H  H51  1  0.04669360  0.17616805  0.27901767  1.0
  C  C52  1  0.45592821  0.82087086  0.85449522  1.0
  C  C53  1  0.54033473  0.18333330  0.14416823  1.0
  C  C54  1  0.54972662  0.17849784  0.35330431  1.0
  C  C55  1  0.45081005  0.81884685  0.64563984  1.0
  C  C56  1  0.98681551  0.62817570  0.64734865  1.0
  C  C57  1  0.01166457  0.37367096  0.35351456  1.0
  C  C58  1  0.00470413  0.37444021  0.14909284  1.0
  C  C59  1  0.99450793  0.62469988  0.85212841  1.0
  C  C60  1  0.99920987  0.57088897  0.91646088  1.0
  C  C61  1  0.00041574  0.42979245  0.08588755  1.0
  C  C62  1  0.99965106  0.42816160  0.41735268  1.0
  C  C63  1  0.99505228  0.57279959  0.58412797  1.0
  C  C64  1  0.99965147  0.52564778  0.97122448  1.0
  C  C65  1  0.00058799  0.47559794  0.03154736  1.0
  C  C66  1  0.99782313  0.47473190  0.47114892  1.0
  C  C67  1  0.99575078  0.52613582  0.53046561  1.0
  C  C68  1  0.44077971  0.88027086  0.91833419  1.0
  C  C69  1  0.54915584  0.12567119  0.07891557  1.0
  C  C70  1  0.55571255  0.12150629  0.41901383  1.0
  C  C71  1  0.44604388  0.87563125  0.57978638  1.0
  C  C72  1  0.67926408  0.07485840  0.95859209  1.0
  C  C73  1  0.28555939  0.93817145  0.03233148  1.0
  C  C74  1  0.31994338  0.92559676  0.45856335  1.0
  C  C75  1  0.69546476  0.06768819  0.53688704  1.0
  C  C76  1  0.68454287  0.13168335  0.01673330  1.0
  C  C77  1  0.30070916  0.87529504  0.97933753  1.0
  C  C78  1  0.32385282  0.86555891  0.51452465  1.0
  C  C79  1  0.68431256  0.12966510  0.48293835  1.0
  C  C80  1  0.41477669  0.06572498  0.08210099  1.0
  C  C81  1  0.56342766  0.94391527  0.91224673  1.0
  C  C82  1  0.56789688  0.93962618  0.58610578  1.0
  C  C83  1  0.43709040  0.05660909  0.41207601  1.0
  C  C84  1  0.41662207  0.00339078  0.02727078  1.0
  C  C85  1  0.55583369  0.00762763  0.96574106  1.0
  C  C86  1  0.56912308  0.00104223  0.53055506  1.0
  C  C87  1  0.43811939  0.99439964  0.46702363  1.0
  C  C88  1  0.79500510  0.08488064  0.88590125  1.0
  C  C89  1  0.00727909  0.04061682  0.88327831  1.0
  C  C90  1  0.13099233  0.94038962  0.09530071  1.0
  C  C91  1  0.21062085  0.90095334  0.16910687  1.0
  C  C92  1  0.19754277  0.91916321  0.38711407  1.0
  C  C93  1  0.99997100  0.97469861  0.38503082  1.0
  C  C94  1  0.84258557  0.06780315  0.60204776  1.0
  C  C95  1  0.75428052  0.10940486  0.67361369  1.0
  C  C96  1  0.18739885  0.79967333  0.98761105  1.0
  C  C97  1  0.32985145  0.72443233  0.00808702  1.0
  C  C98  1  0.81270598  0.20326839  0.01124590  1.0
  C  C99  1  0.68711837  0.28123616  0.98618904  1.0
  C  C100  1  0.79074789  0.20680801  0.49310424  1.0
  C  C101  1  0.64006041  0.28128386  0.50761196  1.0
  C  C102  1  0.21601658  0.78852885  0.50487231  1.0
  C  C103  1  0.99011631  0.79736524  0.52425830  1.0
  O  O104  1  0.62076935  0.80365202  0.67834888  1.0
  O  O105  1  0.37844835  0.19490675  0.32154224  1.0
  O  O106  1  0.36489724  0.21005730  0.16664656  1.0
  O  O107  1  0.63346952  0.79629938  0.83209707  1.0
  O  O108  1  0.29194616  0.80190592  0.82408749  1.0
  O  O109  1  0.70536747  0.19945529  0.17524712  1.0
  O  O110  1  0.71577955  0.20413419  0.33067636  1.0
  O  O111  1  0.28598798  0.79185547  0.66738971  1.0
  O  O112  1  0.16305302  0.64835994  0.83067326  1.0
  O  O113  1  0.83821274  0.34720041  0.16772195  1.0
  O  O114  1  0.84544067  0.35805735  0.32321531  1.0
  O  O115  1  0.15446569  0.64385730  0.67608549  1.0
  O  O116  1  0.48442941  0.67320721  0.75151614  1.0
  O  O117  1  0.51738465  0.32715179  0.25230803  1.0
  O  O118  1  0.81144006  0.65543284  0.66829898  1.0
  O  O119  1  0.18931967  0.34715130  0.33373604  1.0
  O  O120  1  0.17554323  0.35857711  0.18016364  1.0
  O  O121  1  0.82127921  0.64281903  0.82323876  1.0
  O  O122  1  0.96502452  0.77298560  0.75270146  1.0
  O  O123  1  0.03653475  0.22731221  0.25145450  1.0
