# generated using pymatgen
data_Ni3H36C57N3O13
_symmetry_space_group_name_H-M   'P 1'
_cell_length_a   25.49179142
_cell_length_b   25.49194591
_cell_length_c   25.49182254
_cell_angle_alpha   70.52868104
_cell_angle_beta   70.52932798
_cell_angle_gamma   109.47135355
_symmetry_Int_Tables_number   1
_chemical_formula_structural   Ni3H36C57N3O13
_chemical_formula_sum   'Ni12 H144 C228 N12 O52'
_cell_volume   12752.16846410
_cell_formula_units_Z   4
loop_
 _symmetry_equiv_pos_site_id
 _symmetry_equiv_pos_as_xyz
  1  'x, y, z'
loop_
 _atom_site_type_symbol
 _atom_site_label
 _atom_site_symmetry_multiplicity
 _atom_site_fract_x
 _atom_site_fract_y
 _atom_site_fract_z
 _atom_site_occupancy
  Ni  Ni0  1  0.36391568  0.44169726  0.63608543  1.0
  Ni  Ni1  1  0.07779447  0.00000351  0.36390414  1.0
  Ni  Ni2  1  0.63609039  0.00000061  0.92221062  1.0
  Ni  Ni3  1  0.92222309  0.55830972  0.07778014  1.0
  Ni  Ni4  1  0.44169561  0.36390626  0.63608926  1.0
  Ni  Ni5  1  0.99999845  0.63609057  0.92220941  1.0
  Ni  Ni6  1  0.00000172  0.07778339  0.36390999  1.0
  Ni  Ni7  1  0.55830599  0.92221455  0.07777929  1.0
  Ni  Ni8  1  0.36391183  0.36390474  0.55830573  1.0
  Ni  Ni9  1  0.63609850  0.07779004  0.99999016  1.0
  Ni  Ni10  1  0.07778759  0.63608618  0.00000633  1.0
  Ni  Ni11  1  0.92221485  0.92221834  0.44169610  1.0
  H  H12  1  0.50076637  0.88307799  0.21591874  1.0
  H  H13  1  0.09900098  0.71668523  0.78407223  1.0
  H  H14  1  0.49924650  0.28332078  0.61767420  1.0
  H  H15  1  0.90099717  0.11692011  0.38231968  1.0
  H  H16  1  0.88307705  0.78408000  0.49923825  1.0
  H  H17  1  0.71669550  0.21593102  0.90099769  1.0
  H  H18  1  0.28331891  0.38232127  0.50075725  1.0
  H  H19  1  0.11692495  0.61767740  0.09901635  1.0
  H  H20  1  0.78407557  0.50075396  0.11693143  1.0
  H  H21  1  0.21593683  0.09900948  0.28330290  1.0
  H  H22  1  0.38231967  0.49925579  0.71668564  1.0
  H  H23  1  0.61768738  0.90100046  0.88307045  1.0
  H  H24  1  0.88306814  0.50074942  0.21592895  1.0
  H  H25  1  0.71668663  0.09900287  0.78407273  1.0
  H  H26  1  0.28331193  0.49925219  0.61768665  1.0
  H  H27  1  0.11692823  0.90099953  0.38231055  1.0
  H  H28  1  0.78407119  0.88307944  0.49923699  1.0
  H  H29  1  0.21591976  0.71667668  0.90100455  1.0
  H  H30  1  0.38232062  0.28331689  0.50075191  1.0
  H  H31  1  0.61768317  0.11691591  0.09900033  1.0
  H  H32  1  0.50076536  0.78407105  0.11691999  1.0
  H  H33  1  0.09899336  0.21592401  0.28331952  1.0
  H  H34  1  0.49924902  0.38231964  0.71668152  1.0
  H  H35  1  0.90098393  0.61768026  0.88308211  1.0
  H  H36  1  0.45549259  0.78563281  0.31854806  1.0
  H  H37  1  0.10416310  0.77403033  0.68145407  1.0
  H  H38  1  0.54452057  0.22596788  0.66984545  1.0
  H  H39  1  0.89580516  0.21435764  0.33015176  1.0
  H  H40  1  0.78563139  0.68145175  0.54450984  1.0
  H  H41  1  0.77404114  0.31855474  0.89582457  1.0
  H  H42  1  0.22596556  0.33015096  0.45548350  1.0
  H  H43  1  0.21437668  0.66985927  0.10418123  1.0
  H  H44  1  0.68143651  0.45547868  0.21437172  1.0
  H  H45  1  0.31855792  0.10418110  0.22595776  1.0
  H  H46  1  0.33014110  0.54452499  0.77403920  1.0
  H  H47  1  0.66986335  0.89582099  0.78562364  1.0
  H  H48  1  0.78562870  0.45547316  0.31856675  1.0
  H  H49  1  0.77404291  0.10418574  0.68144614  1.0
  H  H50  1  0.22595916  0.54452143  0.66986671  1.0
  H  H51  1  0.21437772  0.89582466  0.33013608  1.0
  H  H52  1  0.68144729  0.78563158  0.54450880  1.0
  H  H53  1  0.31854580  0.77403282  0.89582654  1.0
  H  H54  1  0.33014600  0.22596846  0.45547520  1.0
  H  H55  1  0.66984828  0.21435558  0.10419191  1.0
  H  H56  1  0.45549081  0.68144792  0.21436887  1.0
  H  H57  1  0.10417882  0.31855424  0.22596325  1.0
  H  H58  1  0.54452324  0.33014527  0.77403213  1.0
  H  H59  1  0.89581399  0.66985645  0.78563284  1.0
  H  H60  1  0.42860609  0.70813196  0.39575695  1.0
  H  H61  1  0.10387851  0.82435518  0.60424715  1.0
  H  H62  1  0.57140409  0.17563696  0.72046158  1.0
  H  H63  1  0.89609038  0.29186697  0.27953605  1.0
  H  H64  1  0.70813563  0.60424313  0.57139410  1.0
  H  H65  1  0.82435246  0.39575435  0.89612513  1.0
  H  H66  1  0.17563487  0.27953570  0.42859514  1.0
  H  H67  1  0.29187674  0.72047325  0.10389027  1.0
  H  H68  1  0.60423143  0.42859986  0.29187626  1.0
  H  H69  1  0.39577217  0.10389276  0.17563153  1.0
  H  H70  1  0.27952099  0.57139337  0.82437328  1.0
  H  H71  1  0.72047615  0.89611453  0.70812514  1.0
  H  H72  1  0.70812608  0.42859979  0.39577133  1.0
  H  H73  1  0.82436929  0.10390156  0.60423036  1.0
  H  H74  1  0.17563264  0.57139414  0.72048473  1.0
  H  H75  1  0.29187805  0.89611337  0.27952395  1.0
  H  H76  1  0.60423778  0.70813082  0.57139549  1.0
  H  H77  1  0.39575653  0.82435723  0.89610813  1.0
  H  H78  1  0.27952474  0.17564379  0.42859701  1.0
  H  H79  1  0.72046552  0.29186739  0.10390928  1.0
  H  H80  1  0.42860329  0.60423785  0.29186689  1.0
  H  H81  1  0.10387870  0.39575139  0.17564867  1.0
  H  H82  1  0.57140630  0.27952535  0.82435593  1.0
  H  H83  1  0.89610120  0.72047083  0.70812630  1.0
  H  H84  1  0.40301955  0.61308316  0.48983163  1.0
  H  H85  1  0.10291453  0.89284986  0.51016560  1.0
  H  H86  1  0.59699249  0.10714988  0.78992242  1.0
  H  H87  1  0.89708298  0.38692539  0.21006438  1.0
  H  H88  1  0.61308720  0.51016670  0.59698002  1.0
  H  H89  1  0.89284611  0.48983391  0.89708875  1.0
  H  H90  1  0.10714739  0.21007141  0.40300992  1.0
  H  H91  1  0.38693145  0.78993543  0.10291197  1.0
  H  H92  1  0.51016055  0.40301795  0.38692545  1.0
  H  H93  1  0.48984692  0.10291898  0.10714055  1.0
  H  H94  1  0.21006090  0.59697980  0.89286776  1.0
  H  H95  1  0.78993466  0.89708883  0.61307415  1.0
  H  H96  1  0.61307746  0.40301834  0.48984234  1.0
  H  H97  1  0.89285202  0.10292254  0.51015692  1.0
  H  H98  1  0.10713730  0.59698016  0.78994580  1.0
  H  H99  1  0.38692337  0.89708093  0.21006260  1.0
  H  H100  1  0.51016505  0.61307932  0.59698166  1.0
  H  H101  1  0.48983811  0.89284792  0.89707422  1.0
  H  H102  1  0.21006423  0.10715526  0.40300892  1.0
  H  H103  1  0.78993511  0.38692264  0.10292191  1.0
  H  H104  1  0.40301861  0.51016430  0.38691596  1.0
  H  H105  1  0.10291557  0.48983062  0.10715667  1.0
  H  H106  1  0.59699509  0.21006297  0.89284146  1.0
  H  H107  1  0.89707609  0.78993592  0.61307626  1.0
  H  H108  1  0.16411248  0.37046276  0.73254545  1.0
  H  H109  1  0.10300366  0.89665384  0.26744803  1.0
  H  H110  1  0.83589670  0.10334144  0.79363450  1.0
  H  H111  1  0.89698429  0.62952397  0.20635641  1.0
  H  H112  1  0.37047186  0.26745482  0.83589176  1.0
  H  H113  1  0.89665226  0.73254373  0.89699540  1.0
  H  H114  1  0.10334067  0.20636419  0.16410507  1.0
  H  H115  1  0.62953348  0.79365228  0.10300765  1.0
  H  H116  1  0.26745392  0.16410770  0.62953147  1.0
  H  H117  1  0.73255713  0.10301649  0.10333228  1.0
  H  H118  1  0.20635741  0.83588857  0.89666577  1.0
  H  H119  1  0.79365376  0.89699825  0.37045805  1.0
  H  H120  1  0.37047622  0.16410995  0.73254594  1.0
  H  H121  1  0.89666225  0.10301903  0.26744744  1.0
  H  H122  1  0.10333898  0.83588627  0.79365374  1.0
  H  H123  1  0.62954522  0.89698798  0.20635014  1.0
  H  H124  1  0.26746189  0.37047091  0.83587786  1.0
  H  H125  1  0.73255348  0.89665392  0.89698610  1.0
  H  H126  1  0.20635489  0.10335131  0.16410472  1.0
  H  H127  1  0.79364189  0.62953105  0.10302174  1.0
  H  H128  1  0.16411794  0.26745471  0.62952727  1.0
  H  H129  1  0.10300853  0.73253985  0.10335630  1.0
  H  H130  1  0.83589319  0.20635217  0.89664951  1.0
  H  H131  1  0.89697924  0.79364666  0.37046682  1.0
  H  H132  1  0.04639214  0.31823578  0.78560947  1.0
  H  H133  1  0.10383726  0.83199300  0.21438985  1.0
  H  H134  1  0.95361836  0.16800056  0.72814117  1.0
  H  H135  1  0.89613089  0.68174820  0.27185605  1.0
  H  H136  1  0.31823842  0.21439047  0.95361346  1.0
  H  H137  1  0.83199326  0.78560319  0.89616180  1.0
  H  H138  1  0.16799827  0.27185909  0.04638246  1.0
  H  H139  1  0.68175350  0.72815059  0.10385963  1.0
  H  H140  1  0.21438650  0.04638291  0.68176881  1.0
  H  H141  1  0.78561915  0.10385585  0.16799232  1.0
  H  H142  1  0.27184900  0.95361287  0.83200561  1.0
  H  H143  1  0.72815525  0.89615216  0.31823525  1.0
  H  H144  1  0.31824085  0.04638521  0.78561297  1.0
  H  H145  1  0.83200648  0.10385981  0.21438094  1.0
  H  H146  1  0.16799638  0.95361020  0.72815941  1.0
  H  H147  1  0.68176920  0.89615334  0.27184677  1.0
  H  H148  1  0.21438982  0.31824599  0.95359850  1.0
  H  H149  1  0.78561580  0.83199492  0.89615269  1.0
  H  H150  1  0.27184810  0.16800685  0.04638405  1.0
  H  H151  1  0.72814323  0.68175434  0.10386508  1.0
  H  H152  1  0.04639603  0.21438863  0.68175219  1.0
  H  H153  1  0.10383709  0.78560197  0.16801373  1.0
  H  H154  1  0.95361480  0.27184865  0.83199606  1.0
  H  H155  1  0.89613551  0.72814647  0.31824606  1.0
  C  C156  1  0.48964182  0.83695635  0.21838480  1.0
  C  C157  1  0.05533828  0.70802279  0.78161410  1.0
  C  C158  1  0.51036669  0.29197339  0.65267538  1.0
  C  C159  1  0.94464710  0.16304143  0.34732120  1.0
  C  C160  1  0.83695416  0.78161166  0.51036208  1.0
  C  C161  1  0.70803140  0.21839216  0.94465543  1.0
  C  C162  1  0.29197471  0.34732374  0.48963506  1.0
  C  C163  1  0.16304059  0.65267568  0.05535717  1.0
  C  C164  1  0.78159905  0.48962548  0.16305848  1.0
  C  C165  1  0.21839798  0.05535168  0.29196425  1.0
  C  C166  1  0.34732206  0.51037485  0.70802673  1.0
  C  C167  1  0.65268547  0.94465577  0.83694901  1.0
  C  C168  1  0.83694438  0.48962508  0.21840510  1.0
  C  C169  1  0.70803084  0.05534934  0.78160409  1.0
  C  C170  1  0.29197412  0.51037216  0.65268369  1.0
  C  C171  1  0.16304897  0.94465753  0.34731361  1.0
  C  C172  1  0.78160776  0.83695953  0.51036092  1.0
  C  C173  1  0.21838552  0.70802031  0.94466239  1.0
  C  C174  1  0.34732037  0.29197423  0.48963210  1.0
  C  C175  1  0.65267843  0.16303725  0.05534992  1.0
  C  C176  1  0.48964100  0.78160665  0.16304003  1.0
  C  C177  1  0.05533835  0.21839224  0.29197627  1.0
  C  C178  1  0.51036977  0.34732107  0.70802313  1.0
  C  C179  1  0.94464322  0.65267733  0.83696521  1.0
  C  C180  1  0.46415819  0.78161392  0.27564765  1.0
  C  C181  1  0.05724963  0.73979518  0.72435685  1.0
  C  C182  1  0.53585071  0.26019841  0.68253651  1.0
  C  C183  1  0.94273112  0.21838378  0.31746099  1.0
  C  C184  1  0.78161174  0.72435154  0.53584355  1.0
  C  C185  1  0.73980737  0.27565425  0.94274158  1.0
  C  C186  1  0.26019913  0.31746254  0.46415080  1.0
  C  C187  1  0.21839024  0.68253970  0.05726278  1.0
  C  C188  1  0.72434059  0.46414870  0.21839189  1.0
  C  C189  1  0.27565372  0.05726273  0.26019330  1.0
  C  C190  1  0.31746020  0.53585679  0.73980214  1.0
  C  C191  1  0.68254689  0.94274007  0.78160584  1.0
  C  C192  1  0.78160768  0.46414668  0.27565999  1.0
  C  C193  1  0.73980733  0.05726472  0.72434680  1.0
  C  C194  1  0.26019714  0.53585444  0.68254465  1.0
  C  C195  1  0.21839266  0.94274155  0.31745415  1.0
  C  C196  1  0.72434918  0.78161392  0.53584292  1.0
  C  C197  1  0.27564576  0.73979684  0.94274283  1.0
  C  C198  1  0.31745944  0.26020050  0.46414677  1.0
  C  C199  1  0.68253903  0.21838237  0.05726761  1.0
  C  C200  1  0.46415753  0.72434930  0.21838626  1.0
  C  C201  1  0.05725738  0.27565401  0.26019761  1.0
  C  C202  1  0.53585459  0.31745995  0.73979810  1.0
  C  C203  1  0.94273296  0.68253790  0.78161736  1.0
  C  C204  1  0.45232411  0.72305029  0.27694905  1.0
  C  C205  1  0.99998679  0.72926375  0.72305440  1.0
  C  C206  1  0.54768286  0.27072701  0.72926888  1.0
  C  C207  1  0.99998755  0.27694694  0.27073367  1.0
  C  C208  1  0.72304827  0.72305128  0.54767714  1.0
  C  C209  1  0.72926665  0.27694525  0.00001156  1.0
  C  C210  1  0.27072638  0.27073143  0.45231773  1.0
  C  C211  1  0.27694993  0.72926547  0.00000623  1.0
  C  C212  1  0.72304237  0.45231833  0.27696107  1.0
  C  C213  1  0.27695888  0.00000414  0.27072444  1.0
  C  C214  1  0.27072891  0.54768837  0.72927519  1.0
  C  C215  1  0.72927689  0.00000391  0.72304241  1.0
  C  C216  1  0.43166046  0.66462676  0.33536981  1.0
  C  C217  1  0.99999252  0.76702531  0.66462730  1.0
  C  C218  1  0.56835116  0.23296879  0.76702205  1.0
  C  C219  1  0.99998811  0.33536910  0.23297719  1.0
  C  C220  1  0.66462693  0.66462798  0.56833975  1.0
  C  C221  1  0.76702312  0.33536827  0.00001261  1.0
  C  C222  1  0.23296838  0.23297598  0.43164951  1.0
  C  C223  1  0.33537667  0.76702730  0.99999940  1.0
  C  C224  1  0.66461984  0.43165470  0.33538175  1.0
  C  C225  1  0.33538197  0.00000131  0.23296789  1.0
  C  C226  1  0.23296276  0.56834456  0.76703948  1.0
  C  C227  1  0.76703440  0.00000649  0.66461879  1.0
  C  C228  1  0.42303029  0.66517906  0.39268330  1.0
  C  C229  1  0.05785255  0.81570772  0.60731453  1.0
  C  C230  1  0.57698373  0.18428689  0.75783834  1.0
  C  C231  1  0.94212143  0.33481934  0.24215836  1.0
  C  C232  1  0.66518058  0.60731571  0.57697124  1.0
  C  C233  1  0.81570306  0.39268358  0.94215059  1.0
  C  C234  1  0.18428491  0.24215870  0.42301808  1.0
  C  C235  1  0.33483081  0.75784897  0.05786275  1.0
  C  C236  1  0.60730503  0.42302455  0.33483220  1.0
  C  C237  1  0.39269984  0.05786650  0.18428024  1.0
  C  C238  1  0.24214336  0.57697424  0.81572745  1.0
  C  C239  1  0.75785272  0.94214213  0.66516904  1.0
  C  C240  1  0.66517074  0.42302327  0.39269772  1.0
  C  C241  1  0.81571730  0.05787279  0.60730359  1.0
  C  C242  1  0.18427716  0.57697373  0.75786516  1.0
  C  C243  1  0.33483492  0.94213901  0.24214637  1.0
  C  C244  1  0.60731238  0.66517818  0.57697155  1.0
  C  C245  1  0.39268941  0.81570852  0.94213360  1.0
  C  C246  1  0.24214769  0.18429313  0.42301798  1.0
  C  C247  1  0.75784268  0.33481930  0.05787918  1.0
  C  C248  1  0.42302687  0.60731266  0.33482016  1.0
  C  C249  1  0.05785308  0.39268085  0.18429794  1.0
  C  C250  1  0.57698505  0.24214906  0.81570474  1.0
  C  C251  1  0.94212672  0.75784715  0.66517256  1.0
  C  C252  1  0.40851381  0.61186731  0.44607108  1.0
  C  C253  1  0.05793704  0.85458346  0.55392438  1.0
  C  C254  1  0.59150149  0.14541660  0.79663053  1.0
  C  C255  1  0.94205512  0.38813187  0.20336229  1.0
  C  C256  1  0.61187141  0.55392627  0.59148777  1.0
  C  C257  1  0.85457924  0.44607518  0.94206490  1.0
  C  C258  1  0.14541490  0.20336421  0.40850228  1.0
  C  C259  1  0.38814223  0.79664077  0.05793720  1.0
  C  C260  1  0.55392133  0.40851049  0.38814011  1.0
  C  C261  1  0.44608428  0.05794181  0.14541016  1.0
  C  C262  1  0.20334864  0.59148762  0.85459950  1.0
  C  C263  1  0.79664322  0.94206460  0.61185964  1.0
  C  C264  1  0.61186251  0.40851021  0.44608150  1.0
  C  C265  1  0.85458459  0.05794770  0.55391861  1.0
  C  C266  1  0.14540456  0.59148612  0.79665797  1.0
  C  C267  1  0.38814024  0.94205825  0.20335405  1.0
  C  C268  1  0.55392556  0.61186521  0.59148800  1.0
  C  C269  1  0.44607898  0.85458135  0.94205110  1.0
  C  C270  1  0.20335510  0.14542227  0.40850072  1.0
  C  C271  1  0.79663975  0.38813148  0.05794787  1.0
  C  C272  1  0.40851185  0.55392423  0.38813041  1.0
  C  C273  1  0.05794006  0.44607399  0.14542271  1.0
  C  C274  1  0.59150308  0.20335557  0.85457290  1.0
  C  C275  1  0.94205220  0.79664384  0.61186147  1.0
  C  C276  1  0.40188430  0.55586084  0.44413790  1.0
  C  C277  1  0.99999413  0.84602269  0.55585497  1.0
  C  C278  1  0.59813336  0.15397879  0.84600911  1.0
  C  C279  1  0.99999542  0.44413811  0.15398820  1.0
  C  C280  1  0.55586246  0.55586008  0.59811714  1.0
  C  C281  1  0.84601472  0.44413873  0.00001022  1.0
  C  C282  1  0.15397628  0.15398617  0.40187115  1.0
  C  C283  1  0.44414946  0.84601845  0.99999230  1.0
  C  C284  1  0.55585139  0.40187755  0.44415190  1.0
  C  C285  1  0.44415195  0.99999969  0.15397373  1.0
  C  C286  1  0.15396706  0.59811647  0.84604045  1.0
  C  C287  1  0.84602027  0.00000575  0.55585087  1.0
  C  C288  1  0.38844249  0.49890721  0.50109023  1.0
  C  C289  1  0.99999682  0.88953672  0.49890224  1.0
  C  C290  1  0.61156904  0.11046544  0.88952413  1.0
  C  C291  1  0.99999106  0.50108669  0.11048084  1.0
  C  C292  1  0.49891022  0.49890806  0.61155754  1.0
  C  C293  1  0.88952279  0.50108838  0.00001500  1.0
  C  C294  1  0.11046373  0.11047289  0.38843332  1.0
  C  C295  1  0.50109932  0.88953224  0.99999307  1.0
  C  C296  1  0.49890009  0.38843668  0.50110266  1.0
  C  C297  1  0.50110372  0.00000146  0.11045827  1.0
  C  C298  1  0.11045249  0.61155290  0.88955241  1.0
  C  C299  1  0.88953446  0.00000874  0.49889895  1.0
  C  C300  1  0.24345896  0.35197772  0.64802100  1.0
  C  C301  1  0.00000112  0.89148333  0.35197326  1.0
  C  C302  1  0.75655070  0.10852235  0.89146792  1.0
  C  C303  1  0.99998751  0.64800814  0.10854004  1.0
  C  C304  1  0.35198553  0.35197929  0.75654177  1.0
  C  C305  1  0.89146426  0.64801173  0.00002003  1.0
  C  C306  1  0.10852274  0.10853463  0.24344939  1.0
  C  C307  1  0.64803067  0.89148445  0.99998544  1.0
  C  C308  1  0.35198338  0.24345292  0.64801859  1.0
  C  C309  1  0.64803198  0.99999889  0.10851334  1.0
  C  C310  1  0.10851252  0.75653482  0.89149550  1.0
  C  C311  1  0.89148583  0.00000853  0.35197026  1.0
  C  C312  1  0.17185888  0.32213007  0.67786505  1.0
  C  C313  1  0.99999086  0.84972403  0.32213021  1.0
  C  C314  1  0.82815161  0.15027253  0.84971265  1.0
  C  C315  1  0.99999205  0.67785725  0.15029067  1.0
  C  C316  1  0.32213930  0.32213506  0.82814197  1.0
  C  C317  1  0.84971615  0.67786422  0.00001300  1.0
  C  C318  1  0.15027580  0.15028633  0.17184862  1.0
  C  C319  1  0.67787245  0.84972526  0.99999468  1.0
  C  C320  1  0.32213909  0.17185412  0.67786583  1.0
  C  C321  1  0.67788051  0.00000189  0.15026650  1.0
  C  C322  1  0.15027072  0.82813650  0.84973809  1.0
  C  C323  1  0.84973186  0.00001010  0.32212224  1.0
  C  C324  1  0.13767910  0.33637814  0.72150133  1.0
  C  C325  1  0.05787086  0.85917549  0.27849650  1.0
  C  C326  1  0.86233473  0.14082024  0.80128490  1.0
  C  C327  1  0.94210996  0.66361256  0.19871355  1.0
  C  C328  1  0.33638465  0.27849778  0.86232527  1.0
  C  C329  1  0.85917542  0.72150133  0.94212239  1.0
  C  C330  1  0.14081916  0.19871335  0.13766851  1.0
  C  C331  1  0.66361861  0.80129575  0.05788524  1.0
  C  C332  1  0.27849680  0.13767315  0.66361870  1.0
  C  C333  1  0.72151523  0.05788856  0.14080970  1.0
  C  C334  1  0.19870340  0.86232105  0.85918963  1.0
  C  C335  1  0.80130205  0.94212360  0.33637321  1.0
  C  C336  1  0.33638690  0.13767371  0.72150351  1.0
  C  C337  1  0.85918380  0.05789209  0.27848818  1.0
  C  C338  1  0.14081663  0.86231866  0.80130713  1.0
  C  C339  1  0.66363091  0.94211774  0.19869658  1.0
  C  C340  1  0.27850221  0.33638614  0.86231651  1.0
  C  C341  1  0.72150761  0.85917506  0.94211759  1.0
  C  C342  1  0.19870580  0.14083007  0.13766739  1.0
  C  C343  1  0.80128875  0.66361787  0.05789419  1.0
  C  C344  1  0.13767975  0.27849484  0.66361379  1.0
  C  C345  1  0.05788134  0.72149874  0.14083038  1.0
  C  C346  1  0.86232949  0.19870241  0.85917213  1.0
  C  C347  1  0.94210301  0.80129316  0.33638351  1.0
  C  C348  1  0.07106062  0.30645180  0.75128669  1.0
  C  C349  1  0.05773012  0.82233991  0.24871171  1.0
  C  C350  1  0.92895232  0.17765363  0.76459534  1.0
  C  C351  1  0.94224191  0.69353656  0.23540467  1.0
  C  C352  1  0.30645325  0.24871290  0.92894445  1.0
  C  C353  1  0.82233916  0.75128453  0.94226827  1.0
  C  C354  1  0.17765142  0.23540474  0.07105069  1.0
  C  C355  1  0.69354475  0.76460269  0.05774714  1.0
  C  C356  1  0.24870925  0.07105569  0.69355087  1.0
  C  C357  1  0.75129871  0.05774725  0.17764615  1.0
  C  C358  1  0.23539496  0.92894277  0.82235403  1.0
  C  C359  1  0.76460740  0.94226176  0.30644629  1.0
  C  C360  1  0.30645629  0.07105616  0.75129165  1.0
  C  C361  1  0.82235104  0.05775095  0.24870219  1.0
  C  C362  1  0.17764984  0.92893961  0.76461306  1.0
  C  C363  1  0.69355496  0.94225991  0.23539127  1.0
  C  C364  1  0.24871100  0.30645857  0.92893615  1.0
  C  C365  1  0.75129300  0.82234136  0.94225993  1.0
  C  C366  1  0.23539481  0.17766177  0.07105003  1.0
  C  C367  1  0.76459709  0.69354191  0.05775653  1.0
  C  C368  1  0.07105954  0.24870892  0.69354123  1.0
  C  C369  1  0.05773114  0.75128177  0.17766680  1.0
  C  C370  1  0.92894826  0.23539431  0.82234108  1.0
  C  C371  1  0.94224527  0.76459904  0.30645726  1.0
  C  C372  1  0.03564251  0.26090870  0.73908695  1.0
  C  C373  1  0.99998470  0.77472040  0.26091528  1.0
  C  C374  1  0.96436905  0.22527172  0.77472345  1.0
  C  C375  1  0.99998546  0.73908208  0.22528107  1.0
  C  C376  1  0.26090802  0.26091372  0.96435825  1.0
  C  C377  1  0.77472250  0.73908442  0.00001299  1.0
  C  C378  1  0.22526879  0.22528035  0.03563151  1.0
  C  C379  1  0.73908791  0.77472312  0.00000896  1.0
  C  C380  1  0.26090943  0.03563803  0.73909368  1.0
  C  C381  1  0.73909786  0.00000392  0.22526424  1.0
  C  C382  1  0.22527002  0.96436091  0.77473480  1.0
  C  C383  1  0.77473383  0.00000574  0.26090258  1.0
  N  N384  1  0.50373512  0.83745259  0.16254178  1.0
  N  N385  1  0.99999505  0.66627769  0.83745942  1.0
  N  N386  1  0.49626994  0.33372214  0.66627567  1.0
  N  N387  1  0.99999722  0.16254694  0.33372305  1.0
  N  N388  1  0.83745278  0.83745648  0.49626715  1.0
  N  N389  1  0.66628280  0.16254795  0.99999757  1.0
  N  N390  1  0.33372352  0.33372161  0.50373197  1.0
  N  N391  1  0.16254180  0.66627411  0.00000749  1.0
  N  N392  1  0.83744601  0.50372179  0.16255425  1.0
  N  N393  1  0.16255023  0.00000379  0.33371594  1.0
  N  N394  1  0.33372654  0.49627595  0.66627526  1.0
  N  N395  1  0.66627975  0.00000081  0.83744939  1.0
  O  O396  1  0.39371606  0.39371021  0.60628497  1.0
  O  O397  1  0.00000706  0.00000031  0.39371333  1.0
  O  O398  1  0.60628920  0.00000302  0.99999269  1.0
  O  O399  1  0.00001087  0.60629176  0.99998930  1.0
  O  O400  1  0.38322514  0.50509779  0.54969155  1.0
  O  O401  1  0.05479189  0.93291977  0.45030192  1.0
  O  O402  1  0.61678018  0.06707813  0.87812065  1.0
  O  O403  1  0.94519415  0.49489204  0.12189096  1.0
  O  O404  1  0.50510325  0.45030756  0.61677161  1.0
  O  O405  1  0.93290532  0.54968540  0.94522794  1.0
  O  O406  1  0.06707394  0.12187441  0.38322402  1.0
  O  O407  1  0.49490848  0.87812908  0.05478192  1.0
  O  O408  1  0.45030002  0.38322010  0.49490791  1.0
  O  O409  1  0.54970012  0.05479187  0.06707224  1.0
  O  O410  1  0.12185800  0.61676498  0.93294128  1.0
  O  O411  1  0.87812686  0.94521478  0.50509262  1.0
  O  O412  1  0.50509265  0.38322301  0.54970110  1.0
  O  O413  1  0.93292111  0.05479737  0.45030184  1.0
  O  O414  1  0.06706803  0.61676713  0.87814399  1.0
  O  O415  1  0.49490907  0.94520810  0.12186517  1.0
  O  O416  1  0.45031113  0.50509915  0.61677086  1.0
  O  O417  1  0.54969966  0.93291962  0.94519902  1.0
  O  O418  1  0.12187621  0.06709133  0.38321578  1.0
  O  O419  1  0.87811421  0.49489320  0.05481250  1.0
  O  O420  1  0.38323012  0.45030830  0.49489783  1.0
  O  O421  1  0.05477765  0.54968431  0.06709592  1.0
  O  O422  1  0.61678474  0.12187523  0.93290866  1.0
  O  O423  1  0.94520717  0.87813597  0.50509378  1.0
  O  O424  1  0.27055647  0.39068682  0.66392510  1.0
  O  O425  1  0.05461251  0.93448097  0.33606469  1.0
  O  O426  1  0.72945477  0.06551917  0.87985840  1.0
  O  O427  1  0.94537438  0.60930134  0.12015247  1.0
  O  O428  1  0.39068878  0.33607015  0.72945032  1.0
  O  O429  1  0.93446680  0.66392135  0.94540731  1.0
  O  O430  1  0.06552585  0.12014516  0.27054860  1.0
  O  O431  1  0.60931834  0.87987124  0.05460319  1.0
  O  O432  1  0.33607653  0.27054605  0.60931142  1.0
  O  O433  1  0.66393913  0.05461425  0.06551215  1.0
  O  O434  1  0.12012356  0.72943826  0.93449881  1.0
  O  O435  1  0.87987245  0.94539494  0.39067932  1.0
  O  O436  1  0.39068744  0.27054607  0.66392782  1.0
  O  O437  1  0.93448796  0.05461967  0.33606574  1.0
  O  O438  1  0.06551208  0.72944105  0.87988105  1.0
  O  O439  1  0.60932475  0.94538755  0.12012625  1.0
  O  O440  1  0.33608221  0.39068976  0.72944234  1.0
  O  O441  1  0.66393370  0.93448129  0.94537904  1.0
  O  O442  1  0.12013673  0.06552978  0.27054081  1.0
  O  O443  1  0.87984874  0.60930188  0.05463368  1.0
  O  O444  1  0.27055125  0.33606876  0.60931694  1.0
  O  O445  1  0.05459898  0.66391327  0.06553825  1.0
  O  O446  1  0.72945619  0.12013659  0.93446672  1.0
  O  O447  1  0.94538580  0.87986938  0.39068674  1.0
