# generated using pymatgen
data_Zn4H24C18N6O13
_symmetry_space_group_name_H-M   'P 1'
_cell_length_a   17.54405117
_cell_length_b   17.91882904
_cell_length_c   18.18887157
_cell_angle_alpha   62.43301327
_cell_angle_beta   61.92246358
_cell_angle_gamma   61.85842039
_symmetry_Int_Tables_number   1
_chemical_formula_structural   Zn4H24C18N6O13
_chemical_formula_sum   'Zn8 H48 C36 N12 O26'
_cell_volume   4230.23209150
_cell_formula_units_Z   2
loop_
 _symmetry_equiv_pos_site_id
 _symmetry_equiv_pos_as_xyz
  1  'x, y, z'
loop_
 _atom_site_type_symbol
 _atom_site_label
 _atom_site_symmetry_multiplicity
 _atom_site_fract_x
 _atom_site_fract_y
 _atom_site_fract_z
 _atom_site_occupancy
  Zn  Zn0  1  0.12943745  0.93510609  0.94624085  1.0
  Zn  Zn1  1  0.94767818  0.93668715  0.94459076  1.0
  Zn  Zn2  1  0.95699432  0.11263929  0.94369050  1.0
  Zn  Zn3  1  0.95166591  0.94436459  0.11707242  1.0
  Zn  Zn4  1  0.36111549  0.52127929  0.52871876  1.0
  Zn  Zn5  1  0.53051547  0.53117286  0.54018907  1.0
  Zn  Zn6  1  0.53821810  0.52544659  0.36112419  1.0
  Zn  Zn7  1  0.53859484  0.35145172  0.53304120  1.0
  H  H8  1  0.22470337  0.84035175  0.71873151  1.0
  H  H9  1  0.08349861  0.80973648  0.74915847  1.0
  H  H10  1  0.16095064  0.69986067  0.67611820  1.0
  H  H11  1  0.23150667  0.76824045  0.62792858  1.0
  H  H12  1  0.24687393  0.59124772  0.77610600  1.0
  H  H13  1  0.37224934  0.69283340  0.69626490  1.0
  H  H14  1  0.30922628  0.73484126  0.82247936  1.0
  H  H15  1  0.23656659  0.66888593  0.87337650  1.0
  H  H16  1  0.25114976  0.15643094  0.83598787  1.0
  H  H17  1  0.10533761  0.28198485  0.81309588  1.0
  H  H18  1  0.17834676  0.38656539  0.69576167  1.0
  H  H19  1  0.25519662  0.31021168  0.75760126  1.0
  H  H20  1  0.25635770  0.30524858  0.59114327  1.0
  H  H21  1  0.39084113  0.17804910  0.68151814  1.0
  H  H22  1  0.32547393  0.06754281  0.73602227  1.0
  H  H23  1  0.24557296  0.14119937  0.67812516  1.0
  H  H24  1  0.22842715  0.70133194  0.16238197  1.0
  H  H25  1  0.09211547  0.73608843  0.29358043  1.0
  H  H26  1  0.17252515  0.66731221  0.39586358  1.0
  H  H27  1  0.24037935  0.61346100  0.31264964  1.0
  H  H28  1  0.25933020  0.76969489  0.32206240  1.0
  H  H29  1  0.38158643  0.67838751  0.18905156  1.0
  H  H30  1  0.31783679  0.80254305  0.08600130  1.0
  H  H31  1  0.24905166  0.85989568  0.16560417  1.0
  H  H32  1  0.86209136  0.15696237  0.71225096  1.0
  H  H33  1  0.83590869  0.28894274  0.74933858  1.0
  H  H34  1  0.72241671  0.39395029  0.68091729  1.0
  H  H35  1  0.78885790  0.31071638  0.62624688  1.0
  H  H36  1  0.60847877  0.32013116  0.77776589  1.0
  H  H37  1  0.70521238  0.18429850  0.68882557  1.0
  H  H38  1  0.74987448  0.07903701  0.81067479  1.0
  H  H39  1  0.68568935  0.15895946  0.86815221  1.0
  H  H40  1  0.71385744  0.84182716  0.16011046  1.0
  H  H41  1  0.73934035  0.84137581  0.28740535  1.0
  H  H42  1  0.66755292  0.73353444  0.39770812  1.0
  H  H43  1  0.61918765  0.78328358  0.31151242  1.0
  H  H44  1  0.77734235  0.61032762  0.34189591  1.0
  H  H45  1  0.70244419  0.67843728  0.20076046  1.0
  H  H46  1  0.82951402  0.72171565  0.09737614  1.0
  H  H47  1  0.88072047  0.67570075  0.18011637  1.0
  H  H48  1  0.87317527  0.22421501  0.15735082  1.0
  H  H49  1  0.84166675  0.08980688  0.28611331  1.0
  H  H50  1  0.73277622  0.16701664  0.39048711  1.0
  H  H51  1  0.80303867  0.23473541  0.30935734  1.0
  H  H52  1  0.61926227  0.24927471  0.31612548  1.0
  H  H53  1  0.72225934  0.37157544  0.18509484  1.0
  H  H54  1  0.76045462  0.30827549  0.08023622  1.0
  H  H55  1  0.69186789  0.23914960  0.15804607  1.0
  C  C56  1  0.13047717  0.84486591  0.84394440  1.0
  C  C57  1  0.19135822  0.79343309  0.77840101  1.0
  C  C58  1  0.20062317  0.72157784  0.68981496  1.0
  C  C59  1  0.27882623  0.64022629  0.72048650  1.0
  C  C60  1  0.26868577  0.71259496  0.81064273  1.0
  C  C61  1  0.34221760  0.59826843  0.64770384  1.0
  C  C62  1  0.14923752  0.11221822  0.85461993  1.0
  C  C63  1  0.21223478  0.16796346  0.79554250  1.0
  C  C64  1  0.21933787  0.31645750  0.71718299  1.0
  C  C65  1  0.29237024  0.28716298  0.63596870  1.0
  C  C66  1  0.28324510  0.13709755  0.71496559  1.0
  C  C67  1  0.35532819  0.34228900  0.59137158  1.0
  C  C68  1  0.13585546  0.83022789  0.12710508  1.0
  C  C69  1  0.19846861  0.76289571  0.18137116  1.0
  C  C70  1  0.21090218  0.67818963  0.32569574  1.0
  C  C71  1  0.29029739  0.70995869  0.30115986  1.0
  C  C72  1  0.27861187  0.79429923  0.15562433  1.0
  C  C73  1  0.35297063  0.63995473  0.35460518  1.0
  C  C74  1  0.86557016  0.12031905  0.83920972  1.0
  C  C75  1  0.81406392  0.17546193  0.77333660  1.0
  C  C76  1  0.74256599  0.32290525  0.69034127  1.0
  C  C77  1  0.65695191  0.29816642  0.71964999  1.0
  C  C78  1  0.72913105  0.14953760  0.80332041  1.0
  C  C79  1  0.61184678  0.35130109  0.64871149  1.0
  C  C80  1  0.84041314  0.85668520  0.12451389  1.0
  C  C81  1  0.77546195  0.80274139  0.18185612  1.0
  C  C82  1  0.68352952  0.74345327  0.32841514  1.0
  C  C83  1  0.72085294  0.65219372  0.31416567  1.0
  C  C84  1  0.81546337  0.71180913  0.16616150  1.0
  C  C85  1  0.64693599  0.60825009  0.36663755  1.0
  C  C86  1  0.87054870  0.12986530  0.12075397  1.0
  C  C87  1  0.82217572  0.19302242  0.17493633  1.0
  C  C88  1  0.75375788  0.20485416  0.32073869  1.0
  C  C89  1  0.66985905  0.28086537  0.29640917  1.0
  C  C90  1  0.73882684  0.26933769  0.14942529  1.0
  C  C91  1  0.62564330  0.34276688  0.35137087  1.0
  N  N92  1  0.14193020  0.76138650  0.76024096  1.0
  N  N93  1  0.32861701  0.66149774  0.74945040  1.0
  N  N94  1  0.16109551  0.26114959  0.76395844  1.0
  N  N95  1  0.34220988  0.19205745  0.65698722  1.0
  N  N96  1  0.15121535  0.74760403  0.27477229  1.0
  N  N97  1  0.33944881  0.73424874  0.20761948  1.0
  N  N98  1  0.78451440  0.27016982  0.75915358  1.0
  N  N99  1  0.67569071  0.20308578  0.74381723  1.0
  N  N100  1  0.75399299  0.78563201  0.27451431  1.0
  N  N101  1  0.75561157  0.65770051  0.22220884  1.0
  N  N102  1  0.79159724  0.14674821  0.26802749  1.0
  N  N103  1  0.68938749  0.32858114  0.20303618  1.0
  O  O104  1  0.99546220  0.98214766  0.98833807  1.0
  O  O105  1  0.04436562  0.86345143  0.86805215  1.0
  O  O106  1  0.17288460  0.86619218  0.86810350  1.0
  O  O107  1  0.41990392  0.60987452  0.60451323  1.0
  O  O108  1  0.31013353  0.55653150  0.63430370  1.0
  O  O109  1  0.06403236  0.15387535  0.87939584  1.0
  O  O110  1  0.18771456  0.02801224  0.87554872  1.0
  O  O111  1  0.43466945  0.30427628  0.59899841  1.0
  O  O112  1  0.32036600  0.42468148  0.55349639  1.0
  O  O113  1  0.05032321  0.85598457  0.16686082  1.0
  O  O114  1  0.17615953  0.85467662  0.04467936  1.0
  O  O115  1  0.43483498  0.60104758  0.31446290  1.0
  O  O116  1  0.31572434  0.62486783  0.43733988  1.0
  O  O117  1  0.89205894  0.16100785  0.85978110  1.0
  O  O118  1  0.87859686  0.03700350  0.86733962  1.0
  O  O119  1  0.60973525  0.30857013  0.61017621  1.0
  O  O120  1  0.58180522  0.43538986  0.63271872  1.0
  O  O121  1  0.85933116  0.88740411  0.16225203  1.0
  O  O122  1  0.86956107  0.86715215  0.04262692  1.0
  O  O123  1  0.61399664  0.59815356  0.32403365  1.0
  O  O124  1  0.62275705  0.58770694  0.44984934  1.0
  O  O125  1  0.89615023  0.04674649  0.16085587  1.0
  O  O126  1  0.88292846  0.16645600  0.03873244  1.0
  O  O127  1  0.61188554  0.42573991  0.31198778  1.0
  O  O128  1  0.60685594  0.30394068  0.43382558  1.0
  O  O129  1  0.49508397  0.48172681  0.48942925  1.0
