# generated using pymatgen
data_Al3H31C45N3O14F15
_symmetry_space_group_name_H-M   'P 1'
_cell_length_a   13.63181918
_cell_length_b   13.63053925
_cell_length_c   28.15851218
_cell_angle_alpha   89.89837582
_cell_angle_beta   89.88352152
_cell_angle_gamma   119.94001377
_symmetry_Int_Tables_number   1
_chemical_formula_structural   Al3H31C45N3O14F15
_chemical_formula_sum   'Al6 H62 C90 N6 O28 F30'
_cell_volume   4533.84053931
_cell_formula_units_Z   2
loop_
 _symmetry_equiv_pos_site_id
 _symmetry_equiv_pos_as_xyz
  1  'x, y, z'
loop_
 _atom_site_type_symbol
 _atom_site_label
 _atom_site_symmetry_multiplicity
 _atom_site_fract_x
 _atom_site_fract_y
 _atom_site_fract_z
 _atom_site_occupancy
  Al  Al0  1  0.76336809  0.24663788  0.74921716  1.0
  Al  Al1  1  0.53309317  0.25699861  0.74946462  1.0
  Al  Al2  1  0.75256315  0.47711285  0.75106556  1.0
  Al  Al3  1  0.51442881  0.75400962  0.25123514  1.0
  Al  Al4  1  0.27124149  0.73935135  0.25087221  1.0
  Al  Al5  1  0.27478000  0.52156440  0.25128747  1.0
  H  H6  1  0.36795676  0.34375772  0.03284447  1.0
  H  H7  1  0.77693840  0.39487634  0.52493977  1.0
  H  H8  1  0.58642756  0.38945250  0.52991635  1.0
  H  H9  1  0.49955129  0.15819863  0.53926387  1.0
  H  H10  1  0.37992478  0.32702007  0.54247439  1.0
  H  H11  1  0.90764038  0.60932274  0.52086370  1.0
  H  H12  1  0.67263507  0.12757915  0.52447347  1.0
  H  H13  1  0.12545634  0.67497480  0.47157744  1.0
  H  H14  1  0.31548683  0.44586659  0.47650037  1.0
  H  H15  1  0.60070263  0.90837284  0.47414128  1.0
  H  H16  1  0.42676205  0.31669270  0.95834512  1.0
  H  H17  1  0.97037691  0.62400685  0.04389719  1.0
  H  H18  1  0.88218149  0.57061790  0.96957297  1.0
  H  H19  1  0.67499704  0.10667367  0.96220489  1.0
  H  H20  1  0.16030642  0.66575797  0.03996142  1.0
  H  H21  1  0.32622285  0.49485034  0.02933855  1.0
  H  H22  1  0.49601230  0.83393948  0.03607584  1.0
  H  H23  1  0.68889097  0.53395567  0.53028949  1.0
  H  H24  1  0.84519619  0.31466194  0.51895573  1.0
  H  H25  1  0.36746771  0.03448497  0.53263399  1.0
  H  H26  1  0.03715344  0.37174612  0.46435701  1.0
  H  H27  1  0.61045155  0.69302770  0.46731622  1.0
  H  H28  1  0.64629402  0.02607791  0.03799365  1.0
  H  H29  1  0.31112750  0.86379526  0.48083121  1.0
  H  H30  1  0.47465027  0.62961253  0.55517201  1.0
  H  H31  1  0.13779601  0.53997165  0.54370910  1.0
  H  H32  1  0.47442967  0.83017920  0.54292445  1.0
  H  H33  1  0.82624945  0.47158288  0.44863270  1.0
  H  H34  1  0.55620872  0.39766621  0.44949765  1.0
  H  H35  1  0.55740055  0.15186164  0.46054166  1.0
  H  H36  1  0.73849868  0.63270875  0.46105249  1.0
  H  H37  1  0.80446704  0.59792903  0.38575845  1.0
  H  H38  1  0.68598154  0.61803422  0.37684012  1.0
  H  H39  1  0.08858384  0.66606201  0.96488428  1.0
  H  H40  1  0.66643450  0.47925285  0.37846102  1.0
  H  H41  1  0.84185076  0.26488502  0.44010980  1.0
  H  H42  1  0.73281566  0.22677514  0.37220441  1.0
  H  H43  1  0.84995714  0.36397304  0.35995286  1.0
  H  H44  1  0.72022019  0.34892375  0.38140630  1.0
  H  H45  1  0.31100573  0.02410691  0.44959695  1.0
  H  H46  1  0.34567702  0.16571884  0.39190246  1.0
  H  H47  1  0.42231031  0.09832870  0.37221105  1.0
  H  H48  1  0.49264643  0.22968857  0.40302762  1.0
  H  H49  1  0.98941160  0.29342762  0.53837235  1.0
  H  H50  1  0.33350000  0.42711918  0.95422428  1.0
  H  H51  1  0.10728277  0.29737205  0.60435121  1.0
  H  H52  1  0.01313296  0.34403520  0.62436798  1.0
  H  H53  1  0.15639445  0.44391539  0.60955059  1.0
  H  H54  1  0.71671263  0.71366953  0.54231505  1.0
  H  H55  1  0.73449858  0.83975528  0.60475797  1.0
  H  H56  1  0.65508151  0.69950066  0.62837435  1.0
  H  H57  1  0.58555441  0.77329079  0.60826207  1.0
  H  H58  1  0.26673556  0.83670718  0.56306076  1.0
  H  H59  1  0.24259405  0.71310113  0.62555107  1.0
  H  H60  1  0.37882982  0.83274271  0.63673123  1.0
  H  H61  1  0.56401357  0.90358604  0.96001198  1.0
  H  H62  1  0.36645215  0.71062232  0.60798584  1.0
  H  H63  1  0.46800717  0.65604579  0.47436966  1.0
  H  H64  1  0.15811600  0.50708583  0.46357098  1.0
  H  H65  1  0.38047317  0.78674388  0.46853102  1.0
  H  H66  1  0.87198649  0.16961952  0.77785008  1.0
  H  H67  1  0.70057298  0.84833837  0.22171608  1.0
  C  C68  1  0.56145777  0.12410751  0.81627707  1.0
  C  C69  1  0.86818678  0.42305408  0.45820280  1.0
  C  C70  1  0.58845651  0.48154604  0.46568651  1.0
  C  C71  1  0.47523527  0.07785400  0.47014316  1.0
  C  C72  1  0.45266617  0.52936717  0.36599641  1.0
  C  C73  1  0.07236941  0.53551235  0.35888705  1.0
  C  C74  1  0.45412488  0.91565018  0.36511570  1.0
  C  C75  1  0.91175033  0.47071405  0.63297041  1.0
  C  C76  1  0.54859153  0.46417690  0.64009944  1.0
  C  C77  1  0.53460945  0.06572236  0.63915376  1.0
  C  C78  1  0.52091863  0.50027471  0.54942654  1.0
  C  C79  1  0.57213450  0.43656220  0.81382844  1.0
  C  C80  1  0.95865652  0.48692694  0.54060846  1.0
  C  C81  1  0.50363627  0.00082460  0.54901205  1.0
  C  C82  1  0.99994282  0.50504812  0.44835893  1.0
  C  C83  1  0.49334501  0.51442284  0.45740658  1.0
  C  C84  1  0.48431823  0.96984523  0.45648563  1.0
  C  C85  1  0.38250549  0.42404369  0.48122471  1.0
  C  C86  1  0.03266729  0.62084154  0.47075352  1.0
  C  C87  1  0.59927409  0.98844128  0.47463691  1.0
  C  C88  1  0.98548949  0.60366298  0.52113496  1.0
  C  C89  1  0.39925632  0.41391811  0.53440384  1.0
  C  C90  1  0.87998668  0.44231174  0.81864107  1.0
  C  C91  1  0.61888653  0.03472738  0.52525429  1.0
  C  C92  1  0.47259614  0.52181385  0.40745709  1.0
  C  C93  1  0.03294743  0.51990744  0.39882494  1.0
  C  C94  1  0.47061805  0.94475900  0.40640617  1.0
  C  C95  1  0.93343178  0.47890492  0.59078066  1.0
  C  C96  1  0.53600742  0.48486460  0.59928443  1.0
  C  C97  1  0.51878082  0.02903696  0.59890293  1.0
  C  C98  1  0.56548274  0.12361817  0.68385467  1.0
  C  C99  1  0.57454088  0.43527052  0.68545346  1.0
  C  C100  1  0.87470875  0.44499006  0.68141178  1.0
  C  C101  1  0.43075361  0.87389780  0.18449823  1.0
  C  C102  1  0.43284612  0.86715673  0.31855843  1.0
  C  C103  1  0.13286442  0.56299614  0.31480478  1.0
  C  C104  1  0.43394016  0.55465742  0.31845197  1.0
  C  C105  1  0.49409869  0.39158827  0.97631317  1.0
  C  C106  1  0.89112585  0.50244625  0.98617044  1.0
  C  C107  1  0.60022969  0.10127430  0.97967025  1.0
  C  C108  1  0.12536701  0.58281960  0.02292666  1.0
  C  C109  1  0.41092154  0.54320202  0.01368847  1.0
  C  C110  1  0.44778428  0.86922449  0.01934901  1.0
  C  C111  1  0.40905022  0.51036765  0.96057748  1.0
  C  C112  1  0.13534114  0.55626412  0.18677156  1.0
  C  C113  1  0.09543269  0.58952830  0.97007729  1.0
  C  C114  1  0.48095617  0.89690222  0.96603682  1.0
  C  C115  1  0.92949233  0.53164897  0.03878622  1.0
  C  C116  1  0.46057186  0.39633836  0.02879788  1.0
  C  C117  1  0.59417759  0.06630328  0.03270530  1.0
  C  C118  1  0.45918878  0.53583249  0.13455947  1.0
  C  C119  1  0.07755044  0.52460812  0.14191041  1.0
  C  C120  1  0.44977989  0.92619953  0.13834884  1.0
  C  C121  1  0.92853213  0.46824485  0.86563590  1.0
  C  C122  1  0.54212684  0.46671644  0.85825515  1.0
  C  C123  1  0.43725647  0.56055836  0.18199752  1.0
  C  C124  1  0.52674473  0.06788828  0.86166808  1.0
  C  C125  1  0.51521031  0.50044649  0.94906514  1.0
  C  C126  1  0.97938214  0.48486595  0.95746313  1.0
  C  C127  1  0.49161372  0.01254686  0.95295198  1.0
  C  C128  1  0.01840708  0.49581925  0.05098070  1.0
  C  C129  1  0.49407215  0.51952742  0.04265818  1.0
  C  C130  1  0.47047223  0.97779574  0.04663090  1.0
  C  C131  1  0.61716490  0.60251286  0.02581449  1.0
  C  C132  1  0.97891504  0.37476886  0.03191464  1.0
  C  C133  1  0.38781907  0.01690157  0.02850083  1.0
  C  C134  1  0.54247466  0.62283634  0.53702032  1.0
  C  C135  1  0.97671677  0.37552284  0.97584402  1.0
  C  C136  1  0.62241124  0.60503079  0.96973329  1.0
  C  C137  1  0.38687141  0.01693469  0.97251574  1.0
  C  C138  1  0.47850869  0.52902258  0.09299709  1.0
  C  C139  1  0.04525784  0.50651661  0.10109126  1.0
  C  C140  1  0.45886455  0.95437627  0.09702301  1.0
  C  C141  1  0.95496768  0.47758374  0.90717844  1.0
  C  C142  1  0.52837326  0.48618630  0.89898018  1.0
  C  C143  1  0.50655411  0.03675950  0.90264385  1.0
  C  C144  1  0.60119491  0.47382423  0.52002156  1.0
  C  C145  1  0.06141285  0.46582194  0.52971732  1.0
  C  C146  1  0.85492274  0.39864072  0.51221660  1.0
  C  C147  1  0.45822296  0.07231746  0.52445342  1.0
  C  C148  1  0.06917702  0.46012753  0.47503618  1.0
  C  C149  1  0.52927642  0.62827905  0.48243683  1.0
  C  C150  1  0.39249419  0.86563736  0.48427410  1.0
  C  C151  1  0.71442223  0.56409210  0.39408744  1.0
  C  C152  1  0.77817997  0.31502480  0.38426684  1.0
  C  C153  1  0.41345435  0.14787019  0.40108828  1.0
  C  C154  1  0.08292068  0.36242315  0.59966115  1.0
  C  C155  1  0.65616921  0.75810526  0.60109875  1.0
  C  C156  1  0.42256736  0.87051744  0.53731449  1.0
  C  C157  1  0.32839226  0.76509959  0.61108087  1.0
  N  N158  1  0.69995340  0.55464814  0.44573425  1.0
  N  N159  1  0.80932986  0.31658540  0.43382759  1.0
  N  N160  1  0.38939364  0.09420765  0.44782416  1.0
  N  N161  1  0.05770174  0.36665536  0.54953993  1.0
  N  N162  1  0.64767527  0.71920616  0.55214005  1.0
  N  N163  1  0.31998985  0.80459399  0.56393779  1.0
  O  O164  1  0.85832750  0.34831441  0.80142703  1.0
  O  O165  1  0.50388754  0.85120420  0.19981963  1.0
  O  O166  1  0.16274673  0.65434652  0.20243236  1.0
  O  O167  1  0.34521424  0.48593124  0.20232375  1.0
  O  O168  1  0.85431739  0.35000578  0.69734796  1.0
  O  O169  1  0.49369125  0.14795067  0.70264135  1.0
  O  O170  1  0.66942200  0.50594481  0.70403048  1.0
  O  O171  1  0.50633267  0.64916110  0.30138501  1.0
  O  O172  1  0.33898943  0.84608468  0.29877396  1.0
  O  O173  1  0.16371218  0.49461735  0.29894880  1.0
  O  O174  1  0.66149266  0.14953932  0.70022608  1.0
  O  O175  1  0.49032228  0.14743775  0.79635045  1.0
  O  O176  1  0.50315973  0.33864775  0.70295696  1.0
  O  O177  1  0.86179800  0.51998516  0.70437647  1.0
  O  O178  1  0.50579943  0.84566312  0.30164178  1.0
  O  O179  1  0.15604081  0.65744783  0.29539947  1.0
  O  O180  1  0.34233786  0.47982473  0.29768086  1.0
  O  O181  1  0.68217924  0.32792046  0.75053209  1.0
  O  O182  1  0.35177324  0.67069262  0.25052263  1.0
  O  O183  1  0.66930836  0.50731807  0.79689788  1.0
  O  O184  1  0.50882355  0.65568787  0.19846447  1.0
  O  O185  1  0.33642760  0.85039749  0.20473851  1.0
  O  O186  1  0.15960607  0.48588535  0.20586674  1.0
  O  O187  1  0.65845740  0.14962924  0.80129811  1.0
  O  O188  1  0.50278376  0.34006556  0.79637963  1.0
  O  O189  1  0.85883693  0.51557970  0.79941789  1.0
  O  O190  1  0.83901035  0.17428545  0.74818453  1.0
  O  O191  1  0.66227890  0.82935536  0.25208767  1.0
  F  F192  1  0.32232166  0.43346833  0.56052043  1.0
  F  F193  1  0.83739682  0.48201818  0.06904483  1.0
  F  F194  1  0.50902482  0.35260673  0.05888337  1.0
  F  F195  1  0.63748648  0.16011995  0.06173376  1.0
  F  F196  1  0.44413302  0.65728838  0.01699011  1.0
  F  F197  1  0.20704216  0.55054584  0.02536319  1.0
  F  F198  1  0.33374509  0.78851121  0.02324330  1.0
  F  F199  1  0.78747465  0.40452975  0.98438516  1.0
  F  F200  1  0.59139949  0.38458779  0.97471571  1.0
  F  F201  1  0.60864269  0.20607748  0.97639381  1.0
  F  F202  1  0.71972006  0.60862388  0.95475022  1.0
  F  F203  1  0.06328810  0.69227104  0.55040052  1.0
  F  F204  1  0.88355741  0.27981836  0.95981595  1.0
  F  F205  1  0.38421000  0.11022503  0.95615964  1.0
  F  F206  1  0.04863175  0.33578831  0.04722272  1.0
  F  F207  1  0.65492774  0.70961252  0.04265342  1.0
  F  F208  1  0.28032441  0.94831657  0.04543977  1.0
  F  F209  1  0.62766144  0.70255209  0.95354540  1.0
  F  F210  1  0.06941309  0.37217974  0.95873939  1.0
  F  F211  1  0.28949559  0.92430909  0.95676224  1.0
  F  F212  1  0.87307370  0.30120435  0.04887682  1.0
  F  F213  1  0.68894143  0.56817382  0.04305870  1.0
  F  F214  1  0.67791755  0.99227487  0.55111412  1.0
  F  F215  1  0.42158987  0.12360966  0.04460664  1.0
  F  F216  1  0.99070159  0.67915802  0.44368990  1.0
  F  F217  1  0.34455908  0.31810025  0.45955727  1.0
  F  F218  1  0.68887292  0.06430167  0.44509643  1.0
  F  F219  1  0.40086174  0.58717548  0.93118310  1.0
  F  F220  1  0.18072382  0.59937305  0.94041240  1.0
  F  F221  1  0.40397955  0.81072026  0.93743485  1.0
