# generated using pymatgen
data_Zn4H28C32N2O17
_symmetry_space_group_name_H-M   'P 1'
_cell_length_a   17.88422620
_cell_length_b   18.58661151
_cell_length_c   19.74281112
_cell_angle_alpha   116.93158101
_cell_angle_beta   116.67715656
_cell_angle_gamma   90.04090532
_symmetry_Int_Tables_number   1
_chemical_formula_structural   Zn4H28C32N2O17
_chemical_formula_sum   'Zn8 H56 C64 N4 O34'
_cell_volume   5053.66560507
_cell_formula_units_Z   2
loop_
 _symmetry_equiv_pos_site_id
 _symmetry_equiv_pos_as_xyz
  1  'x, y, z'
loop_
 _atom_site_type_symbol
 _atom_site_label
 _atom_site_symmetry_multiplicity
 _atom_site_fract_x
 _atom_site_fract_y
 _atom_site_fract_z
 _atom_site_occupancy
  Zn  Zn0  1  0.12794729  0.53186255  0.07229824  1.0
  Zn  Zn1  1  0.96114306  0.38117197  0.93044101  1.0
  Zn  Zn2  1  0.96957847  0.55838110  0.93938270  1.0
  Zn  Zn3  1  0.95326430  0.54393153  0.08796960  1.0
  Zn  Zn4  1  0.37799654  0.96919171  0.94081185  1.0
  Zn  Zn5  1  0.54059094  0.95113637  0.07779047  1.0
  Zn  Zn6  1  0.53836308  0.12696232  0.08540624  1.0
  Zn  Zn7  1  0.55615562  0.96932520  0.93148411  1.0
  H  H8  1  0.42931345  0.82848763  0.64757371  1.0
  H  H9  1  0.20942903  0.83724658  0.68387468  1.0
  H  H10  1  0.08555582  0.68756554  0.36854288  1.0
  H  H11  1  0.30500017  0.66197266  0.33175143  1.0
  H  H12  1  0.67891564  0.27711095  0.36242985  1.0
  H  H13  1  0.65862539  0.03607079  0.33944418  1.0
  H  H14  1  0.82614148  0.23059185  0.65270967  1.0
  H  H15  1  0.83290443  0.47190830  0.67614332  1.0
  H  H16  1  0.21431478  0.79993239  0.11559629  1.0
  H  H17  1  0.12983323  0.78451148  0.01422689  1.0
  H  H18  1  0.22134748  0.87942630  0.01975553  1.0
  H  H19  1  0.30595252  0.89258354  0.11991168  1.0
  H  H20  1  0.20030568  0.76616672  0.87517888  1.0
  H  H21  1  0.27175752  0.70071696  0.87179405  1.0
  H  H22  1  0.11125468  0.66995995  0.87084566  1.0
  H  H23  1  0.18481950  0.60659490  0.87055666  1.0
  H  H24  1  0.31945711  0.70758278  0.11577306  1.0
  H  H25  1  0.30657443  0.62743975  0.01606426  1.0
  H  H26  1  0.39508856  0.71959455  0.01569018  1.0
  H  H27  1  0.41010434  0.79889506  0.11680180  1.0
  H  H28  1  0.90676089  0.30779323  0.12329525  1.0
  H  H29  1  0.88838458  0.22908152  0.01922939  1.0
  H  H30  1  0.79978322  0.13668115  0.01903922  1.0
  H  H31  1  0.81789595  0.21610522  0.12266499  1.0
  H  H32  1  0.67642526  0.11973890  0.87980925  1.0
  H  H33  1  0.60523178  0.18531482  0.88302804  1.0
  H  H34  1  0.76407155  0.21333903  0.88023173  1.0
  H  H35  1  0.69345073  0.27935207  0.88545318  1.0
  H  H36  1  0.80705891  0.40448147  0.13199359  1.0
  H  H37  1  0.72042265  0.39406022  0.03540968  1.0
  H  H38  1  0.63049711  0.30070831  0.03288317  1.0
  H  H39  1  0.71682596  0.31199626  0.12998704  1.0
  H  H40  1  0.17405212  0.27570623  0.08170127  1.0
  H  H41  1  0.26422026  0.35984967  0.13504654  1.0
  H  H42  1  0.35452716  0.26962732  0.14095465  1.0
  H  H43  1  0.26357978  0.18556808  0.08617162  1.0
  H  H44  1  0.40106395  0.30453022  0.05444888  1.0
  H  H45  1  0.34532945  0.24441605  0.93842648  1.0
  H  H46  1  0.30911375  0.39358765  0.04598063  1.0
  H  H47  1  0.25240200  0.33141322  0.93007799  1.0
  H  H48  1  0.09061579  0.18767667  0.91418140  1.0
  H  H49  1  0.12221614  0.21110451  0.85259755  1.0
  H  H50  1  0.21416694  0.12227535  0.85838038  1.0
  H  H51  1  0.18185090  0.09823347  0.91915741  1.0
  H  H52  1  0.91276393  0.81350735  0.09499720  1.0
  H  H53  1  0.87490023  0.78867252  0.15276843  1.0
  H  H54  1  0.78920154  0.88280775  0.14797405  1.0
  H  H55  1  0.82471234  0.90452262  0.08710050  1.0
  H  H56  1  0.65908239  0.76353691  0.06964386  1.0
  H  H57  1  0.60017652  0.70354386  0.95367448  1.0
  H  H58  1  0.74579511  0.66940347  0.07174368  1.0
  H  H59  1  0.68774497  0.61128700  0.95565310  1.0
  H  H60  1  0.83019799  0.73097641  0.92747614  1.0
  H  H61  1  0.73999300  0.64683597  0.86990426  1.0
  H  H62  1  0.64870642  0.73630083  0.86554168  1.0
  H  H63  1  0.73866611  0.81962896  0.91935862  1.0
  C  C64  1  0.13911739  0.35872931  0.99400679  1.0
  C  C65  1  0.88066963  0.39549204  0.77154384  1.0
  C  C66  1  0.14579763  0.63540300  0.99972026  1.0
  C  C67  1  0.86404455  0.64643059  0.01583896  1.0
  C  C68  1  0.13054180  0.62026626  0.24301413  1.0
  C  C69  1  0.86219257  0.36894047  0.01272972  1.0
  C  C70  1  0.36349220  0.85983118  0.00481018  1.0
  C  C71  1  0.61228381  0.11263768  0.24412834  1.0
  C  C72  1  0.35933056  0.14154754  0.00577483  1.0
  C  C73  1  0.64479200  0.14467363  0.01060565  1.0
  C  C74  1  0.38290420  0.88598083  0.77311213  1.0
  C  C75  1  0.64838951  0.86863862  0.00796163  1.0
  C  C76  1  0.35947839  0.81239609  0.61919366  1.0
  C  C77  1  0.23528601  0.81816529  0.63969515  1.0
  C  C78  1  0.18058359  0.77639228  0.55029764  1.0
  C  C79  1  0.21106414  0.74794622  0.48930596  1.0
  C  C80  1  0.15541245  0.70051870  0.39682466  1.0
  C  C81  1  0.27919571  0.68669295  0.37592457  1.0
  C  C82  1  0.33413422  0.73401828  0.46523884  1.0
  C  C83  1  0.30396533  0.76670027  0.52649048  1.0
  C  C84  1  0.32571205  0.83746703  0.67467346  1.0
  C  C85  1  0.18880517  0.67048440  0.34114743  1.0
  C  C86  1  0.69363419  0.24002473  0.39422719  1.0
  C  C87  1  0.68262700  0.10361970  0.38094796  1.0
  C  C88  1  0.73244297  0.14030988  0.47066790  1.0
  C  C89  1  0.76377545  0.22870656  0.52813464  1.0
  C  C90  1  0.80931821  0.26779910  0.62107196  1.0
  C  C91  1  0.81371836  0.40428038  0.63456412  1.0
  C  C92  1  0.77126943  0.36751117  0.54465920  1.0
  C  C93  1  0.74301305  0.27907032  0.48707707  1.0
  C  C94  1  0.66372199  0.15408144  0.34237607  1.0
  C  C95  1  0.83319723  0.35382712  0.67316068  1.0
  C  C96  1  0.19770687  0.78340790  0.04861482  1.0
  C  C97  1  0.25823867  0.84567083  0.05147510  1.0
  C  C98  1  0.30657450  0.79813565  0.00368636  1.0
  C  C99  1  0.23837405  0.73331901  0.90745639  1.0
  C  C100  1  0.17953832  0.67042607  0.90564542  1.0
  C  C101  1  0.20620176  0.69362282  0.00048391  1.0
  C  C102  1  0.30090067  0.69155630  0.04859493  1.0
  C  C103  1  0.36024627  0.75262609  0.04926005  1.0
  C  C104  1  0.85596063  0.26263201  0.05553362  1.0
  C  C105  1  0.79673913  0.20114908  0.05511280  1.0
  C  C106  1  0.70178093  0.20649278  0.01119815  1.0
  C  C107  1  0.67333049  0.18401109  0.91622579  1.0
  C  C108  1  0.73204869  0.24616178  0.91714067  1.0
  C  C109  1  0.80182221  0.31066293  0.01259219  1.0
  C  C110  1  0.75751415  0.35834543  0.06425688  1.0
  C  C111  1  0.69790225  0.29665368  0.06293395  1.0
  C  C112  1  0.22981599  0.29617022  0.07884186  1.0
  C  C113  1  0.28987665  0.23633866  0.08242944  1.0
  C  C114  1  0.29851484  0.19842534  0.99923283  1.0
  C  C115  1  0.33655376  0.27066061  0.99596429  1.0
  C  C116  1  0.27543390  0.32939429  0.99092715  1.0
  C  C117  1  0.19648652  0.29832989  0.99264970  1.0
  C  C118  1  0.14740490  0.20958435  0.91384094  1.0
  C  C119  1  0.20810977  0.15044195  0.91749700  1.0
  C  C120  1  0.85405836  0.79230675  0.09313252  1.0
  C  C121  1  0.79589765  0.85382111  0.08928844  1.0
  C  C122  1  0.70475900  0.80722624  0.00665363  1.0
  C  C123  1  0.66581285  0.73607981  0.01102576  1.0
  C  C124  1  0.72395998  0.67434810  0.01277435  1.0
  C  C125  1  0.80352590  0.70404284  0.01141004  1.0
  C  C126  1  0.77330527  0.70975663  0.92800877  1.0
  C  C127  1  0.71332001  0.76941544  0.92424810  1.0
  N  N128  1  0.42754180  0.74950852  0.49468484  1.0
  N  N129  1  0.08705451  0.76257756  0.52026157  1.0
  N  N130  1  0.75634514  0.42510148  0.50999585  1.0
  N  N131  1  0.75299191  0.08261369  0.50513402  1.0
  O  O132  1  0.00117298  0.50306101  0.00865397  1.0
  O  O133  1  0.17727981  0.43581935  0.05093888  1.0
  O  O134  1  0.89485293  0.34856907  0.80464893  1.0
  O  O135  1  0.06472560  0.62485110  0.95238628  1.0
  O  O136  1  0.05790252  0.32867604  0.94055515  1.0
  O  O137  1  0.17985329  0.60273898  0.04726803  1.0
  O  O138  1  0.90245928  0.47495416  0.81287449  1.0
  O  O139  1  0.89716394  0.63113787  0.96704889  1.0
  O  O140  1  0.04912262  0.60527778  0.21269717  1.0
  O  O141  1  0.87879749  0.61911130  0.06835325  1.0
  O  O142  1  0.16935588  0.59733490  0.19910408  1.0
  O  O143  1  0.88895576  0.33406639  0.95833874  1.0
  O  O144  1  0.88234508  0.44698057  0.06703428  1.0
  O  O145  1  0.50459043  0.00539132  0.00749603  1.0
  O  O146  1  0.32563311  0.90055596  0.96743002  1.0
  O  O147  1  0.58572554  0.03340137  0.20273383  1.0
  O  O148  1  0.43904330  0.17633431  0.06475980  1.0
  O  O149  1  0.44477025  0.86682072  0.04291692  1.0
  O  O150  1  0.32613822  0.06330923  0.95247967  1.0
  O  O151  1  0.60013106  0.15951107  0.21108019  1.0
  O  O152  1  0.61685613  0.17530479  0.06423657  1.0
  O  O153  1  0.46409415  0.90869371  0.80488965  1.0
  O  O154  1  0.63008450  0.06702312  0.95712075  1.0
  O  O155  1  0.34314950  0.89986767  0.81575539  1.0
  O  O156  1  0.63208505  0.89715325  0.07079215  1.0
  O  O157  1  0.62203014  0.88768365  0.94801308  1.0
  O  O158  1  0.47494300  0.81951068  0.55720512  1.0
  O  O159  1  0.45175278  0.69174131  0.45322842  1.0
  O  O160  1  0.03954980  0.77119716  0.45691692  1.0
  O  O161  1  0.06285047  0.74515767  0.56199647  1.0
  O  O162  1  0.76490022  0.40604044  0.44543429  1.0
  O  O163  1  0.73822104  0.48970516  0.54935908  1.0
  O  O164  1  0.82712520  0.10037167  0.56705432  1.0
  O  O165  1  0.69517711  0.01919466  0.46816254  1.0
