# generated using pymatgen
data_Zr3H26(C22O9)2
_symmetry_space_group_name_H-M   'P 1'
_cell_length_a   19.04724388
_cell_length_b   19.11860127
_cell_length_c   19.11860719
_cell_angle_alpha   60.04621086
_cell_angle_beta   60.12275922
_cell_angle_gamma   60.12266636
_symmetry_Int_Tables_number   1
_chemical_formula_structural   Zr3H26(C22O9)2
_chemical_formula_sum   'Zr6 H52 C88 O36'
_cell_volume   4933.83429763
_cell_formula_units_Z   2
loop_
 _symmetry_equiv_pos_site_id
 _symmetry_equiv_pos_as_xyz
  1  'x, y, z'
loop_
 _atom_site_type_symbol
 _atom_site_label
 _atom_site_symmetry_multiplicity
 _atom_site_fract_x
 _atom_site_fract_y
 _atom_site_fract_z
 _atom_site_occupancy
  Zr  Zr0  1  0.59312286  0.09243420  0.90759252  1.0
  Zr  Zr1  1  0.40747991  0.90756116  0.09245298  1.0
  Zr  Zr2  1  0.59312311  0.90759594  0.09243180  1.0
  Zr  Zr3  1  0.40748016  0.09245768  0.90755662  1.0
  Zr  Zr4  1  0.59254989  0.90770255  0.90769874  1.0
  Zr  Zr5  1  0.40789189  0.09233567  0.09233179  1.0
  H  H6  1  0.71910005  0.92725881  0.92725511  1.0
  H  H7  1  0.42707852  0.92721572  0.92721176  1.0
  H  H8  1  0.42756613  0.92730105  0.21811085  1.0
  H  H9  1  0.42756656  0.21811536  0.92729648  1.0
  H  H10  1  0.17743901  0.88895948  0.32022523  1.0
  H  H11  1  0.05030805  0.88653362  0.45031933  1.0
  H  H12  1  0.82045948  0.11351656  0.67716044  1.0
  H  H13  1  0.95068151  0.11275702  0.55014033  1.0
  H  H14  1  0.81957304  0.88919285  0.67801524  1.0
  H  H15  1  0.94964039  0.88675237  0.55084661  1.0
  H  H16  1  0.17808277  0.11333754  0.31948718  1.0
  H  H17  1  0.05114381  0.11259328  0.44971454  1.0
  H  H18  1  0.38906143  0.67734234  0.11344338  1.0
  H  H19  1  0.38643289  0.55042524  0.11267864  1.0
  H  H20  1  0.61356362  0.32038491  0.88890965  1.0
  H  H21  1  0.61283434  0.45058666  0.88644988  1.0
  H  H22  1  0.38925087  0.31955391  0.11327537  1.0
  H  H23  1  0.38653993  0.44989194  0.11249203  1.0
  H  H24  1  0.61340403  0.67807093  0.88910036  1.0
  H  H25  1  0.61276180  0.55101629  0.88665646  1.0
  H  H26  1  0.38924973  0.11327935  0.31955162  1.0
  H  H27  1  0.38653972  0.11249594  0.44988951  1.0
  H  H28  1  0.61340197  0.88910251  0.67806845  1.0
  H  H29  1  0.61276168  0.88665696  0.55101388  1.0
  H  H30  1  0.38906298  0.11344923  0.67733724  1.0
  H  H31  1  0.38643511  0.11268402  0.55041958  1.0
  H  H32  1  0.61356359  0.88891595  0.32037848  1.0
  H  H33  1  0.61283549  0.88645285  0.45058248  1.0
  H  H34  1  0.81957317  0.67801853  0.88918952  1.0
  H  H35  1  0.94964066  0.55085050  0.88674882  1.0
  H  H36  1  0.17808323  0.31948920  0.11333387  1.0
  H  H37  1  0.05114358  0.44971721  0.11259079  1.0
  H  H38  1  0.17743833  0.32023319  0.88895212  1.0
  H  H39  1  0.05030496  0.45032557  0.88653007  1.0
  H  H40  1  0.82045779  0.67716386  0.11351291  1.0
  H  H41  1  0.95068020  0.55014426  0.11275469  1.0
  H  H42  1  0.17971890  0.89035920  0.11205560  1.0
  H  H43  1  0.17971847  0.11205705  0.89035934  1.0
  H  H44  1  0.81881593  0.11206363  0.89031988  1.0
  H  H45  1  0.81881554  0.89032481  0.11206056  1.0
  H  H46  1  0.61397613  0.67753913  0.32002465  1.0
  H  H47  1  0.61319783  0.55061201  0.45014813  1.0
  H  H48  1  0.38889214  0.31987196  0.67767394  1.0
  H  H49  1  0.38626780  0.44999667  0.55074058  1.0
  H  H50  1  0.61397594  0.32002878  0.67753628  1.0
  H  H51  1  0.61319721  0.45015282  0.55060916  1.0
  H  H52  1  0.38889213  0.67767807  0.31986818  1.0
  H  H53  1  0.38626755  0.55074456  0.44999346  1.0
  H  H54  1  0.88072356  0.81493793  0.18518713  1.0
  H  H55  1  0.12009296  0.81500184  0.18511589  1.0
  H  H56  1  0.88072235  0.18519315  0.81493478  1.0
  H  H57  1  0.12009129  0.18512264  0.81499788  1.0
  C  C58  1  0.73323859  0.00228090  0.76292497  1.0
  C  C59  1  0.50193915  0.76295126  0.00225033  1.0
  C  C60  1  0.26273462  0.00214436  0.23268681  1.0
  C  C61  1  0.50280755  0.23267500  0.00219204  1.0
  C  C62  1  0.73496386  0.00198595  0.00198258  1.0
  C  C63  1  0.50244078  0.23288370  0.76279423  1.0
  C  C64  1  0.26182233  0.00202128  0.00201800  1.0
  C  C65  1  0.50244225  0.76279855  0.23287946  1.0
  C  C66  1  0.73323905  0.76292751  0.00227819  1.0
  C  C67  1  0.50281038  0.00219674  0.23266990  1.0
  C  C68  1  0.26273510  0.23269241  0.00213791  1.0
  C  C69  1  0.50194047  0.00225406  0.76294660  1.0
  C  C70  1  0.18556801  0.00151414  0.31122425  1.0
  C  C71  1  0.81156051  0.00165069  0.68555171  1.0
  C  C72  1  0.14876378  0.93777916  0.34932788  1.0
  C  C73  1  0.07703734  0.93703894  0.42285972  1.0
  C  C74  1  0.84962692  0.06414314  0.64863221  1.0
  C  C75  1  0.92313729  0.06304933  0.57686724  1.0
  C  C76  1  0.84904436  0.93794157  0.64912748  1.0
  C  C77  1  0.92254093  0.93720099  0.57732993  1.0
  C  C78  1  0.14920564  0.06401591  0.34887989  1.0
  C  C79  1  0.07750658  0.06291989  0.42244249  1.0
  C  C80  1  0.03908046  0.99974259  0.46136203  1.0
  C  C81  1  0.96154612  0.99981625  0.53892162  1.0
  C  C82  1  0.50145482  0.68566590  0.00158800  1.0
  C  C83  1  0.50189144  0.31132199  0.00147771  1.0
  C  C84  1  0.43776482  0.64880334  0.06406592  1.0
  C  C85  1  0.43701192  0.57708591  0.06297729  1.0
  C  C86  1  0.56427359  0.34948277  0.93772109  1.0
  C  C87  1  0.56311127  0.42306754  0.93696764  1.0
  C  C88  1  0.43802289  0.34898969  0.06395009  1.0
  C  C89  1  0.43716179  0.42260852  0.06284180  1.0
  C  C90  1  0.56403308  0.64924010  0.93785893  1.0
  C  C91  1  0.56297243  0.57749182  0.93712051  1.0
  C  C92  1  0.49973721  0.53911777  0.99974527  1.0
  C  C93  1  0.49982746  0.46155868  0.99966886  1.0
  C  C94  1  0.50189033  0.00148285  0.31131869  1.0
  C  C95  1  0.50145450  0.00159228  0.68566202  1.0
  C  C96  1  0.43802268  0.06395534  0.34898699  1.0
  C  C97  1  0.43716091  0.06284417  0.42260664  1.0
  C  C98  1  0.56403271  0.93786125  0.64923663  1.0
  C  C99  1  0.56297325  0.93712237  0.57748898  1.0
  C  C100  1  0.43776552  0.06407057  0.64879872  1.0
  C  C101  1  0.43701343  0.06298165  0.57708175  1.0
  C  C102  1  0.56427317  0.93772552  0.34948007  1.0
  C  C103  1  0.56310999  0.93697015  0.42306424  1.0
  C  C104  1  0.49982716  0.99967011  0.46155726  1.0
  C  C105  1  0.49973720  0.99974780  0.53911463  1.0
  C  C106  1  0.81155944  0.68555466  0.00164788  1.0
  C  C107  1  0.18556784  0.31123037  0.00150809  1.0
  C  C108  1  0.84904352  0.64913029  0.93793953  1.0
  C  C109  1  0.92253985  0.57733038  0.93719974  1.0
  C  C110  1  0.14920602  0.34888318  0.06401164  1.0
  C  C111  1  0.07750860  0.42244545  0.06291565  1.0
  C  C112  1  0.14876443  0.34933475  0.93777258  1.0
  C  C113  1  0.07703814  0.42286617  0.93703277  1.0
  C  C114  1  0.84962782  0.64863393  0.06414034  1.0
  C  C115  1  0.92313641  0.57686745  0.06304822  1.0
  C  C116  1  0.96154634  0.53892120  0.99981377  1.0
  C  C117  1  0.03908198  0.46136677  0.99973798  1.0
  C  C118  1  0.14811145  0.93742976  0.06429861  1.0
  C  C119  1  0.07519895  0.93534897  0.06495006  1.0
  C  C120  1  0.03682143  0.87063084  0.12907108  1.0
  C  C121  1  0.14811185  0.06430053  0.93742880  1.0
  C  C122  1  0.07520012  0.06495512  0.93534326  1.0
  C  C123  1  0.03682275  0.12907562  0.87062651  1.0
  C  C124  1  0.85102418  0.06430799  0.93746241  1.0
  C  C125  1  0.92537084  0.06497582  0.93538611  1.0
  C  C126  1  0.96437398  0.12908181  0.87063321  1.0
  C  C127  1  0.85102465  0.93746539  0.06430411  1.0
  C  C128  1  0.92537006  0.93539206  0.06497107  1.0
  C  C129  1  0.96437241  0.87063959  0.12907714  1.0
  C  C130  1  0.18399707  0.00137697  0.00137519  1.0
  C  C131  1  0.03757043  0.99997891  0.99997338  1.0
  C  C132  1  0.81408686  0.00138104  0.00137655  1.0
  C  C133  1  0.96336512  0.00000878  0.00000433  1.0
  C  C134  1  0.50176038  0.68556762  0.31134868  1.0
  C  C135  1  0.50176058  0.31135300  0.68556215  1.0
  C  C136  1  0.56443610  0.64887936  0.34926795  1.0
  C  C137  1  0.56329687  0.57719770  0.42277372  1.0
  C  C138  1  0.43780745  0.34918231  0.64894872  1.0
  C  C139  1  0.43699454  0.42269655  0.57726557  1.0
  C  C140  1  0.56443732  0.34927055  0.64887708  1.0
  C  C141  1  0.56329717  0.42277712  0.57719392  1.0
  C  C142  1  0.43780699  0.64895179  0.34918047  1.0
  C  C143  1  0.43699476  0.57726949  0.42269366  1.0
  C  C144  1  0.49984922  0.53902657  0.46149107  1.0
  C  C145  1  0.49984929  0.46149332  0.53902472  1.0
  O  O146  1  0.70312381  0.06148291  0.79370043  1.0
  O  O147  1  0.44216815  0.79370292  0.06149925  1.0
  O  O148  1  0.29325386  0.94265559  0.20214815  1.0
  O  O149  1  0.56247336  0.20204111  0.94281003  1.0
  O  O150  1  0.70442887  0.94241514  0.06128890  1.0
  O  O151  1  0.44261928  0.20234141  0.79359836  1.0
  O  O152  1  0.29258647  0.06133942  0.94244755  1.0
  O  O153  1  0.56198147  0.79360370  0.20243558  1.0
  O  O154  1  0.70248560  0.79393306  0.94271424  1.0
  O  O155  1  0.44309246  0.06139044  0.20209667  1.0
  O  O156  1  0.29381718  0.20213747  0.06134224  1.0
  O  O157  1  0.56128644  0.94268844  0.79390402  1.0
  O  O158  1  0.56247306  0.94281470  0.20203744  1.0
  O  O159  1  0.29325418  0.20215534  0.94264712  1.0
  O  O160  1  0.44216775  0.06150295  0.79369936  1.0
  O  O161  1  0.70312420  0.79370464  0.06147847  1.0
  O  O162  1  0.70442775  0.06129291  0.94241175  1.0
  O  O163  1  0.44261864  0.79360315  0.20233739  1.0
  O  O164  1  0.29258880  0.94245077  0.06133319  1.0
  O  O165  1  0.56198107  0.20243927  0.79360137  1.0
  O  O166  1  0.44309014  0.20210333  0.06138268  1.0
  O  O167  1  0.70248551  0.94271833  0.79392938  1.0
  O  O168  1  0.56128685  0.79390765  0.94268491  1.0
  O  O169  1  0.29381587  0.06135032  0.20213071  1.0
  O  O170  1  0.44831451  0.15605470  0.94790273  1.0
  O  O171  1  0.44831310  0.94790770  0.15605153  1.0
  O  O172  1  0.44753271  0.94810624  0.94810202  1.0
  O  O173  1  0.65686388  0.94810631  0.94810302  1.0
  O  O174  1  0.53854004  0.88504179  0.03848757  1.0
  O  O175  1  0.53854090  0.03849124  0.88503682  1.0
  O  O176  1  0.38474286  0.03831438  0.03830929  1.0
  O  O177  1  0.53917417  0.03830199  0.03829876  1.0
  O  O178  1  0.93155932  0.80698586  0.19252176  1.0
  O  O179  1  0.06986980  0.80700489  0.19250779  1.0
  O  O180  1  0.93155779  0.19252739  0.80698318  1.0
  O  O181  1  0.06986683  0.19251634  0.80700170  1.0
