# generated using pymatgen
data_MgHC4O3
_symmetry_space_group_name_H-M   'P 1'
_cell_length_a   6.88935740
_cell_length_b   15.23153998
_cell_length_c   15.23233797
_cell_angle_alpha   117.77089256
_cell_angle_beta   98.67768450
_cell_angle_gamma   98.67432658
_symmetry_Int_Tables_number   1
_chemical_formula_structural   MgHC4O3
_chemical_formula_sum   'Mg6 H6 C24 O18'
_cell_volume   1352.70389030
_cell_formula_units_Z   6
loop_
 _symmetry_equiv_pos_site_id
 _symmetry_equiv_pos_as_xyz
  1  'x, y, z'
loop_
 _atom_site_type_symbol
 _atom_site_label
 _atom_site_symmetry_multiplicity
 _atom_site_fract_x
 _atom_site_fract_y
 _atom_site_fract_z
 _atom_site_occupancy
  Mg  Mg0  1  0.01751067  0.73176571  0.40605260  1.0
  Mg  Mg1  1  0.28580893  0.67424527  0.26821473  1.0
  Mg  Mg2  1  0.61142624  0.59391716  0.32573987  1.0
  Mg  Mg3  1  0.98248950  0.26823409  0.59394701  1.0
  Mg  Mg4  1  0.71419309  0.32575530  0.73178536  1.0
  Mg  Mg5  1  0.38857392  0.40608263  0.67425974  1.0
  H  H6  1  0.68595139  0.55475504  0.53273334  1.0
  H  H7  1  0.13114625  0.97795544  0.44523675  1.0
  H  H8  1  0.15319564  0.46718725  0.02203476  1.0
  H  H9  1  0.31404839  0.44524399  0.46726588  1.0
  H  H10  1  0.86885430  0.02204512  0.55476324  1.0
  H  H11  1  0.84680600  0.53281254  0.97796495  1.0
  C  C12  1  0.93311690  0.56646853  0.46543479  1.0
  C  C13  1  0.36662573  0.89893238  0.43351556  1.0
  C  C14  1  0.46772935  0.53451974  0.10102429  1.0
  C  C15  1  0.06687995  0.43353050  0.53456488  1.0
  C  C16  1  0.63337443  0.10106742  0.56648404  1.0
  C  C17  1  0.53227082  0.46548006  0.89897466  1.0
  C  C18  1  0.24291357  0.56396701  0.39109208  1.0
  C  C19  1  0.67898850  0.82711247  0.43603325  1.0
  C  C20  1  0.85190751  0.60894184  0.17293386  1.0
  C  C21  1  0.75708698  0.43603355  0.60890856  1.0
  C  C22  1  0.32101167  0.17288733  0.56396636  1.0
  C  C23  1  0.14809304  0.39105872  0.82706613  1.0
  C  C24  1  0.82434757  0.53084159  0.51796305  1.0
  C  C25  1  0.29347483  0.98710876  0.46914056  1.0
  C  C26  1  0.30635596  0.48195067  0.01287385  1.0
  C  C27  1  0.17564927  0.46915744  0.48203729  1.0
  C  C28  1  0.70652533  0.01289103  0.53085970  1.0
  C  C29  1  0.69364382  0.51804836  0.98712538  1.0
  C  C30  1  0.11488902  0.53377751  0.44730610  1.0
  C  C31  1  0.58113561  0.91353864  0.46621874  1.0
  C  C32  1  0.66766261  0.55271174  0.08648212  1.0
  C  C33  1  0.88510967  0.46622229  0.55269406  1.0
  C  C34  1  0.41886455  0.08646115  0.53378087  1.0
  C  C35  1  0.33233756  0.44728806  0.91351749  1.0
  O  O36  1  0.86170774  0.62836823  0.43504624  1.0
  O  O37  1  0.23332557  0.80663039  0.37162656  1.0
  O  O38  1  0.42673133  0.56492705  0.19332382  1.0
  O  O39  1  0.13829242  0.37163156  0.56495468  1.0
  O  O40  1  0.76667460  0.19336941  0.62837305  1.0
  O  O41  1  0.57326884  0.43507274  0.80667513  1.0
  O  O42  1  0.19152133  0.62619945  0.36173066  1.0
  O  O43  1  0.56534542  0.73552585  0.37378324  1.0
  O  O44  1  0.82976162  0.63828531  0.26450067  1.0
  O  O45  1  0.80847922  0.37380111  0.63826933  1.0
  O  O46  1  0.43465474  0.26447395  0.62621636  1.0
  O  O47  1  0.17024001  0.36171448  0.73549838  1.0
  O  O48  1  0.39897925  0.53052627  0.37272284  1.0
  O  O49  1  0.86848910  0.84217884  0.46948321  1.0
  O  O50  1  0.02637484  0.62732051  0.15790226  1.0
  O  O51  1  0.60102091  0.46947352  0.62727677  1.0
  O  O52  1  0.13151106  0.15782096  0.53051640  1.0
  O  O53  1  0.97362571  0.37268005  0.84209708  1.0
