# generated using pymatgen
data_Zn2H17C38I4N2O8F
_symmetry_space_group_name_H-M   'P 1'
_cell_length_a   10.79222791
_cell_length_b   11.64508545
_cell_length_c   13.54102794
_cell_angle_alpha   96.26670727
_cell_angle_beta   108.65134005
_cell_angle_gamma   106.14692652
_symmetry_Int_Tables_number   1
_chemical_formula_structural   Zn2H17C38I4N2O8F
_chemical_formula_sum   'Zn2 H17 C38 I4 N2 O8 F1'
_cell_volume   1511.67271584
_cell_formula_units_Z   1
loop_
 _symmetry_equiv_pos_site_id
 _symmetry_equiv_pos_as_xyz
  1  'x, y, z'
loop_
 _atom_site_type_symbol
 _atom_site_label
 _atom_site_symmetry_multiplicity
 _atom_site_fract_x
 _atom_site_fract_y
 _atom_site_fract_z
 _atom_site_occupancy
  Zn  Zn0  1  0.93895354  0.35843003  0.48016566  1.0
  Zn  Zn1  1  0.00188149  0.60413655  0.46947776  1.0
  H  H2  1  0.27413061  0.31860853  0.34547508  1.0
  H  H3  1  0.92562480  0.41504773  0.78882025  1.0
  H  H4  1  0.81612987  0.29735644  0.84931775  1.0
  H  H5  1  0.67263982  0.16321665  0.92683893  1.0
  H  H6  1  0.11778569  0.57483704  0.26412683  1.0
  H  H7  1  0.05930469  0.18271092  0.59559101  1.0
  H  H8  1  0.76446135  0.88481422  0.71518292  1.0
  H  H9  1  0.96666675  0.01408924  0.68006430  1.0
  H  H10  1  0.66816264  0.18850431  0.42925154  1.0
  H  H11  1  0.50212649  0.29025260  0.50886050  1.0
  H  H12  1  0.45785373  0.11847533  0.38850718  1.0
  H  H13  1  0.20778539  0.03997984  0.36044954  1.0
  H  H14  1  0.47646568  0.46475525  0.65683720  1.0
  H  H15  1  0.66776972  0.65339682  0.60896028  1.0
  H  H16  1  0.43954807  0.68123975  0.44615798  1.0
  H  H17  1  0.46615562  0.50632541  0.29786691  1.0
  H  H18  1  0.29135495  0.79285088  0.02802436  1.0
  C  C19  1  0.90979944  0.41561106  0.27067710  1.0
  C  C20  1  0.45512463  0.59491710  0.46050133  1.0
  C  C21  1  0.46672354  0.49749651  0.37767196  1.0
  C  C22  1  0.59191503  0.48162331  0.46883560  1.0
  C  C23  1  0.20884108  0.70951065  0.97749963  1.0
  C  C24  1  0.07270777  0.58261031  0.79833714  1.0
  C  C25  1  0.77945791  0.27526500  0.08708903  1.0
  C  C26  1  0.75619298  0.24576542  0.97757640  1.0
  C  C27  1  0.83789998  0.32204790  0.93457143  1.0
  C  C28  1  0.94654876  0.42981543  0.99845581  1.0
  C  C29  1  0.97325469  0.45667078  0.11012834  1.0
  C  C30  1  0.72484151  0.48390102  0.45738514  1.0
  C  C31  1  0.02889669  0.51502798  0.95421742  1.0
  C  C32  1  0.13857618  0.62268117  0.02290787  1.0
  C  C33  1  0.17063765  0.63678663  0.13580553  1.0
  C  C34  1  0.09146539  0.55946476  0.17803950  1.0
  C  C35  1  0.00350117  0.49762637  0.84414580  1.0
  C  C36  1  0.17340711  0.69094429  0.86843932  1.0
  C  C37  1  0.88584617  0.37969257  0.15392570  1.0
  C  C38  1  0.89671654  0.04990444  0.62469445  1.0
  C  C39  1  0.24203418  0.92219186  0.47426124  1.0
  C  C40  1  0.28288620  0.00984703  0.41688955  1.0
  C  C41  1  0.03712375  0.55289406  0.67957964  1.0
  C  C42  1  0.42248334  0.05305931  0.43351715  1.0
  C  C43  1  0.51757138  0.01109579  0.50630684  1.0
  C  C44  1  0.46296511  0.92477768  0.56166546  1.0
  C  C45  1  0.66494515  0.05255894  0.52841678  1.0
  C  C46  1  0.75262142  0.00492769  0.60315876  1.0
  C  C47  1  0.69503780  0.91848091  0.65712462  1.0
  C  C48  1  0.55606222  0.88139476  0.63909658  1.0
  C  C49  1  0.72772649  0.14395930  0.48333799  1.0
  C  C50  1  0.94856899  0.14165886  0.57786134  1.0
  C  C51  1  0.21655933  0.49187475  0.49265242  1.0
  C  C52  1  0.48755462  0.37695023  0.49427555  1.0
  C  C53  1  0.36370676  0.39240468  0.40391180  1.0
  C  C54  1  0.35152442  0.49142597  0.48705509  1.0
  C  C55  1  0.47540440  0.47417277  0.57707833  1.0
  C  C56  1  0.57874296  0.57923165  0.55077020  1.0
  I  I57  1  0.63960498  0.15593746  0.14020909  1.0
  I  I58  1  0.02528039  0.84491646  0.44376640  1.0
  I  I59  1  0.47531890  0.76486028  0.72615909  1.0
  I  I60  1  0.34720572  0.78125869  0.24193785  1.0
  N  N61  1  0.86467595  0.18889089  0.50870922  1.0
  N  N62  1  0.32560977  0.88240181  0.54352277  1.0
  O  O63  1  0.92933531  0.33609273  0.32595367  1.0
  O  O64  1  0.91017448  0.52189977  0.30395062  1.0
  O  O65  1  0.74369051  0.38284277  0.43415949  1.0
  O  O66  1  0.81213851  0.59044952  0.47242190  1.0
  O  O67  1  0.96493972  0.44188389  0.63264876  1.0
  O  O68  1  0.07961738  0.63787252  0.63472371  1.0
  O  O69  1  0.15126794  0.40538066  0.52620793  1.0
  O  O70  1  0.17428618  0.57813307  0.45950262  1.0
  F  F71  1  0.24181867  0.78117050  0.83052027  1.0
