# generated using pymatgen
data_Al3H13C42(I3O7)2
_symmetry_space_group_name_H-M   'P 1'
_cell_length_a   14.52054878
_cell_length_b   14.52475647
_cell_length_c   27.77585650
_cell_angle_alpha   90.48807261
_cell_angle_beta   90.48646008
_cell_angle_gamma   119.48172711
_symmetry_Int_Tables_number   1
_chemical_formula_structural   Al3H13C42(I3O7)2
_chemical_formula_sum   'Al6 H26 C84 I12 O28'
_cell_volume   5098.85430596
_cell_formula_units_Z   2
loop_
 _symmetry_equiv_pos_site_id
 _symmetry_equiv_pos_as_xyz
  1  'x, y, z'
loop_
 _atom_site_type_symbol
 _atom_site_label
 _atom_site_symmetry_multiplicity
 _atom_site_fract_x
 _atom_site_fract_y
 _atom_site_fract_z
 _atom_site_occupancy
  Al  Al0  1  0.49919195  0.20669024  0.50119668  1.0
  Al  Al1  1  0.74109181  0.25920737  0.49808088  1.0
  Al  Al2  1  0.69939195  0.44126762  0.50383257  1.0
  Al  Al3  1  0.20616604  0.49913635  0.00109378  1.0
  Al  Al4  1  0.25891908  0.74104723  0.99805142  1.0
  Al  Al5  1  0.44087676  0.69912872  0.00382044  1.0
  H  H6  1  0.99386679  0.69572023  0.76019015  1.0
  H  H7  1  0.37999105  0.02669332  0.22584788  1.0
  H  H8  1  0.61167383  0.61843485  0.22913364  1.0
  H  H9  1  0.99318534  0.39424277  0.22103679  1.0
  H  H10  1  0.88340324  0.39120737  0.79253209  1.0
  H  H11  1  0.58195172  0.46395139  0.80316518  1.0
  H  H12  1  0.53841657  0.09358558  0.79935158  1.0
  H  H13  1  0.39053812  0.88380823  0.29267453  1.0
  H  H14  1  0.46393123  0.58218216  0.30315068  1.0
  H  H15  1  0.09378193  0.53936752  0.29926716  1.0
  H  H16  1  0.18905063  0.57402841  0.76281854  1.0
  H  H17  1  0.27152307  0.31365869  0.77086641  1.0
  H  H18  1  0.44228182  0.62855580  0.76131763  1.0
  H  H19  1  0.36104281  0.79516985  0.75233901  1.0
  H  H20  1  0.57400550  0.18914766  0.26271359  1.0
  H  H21  1  0.62878483  0.44284828  0.26117807  1.0
  H  H22  1  0.79539485  0.36095085  0.25229840  1.0
  H  H23  1  0.67363571  0.91577388  0.77188411  1.0
  H  H24  1  0.69514313  0.99352446  0.26048797  1.0
  H  H25  1  0.31384889  0.27180755  0.27099253  1.0
  H  H26  1  0.91485917  0.67332925  0.27172084  1.0
  H  H27  1  0.02641931  0.38017429  0.72589396  1.0
  H  H28  1  0.61816227  0.61189412  0.72926853  1.0
  H  H29  1  0.39352374  0.99260611  0.72107562  1.0
  H  H30  1  0.33249334  0.08241995  0.52969657  1.0
  H  H31  1  0.08001897  0.33286506  0.02918745  1.0
  C  C32  1  0.54481940  0.39204658  0.57092955  1.0
  C  C33  1  0.50875990  0.98782084  0.19507212  1.0
  C  C34  1  0.45295881  0.46886933  0.20290283  1.0
  C  C35  1  0.98991009  0.54992942  0.19958874  1.0
  C  C36  1  0.93948520  0.45543788  0.77017912  1.0
  C  C37  1  0.52178841  0.46388792  0.77936393  1.0
  C  C38  1  0.53592961  0.03225167  0.77552894  1.0
  C  C39  1  0.45488326  0.93969206  0.27031811  1.0
  C  C40  1  0.46389584  0.52204127  0.27935826  1.0
  C  C41  1  0.03229213  0.53657436  0.27544631  1.0
  C  C42  1  0.91049156  0.51716083  0.73296441  1.0
  C  C43  1  0.60410573  0.12253363  0.56780697  1.0
  C  C44  1  0.44638054  0.37123946  0.74490581  1.0
  C  C45  1  0.62895188  0.04268858  0.74400179  1.0
  C  C46  1  0.51655451  0.91037491  0.23320873  1.0
  C  C47  1  0.37112717  0.44650776  0.24498034  1.0
  C  C48  1  0.04230714  0.62934415  0.24387775  1.0
  C  C49  1  0.05457024  0.58465353  0.84097983  1.0
  C  C50  1  0.40716979  0.48908814  0.84611074  1.0
  C  C51  1  0.49540495  0.89083324  0.84230714  1.0
  C  C52  1  0.58417288  0.05475672  0.34110528  1.0
  C  C53  1  0.48947194  0.40764998  0.34609062  1.0
  C  C54  1  0.85951109  0.42925071  0.56195189  1.0
  C  C55  1  0.89067346  0.49558589  0.34220455  1.0
  C  C56  1  0.95893764  0.48327839  0.64613836  1.0
  C  C57  1  0.49190423  0.43843792  0.65526720  1.0
  C  C58  1  0.56884265  0.02850917  0.65233877  1.0
  C  C59  1  0.48293365  0.95845250  0.14627698  1.0
  C  C60  1  0.43790062  0.49183936  0.15527261  1.0
  C  C61  1  0.02821331  0.56900993  0.15222970  1.0
  C  C62  1  0.53688379  0.38128949  0.43528918  1.0
  C  C63  1  0.60242504  0.12015048  0.43170654  1.0
  C  C64  1  0.83080578  0.43493198  0.43163942  1.0
  C  C65  1  0.39101888  0.54432537  0.07093629  1.0
  C  C66  1  0.38114391  0.53684131  0.93529383  1.0
  C  C67  1  0.12000774  0.60251608  0.93154988  1.0
  C  C68  1  0.43455867  0.83091051  0.93171700  1.0
  C  C69  1  0.07870846  0.61823645  0.71653866  1.0
  C  C70  1  0.37012826  0.46200626  0.72138866  1.0
  C  C71  1  0.53167547  0.87921302  0.71785205  1.0
  C  C72  1  0.61795487  0.07841590  0.21664689  1.0
  C  C73  1  0.46200823  0.37041440  0.22139965  1.0
  C  C74  1  0.87884946  0.53147496  0.21773256  1.0
  C  C75  1  0.00069266  0.62538312  0.75287787  1.0
  C  C76  1  0.12187479  0.60425059  0.06761075  1.0
  C  C77  1  0.34868316  0.37983309  0.76180520  1.0
  C  C78  1  0.61139750  0.93302252  0.76089265  1.0
  C  C79  1  0.62488392  0.00047950  0.25310026  1.0
  C  C80  1  0.37995005  0.34897139  0.26188117  1.0
  C  C81  1  0.93243297  0.61132075  0.26074858  1.0
  C  C82  1  0.07695901  0.59235017  0.88375210  1.0
  C  C83  1  0.40019207  0.50904159  0.88814139  1.0
  C  C84  1  0.47033916  0.86919353  0.88423274  1.0
  C  C85  1  0.59194241  0.07708583  0.38388377  1.0
  C  C86  1  0.50937655  0.40059341  0.38811907  1.0
  C  C87  1  0.42909725  0.85892000  0.06209228  1.0
  C  C88  1  0.86903848  0.47053162  0.38412872  1.0
  C  C89  1  0.92258153  0.46299800  0.60526782  1.0
  C  C90  1  0.51290409  0.41904371  0.61540895  1.0
  C  C91  1  0.58837403  0.06756012  0.61253910  1.0
  C  C92  1  0.46269427  0.92187397  0.10544126  1.0
  C  C93  1  0.41817355  0.51259916  0.11542878  1.0
  C  C94  1  0.06705229  0.58847143  0.11238577  1.0
  C  C95  1  0.10892443  0.55721637  0.75380543  1.0
  C  C96  1  0.44430028  0.55507207  0.75609919  1.0
  C  C97  1  0.43786037  0.86662369  0.74967704  1.0
  C  C98  1  0.98804721  0.50913314  0.69494631  1.0
  C  C99  1  0.55701994  0.10894717  0.25382135  1.0
  C  C100  1  0.55519760  0.44473826  0.25603076  1.0
  C  C101  1  0.86667423  0.43788962  0.24959458  1.0
  C  C102  1  0.03055379  0.56413928  0.79127283  1.0
  C  C103  1  0.42344069  0.47285353  0.79745517  1.0
  C  C104  1  0.51758557  0.92127815  0.79365954  1.0
  C  C105  1  0.56367254  0.03063893  0.29140275  1.0
  C  C106  1  0.47309619  0.42386375  0.29745277  1.0
  C  C107  1  0.92109837  0.51773849  0.29355212  1.0
  C  C108  1  0.01814863  0.44949229  0.73386750  1.0
  C  C109  1  0.46872816  0.45320254  0.70290048  1.0
  C  C110  1  0.54155045  0.54578831  0.73910300  1.0
  C  C111  1  0.45612787  0.97648441  0.73288005  1.0
  C  C112  1  0.44921858  0.01828541  0.23389437  1.0
  C  C113  1  0.54566961  0.54182328  0.23902661  1.0
  C  C114  1  0.97675968  0.45664026  0.23282031  1.0
  C  C115  1  0.54967024  0.99007149  0.69967949  1.0
  I  I116  1  0.18435670  0.74326167  0.67227847  1.0
  I  I117  1  0.48164994  0.75562980  0.21347158  1.0
  I  I118  1  0.22631525  0.44599732  0.23492383  1.0
  I  I119  1  0.17789704  0.77955857  0.23738782  1.0
  I  I120  1  0.25376148  0.45812729  0.67352665  1.0
  I  I121  1  0.53104578  0.76642449  0.66879101  1.0
  I  I122  1  0.74314846  0.18376556  0.17237445  1.0
  I  I123  1  0.45789246  0.25392380  0.17354462  1.0
  I  I124  1  0.76585052  0.53021875  0.16857733  1.0
  I  I125  1  0.75590740  0.48261822  0.71303416  1.0
  I  I126  1  0.44620240  0.22666610  0.73472422  1.0
  I  I127  1  0.77888360  0.17875891  0.73761159  1.0
  O  O128  1  0.52542744  0.12826845  0.55159552  1.0
  O  O129  1  0.29739727  0.49135499  0.05517918  1.0
  O  O130  1  0.16298675  0.69682382  0.04917099  1.0
  O  O131  1  0.47861282  0.80977143  0.05089098  1.0
  O  O132  1  0.52618481  0.12885889  0.44777958  1.0
  O  O133  1  0.82193424  0.34698204  0.44483233  1.0
  O  O134  1  0.61643269  0.45912831  0.45682286  1.0
  O  O135  1  0.12903015  0.52628610  0.94738165  1.0
  O  O136  1  0.34638810  0.82180127  0.94478038  1.0
  O  O137  1  0.45901560  0.61690616  0.95653995  1.0
  O  O138  1  0.48278182  0.28864337  0.45091717  1.0
  O  O139  1  0.85290420  0.34885498  0.53921160  1.0
  O  O140  1  0.69233437  0.15052640  0.45357903  1.0
  O  O141  1  0.80459339  0.49288560  0.45666346  1.0
  O  O142  1  0.28875184  0.48249118  0.95118915  1.0
  O  O143  1  0.14996954  0.69206409  0.95365786  1.0
  O  O144  1  0.49246458  0.80485202  0.95686473  1.0
  O  O145  1  0.64783447  0.30321471  0.50139939  1.0
  O  O146  1  0.30280305  0.64770234  0.00135549  1.0
  O  O147  1  0.62930431  0.46772118  0.55215104  1.0
  O  O148  1  0.12694200  0.52543783  0.05111418  1.0
  O  O149  1  0.34903734  0.85269375  0.03918287  1.0
  O  O150  1  0.46690912  0.62823111  0.05188953  1.0
  O  O151  1  0.49140897  0.29870394  0.55492492  1.0
  O  O152  1  0.69644053  0.16302129  0.54912928  1.0
  O  O153  1  0.81061652  0.47893184  0.55062486  1.0
  O  O154  1  0.36286584  0.11984223  0.50031332  1.0
  O  O155  1  0.11925684  0.36285440  0.00016263  1.0
