# generated using pymatgen
data_Zr3H38C63N3O16
_symmetry_space_group_name_H-M   'P 1'
_cell_length_a   17.23051065
_cell_length_b   17.25573340
_cell_length_c   17.26261991
_cell_angle_alpha   91.76866718
_cell_angle_beta   91.76398754
_cell_angle_gamma   91.94236733
_symmetry_Int_Tables_number   1
_chemical_formula_structural   Zr3H38C63N3O16
_chemical_formula_sum   'Zr6 H76 C126 N6 O32'
_cell_volume   5124.61404096
_cell_formula_units_Z   2
loop_
 _symmetry_equiv_pos_site_id
 _symmetry_equiv_pos_as_xyz
  1  'x, y, z'
loop_
 _atom_site_type_symbol
 _atom_site_label
 _atom_site_symmetry_multiplicity
 _atom_site_fract_x
 _atom_site_fract_y
 _atom_site_fract_z
 _atom_site_occupancy
  Zr  Zr0  1  0.84449437  0.80774967  0.95303903  1.0
  Zr  Zr1  1  0.00659917  0.75490908  0.84466586  1.0
  Zr  Zr2  1  0.92594258  0.99794142  0.98087737  1.0
  Zr  Zr3  1  0.89748953  0.91602445  0.79080009  1.0
  Zr  Zr4  1  0.03544370  0.83751115  0.03389107  1.0
  Zr  Zr5  1  0.08756554  0.94590067  0.87214576  1.0
  H  H6  1  0.58994595  0.14626527  0.25600840  1.0
  H  H7  1  0.43804197  0.15953375  0.23345618  1.0
  H  H8  1  0.34203779  0.61293683  0.56784523  1.0
  H  H9  1  0.49359392  0.60062302  0.59371775  1.0
  H  H10  1  0.23862468  0.21873933  0.53289282  1.0
  H  H11  1  0.25280039  0.19984082  0.38073659  1.0
  H  H12  1  0.70473981  0.52712328  0.29094791  1.0
  H  H13  1  0.69118933  0.55032998  0.44265864  1.0
  H  H14  1  0.30991395  0.49788654  0.18456599  1.0
  H  H15  1  0.28976692  0.34565423  0.19843928  1.0
  H  H16  1  0.61594906  0.25452882  0.64970139  1.0
  H  H17  1  0.63938960  0.40635762  0.63609341  1.0
  H  H18  1  0.84864578  0.75838469  0.79545874  1.0
  H  H19  1  0.89881760  0.88589003  0.09567689  1.0
  H  H20  1  0.97487789  0.05959601  0.84423193  1.0
  H  H21  1  0.14980710  0.80978060  0.92128119  1.0
  H  H22  1  0.59049523  0.13269684  0.71751150  1.0
  H  H23  1  0.66838123  0.28474977  0.90988411  1.0
  H  H24  1  0.76831977  0.19113742  0.94615549  1.0
  H  H25  1  0.69730242  0.04397311  0.75009653  1.0
  H  H26  1  0.71256497  0.49750797  0.67532438  1.0
  H  H27  1  0.63034065  0.48193570  0.90896622  1.0
  H  H28  1  0.73513310  0.57474710  0.95385425  1.0
  H  H29  1  0.82192523  0.58161054  0.72319380  1.0
  H  H30  1  0.20688276  0.17249207  0.87916464  1.0
  H  H31  1  0.10942810  0.16948157  0.10521247  1.0
  H  H32  1  0.21569104  0.25602170  0.15631479  1.0
  H  H33  1  0.30870563  0.26731261  0.92662052  1.0
  H  H34  1  0.33279941  0.61996871  0.11668289  1.0
  H  H35  1  0.26248241  0.46524764  0.92379590  1.0
  H  H36  1  0.16040689  0.55577718  0.88512824  1.0
  H  H37  1  0.22419338  0.70545991  0.08165695  1.0
  H  H38  1  0.43007059  0.27164211  0.00595413  1.0
  H  H39  1  0.39682495  0.50029792  0.91922128  1.0
  H  H40  1  0.50293486  0.48235191  0.83121546  1.0
  H  H41  1  0.53577910  0.25351308  0.91780371  1.0
  H  H42  1  0.96501066  0.57945000  0.32118091  1.0
  H  H43  1  0.77263934  0.50084160  0.16901238  1.0
  H  H44  1  0.80523148  0.60779977  0.08008807  1.0
  H  H45  1  0.00112644  0.67971035  0.22754349  1.0
  H  H46  1  0.96539355  0.54486690  0.51391557  1.0
  H  H47  1  0.72903108  0.61685967  0.53922945  1.0
  H  H48  1  0.77605752  0.72681197  0.62268559  1.0
  H  H49  1  0.00984393  0.64943689  0.60687574  1.0
  H  H50  1  0.93307767  0.11756733  0.20763948  1.0
  H  H51  1  0.15978357  0.02159050  0.20375079  1.0
  H  H52  1  0.21105781  0.12758514  0.29011287  1.0
  H  H53  1  0.98060188  0.21879678  0.30276320  1.0
  H  H54  1  0.97747635  0.17201861  0.49949777  1.0
  H  H55  1  0.17022400  0.24203626  0.65488933  1.0
  H  H56  1  0.13421894  0.13362758  0.74052420  1.0
  H  H57  1  0.93795404  0.06993309  0.58991678  1.0
  H  H58  1  0.97471001  0.30744774  0.53618050  1.0
  H  H59  1  0.05955146  0.34054523  0.30664869  1.0
  H  H60  1  0.97179676  0.44640786  0.28927787  1.0
  H  H61  1  0.88718274  0.41380580  0.51901865  1.0
  H  H62  1  0.27846153  0.91303400  0.70987629  1.0
  H  H63  1  0.13259165  0.71323882  0.64676981  1.0
  H  H64  1  0.22070389  0.67848790  0.53996589  1.0
  H  H65  1  0.37116588  0.87542847  0.60934041  1.0
  H  H66  1  0.59723454  0.63754476  0.65036783  1.0
  H  H67  1  0.55854134  0.87467062  0.58857707  1.0
  H  H68  1  0.65199177  0.91955168  0.69254819  1.0
  H  H69  1  0.68034354  0.68421326  0.76067253  1.0
  H  H70  1  0.25334238  0.07276430  0.06343293  1.0
  H  H71  1  0.27197388  0.84027784  0.14266238  1.0
  H  H72  1  0.36787969  0.88572603  0.24405237  1.0
  H  H73  1  0.33917869  0.12117700  0.17105590  1.0
  H  H74  1  0.71149364  0.07978636  0.27906108  1.0
  H  H75  1  0.55815152  0.88368139  0.21407897  1.0
  H  H76  1  0.64735192  0.84559472  0.11052601  1.0
  H  H77  1  0.79580894  0.04487122  0.16941329  1.0
  H  H78  1  0.59483045  0.89089268  0.35326318  1.0
  H  H79  1  0.35672011  0.95819515  0.36818318  1.0
  H  H80  1  0.33777795  0.86941130  0.47274480  1.0
  H  H81  1  0.57604843  0.80245065  0.45848881  1.0
  C  C82  1  0.56040300  0.02576917  0.28418693  1.0
  C  C83  1  0.54595476  0.10291514  0.27015065  1.0
  C  C84  1  0.46512297  0.10935252  0.25745873  1.0
  C  C85  1  0.42935624  0.03639349  0.26386715  1.0
  C  C86  1  0.37169450  0.73341358  0.53974176  1.0
  C  C87  1  0.38614330  0.65640150  0.55434558  1.0
  C  C88  1  0.46678984  0.65040550  0.56861455  1.0
  C  C89  1  0.50248310  0.72344286  0.56245736  1.0
  C  C90  1  0.11776277  0.24589590  0.50378814  1.0
  C  C91  1  0.19520044  0.23305780  0.48922428  1.0
  C  C92  1  0.20209560  0.22227782  0.40829114  1.0
  C  C93  1  0.12911442  0.22868049  0.37271446  1.0
  C  C94  1  0.82628357  0.50319058  0.32021194  1.0
  C  C95  1  0.74866010  0.51481539  0.33486372  1.0
  C  C96  1  0.74208853  0.52781124  0.41552991  1.0
  C  C97  1  0.81540979  0.52385260  0.45097597  1.0
  C  C98  1  0.33642298  0.46894658  0.06363695  1.0
  C  C99  1  0.32371248  0.45420931  0.14100423  1.0
  C  C100  1  0.31216163  0.37329947  0.14771316  1.0
  C  C101  1  0.31797042  0.33785717  0.07470335  1.0
  C  C102  1  0.59241863  0.28376675  0.77128962  1.0
  C  C103  1  0.60398278  0.29840442  0.69373303  1.0
  C  C104  1  0.61714706  0.37913375  0.68709746  1.0
  C  C105  1  0.61345408  0.41459957  0.76030172  1.0
  C  C106  1  0.76736614  0.93415477  0.05872310  1.0
  C  C107  1  0.84864467  0.64018247  0.87149869  1.0
  C  C108  1  0.72942370  0.83394256  0.79600323  1.0
  C  C109  1  0.91204384  0.72385671  0.10630401  1.0
  C  C110  1  0.15948886  0.82247345  0.75931279  1.0
  C  C111  1  0.08919031  0.10905785  0.95742625  1.0
  C  C112  1  0.92501552  0.75810600  0.67709294  1.0
  C  C113  1  0.11260115  0.67842346  0.97156125  1.0
  C  C114  1  0.01175388  0.00068260  0.14380816  1.0
  C  C115  1  0.81274879  0.06965256  0.85727328  1.0
  C  C116  1  0.02418932  0.02194741  0.71295546  1.0
  C  C117  1  0.19925061  0.92330338  0.03474824  1.0
  C  C118  1  0.62935152  0.14560527  0.76765918  1.0
  C  C119  1  0.62431757  0.21698525  0.80906947  1.0
  C  C120  1  0.67156674  0.23005833  0.87703561  1.0
  C  C121  1  0.72886799  0.17889039  0.89640683  1.0
  C  C122  1  0.74135785  0.11436768  0.84762591  1.0
  C  C123  1  0.68859518  0.09608719  0.78556068  1.0
  C  C124  1  0.71646260  0.51363292  0.73686092  1.0
  C  C125  1  0.66221801  0.48154309  0.78813863  1.0
  C  C126  1  0.67041842  0.50498004  0.86712222  1.0
  C  C127  1  0.73064985  0.55574106  0.89304969  1.0
  C  C128  1  0.78733824  0.58231306  0.84250068  1.0
  C  C129  1  0.77918947  0.56071905  0.76365377  1.0
  C  C130  1  0.20853607  0.19265171  0.93964774  1.0
  C  C131  1  0.14991077  0.16645535  0.98819329  1.0
  C  C132  1  0.15398185  0.19003098  0.06663596  1.0
  C  C133  1  0.21487738  0.23841773  0.09517812  1.0
  C  C134  1  0.27128707  0.26988689  0.04578040  1.0
  C  C135  1  0.26701167  0.24470244  0.96711933  1.0
  C  C136  1  0.29504107  0.60570154  0.06603368  1.0
  C  C137  1  0.30286115  0.53445589  0.02504089  1.0
  C  C138  1  0.25703171  0.51979035  0.95636489  1.0
  C  C139  1  0.19856416  0.56919637  0.93563876  1.0
  C  C140  1  0.18353077  0.63351853  0.98372971  1.0
  C  C141  1  0.23471563  0.65335827  0.04678706  1.0
  C  C142  1  0.44490817  0.31797429  0.96693793  1.0
  C  C143  1  0.40295631  0.38633669  0.96883628  1.0
  C  C144  1  0.42632381  0.44557090  0.91963631  1.0
  C  C145  1  0.48787714  0.43590717  0.87002503  1.0
  C  C146  1  0.52937194  0.36726053  0.86762593  1.0
  C  C147  1  0.50631957  0.30822160  0.91724869  1.0
  C  C148  1  0.93213568  0.58258055  0.26647944  1.0
  C  C149  1  0.86412842  0.53515255  0.25338197  1.0
  C  C150  1  0.82270875  0.53998631  0.18193518  1.0
  C  C151  1  0.84057396  0.59929282  0.13237005  1.0
  C  C152  1  0.90258043  0.65230253  0.15079408  1.0
  C  C153  1  0.95144119  0.64000273  0.21531179  1.0
  C  C154  1  0.92289648  0.58270319  0.53916162  1.0
  C  C155  1  0.84331420  0.57191005  0.51818862  1.0
  C  C156  1  0.79110629  0.62323656  0.55294294  1.0
  C  C157  1  0.81735225  0.68614194  0.59982998  1.0
  C  C158  1  0.89669969  0.69697419  0.61891767  1.0
  C  C159  1  0.94845319  0.64284987  0.59000331  1.0
  C  C160  1  0.99376189  0.11949844  0.22752021  1.0
  C  C161  1  0.04248015  0.06139277  0.20101507  1.0
  C  C162  1  0.12111539  0.06581594  0.22439252  1.0
  C  C163  1  0.14972452  0.12656684  0.27274468  1.0
  C  C164  1  0.10017497  0.18236519  0.30458915  1.0
  C  C165  1  0.02129882  0.17773061  0.27970127  1.0
  C  C166  1  0.00977564  0.16654752  0.55422244  1.0
  C  C167  1  0.07867616  0.21226170  0.56913874  1.0
  C  C168  1  0.11936853  0.20438748  0.64051107  1.0
  C  C169  1  0.09960041  0.14414037  0.68821598  1.0
  C  C170  1  0.03639713  0.09298301  0.66814603  1.0
  C  C171  1  0.98857338  0.10809169  0.60359286  1.0
  C  C172  1  0.97484367  0.33697426  0.48143616  1.0
  C  C173  1  0.02336819  0.31344379  0.42172188  1.0
  C  C174  1  0.02107939  0.35545578  0.35337182  1.0
  C  C175  1  0.97164991  0.41699283  0.34406670  1.0
  C  C176  1  0.92267422  0.44011690  0.40351205  1.0
  C  C177  1  0.92549401  0.39869716  0.47221261  1.0
  C  C178  1  0.26634268  0.86202404  0.67207945  1.0
  C  C179  1  0.20270479  0.81260468  0.68708649  1.0
  C  C180  1  0.18428278  0.74902677  0.63623464  1.0
  C  C181  1  0.23341198  0.72996088  0.57702527  1.0
  C  C182  1  0.30453902  0.77189379  0.57016326  1.0
  C  C183  1  0.31708401  0.84169502  0.61464359  1.0
  C  C184  1  0.60768061  0.69988171  0.65917374  1.0
  C  C185  1  0.56945374  0.75217908  0.61056158  1.0
  C  C186  1  0.58684406  0.83211835  0.62409411  1.0
  C  C187  1  0.63788477  0.85777663  0.68407411  1.0
  C  C188  1  0.67036888  0.80550661  0.73560101  1.0
  C  C189  1  0.65457532  0.72591217  0.72220109  1.0
  C  C190  1  0.27743295  0.03215909  0.10399807  1.0
  C  C191  1  0.25792330  0.95287621  0.09475873  1.0
  C  C192  1  0.28867335  0.90169725  0.14840461  1.0
  C  C193  1  0.34113410  0.92789876  0.20692228  1.0
  C  C194  1  0.36166841  0.00758199  0.21682422  1.0
  C  C195  1  0.32573632  0.05908252  0.16555950  1.0
  C  C196  1  0.69716913  0.02861868  0.24206335  1.0
  C  C197  1  0.62623139  0.98699540  0.25128272  1.0
  C  C198  1  0.61200057  0.91727504  0.20697341  1.0
  C  C199  1  0.66069490  0.89678690  0.14775538  1.0
  C  C200  1  0.72395697  0.94587222  0.13070793  1.0
  C  C201  1  0.74413896  0.00946774  0.18107716  1.0
  C  C202  1  0.53781555  0.88680654  0.37844834  1.0
  C  C203  1  0.47659470  0.93093980  0.35012757  1.0
  C  C204  1  0.40520950  0.92355566  0.38673989  1.0
  C  C205  1  0.39482630  0.87348326  0.44767447  1.0
  C  C206  1  0.45595790  0.82915742  0.47587837  1.0
  C  C207  1  0.52751736  0.83689836  0.43960831  1.0
  N  N208  1  0.48756371  0.98641737  0.29102321  1.0
  N  N209  1  0.44450229  0.77317761  0.53444399  1.0
  N  N210  1  0.07853536  0.25387058  0.43136852  1.0
  N  N211  1  0.86629349  0.49843069  0.39274880  1.0
  N  N212  1  0.34358228  0.39647508  0.02423481  1.0
  N  N213  1  0.58772683  0.35635097  0.81120578  1.0
  O  O214  1  0.81062243  0.99071742  0.03836059  1.0
  O  O215  1  0.91511851  0.64500901  0.84183628  1.0
  O  O216  1  0.73479785  0.80415165  0.86221117  1.0
  O  O217  1  0.85488608  0.74157155  0.06262380  1.0
  O  O218  1  0.97588294  0.76434258  0.11661228  1.0
  O  O219  1  0.77555512  0.88722230  0.77130778  1.0
  O  O220  1  0.82487457  0.68606571  0.92527186  1.0
  O  O221  1  0.75944533  0.86809024  0.02197573  1.0
  O  O222  1  0.96168609  0.78195865  0.95115603  1.0
  O  O223  1  0.87109916  0.91441086  0.90762187  1.0
  O  O224  1  0.88212361  0.79196972  0.82894326  1.0
  O  O225  1  0.91533880  0.88359435  0.04246752  1.0
  O  O226  1  0.11634552  0.76524995  0.77842954  1.0
  O  O227  1  0.02303531  0.10319094  0.98735246  1.0
  O  O228  1  0.89480545  0.82413763  0.68194388  1.0
  O  O229  1  0.09348742  0.72274540  0.02754551  1.0
  O  O230  1  0.04195124  0.93480245  0.13812473  1.0
  O  O231  1  0.83050655  0.02555259  0.80051314  1.0
  O  O232  1  0.08054911  0.00277339  0.75686526  1.0
  O  O233  1  0.19296663  0.95347879  0.96893219  1.0
  O  O234  1  0.95809787  0.98486210  0.70544835  1.0
  O  O235  1  0.15620984  0.86651884  0.05818347  1.0
  O  O236  1  0.97868801  0.73444312  0.72318297  1.0
  O  O237  1  0.85304493  0.08019435  0.92103400  1.0
  O  O238  1  0.95423980  0.02302735  0.10133153  1.0
  O  O239  1  0.07557546  0.67048044  0.90567078  1.0
  O  O240  1  0.17024742  0.88649831  0.79911079  1.0
  O  O241  1  0.11189087  0.06657712  0.90008952  1.0
  O  O242  1  0.03013245  0.94105759  0.97601937  1.0
  O  O243  1  0.00441835  0.87168251  0.81765254  1.0
  O  O244  1  0.97269741  0.00645575  0.86101304  1.0
  O  O245  1  0.09658013  0.82640601  0.91941312  1.0
