# generated using pymatgen
data_Zn3H7C43N13O12
_symmetry_space_group_name_H-M   'P 1'
_cell_length_a   21.69477144
_cell_length_b   21.83672128
_cell_length_c   22.05694933
_cell_angle_alpha   60.34703980
_cell_angle_beta   61.03049434
_cell_angle_gamma   90.03295752
_symmetry_Int_Tables_number   1
_chemical_formula_structural   Zn3H7C43N13O12
_chemical_formula_sum   'Zn6 H14 C86 N26 O24'
_cell_volume   7537.73187774
_cell_formula_units_Z   2
loop_
 _symmetry_equiv_pos_site_id
 _symmetry_equiv_pos_as_xyz
  1  'x, y, z'
loop_
 _atom_site_type_symbol
 _atom_site_label
 _atom_site_symmetry_multiplicity
 _atom_site_fract_x
 _atom_site_fract_y
 _atom_site_fract_z
 _atom_site_occupancy
  Zn  Zn0  1  0.00005092  0.93992062  0.00001555  1.0
  Zn  Zn1  1  0.45852316  0.95428575  0.08287682  1.0
  Zn  Zn2  1  0.54147985  0.03721192  0.91710445  1.0
  Zn  Zn3  1  0.00009984  0.06820380  0.99990992  1.0
  Zn  Zn4  1  0.43907954  0.49533541  0.00083990  1.0
  Zn  Zn5  1  0.56090291  0.49619930  0.99916766  1.0
  H  H6  1  0.77464797  0.79642974  0.56653339  1.0
  H  H7  1  0.11836089  0.21179042  0.57131425  1.0
  H  H8  1  0.88164791  0.78361296  0.42859172  1.0
  H  H9  1  0.74798620  0.62447843  0.57884423  1.0
  H  H10  1  0.25249435  0.20339329  0.42103559  1.0
  H  H11  1  0.83295381  0.13776314  0.93838406  1.0
  H  H12  1  0.16714696  0.07662479  0.06142544  1.0
  H  H13  1  0.22503349  0.36277402  0.43353685  1.0
  H  H14  1  0.73916199  0.69103735  0.43073048  1.0
  H  H15  1  0.26127851  0.12215568  0.56917976  1.0
  H  H16  1  0.58088845  0.87066777  0.86589959  1.0
  H  H17  1  0.41936113  0.73707442  0.13330862  1.0
  H  H18  1  0.56404034  0.27639894  0.05397738  1.0
  H  H19  1  0.43548423  0.33028076  0.94592788  1.0
  C  C20  1  0.88257010  0.02575113  0.00467131  1.0
  C  C21  1  0.16609147  0.25135209  0.55232992  1.0
  C  C22  1  0.28359470  0.25059107  0.55813960  1.0
  C  C23  1  0.66910515  0.76952033  0.54281452  1.0
  C  C24  1  0.33067841  0.31270921  0.45736959  1.0
  C  C25  1  0.62265681  0.62848239  0.74794117  1.0
  C  C26  1  0.37779408  0.37683936  0.25201991  1.0
  C  C27  1  0.79119661  0.78756458  0.41420786  1.0
  C  C28  1  0.83375688  0.80392102  0.44767039  1.0
  C  C29  1  0.20875913  0.20182446  0.58579758  1.0
  C  C30  1  0.71843393  0.65751077  0.55254107  1.0
  C  C31  1  0.28196672  0.21029255  0.44736575  1.0
  C  C32  1  0.70584338  0.71175616  0.58113987  1.0
  C  C33  1  0.29425409  0.29309581  0.41884840  1.0
  C  C34  1  0.65027807  0.60500875  0.58714921  1.0
  C  C35  1  0.35023307  0.19260143  0.41276782  1.0
  C  C36  1  0.83607973  0.68012903  0.42676184  1.0
  C  C37  1  0.16448114  0.10679217  0.57300870  1.0
  C  C38  1  0.72469644  0.14750148  0.91301229  1.0
  C  C39  1  0.65978875  0.66857850  0.67190450  1.0
  C  C40  1  0.27510040  0.06065685  0.08749465  1.0
  C  C41  1  0.65675110  0.87425116  0.07669156  1.0
  C  C42  1  0.34305105  0.95069209  0.92423905  1.0
  C  C43  1  0.77709198  0.88178334  0.09087352  1.0
  C  C44  1  0.22297370  0.97253583  0.90952672  1.0
  C  C45  1  0.34037719  0.34076339  0.32807973  1.0
  C  C46  1  0.56988371  0.14895954  0.06615499  1.0
  C  C47  1  0.43014730  0.21520129  0.93322561  1.0
  C  C48  1  0.59381283  0.75718489  0.84780169  1.0
  C  C49  1  0.40613164  0.60540462  0.15169448  1.0
  C  C50  1  0.73102275  0.88896119  0.39595535  1.0
  C  C51  1  0.26827364  0.28524585  0.60429645  1.0
  C  C52  1  0.67416765  0.78061102  0.41971406  1.0
  C  C53  1  0.32567096  0.20096263  0.58053137  1.0
  C  C54  1  0.59075811  0.73333032  0.58259636  1.0
  C  C55  1  0.40907462  0.31656638  0.41771980  1.0
  C  C56  1  0.67121082  0.82573910  0.56068628  1.0
  C  C57  1  0.32826537  0.38671992  0.43952350  1.0
  C  C58  1  0.86417798  0.88253135  0.40956012  1.0
  C  C59  1  0.13539678  0.29178849  0.59044358  1.0
  C  C60  1  0.82002164  0.71011321  0.58220713  1.0
  C  C61  1  0.83783114  0.82764951  0.32357466  1.0
  C  C62  1  0.18017617  0.29194629  0.41765269  1.0
  C  C63  1  0.16217242  0.15116414  0.67641328  1.0
  C  C64  1  0.11757687  0.03055835  0.99527888  1.0
  C  C65  1  0.87729922  0.85874806  0.24806600  1.0
  C  C66  1  0.12277015  0.10665505  0.75190439  1.0
  C  C67  1  0.79665792  0.08397509  0.96668249  1.0
  C  C68  1  0.20332075  0.05089069  0.03347763  1.0
  C  C69  1  0.73619886  0.07989877  0.95942067  1.0
  C  C70  1  0.26353737  0.03935824  0.04116596  1.0
  C  C71  1  0.68838998  0.01024526  0.99758205  1.0
  C  C72  1  0.31117734  0.00754477  0.00343994  1.0
  C  C73  1  0.70267282  0.94513418  0.04113309  1.0
  C  C74  1  0.29710882  0.98605144  0.95968305  1.0
  C  C75  1  0.76527661  0.94954232  0.04562930  1.0
  C  C76  1  0.23469678  0.99508955  0.95482723  1.0
  C  C77  1  0.92381907  0.90318124  0.15722113  1.0
  C  C78  1  0.07627294  0.06020491  0.84275913  1.0
  C  C79  1  0.81229557  0.01989043  0.00764749  1.0
  C  C80  1  0.78391394  0.75828822  0.54638716  1.0
  C  C81  1  0.18776011  0.02765746  0.99251278  1.0
  C  C82  1  0.49988642  0.68200005  0.99970103  1.0
  C  C83  1  0.49970146  0.37828082  0.99999816  1.0
  C  C84  1  0.57813930  0.57969654  0.83866985  1.0
  C  C85  1  0.42251187  0.41867438  0.16128303  1.0
  C  C86  1  0.21602377  0.30450850  0.45361450  1.0
  C  C87  1  0.49974491  0.61329613  0.99978641  1.0
  C  C88  1  0.50016278  0.87879330  0.99946113  1.0
  C  C89  1  0.62159417  0.00437801  0.99370044  1.0
  C  C90  1  0.37773464  0.99752577  0.00773617  1.0
  C  C91  1  0.50042016  0.11337373  0.99918060  1.0
  C  C92  1  0.53574324  0.26274668  0.03071416  1.0
  C  C93  1  0.46399717  0.29354996  0.96892300  1.0
  C  C94  1  0.53444794  0.19766610  0.03256077  1.0
  C  C95  1  0.46562841  0.23051757  0.96670158  1.0
  C  C96  1  0.76944393  0.70198310  0.45426446  1.0
  C  C97  1  0.23091340  0.15642467  0.54562789  1.0
  C  C98  1  0.50020150  0.18174655  0.99944554  1.0
  C  C99  1  0.49982780  0.30988694  0.99985633  1.0
  C  C100  1  0.54656930  0.75205161  0.92425488  1.0
  C  C101  1  0.45336629  0.67669663  0.07510544  1.0
  C  C102  1  0.54586640  0.81621210  0.92424866  1.0
  C  C103  1  0.45425959  0.74093739  0.07495895  1.0
  C  C104  1  0.50009063  0.81032357  0.99956084  1.0
  C  C105  1  0.71612911  0.80822329  0.44200478  1.0
  N  N106  1  0.59784062  0.56119367  0.61344642  1.0
  N  N107  1  0.28245541  0.07895425  0.12577990  1.0
  N  N108  1  0.71754778  0.20411903  0.87450692  1.0
  N  N109  1  0.62126924  0.81675346  0.10236617  1.0
  N  N110  1  0.37851970  0.91894556  0.89846913  1.0
  N  N111  1  0.78178238  0.82414806  0.13111816  1.0
  N  N112  1  0.21829536  0.95515281  0.86925330  1.0
  N  N113  1  0.40273653  0.17519011  0.38652702  1.0
  N  N114  1  0.59997401  0.11025060  0.09260999  1.0
  N  N115  1  0.39985999  0.20271196  0.90704972  1.0
  N  N116  1  0.63208142  0.76027758  0.78602768  1.0
  N  N117  1  0.36797231  0.54672830  0.21355183  1.0
  N  N118  1  0.74088967  0.95269048  0.35820017  1.0
  N  N119  1  0.25810729  0.31116996  0.64216004  1.0
  N  N120  1  0.64319467  0.75886495  0.39990348  1.0
  N  N121  1  0.35671766  0.15957733  0.60040728  1.0
  N  N122  1  0.52792196  0.70699362  0.61429504  1.0
  N  N123  1  0.47192035  0.32202601  0.38607572  1.0
  N  N124  1  0.67367547  0.86940166  0.57586871  1.0
  N  N125  1  0.32559353  0.44550336  0.42437178  1.0
  N  N126  1  0.89056430  0.94450019  0.38061495  1.0
  N  N127  1  0.10876736  0.32477865  0.61932819  1.0
  N  N128  1  0.84980577  0.67110064  0.60865649  1.0
  N  N129  1  0.88991818  0.66327532  0.40619077  1.0
  N  N130  1  0.15056165  0.27924083  0.39110191  1.0
  N  N131  1  0.11078850  0.06909854  0.59357109  1.0
  O  O132  1  0.91132837  0.97574395  0.00305073  1.0
  O  O133  1  0.43878116  0.02285557  0.93787016  1.0
  O  O134  1  0.56060480  0.95979783  0.06365185  1.0
  O  O135  1  0.52901827  0.12343455  0.92793930  1.0
  O  O136  1  0.47190402  0.05210205  0.07031486  1.0
  O  O137  1  0.90930934  0.08020605  0.00187293  1.0
  O  O138  1  0.09096831  0.08233614  0.99778753  1.0
  O  O139  1  0.08873190  0.97880342  0.99709067  1.0
  O  O140  1  0.94283446  0.86848240  0.12143380  1.0
  O  O141  1  0.05723812  0.98970466  0.87862061  1.0
  O  O142  1  0.94077447  0.97279620  0.12228700  1.0
  O  O143  1  0.05934624  0.09493625  0.87763389  1.0
  O  O144  1  0.45398910  0.41078023  0.98774060  1.0
  O  O145  1  0.54532301  0.39853720  0.01238395  1.0
  O  O146  1  0.50851944  0.56905694  0.87465162  1.0
  O  O147  1  0.49214547  0.44396277  0.12538175  1.0
  O  O148  1  0.61324227  0.55187099  0.87296547  1.0
  O  O149  1  0.38746900  0.42506721  0.12693470  1.0
  O  O150  1  0.44174552  0.58157314  0.01222262  1.0
  O  O151  1  0.55766180  0.59392984  0.98742307  1.0
  O  O152  1  0.54306698  0.94066723  0.92870520  1.0
  O  O153  1  0.45729358  0.86997014  0.07016814  1.0
  O  O154  1  0.63251919  0.04433513  0.92149268  1.0
  O  O155  1  0.36670422  0.96514477  0.08001261  1.0
