# generated using pymatgen
data_Zn4H20C40O29
_symmetry_space_group_name_H-M   'P 1'
_cell_length_a   23.79408776
_cell_length_b   23.79435878
_cell_length_c   23.79282417
_cell_angle_alpha   66.23340071
_cell_angle_beta   72.63003124
_cell_angle_gamma   107.36624470
_symmetry_Int_Tables_number   1
_chemical_formula_structural   Zn4H20C40O29
_chemical_formula_sum   'Zn8 H40 C80 O58'
_cell_volume   10325.44219840
_cell_formula_units_Z   2
loop_
 _symmetry_equiv_pos_site_id
 _symmetry_equiv_pos_as_xyz
  1  'x, y, z'
loop_
 _atom_site_type_symbol
 _atom_site_label
 _atom_site_symmetry_multiplicity
 _atom_site_fract_x
 _atom_site_fract_y
 _atom_site_fract_z
 _atom_site_occupancy
  Zn  Zn0  1  0.05630039  0.10007857  0.45621380  1.0
  Zn  Zn1  1  0.05630027  0.95622172  0.48747363  1.0
  Zn  Zn2  1  0.94369317  0.95621316  0.60008929  1.0
  Zn  Zn3  1  0.94370983  0.98748960  0.45620799  1.0
  Zn  Zn4  1  0.94369916  0.39992262  0.04378590  1.0
  Zn  Zn5  1  0.05630878  0.54378751  0.89990947  1.0
  Zn  Zn6  1  0.94369744  0.54377800  0.01252261  1.0
  Zn  Zn7  1  0.05628861  0.51251326  0.04379177  1.0
  H  H8  1  0.92363430  0.12542428  0.29821488  1.0
  H  H9  1  0.07636765  0.37457857  0.20178257  1.0
  H  H10  1  0.92362996  0.22184630  0.20179175  1.0
  H  H11  1  0.07637175  0.27815603  0.29820471  1.0
  H  H12  1  0.92363104  0.79820484  0.77817134  1.0
  H  H13  1  0.07637091  0.70179642  0.72182595  1.0
  H  H14  1  0.92363709  0.70178178  0.87458932  1.0
  H  H15  1  0.07636550  0.79821896  0.62540756  1.0
  H  H16  1  0.91903519  0.29105506  0.99497619  1.0
  H  H17  1  0.08096062  0.49497988  0.79102526  1.0
  H  H18  1  0.08063501  0.37969006  0.67670461  1.0
  H  H19  1  0.91934927  0.17673023  0.87969476  1.0
  H  H20  1  0.91938299  0.12030528  0.82330071  1.0
  H  H21  1  0.08057828  0.32328969  0.62028505  1.0
  H  H22  1  0.08091017  0.20895953  0.50500922  1.0
  H  H23  1  0.91903566  0.00502187  0.70897268  1.0
  H  H24  1  0.08097482  0.58602731  0.12795248  1.0
  H  H25  1  0.91904636  0.62802377  0.08596172  1.0
  H  H26  1  0.91935942  0.74264892  0.20094659  1.0
  H  H27  1  0.08064457  0.70097646  0.24261419  1.0
  H  H28  1  0.08058432  0.75729803  0.29910708  1.0
  H  H29  1  0.91938648  0.79908151  0.25732479  1.0
  H  H30  1  0.91903648  0.91401078  0.37200668  1.0
  H  H31  1  0.08091006  0.87194782  0.41406779  1.0
  H  H32  1  0.78602245  0.29105371  0.12801888  1.0
  H  H33  1  0.78601231  0.49498320  0.08596519  1.0
  H  H34  1  0.55640186  0.37969400  0.20091489  1.0
  H  H35  1  0.55641198  0.17671991  0.24269181  1.0
  H  H36  1  0.44359577  0.12030945  0.29906433  1.0
  H  H37  1  0.44359026  0.32326158  0.25739777  1.0
  H  H38  1  0.21397864  0.20893205  0.37205252  1.0
  H  H39  1  0.21398628  0.00501649  0.41403878  1.0
  H  H40  1  0.21398673  0.62804600  0.79104802  1.0
  H  H41  1  0.21397677  0.58596497  0.99500697  1.0
  H  H42  1  0.44358644  0.70090681  0.87971410  1.0
  H  H43  1  0.44359570  0.74271466  0.67670965  1.0
  H  H44  1  0.55641631  0.79907300  0.62028978  1.0
  H  H45  1  0.55640275  0.75737775  0.82326949  1.0
  H  H46  1  0.78601378  0.87202230  0.70893718  1.0
  H  H47  1  0.78602476  0.91404364  0.50499041  1.0
  C  C48  1  0.18400141  0.09199357  0.40800983  1.0
  C  C49  1  0.99999543  0.86091101  0.63909068  1.0
  C  C50  1  0.99998314  0.09199433  0.59200397  1.0
  C  C51  1  0.81600037  0.90800956  0.59198359  1.0
  C  C52  1  0.00000751  0.13909367  0.36090388  1.0
  C  C53  1  0.99998739  0.90798839  0.40800855  1.0
  C  C54  1  0.00000015  0.40800695  0.90799428  1.0
  C  C55  1  0.00000632  0.63909079  0.86090394  1.0
  C  C56  1  0.81599889  0.40800499  0.09200837  1.0
  C  C57  1  0.99999725  0.59201244  0.09199102  1.0
  C  C58  1  0.99999493  0.36091023  0.13909258  1.0
  C  C59  1  0.18399969  0.59201109  0.90801320  1.0
  C  C60  1  0.00000401  0.19642772  0.30357100  1.0
  C  C61  1  0.99999838  0.30357514  0.19642463  1.0
  C  C62  1  0.95679777  0.18007999  0.27671854  1.0
  C  C63  1  0.04320637  0.31992285  0.22327742  1.0
  C  C64  1  0.95679461  0.23351554  0.22328306  1.0
  C  C65  1  0.04320934  0.26648783  0.27671274  1.0
  C  C66  1  0.99999805  0.80357696  0.69642508  1.0
  C  C67  1  0.00000502  0.69642482  0.80357125  1.0
  C  C68  1  0.95679520  0.77671546  0.76649463  1.0
  C  C69  1  0.04320787  0.72328631  0.73350380  1.0
  C  C70  1  0.95679827  0.72327782  0.81993014  1.0
  C  C71  1  0.04320543  0.77672342  0.68006790  1.0
  C  C72  1  0.99999804  0.37146444  0.87144673  1.0
  C  C73  1  0.95585121  0.29779141  0.90917768  1.0
  C  C74  1  0.95618269  0.26317881  0.87365634  1.0
  C  C75  1  0.99999113  0.30084526  0.80082815  1.0
  C  C76  1  0.04380673  0.37366538  0.76315322  1.0
  C  C77  1  0.04414504  0.40918975  0.79776885  1.0
  C  C78  1  0.99999319  0.26544480  0.76542109  1.0
  C  C79  1  0.99998689  0.23457587  0.73455765  1.0
  C  C80  1  0.99997405  0.19916601  0.69916260  1.0
  C  C81  1  0.95617477  0.12634063  0.73684115  1.0
  C  C82  1  0.95583714  0.09081677  0.70222637  1.0
  C  C83  1  0.99997009  0.12854367  0.62854522  1.0
  C  C84  1  0.04410892  0.20221891  0.59080963  1.0
  C  C85  1  0.04377021  0.23683206  0.62633376  1.0
  C  C86  1  0.00001151  0.62857749  0.12851415  1.0
  C  C87  1  0.04416166  0.63500076  0.15803640  1.0
  C  C88  1  0.04382063  0.67018038  0.19299379  1.0
  C  C89  1  0.00000635  0.69918677  0.19913947  1.0
  C  C90  1  0.95619760  0.69304309  0.17013253  1.0
  C  C91  1  0.95586213  0.65809830  0.13493833  1.0
  C  C92  1  0.00000099  0.73458197  0.23455425  1.0
  C  C93  1  0.99999510  0.76542884  0.26543423  1.0
  C  C94  1  0.99997928  0.80081570  0.30085717  1.0
  C  C95  1  0.04377469  0.80693999  0.32988427  1.0
  C  C96  1  0.04411097  0.84188845  0.36507466  1.0
  C  C97  1  0.99997163  0.87142340  0.37148388  1.0
  C  C98  1  0.95583679  0.86501900  0.34194234  1.0
  C  C99  1  0.95617701  0.82983570  0.30698877  1.0
  C  C100  1  0.74290817  0.37146075  0.12855075  1.0
  C  C101  1  0.70696747  0.29778647  0.15808492  1.0
  C  C102  1  0.63682791  0.26317358  0.19303927  1.0
  C  C103  1  0.60167443  0.30084044  0.19917190  1.0
  C  C104  1  0.63682013  0.37366074  0.17014904  1.0
  C  C105  1  0.70695996  0.40918856  0.13495752  1.0
  C  C106  1  0.53086343  0.26542558  0.23458303  1.0
  C  C107  1  0.46913756  0.23455248  0.26545786  1.0
  C  C108  1  0.39832483  0.19914910  0.30087291  1.0
  C  C109  1  0.36317471  0.12633361  0.32987921  1.0
  C  C110  1  0.29303669  0.09080684  0.36506850  1.0
  C  C111  1  0.25709079  0.12853195  0.37149163  1.0
  C  C112  1  0.29303463  0.20220250  0.34196978  1.0
  C  C113  1  0.36317492  0.23681696  0.30701289  1.0
  C  C114  1  0.25708901  0.62856372  0.87146916  1.0
  C  C115  1  0.29303653  0.65810668  0.79778866  1.0
  C  C116  1  0.36317694  0.69306330  0.76317135  1.0
  C  C117  1  0.39832430  0.69918455  0.80084565  1.0
  C  C118  1  0.36317205  0.67015238  0.87367347  1.0
  C  C119  1  0.29303320  0.63496095  0.90920365  1.0
  C  C120  1  0.46913410  0.73458637  0.76542916  1.0
  C  C121  1  0.53086633  0.76545895  0.73454800  1.0
  C  C122  1  0.60167722  0.80086595  0.69914131  1.0
  C  C123  1  0.63683218  0.82987349  0.62632125  1.0
  C  C124  1  0.70696954  0.86506074  0.59079150  1.0
  C  C125  1  0.74291144  0.87147682  0.62852210  1.0
  C  C126  1  0.70696337  0.84194695  0.70220131  1.0
  C  C127  1  0.63682087  0.80699820  0.73681696  1.0
  O  O128  1  0.99999927  0.99999993  0.49999840  1.0
  O  O129  1  0.15250144  0.12702212  0.41366764  1.0
  O  O130  1  0.04041526  0.88327608  0.57631077  1.0
  O  O131  1  0.95929722  0.02546331  0.62704150  1.0
  O  O132  1  0.15250335  0.02546881  0.43382718  1.0
  O  O133  1  0.04068130  0.12702525  0.52547070  1.0
  O  O134  1  0.95957477  0.88326338  0.65715248  1.0
  O  O135  1  0.84749440  0.91366708  0.62701641  1.0
  O  O136  1  0.95959485  0.07632272  0.38326213  1.0
  O  O137  1  0.84750433  0.93384261  0.52544593  1.0
  O  O138  1  0.04042187  0.15714717  0.38326263  1.0
  O  O139  1  0.04068066  0.91364945  0.43384461  1.0
  O  O140  1  0.95930845  0.93384003  0.41365461  1.0
  O  O141  1  0.00000079  0.49999978  0.00000086  1.0
  O  O142  1  0.95930320  0.37297865  0.97452613  1.0
  O  O143  1  0.04042508  0.61673527  0.84284312  1.0
  O  O144  1  0.84749600  0.47453350  0.06617090  1.0
  O  O145  1  0.04070160  0.47453630  0.87296031  1.0
  O  O146  1  0.84749672  0.37297275  0.08635520  1.0
  O  O147  1  0.95958858  0.61672832  0.92368302  1.0
  O  O148  1  0.95929605  0.58633940  0.06616393  1.0
  O  O149  1  0.04040475  0.42368170  0.11673750  1.0
  O  O150  1  0.04068185  0.56616873  0.08633517  1.0
  O  O151  1  0.95958292  0.34285516  0.11673123  1.0
  O  O152  1  0.15250674  0.58635305  0.87297900  1.0
  O  O153  1  0.15249503  0.56616130  0.97455313  1.0
  O  O154  1  0.91282704  0.25843927  0.97861136  1.0
  O  O155  1  0.08716897  0.47861353  0.75840887  1.0
  O  O156  1  0.08667643  0.41162887  0.69290563  1.0
  O  O157  1  0.91330722  0.19293358  0.91163234  1.0
  O  O158  1  0.91332088  0.08837129  0.80709431  1.0
  O  O159  1  0.08662347  0.30708264  0.58835094  1.0
  O  O160  1  0.08711346  0.24158006  0.52136900  1.0
  O  O161  1  0.91282638  0.02138717  0.74158934  1.0
  O  O162  1  0.08719697  0.60861382  0.15434638  1.0
  O  O163  1  0.91284084  0.65443298  0.10853226  1.0
  O  O164  1  0.91332168  0.72041456  0.17504219  1.0
  O  O165  1  0.08669179  0.67508594  0.22036453  1.0
  O  O166  1  0.08663408  0.77955177  0.32499340  1.0
  O  O167  1  0.91332079  0.82495109  0.27959550  1.0
  O  O168  1  0.91282274  0.89143580  0.34560060  1.0
  O  O169  1  0.08711760  0.84553439  0.39150043  1.0
  O  O170  1  0.73704090  0.25843401  0.15442692  1.0
  O  O171  1  0.73702954  0.47861685  0.10853542  1.0
  O  O172  1  0.60454028  0.41162778  0.17503529  1.0
  O  O173  1  0.60455335  0.19292547  0.22043185  1.0
  O  O174  1  0.39545461  0.08836771  0.32497273  1.0
  O  O175  1  0.39545054  0.30705868  0.27964650  1.0
  O  O176  1  0.26295958  0.24154751  0.34565687  1.0
  O  O177  1  0.26296753  0.02138335  0.39147006  1.0
  O  O178  1  0.26296740  0.65445790  0.75842478  1.0
  O  O179  1  0.26295786  0.60853552  0.97864112  1.0
  O  O180  1  0.39544635  0.67503142  0.91164950  1.0
  O  O181  1  0.39545586  0.72045799  0.69291808  1.0
  O  O182  1  0.60455522  0.82497822  0.58834703  1.0
  O  O183  1  0.60454142  0.77962235  0.80706664  1.0
  O  O184  1  0.73703118  0.84561670  0.74155765  1.0
  O  O185  1  0.73704543  0.89147307  0.52135700  1.0
