# generated using pymatgen
data_ZnH10C24(NO3)2
_symmetry_space_group_name_H-M   'P 1'
_cell_length_a   14.84417260
_cell_length_b   16.20057908
_cell_length_c   23.74598114
_cell_angle_alpha   90.06070077
_cell_angle_beta   90.02226352
_cell_angle_gamma   89.62680460
_symmetry_Int_Tables_number   1
_chemical_formula_structural   ZnH10C24(NO3)2
_chemical_formula_sum   'Zn2 H20 C48 N4 O12'
_cell_volume   5710.40833331
_cell_formula_units_Z   2
loop_
 _symmetry_equiv_pos_site_id
 _symmetry_equiv_pos_as_xyz
  1  'x, y, z'
loop_
 _atom_site_type_symbol
 _atom_site_label
 _atom_site_symmetry_multiplicity
 _atom_site_fract_x
 _atom_site_fract_y
 _atom_site_fract_z
 _atom_site_occupancy
  Zn  Zn0  1  0.40591352  0.50050384  0.49997941  1.0
  Zn  Zn1  1  0.59408485  0.49949523  0.50001986  1.0
  H  H2  1  0.42978605  0.69788714  0.05352317  1.0
  H  H3  1  0.57023030  0.30217114  0.94648076  1.0
  H  H4  1  0.42979731  0.69791123  0.94678190  1.0
  H  H5  1  0.57022983  0.30214330  0.05322202  1.0
  H  H6  1  0.35569124  0.49983509  0.67898662  1.0
  H  H7  1  0.35572529  0.49986293  0.32096344  1.0
  H  H8  1  0.64427839  0.50015897  0.67903879  1.0
  H  H9  1  0.64430977  0.50017879  0.32101771  1.0
  H  H10  1  0.64481219  0.50011004  0.78498141  1.0
  H  H11  1  0.64476726  0.50013272  0.21507685  1.0
  H  H12  1  0.35525957  0.92364424  0.49479905  1.0
  H  H13  1  0.64473610  0.07635545  0.50520233  1.0
  H  H14  1  0.35498080  0.07770990  0.49483340  1.0
  H  H15  1  0.64501555  0.92228980  0.50516757  1.0
  H  H16  1  0.91561696  0.55928044  0.58172502  1.0
  H  H17  1  0.08438005  0.44072233  0.41827299  1.0
  H  H18  1  0.91608719  0.44081201  0.41835367  1.0
  H  H19  1  0.08390847  0.55918953  0.58164518  1.0
  H  H20  1  0.35523365  0.49990832  0.78492707  1.0
  H  H21  1  0.35519005  0.49993716  0.21501998  1.0
  C  C22  1  0.49995102  0.66121517  0.50005014  1.0
  C  C23  1  0.50004869  0.33878513  0.49994534  1.0
  C  C24  1  0.41824551  0.49978823  0.76137216  1.0
  C  C25  1  0.41821263  0.49973941  0.23859725  1.0
  C  C26  1  0.41843805  0.49991984  0.70275808  1.0
  C  C27  1  0.41845789  0.49982375  0.29720933  1.0
  C  C28  1  0.49998271  0.50010037  0.67308415  1.0
  C  C29  1  0.50001759  0.49992338  0.32691682  1.0
  C  C30  1  0.58153970  0.50020434  0.70279164  1.0
  C  C31  1  0.58156492  0.50011008  0.29724500  1.0
  C  C32  1  0.58178828  0.50030286  0.76140499  1.0
  C  C33  1  0.58175608  0.50025404  0.23863218  1.0
  C  C34  1  0.50001988  0.50006299  0.79027327  1.0
  C  C35  1  0.49998437  0.49998792  0.20972982  1.0
  C  C36  1  0.41812190  0.04319019  0.49708623  1.0
  C  C37  1  0.58187378  0.95680889  0.50291516  1.0
  C  C38  1  0.41827457  0.95760434  0.49707792  1.0
  C  C39  1  0.58172313  0.04239412  0.50292304  1.0
  C  C40  1  0.49986293  0.08708358  0.50000869  1.0
  C  C41  1  0.50013409  0.91291488  0.49999100  1.0
  C  C42  1  0.49981011  0.17440759  0.49998699  1.0
  C  C43  1  0.50018691  0.82559210  0.50001061  1.0
  C  C44  1  0.49997740  0.75036853  0.50004791  1.0
  C  C45  1  0.50002029  0.24962992  0.49995095  1.0
  C  C46  1  0.49998140  0.50010971  0.60987555  1.0
  C  C47  1  0.50001962  0.49989923  0.39012499  1.0
  C  C48  1  0.04661884  0.53353051  0.54628069  1.0
  C  C49  1  0.95337884  0.46647227  0.45371732  1.0
  C  C50  1  0.04689427  0.46643916  0.45366674  1.0
  C  C51  1  0.95310273  0.53356424  0.54633127  1.0
  C  C52  1  0.09330739  0.49998537  0.49994447  1.0
  C  C53  1  0.90669096  0.50001555  0.50005396  1.0
  C  C54  1  0.18905854  0.50019871  0.49987327  1.0
  C  C55  1  0.81093579  0.49979913  0.50012390  1.0
  C  C56  1  0.52616965  0.42602824  0.12170858  1.0
  C  C57  1  0.47385347  0.57402075  0.87829282  1.0
  C  C58  1  0.47380191  0.57399656  0.12181389  1.0
  C  C59  1  0.52621042  0.42605432  0.87818625  1.0
  C  C60  1  0.47417638  0.57256411  0.05932209  1.0
  C  C61  1  0.52584063  0.42749663  0.94068015  1.0
  C  C62  1  0.50000545  0.50002400  0.03001854  1.0
  C  C63  1  0.50001698  0.50003056  0.96998666  1.0
  C  C64  1  0.52582677  0.42747136  0.05921457  1.0
  C  C65  1  0.47419565  0.57258381  0.94078599  1.0
  C  C66  1  0.44924399  0.64303098  0.02968886  1.0
  C  C67  1  0.55078179  0.35702912  0.97031381  1.0
  C  C68  1  0.44924706  0.64303838  0.97052449  1.0
  C  C69  1  0.55078009  0.35701554  0.02947902  1.0
  N  N70  1  0.49998185  0.50000382  0.14889425  1.0
  N  N71  1  0.50003453  0.50004642  0.85110673  1.0
  N  N72  1  0.73280235  0.49940605  0.50011983  1.0
  N  N73  1  0.26719871  0.50059178  0.49987608  1.0
  O  O74  1  0.42304519  0.62664467  0.50002098  1.0
  O  O75  1  0.57695317  0.37335440  0.49997071  1.0
  O  O76  1  0.42308445  0.37414723  0.49991610  1.0
  O  O77  1  0.57691323  0.62585369  0.50008191  1.0
  O  O78  1  0.42345317  0.50040844  0.58553930  1.0
  O  O79  1  0.57654651  0.49960050  0.41445998  1.0
  O  O80  1  0.42348691  0.50018718  0.41441214  1.0
  O  O81  1  0.57651414  0.49981373  0.58558840  1.0
  O  O82  1  0.54753245  0.36458088  0.14899453  1.0
  O  O83  1  0.45247991  0.63546320  0.85100602  1.0
  O  O84  1  0.45243203  0.63543577  0.14917845  1.0
  O  O85  1  0.54757088  0.36461452  0.85081915  1.0
