# generated using pymatgen
data_AlH18C24(NO2)3
_symmetry_space_group_name_H-M   'P 1'
_cell_length_a   3.95832287
_cell_length_b   27.89505811
_cell_length_c   27.89369848
_cell_angle_alpha   119.99840509
_cell_angle_beta   90.00720505
_cell_angle_gamma   89.98771529
_symmetry_Int_Tables_number   1
_chemical_formula_structural   AlH18C24(NO2)3
_chemical_formula_sum   'Al2 H36 C48 N6 O12'
_cell_volume   2667.36340888
_cell_formula_units_Z   2
loop_
 _symmetry_equiv_pos_site_id
 _symmetry_equiv_pos_as_xyz
  1  'x, y, z'
loop_
 _atom_site_type_symbol
 _atom_site_label
 _atom_site_symmetry_multiplicity
 _atom_site_fract_x
 _atom_site_fract_y
 _atom_site_fract_z
 _atom_site_occupancy
  Al  Al0  1  0.98723535  0.00000246  0.49999433  1.0
  Al  Al1  1  0.98720658  0.33333318  0.16667243  1.0
  H  H2  1  0.59987157  0.48916975  0.31160536  1.0
  H  H3  1  0.60139635  0.59314643  0.36041371  1.0
  H  H4  1  0.47112617  0.58565433  0.20419083  1.0
  H  H5  1  0.47097703  0.74768009  0.46246863  1.0
  H  H6  1  0.60155723  0.74018578  0.30625385  1.0
  H  H7  1  0.60012369  0.84416124  0.35506481  1.0
  H  H8  1  0.60002268  0.18839170  0.17755769  1.0
  H  H9  1  0.60146630  0.13957714  0.23271330  1.0
  H  H10  1  0.47110118  0.29580249  0.38146796  1.0
  H  H11  1  0.47111175  0.03750593  0.28518172  1.0
  H  H12  1  0.60131910  0.19373901  0.43393224  1.0
  H  H13  1  0.59980837  0.14493268  0.48909806  1.0
  H  H14  1  0.60003401  0.32243236  0.01084439  1.0
  H  H15  1  0.60154521  0.26725900  0.90686526  1.0
  H  H16  1  0.47111085  0.11852264  0.91433927  1.0
  H  H17  1  0.47117614  0.21481207  0.75234305  1.0
  H  H18  1  0.60149869  0.06605738  0.75979773  1.0
  H  H19  1  0.60000420  0.01089200  0.65582139  1.0
  H  H20  1  0.17055362  0.46202495  0.12560836  1.0
  H  H21  1  0.58164841  0.43497789  0.11825882  1.0
  H  H22  1  0.51869246  0.49883009  0.11925146  1.0
  H  H23  1  0.17048441  0.87131150  0.54104571  1.0
  H  H24  1  0.58155097  0.89835211  0.54841507  1.0
  H  H25  1  0.51867585  0.83449291  0.54740717  1.0
  H  H26  1  0.17057372  0.37438895  0.33642536  1.0
  H  H27  1  0.58163797  0.38173893  0.31674021  1.0
  H  H28  1  0.51877716  0.38074449  0.37960237  1.0
  H  H29  1  0.17059569  0.95894170  0.33023943  1.0
  H  H30  1  0.58168521  0.95158527  0.34992756  1.0
  H  H31  1  0.51877305  0.95257022  0.28706143  1.0
  H  H32  1  0.17054571  0.16359244  0.03797092  1.0
  H  H33  1  0.58157818  0.18326867  0.06502169  1.0
  H  H34  1  0.51873675  0.12040807  0.00116360  1.0
  H  H35  1  0.17058578  0.16975850  0.62870115  1.0
  H  H36  1  0.58164142  0.15006050  0.60165860  1.0
  H  H37  1  0.51874523  0.21292859  0.66551405  1.0
  C  C38  1  0.49230360  0.04626832  0.58512561  1.0
  C  C39  1  0.49234781  0.91487345  0.46113392  1.0
  C  C40  1  0.49224145  0.03885504  0.45372154  1.0
  C  C41  1  0.49220266  0.41846026  0.20552457  1.0
  C  C42  1  0.49229387  0.29447122  0.21293716  1.0
  C  C43  1  0.49230245  0.28706952  0.08154570  1.0
  C  C44  1  0.51134913  0.47964092  0.23115836  1.0
  C  C45  1  0.56496698  0.51098508  0.28865176  1.0
  C  C46  1  0.56750371  0.56824114  0.31579842  1.0
  C  C47  1  0.52781482  0.59485092  0.28463537  1.0
  C  C48  1  0.49054228  0.56342223  0.22702587  1.0
  C  C49  1  0.47629613  0.50567136  0.19920428  1.0
  C  C50  1  0.49048144  0.76991109  0.43963385  1.0
  C  C51  1  0.52778342  0.73848438  0.38202587  1.0
  C  C52  1  0.56761306  0.76509402  0.35086795  1.0
  C  C53  1  0.56515272  0.82234929  0.37801851  1.0
  C  C54  1  0.51154334  0.85369501  0.43551029  1.0
  C  C55  1  0.47629889  0.82766381  0.46746024  1.0
  C  C56  1  0.51153186  0.26884143  0.24848740  1.0
  C  C57  1  0.56511194  0.21134825  0.22232857  1.0
  C  C58  1  0.56758540  0.18419307  0.25243068  1.0
  C  C59  1  0.52780303  0.21535061  0.31020334  1.0
  C  C60  1  0.49055407  0.27295967  0.33639795  1.0
  C  C61  1  0.47636285  0.30078931  0.30647336  1.0
  C  C62  1  0.49052886  0.06035344  0.33025309  1.0
  C  C63  1  0.52776346  0.11796075  0.35644162  1.0
  C  C64  1  0.56744655  0.14912520  0.41421684  1.0
  C  C65  1  0.56493558  0.12197667  0.44432693  1.0
  C  C66  1  0.51137830  0.06448539  0.41817203  1.0
  C  C67  1  0.47631158  0.03253187  0.36018452  1.0
  C  C68  1  0.51146510  0.25151535  0.02036517  1.0
  C  C69  1  0.56511601  0.27766406  0.98902269  1.0
  C  C70  1  0.56763175  0.24754657  0.93176634  1.0
  C  C71  1  0.52787069  0.18977841  0.90515102  1.0
  C  C72  1  0.49057970  0.16359094  0.93657178  1.0
  C  C73  1  0.47633990  0.19353068  0.99432604  1.0
  C  C74  1  0.49061265  0.16974309  0.73010562  1.0
  C  C75  1  0.52786586  0.14354684  0.76152109  1.0
  C  C76  1  0.56761070  0.08577729  0.73490167  1.0
  C  C77  1  0.56508390  0.05566275  0.67764571  1.0
  C  C78  1  0.51148548  0.08182182  0.64630876  1.0
  C  C79  1  0.47636311  0.13980892  0.67235229  1.0
  C  C80  1  0.43584031  0.47364041  0.13724093  1.0
  C  C81  1  0.43579870  0.85969324  0.52942300  1.0
  C  C82  1  0.43587678  0.36275477  0.33641631  1.0
  C  C83  1  0.43588099  0.97056852  0.33024674  1.0
  C  C84  1  0.43584861  0.16359330  0.02635393  1.0
  C  C85  1  0.43589146  0.16974697  0.64032371  1.0
  N  N86  1  0.52671929  0.65280488  0.30710210  1.0
  N  N87  1  0.52664315  0.68053042  0.35956021  1.0
  N  N88  1  0.52665734  0.19288206  0.34568958  1.0
  N  N89  1  0.52669357  0.14042807  0.32095368  1.0
  N  N90  1  0.52672916  0.15429344  0.84719396  1.0
  N  N91  1  0.52675139  0.17903057  0.81947645  1.0
  O  O92  1  0.24860850  0.00561374  0.44532606  1.0
  O  O93  1  0.24862825  0.05467070  0.56027995  1.0
  O  O94  1  0.24874302  0.93972898  0.49438562  1.0
  O  O95  1  0.71843837  0.05223645  0.49103561  1.0
  O  O96  1  0.71855109  0.93880330  0.44775867  1.0
  O  O97  1  0.71854436  0.00896030  0.56118854  1.0
  O  O98  1  0.24866788  0.27867296  0.10639242  1.0
  O  O99  1  0.24850258  0.39361799  0.17229056  1.0
  O  O100  1  0.24864974  0.32772041  0.22134012  1.0
  O  O101  1  0.71845783  0.32437943  0.10548225  1.0
  O  O102  1  0.71855120  0.28109996  0.17563244  1.0
  O  O103  1  0.71840564  0.39452359  0.21890533  1.0
