# generated using pymatgen
data_Zn4H22C29O15F2
_symmetry_space_group_name_H-M   'P 1'
_cell_length_a   18.36940213
_cell_length_b   18.40581395
_cell_length_c   18.42079314
_cell_angle_alpha   90.24631396
_cell_angle_beta   119.74495644
_cell_angle_gamma   119.58172646
_symmetry_Int_Tables_number   1
_chemical_formula_structural   Zn4H22C29O15F2
_chemical_formula_sum   'Zn8 H44 C58 O30 F4'
_cell_volume   4439.12191468
_cell_formula_units_Z   2
loop_
 _symmetry_equiv_pos_site_id
 _symmetry_equiv_pos_as_xyz
  1  'x, y, z'
loop_
 _atom_site_type_symbol
 _atom_site_label
 _atom_site_symmetry_multiplicity
 _atom_site_fract_x
 _atom_site_fract_y
 _atom_site_fract_z
 _atom_site_occupancy
  Zn  Zn0  1  0.08867280  0.37840086  0.79732442  1.0
  Zn  Zn1  1  0.90906374  0.79127742  0.20195203  1.0
  Zn  Zn2  1  0.08779016  0.20420082  0.79621052  1.0
  Zn  Zn3  1  0.09040219  0.79632553  0.20810041  1.0
  Zn  Zn4  1  0.91438659  0.20681889  0.62395025  1.0
  Zn  Zn5  1  0.91370714  0.62270020  0.20657737  1.0
  Zn  Zn6  1  0.08978086  0.79756093  0.37953129  1.0
  Zn  Zn7  1  0.91205152  0.20295303  0.79551184  1.0
  H  H8  1  0.10371491  0.65823874  0.56430408  1.0
  H  H9  1  0.60081494  0.04892715  0.43480767  1.0
  H  H10  1  0.86879614  0.43660388  0.03439351  1.0
  H  H11  1  0.86841870  0.03531930  0.43528468  1.0
  H  H12  1  0.59835941  0.43044435  0.04868136  1.0
  H  H13  1  0.59167639  0.66121628  0.04859838  1.0
  H  H14  1  0.59434643  0.04988799  0.66550104  1.0
  H  H15  1  0.13101362  0.66201907  0.06102709  1.0
  H  H16  1  0.11886040  0.56390252  0.65862735  1.0
  H  H17  1  0.12677267  0.05632266  0.66124779  1.0
  H  H18  1  0.40015398  0.56239885  0.95165837  1.0
  H  H19  1  0.40276211  0.95258804  0.56625489  1.0
  H  H20  1  0.12732395  0.56045250  0.96571297  1.0
  H  H21  1  0.12285992  0.96133554  0.55936410  1.0
  H  H22  1  0.90609650  0.97615157  0.75891740  1.0
  H  H23  1  0.85886872  0.86719236  0.76573894  1.0
  H  H24  1  0.01546934  0.96859891  0.72187126  1.0
  H  H25  1  0.97381796  0.86201891  0.73181962  1.0
  H  H26  1  0.79278557  0.80257599  0.60393553  1.0
  H  H27  1  0.87793545  0.85165538  0.57157241  1.0
  H  H28  1  0.83386029  0.90953662  0.59397731  1.0
  H  H29  1  0.93952962  0.78203350  0.84363852  1.0
  H  H30  1  0.85959745  0.77588682  0.87551205  1.0
  H  H31  1  0.99921334  0.71156109  0.95576973  1.0
  H  H32  1  0.91913089  0.70527571  0.98529108  1.0
  H  H33  1  0.76327510  0.60126839  0.83181706  1.0
  H  H34  1  0.83797137  0.55883691  0.88128153  1.0
  H  H35  1  0.84245644  0.60790483  0.79965340  1.0
  H  H36  1  0.09353887  0.24080472  0.02258489  1.0
  H  H37  1  0.14249341  0.23375290  0.13161138  1.0
  H  H38  1  0.98538327  0.27807875  0.03272470  1.0
  H  H39  1  0.96401288  0.48749222  0.40583778  1.0
  H  H40  1  0.02929368  0.26836038  0.13955279  1.0
  H  H41  1  0.20960985  0.39553542  0.19713933  1.0
  H  H42  1  0.12475013  0.42852266  0.14974106  1.0
  H  H43  1  0.16661243  0.40545259  0.08999477  1.0
  H  H44  1  0.06204503  0.15600793  0.21809255  1.0
  H  H45  1  0.14151952  0.12337496  0.22430456  1.0
  H  H46  1  0.00181184  0.04420263  0.28823687  1.0
  H  H47  1  0.08064677  0.01319340  0.29395560  1.0
  H  H48  1  0.23795575  0.16584153  0.39818697  1.0
  H  H49  1  0.16401860  0.11732716  0.44118067  1.0
  H  H50  1  0.93018071  0.40575318  0.48813744  1.0
  H  H51  1  0.16031411  0.19954630  0.39271747  1.0
  C  C52  1  0.72363664  0.11236592  0.61432581  1.0
  C  C53  1  0.55357484  0.02828359  0.59375941  1.0
  C  C54  1  0.05185460  0.28780078  0.09381425  1.0
  C  C55  1  0.14315363  0.38451231  0.13489218  1.0
  C  C56  1  0.07115695  0.10095909  0.21996486  1.0
  C  C57  1  0.07508324  0.06980433  0.29735100  1.0
  C  C58  1  0.16418860  0.14221496  0.38713096  1.0
  C  C59  1  0.92517975  0.92739083  0.77361958  1.0
  C  C60  1  0.94975469  0.90687235  0.71211337  1.0
  C  C61  1  0.85860631  0.86538975  0.61518924  1.0
  C  C62  1  0.92998633  0.77999402  0.89837642  1.0
  C  C63  1  0.92568895  0.70237794  0.92928569  1.0
  C  C64  1  0.07350721  0.59088194  0.03431110  1.0
  C  C65  1  0.83751453  0.61283197  0.85638029  1.0
  C  C66  1  0.07569748  0.22615247  0.07201717  1.0
  C  C67  1  0.06976909  0.03066654  0.58999028  1.0
  C  C68  1  0.55091417  0.58950493  0.02719627  1.0
  C  C69  1  0.44497330  0.53472384  0.97348328  1.0
  C  C70  1  0.44761485  0.97448360  0.53875177  1.0
  C  C71  1  0.07141980  0.53464344  0.98169438  1.0
  C  C72  1  0.72108562  0.61005476  0.11283273  1.0
  C  C73  1  0.06748707  0.97806863  0.53358969  1.0
  C  C74  1  0.39142565  0.44190015  0.94524407  1.0
  C  C75  1  0.39403840  0.94604071  0.44591714  1.0
  C  C76  1  0.99773842  0.44255867  0.94721212  1.0
  C  C77  1  0.99423758  0.94437047  0.44129287  1.0
  C  C78  1  0.99864861  0.10843209  0.61371900  1.0
  C  C79  1  0.00538220  0.98037412  0.93006075  1.0
  C  C80  1  0.00625012  0.92701425  0.98456354  1.0
  C  C81  1  0.99577928  0.06980278  0.01937399  1.0
  C  C82  1  0.99487148  0.01522688  0.07269684  1.0
  C  C83  1  0.00036997  0.61439500  0.11000447  1.0
  C  C84  1  0.00054813  0.94456438  0.05513540  1.0
  C  C85  1  0.00062675  0.05205161  0.94778787  1.0
  C  C86  1  0.27728325  0.38627074  0.88805030  1.0
  C  C87  1  0.27987264  0.88811971  0.39002771  1.0
  C  C88  1  0.00035311  0.38547845  0.89189149  1.0
  C  C89  1  0.99663468  0.88846478  0.38441412  1.0
  C  C90  1  0.00019165  0.10914185  0.89008368  1.0
  C  C91  1  0.00025548  0.88699088  0.11220997  1.0
  C  C92  1  0.99891189  0.38817550  0.61617830  1.0
  C  C93  1  0.00666200  0.61574943  0.38846824  1.0
  C  C94  1  0.05895218  0.58698100  0.53182181  1.0
  C  C95  1  0.06005305  0.53143124  0.58740654  1.0
  C  C96  1  0.00803220  0.55725657  0.44294304  1.0
  C  C97  1  0.99301593  0.44267572  0.55777931  1.0
  C  C98  1  0.44980129  0.40660955  0.97371159  1.0
  C  C99  1  0.45234557  0.97459849  0.41070207  1.0
  C  C100  1  0.92536185  0.40945812  0.96753135  1.0
  C  C101  1  0.92302407  0.96626845  0.40818089  1.0
  C  C102  1  0.55580142  0.46019070  0.02767837  1.0
  C  C103  1  0.55833964  0.02824699  0.46450514  1.0
  C  C104  1  0.92602849  0.46441490  0.01998256  1.0
  C  C105  1  0.92447053  0.01938397  0.46331733  1.0
  C  C106  1  0.60678330  0.55210697  0.05467265  1.0
  C  C107  1  0.60938482  0.05521676  0.55650576  1.0
  C  C108  1  0.00047095  0.55561503  0.05367863  1.0
  C  C109  1  0.99796429  0.05164518  0.55470213  1.0
  O  O110  1  0.00098321  0.24854946  0.75358171  1.0
  O  O111  1  0.76660634  0.57119583  0.13435260  1.0
  O  O112  1  0.94193213  0.13571236  0.57544245  1.0
  O  O113  1  0.93472201  0.57564888  0.12806415  1.0
  O  O114  1  0.23491703  0.42735535  0.87604103  1.0
  O  O115  1  0.23699746  0.87368714  0.43084944  1.0
  O  O116  1  0.05613458  0.42580896  0.86424993  1.0
  O  O117  1  0.06200440  0.87013868  0.42580001  1.0
  O  O118  1  0.00101441  0.75206203  0.24979838  1.0
  O  O119  1  0.94852739  0.30248475  0.87777769  1.0
  O  O120  1  0.93503666  0.86461342  0.30083058  1.0
  O  O121  1  0.23131637  0.30331310  0.85579139  1.0
  O  O122  1  0.23445601  0.85756364  0.30702007  1.0
  O  O123  1  0.05540273  0.12441394  0.69688611  1.0
  O  O124  1  0.06518473  0.69756291  0.13453968  1.0
  O  O125  1  0.76667115  0.13964291  0.69758147  1.0
  O  O126  1  0.76335591  0.69323462  0.13598842  1.0
  O  O127  1  0.92708724  0.11872831  0.85578158  1.0
  O  O128  1  0.92135819  0.84461999  0.11338292  1.0
  O  O129  1  0.07275015  0.14318315  0.87990754  1.0
  O  O130  1  0.07881128  0.88511925  0.15464120  1.0
  O  O131  1  0.93340836  0.30450333  0.57624376  1.0
  O  O132  1  0.94640368  0.57550534  0.30466611  1.0
  O  O133  1  0.06693491  0.42708727  0.69947645  1.0
  O  O134  1  0.76840494  0.12879161  0.57527474  1.0
  O  O135  1  0.06357263  0.69925975  0.42772696  1.0
  O  O136  1  0.01355934  0.96162507  0.86330497  1.0
  O  O137  1  0.01679567  0.86009702  0.97300400  1.0
  O  O138  1  0.98749432  0.13652482  0.03806566  1.0
  O  O139  1  0.98420231  0.02674070  0.13944225  1.0
  F  F140  1  0.40478590  0.31809765  0.95027673  1.0
  F  F141  1  0.40748386  0.95133259  0.32219248  1.0
  F  F142  1  0.85035938  0.32184123  0.93527896  1.0
  F  F143  1  0.84914466  0.93598828  0.32039938  1.0
