# generated using pymatgen
data_AlH7C10NO6
_symmetry_space_group_name_H-M   'P 1'
_cell_length_a   6.72216976
_cell_length_b   8.67340267
_cell_length_c   17.76361011
_cell_angle_alpha   91.97133858
_cell_angle_beta   100.65077666
_cell_angle_gamma   103.82559184
_symmetry_Int_Tables_number   1
_chemical_formula_structural   AlH7C10NO6
_chemical_formula_sum   'Al2 H14 C20 N2 O12'
_cell_volume   985.00338952
_cell_formula_units_Z   2
loop_
 _symmetry_equiv_pos_site_id
 _symmetry_equiv_pos_as_xyz
  1  'x, y, z'
loop_
 _atom_site_type_symbol
 _atom_site_label
 _atom_site_symmetry_multiplicity
 _atom_site_fract_x
 _atom_site_fract_y
 _atom_site_fract_z
 _atom_site_occupancy
  Al  Al0  1  0.99874125  0.49910688  0.50014899  1.0
  Al  Al1  1  0.49859627  0.49908005  0.49983524  1.0
  H  H2  1  0.16309767  0.36681983  0.41412931  1.0
  H  H3  1  0.83373943  0.63420954  0.58490747  1.0
  H  H4  1  0.05312019  0.49733820  0.73286357  1.0
  H  H5  1  0.12884026  0.51473300  0.87547875  1.0
  H  H6  1  0.73938591  0.43619215  0.87255468  1.0
  H  H7  1  0.26492822  0.56688093  0.12667901  1.0
  H  H8  1  0.94788305  0.50286223  0.26788237  1.0
  H  H9  1  0.87602703  0.48788254  0.12540163  1.0
  H  H10  1  0.63941585  0.41590720  0.66944976  1.0
  H  H11  1  0.36009892  0.58403687  0.32976955  1.0
  H  H12  1  0.72277600  0.84540140  0.48900248  1.0
  H  H13  1  0.87168588  0.02277001  0.46558004  1.0
  H  H14  1  0.27457927  0.15294610  0.51115210  1.0
  H  H15  1  0.12616939  0.97574115  0.53498436  1.0
  C  C16  1  0.65858279  0.21194651  0.49013963  1.0
  C  C17  1  0.68998673  0.53375745  0.36226925  1.0
  C  C18  1  0.33898844  0.78635212  0.51009016  1.0
  C  C19  1  0.30832888  0.46500237  0.63768636  1.0
  C  C20  1  0.35268996  0.46166440  0.72160882  1.0
  C  C21  1  0.20357953  0.48597747  0.76396172  1.0
  C  C22  1  0.24460205  0.49470336  0.84327904  1.0
  C  C23  1  0.44061461  0.47914601  0.88361061  1.0
  C  C24  1  0.58917640  0.45056110  0.84241531  1.0
  C  C25  1  0.54718560  0.44133973  0.76200187  1.0
  C  C26  1  0.48547400  0.49401009  0.96491912  1.0
  C  C27  1  0.52045381  0.50960847  0.03506000  1.0
  C  C28  1  0.56399717  0.52357875  0.11637845  1.0
  C  C29  1  0.41436501  0.55172726  0.15716469  1.0
  C  C30  1  0.45437285  0.55979900  0.23754752  1.0
  C  C31  1  0.64780880  0.53852326  0.27839140  1.0
  C  C32  1  0.79813069  0.51489278  0.23647308  1.0
  C  C33  1  0.75916815  0.50738125  0.15718419  1.0
  C  C34  1  0.59918764  0.03824458  0.49556426  1.0
  C  C35  1  0.39841890  0.96010982  0.50479774  1.0
  N  N36  1  0.76099005  0.96628627  0.49405196  1.0
  N  N37  1  0.23663389  0.03206525  0.50637099  1.0
  O  O38  1  0.85237647  0.27793962  0.49377355  1.0
  O  O39  1  0.54203063  0.54857506  0.39785100  1.0
  O  O40  1  0.48396601  0.71112728  0.51892262  1.0
  O  O41  1  0.13367123  0.48570619  0.60410917  1.0
  O  O42  1  0.14525232  0.72042082  0.50667433  1.0
  O  O43  1  0.45522908  0.44957298  0.60172807  1.0
  O  O44  1  0.51345025  0.28702524  0.48095061  1.0
  O  O45  1  0.86402239  0.51250616  0.39614551  1.0
  O  O46  1  0.21075414  0.43654006  0.46109596  1.0
  O  O47  1  0.78642809  0.56183074  0.53881687  1.0
  O  O48  1  0.69641945  0.41394066  0.72551687  1.0
  O  O49  1  0.30430277  0.58691957  0.27367546  1.0
