# generated using pymatgen
data_ZnH5C7ClO4
_symmetry_space_group_name_H-M   'P 1'
_cell_length_a   18.53665675
_cell_length_b   18.74579634
_cell_length_c   18.87980103
_cell_angle_alpha   108.56807776
_cell_angle_beta   108.36385995
_cell_angle_gamma   108.49673490
_symmetry_Int_Tables_number   1
_chemical_formula_structural   ZnH5C7ClO4
_chemical_formula_sum   'Zn6 H30 C42 Cl6 O24'
_cell_volume   5227.98212982
_cell_formula_units_Z   6
loop_
 _symmetry_equiv_pos_site_id
 _symmetry_equiv_pos_as_xyz
  1  'x, y, z'
loop_
 _atom_site_type_symbol
 _atom_site_label
 _atom_site_symmetry_multiplicity
 _atom_site_fract_x
 _atom_site_fract_y
 _atom_site_fract_z
 _atom_site_occupancy
  Zn  Zn0  1  0.06213076  0.00260985  0.56607617  1.0
  Zn  Zn1  1  0.93261678  0.98643087  0.43514569  1.0
  Zn  Zn2  1  0.50184254  0.55169660  0.57364464  1.0
  Zn  Zn3  1  0.49352421  0.43630579  0.43671981  1.0
  Zn  Zn4  1  0.95409086  0.44211450  0.00910634  1.0
  Zn  Zn5  1  0.06543584  0.56061421  0.99205577  1.0
  H  H6  1  0.68797684  0.75356815  0.58113298  1.0
  H  H7  1  0.26094949  0.20269772  0.55152847  1.0
  H  H8  1  0.91116523  0.63244769  0.15950981  1.0
  H  H9  1  0.97444098  0.24284128  0.83161055  1.0
  H  H10  1  0.05260747  0.77577037  0.16177557  1.0
  H  H11  1  0.05432790  0.37023491  0.77435869  1.0
  H  H12  1  0.88682560  0.74579229  0.24219196  1.0
  H  H13  1  0.02105072  0.15916231  0.73410520  1.0
  H  H14  1  0.27793423  0.89702126  0.38679102  1.0
  H  H15  1  0.27565742  0.98981176  0.38317900  1.0
  H  H16  1  0.32143225  0.99122164  0.48186674  1.0
  H  H17  1  0.27387707  0.18158355  0.36042912  1.0
  H  H18  1  0.17622943  0.98111340  0.44859767  1.0
  H  H19  1  0.17671126  0.88928162  0.45289951  1.0
  H  H20  1  0.11670506  0.81365491  0.29527323  1.0
  H  H21  1  0.11692752  0.90554644  0.29063696  1.0
  H  H22  1  0.80086456  0.10381631  0.65560210  1.0
  H  H23  1  0.78108567  0.19302380  0.67355690  1.0
  H  H24  1  0.69797060  0.09001292  0.59462775  1.0
  H  H25  1  0.75786015  0.17226348  0.52754640  1.0
  H  H26  1  0.77853154  0.08424938  0.50968238  1.0
  H  H27  1  0.90340486  0.21741133  0.54744896  1.0
  H  H28  1  0.15441674  0.49349342  0.24837098  1.0
  H  H29  1  0.90612683  0.26801218  0.64592671  1.0
  H  H30  1  0.79811999  0.45960020  0.77037623  1.0
  H  H31  1  0.36423546  0.51286265  0.28678275  1.0
  H  H32  1  0.63715734  0.52158573  0.78607668  1.0
  H  H33  1  0.71860161  0.63390047  0.45141679  1.0
  H  H34  1  0.27868827  0.31638435  0.51037893  1.0
  H  H35  1  0.87548822  0.76631356  0.55068979  1.0
  C  C36  1  0.99480918  0.88849310  0.37125114  1.0
  C  C37  1  0.11065392  0.50233620  0.13160856  1.0
  C  C38  1  0.01552364  0.64188909  0.09170847  1.0
  C  C39  1  0.03397512  0.40880600  0.88561070  1.0
  C  C40  1  0.26155694  0.53906126  0.22951117  1.0
  C  C41  1  0.71646143  0.46297339  0.82450122  1.0
  C  C42  1  0.17753115  0.51381246  0.20821511  1.0
  C  C43  1  0.78584432  0.45561149  0.82211210  1.0
  C  C44  1  0.32155017  0.53778130  0.30008400  1.0
  C  C45  1  0.66100429  0.47760131  0.76272354  1.0
  C  C46  1  0.33439141  0.56427068  0.38054435  1.0
  C  C47  1  0.95699231  0.10449488  0.57656801  1.0
  C  C48  1  0.63616505  0.44403877  0.67904588  1.0
  C  C49  1  0.91697104  0.88166586  0.53542039  1.0
  C  C50  1  0.13367162  0.10374822  0.51156851  1.0
  C  C51  1  0.71947892  0.73732747  0.54288891  1.0
  C  C52  1  0.25891154  0.20707759  0.41144181  1.0
  C  C53  1  0.69412950  0.65466173  0.49532520  1.0
  C  C54  1  0.29765995  0.29111963  0.46277622  1.0
  C  C55  1  0.78164024  0.80740048  0.54172132  1.0
  C  C56  1  0.19270180  0.14855831  0.42043380  1.0
  C  C57  1  0.85625827  0.81348373  0.54211918  1.0
  C  C58  1  0.01633371  0.83723948  0.31027062  1.0
  C  C59  1  0.19952524  0.15611084  0.49624295  1.0
  C  C60  1  0.95576649  0.69884335  0.18233592  1.0
  C  C61  1  0.99426446  0.26193420  0.78887864  1.0
  C  C62  1  0.01052915  0.71259192  0.14904620  1.0
  C  C63  1  0.02780334  0.34527337  0.81033281  1.0
  C  C64  1  0.95001670  0.76251695  0.24470257  1.0
  C  C65  1  0.98937302  0.19621878  0.71809610  1.0
  C  C66  1  0.10842557  0.86916783  0.32598024  1.0
  C  C67  1  0.18152822  0.92443074  0.41635701  1.0
  C  C68  1  0.26884053  0.95192929  0.41707728  1.0
  C  C69  1  0.94818311  0.17315440  0.63499933  1.0
  C  C70  1  0.89079929  0.20655299  0.59721898  1.0
  C  C71  1  0.79434192  0.14558695  0.55910520  1.0
  C  C72  1  0.76716470  0.13245801  0.62428900  1.0
  C  C73  1  0.39969958  0.55147945  0.43934590  1.0
  C  C74  1  0.58631586  0.47230426  0.62475296  1.0
  C  C75  1  0.62493450  0.58758969  0.49486962  1.0
  C  C76  1  0.36745053  0.35626215  0.46245710  1.0
  C  C77  1  0.85692590  0.45730134  0.88723387  1.0
  Cl  Cl78  1  0.28192990  0.61263536  0.42111786  1.0
  Cl  Cl79  1  0.65892672  0.36750148  0.62644709  1.0
  Cl  Cl80  1  0.75096508  0.88593013  0.54251862  1.0
  Cl  Cl81  1  0.10587876  0.06901341  0.32530647  1.0
  Cl  Cl82  1  0.30765391  0.56631140  0.16913041  1.0
  Cl  Cl83  1  0.69215228  0.46643887  0.90647376  1.0
  O  O84  1  0.03863896  0.91287227  0.44897691  1.0
  O  O85  1  0.01205811  0.08198835  0.60775032  1.0
  O  O86  1  0.99726533  0.91381379  0.58653650  1.0
  O  O87  1  0.05533251  0.07801705  0.46439178  1.0
  O  O88  1  0.88633803  0.90225579  0.47956092  1.0
  O  O89  1  0.16194237  0.08784559  0.57380053  1.0
  O  O90  1  0.42535805  0.59115956  0.51889167  1.0
  O  O91  1  0.56561994  0.43716537  0.54714230  1.0
  O  O92  1  0.42460541  0.50089028  0.40481155  1.0
  O  O93  1  0.56913416  0.53106129  0.66108155  1.0
  O  O94  1  0.60085898  0.60872697  0.55093839  1.0
  O  O95  1  0.90838810  0.07252121  0.49658926  1.0
  O  O96  1  0.39354009  0.33503118  0.40689885  1.0
  O  O97  1  0.59227095  0.51148813  0.43504611  1.0
  O  O98  1  0.39838589  0.43144405  0.52035256  1.0
  O  O99  1  0.84158713  0.41247313  0.92518055  1.0
  O  O100  1  0.13062992  0.54455235  0.09395306  1.0
  O  O101  1  0.93107246  0.50483596  0.90032277  1.0
  O  O102  1  0.03360860  0.44745977  0.10855778  1.0
  O  O103  1  0.97333543  0.56674021  0.07855428  1.0
  O  O104  1  0.08001557  0.48741044  0.90599105  1.0
  O  O105  1  0.06600822  0.66245664  0.05908091  1.0
  O  O106  1  0.99474196  0.38461874  0.92461107  1.0
  O  O107  1  0.93265810  0.90492458  0.34092157  1.0
