# generated using pymatgen
data_ZnH22C29NO4
_symmetry_space_group_name_H-M   'P 1'
_cell_length_a   13.40973031
_cell_length_b   18.32611381
_cell_length_c   19.52830543
_cell_angle_alpha   87.74145559
_cell_angle_beta   87.81497349
_cell_angle_gamma   69.43210590
_symmetry_Int_Tables_number   1
_chemical_formula_structural   ZnH22C29NO4
_chemical_formula_sum   'Zn2 H44 C58 N2 O8'
_cell_volume   4488.13602846
_cell_formula_units_Z   2
loop_
 _symmetry_equiv_pos_site_id
 _symmetry_equiv_pos_as_xyz
  1  'x, y, z'
loop_
 _atom_site_type_symbol
 _atom_site_label
 _atom_site_symmetry_multiplicity
 _atom_site_fract_x
 _atom_site_fract_y
 _atom_site_fract_z
 _atom_site_occupancy
  Zn  Zn0  1  0.48921089  0.58074046  0.50001594  1.0
  Zn  Zn1  1  0.50685719  0.42127449  0.50036192  1.0
  H  H2  1  0.84728401  0.32782166  0.41955286  1.0
  H  H3  1  0.18070883  0.36592850  0.38178869  1.0
  H  H4  1  0.55862933  0.59498063  0.84041405  1.0
  H  H5  1  0.59966672  0.81779978  0.41935864  1.0
  H  H6  1  0.37343254  0.85233058  0.58889844  1.0
  H  H7  1  0.39161356  0.71273904  0.57966941  1.0
  H  H8  1  0.46661123  0.93802746  0.61449206  1.0
  H  H9  1  0.46463244  0.07319636  0.61415922  1.0
  H  H10  1  0.48501122  0.07665332  0.39328898  1.0
  H  H11  1  0.48731925  0.94157879  0.39370615  1.0
  H  H12  1  0.59047801  0.14690840  0.41637597  1.0
  H  H13  1  0.67006990  0.37410730  0.16848015  1.0
  H  H14  1  0.03439893  0.31484610  0.38481597  1.0
  H  H15  1  0.59517301  0.28210750  0.41887503  1.0
  H  H16  1  0.38514029  0.33772410  0.58521707  1.0
  H  H17  1  0.36815909  0.20579885  0.58920725  1.0
  H  H18  1  0.81358931  0.53120021  0.53084120  1.0
  H  H19  1  0.14863407  0.67827981  0.56658665  1.0
  H  H20  1  0.87887783  0.60332995  0.56444981  1.0
  H  H21  1  0.95848849  0.69747957  0.59925519  1.0
  H  H22  1  0.26167558  0.45672039  0.42217398  1.0
  H  H23  1  0.63541864  0.38221862  0.29519747  1.0
  H  H24  1  0.68218165  0.53663942  0.05543016  1.0
  H  H25  1  0.31735556  0.56624534  0.08221316  1.0
  H  H26  1  0.26880650  0.66944340  0.07158230  1.0
  H  H27  1  0.25595681  0.62538647  0.15266430  1.0
  H  H28  1  0.40816033  0.67842582  0.14897602  1.0
  H  H29  1  0.46612826  0.61919156  0.07925812  1.0
  H  H30  1  0.23847034  0.58751756  0.26323969  1.0
  H  H31  1  0.29791947  0.56162099  0.34423031  1.0
  H  H32  1  0.21323379  0.65875054  0.32746611  1.0
  H  H33  1  0.40307768  0.64980427  0.32065205  1.0
  H  H34  1  0.34348918  0.67750285  0.24003518  1.0
  H  H35  1  0.68547557  0.53088173  0.92877429  1.0
  H  H36  1  0.75953228  0.71896882  0.40116635  1.0
  H  H37  1  0.80463225  0.62012802  0.37650339  1.0
  H  H38  1  0.77694045  0.64324365  0.46387181  1.0
  H  H39  1  0.63123994  0.60732300  0.40928528  1.0
  H  H40  1  0.60920429  0.68682926  0.35114795  1.0
  H  H41  1  0.45902353  0.41241852  0.94284743  1.0
  H  H42  1  0.45697841  0.41757178  0.06942232  1.0
  H  H43  1  0.56174354  0.35905314  0.84355326  1.0
  H  H44  1  0.53277154  0.37030693  0.71760219  1.0
  H  H45  1  0.52707232  0.60563545  0.71468245  1.0
  C  C46  1  0.50722324  0.49544705  0.63330374  1.0
  C  C47  1  0.17192907  0.57532005  0.51075957  1.0
  C  C48  1  0.59199334  0.43034306  0.26089773  1.0
  C  C49  1  0.28982794  0.55845127  0.50409492  1.0
  C  C50  1  0.61117269  0.42600579  0.19046535  1.0
  C  C51  1  0.55396363  0.48795897  0.14709084  1.0
  C  C52  1  0.47799896  0.55602628  0.17475985  1.0
  C  C53  1  0.45780786  0.56036404  0.24641580  1.0
  C  C54  1  0.51605040  0.49669248  0.28897992  1.0
  C  C55  1  0.63290413  0.50947152  0.03075670  1.0
  C  C56  1  0.63421496  0.50664341  0.95943643  1.0
  C  C57  1  0.01745591  0.53293296  0.50537798  1.0
  C  C58  1  0.57043794  0.47290909  0.92633240  1.0
  C  C59  1  0.50945334  0.43871427  0.96733310  1.0
  C  C60  1  0.50774770  0.44198211  0.03847341  1.0
  C  C61  1  0.50183759  0.49595558  0.36567138  1.0
  C  C62  1  0.56721306  0.47917911  0.07136373  1.0
  C  C63  1  0.55372284  0.41346680  0.81558020  1.0
  C  C64  1  0.53754279  0.41934439  0.74536282  1.0
  C  C65  1  0.52674542  0.48892501  0.70874399  1.0
  C  C66  1  0.53561903  0.55171895  0.74349097  1.0
  C  C67  1  0.55383155  0.54528939  0.81352109  1.0
  C  C68  1  0.12500238  0.52306278  0.48550121  1.0
  C  C69  1  0.56144422  0.47652503  0.85105042  1.0
  C  C70  1  0.55909025  0.71895806  0.45371734  1.0
  C  C71  1  0.55088273  0.79706375  0.45545241  1.0
  C  C72  1  0.48472007  0.84757871  0.50350651  1.0
  C  C73  1  0.70480604  0.44746282  0.49077488  1.0
  C  C74  1  0.42709256  0.81635794  0.55025774  1.0
  C  C75  1  0.43636245  0.73898493  0.54525687  1.0
  C  C76  1  0.46901989  0.96868432  0.56579043  1.0
  C  C77  1  0.46780676  0.04496316  0.56558158  1.0
  C  C78  1  0.47546884  0.08475086  0.50373155  1.0
  C  C79  1  0.97040577  0.47802550  0.48230375  1.0
  C  C80  1  0.48245895  0.04609393  0.44201000  1.0
  C  C81  1  0.48376147  0.96997321  0.44223793  1.0
  C  C82  1  0.47814428  0.92959153  0.50413268  1.0
  C  C83  1  0.54240325  0.18742697  0.45431740  1.0
  C  C84  1  0.54673189  0.26188825  0.45569106  1.0
  C  C85  1  0.98610828  0.36205348  0.41745014  1.0
  C  C86  1  0.42938252  0.29300239  0.54921051  1.0
  C  C87  1  0.42101698  0.21945971  0.55116095  1.0
  C  C88  1  0.47900452  0.16425738  0.50317109  1.0
  C  C89  1  0.82071773  0.43194118  0.47645956  1.0
  C  C90  1  0.03141422  0.41620632  0.43896297  1.0
  C  C91  1  0.11110779  0.63859530  0.54911782  1.0
  C  C92  1  0.00493573  0.64887602  0.56753230  1.0
  C  C93  1  0.96002496  0.59599047  0.54731835  1.0
  C  C94  1  0.41780908  0.62222551  0.12643793  1.0
  C  C95  1  0.30853039  0.62087228  0.10729752  1.0
  C  C96  1  0.37064814  0.62905911  0.27770455  1.0
  C  C97  1  0.27451133  0.60809936  0.30452602  1.0
  C  C98  1  0.63548075  0.66573298  0.40341063  1.0
  C  C99  1  0.75037549  0.66225316  0.41163396  1.0
  C  C100  1  0.13647144  0.41134337  0.41731756  1.0
  C  C101  1  0.18146336  0.46212038  0.43951147  1.0
  C  C102  1  0.86500821  0.48423118  0.49951513  1.0
  C  C103  1  0.88290868  0.36894690  0.43624610  1.0
  N  N104  1  0.50022055  0.69105930  0.49814599  1.0
  N  N105  1  0.49181740  0.31363353  0.50264039  1.0
  O  O106  1  0.47894436  0.56339012  0.60512718  1.0
  O  O107  1  0.52109903  0.43197083  0.60319321  1.0
  O  O108  1  0.32394885  0.61504509  0.49663684  1.0
  O  O109  1  0.34770415  0.48668706  0.50980829  1.0
  O  O110  1  0.50134985  0.55588637  0.39698913  1.0
  O  O111  1  0.49485130  0.43421858  0.39406973  1.0
  O  O112  1  0.64965638  0.51639374  0.50895323  1.0
  O  O113  1  0.66870904  0.39284159  0.48224417  1.0
