# generated using pymatgen
data_Zn4H36C48O13
_symmetry_space_group_name_H-M   'P 1'
_cell_length_a   23.78339993
_cell_length_b   23.78347930
_cell_length_c   23.78187764
_cell_angle_alpha   66.23503210
_cell_angle_beta   72.62890180
_cell_angle_gamma   107.36728649
_symmetry_Int_Tables_number   1
_chemical_formula_structural   Zn4H36C48O13
_chemical_formula_sum   'Zn8 H72 C96 O26'
_cell_volume   10311.29826603
_cell_formula_units_Z   2
loop_
 _symmetry_equiv_pos_site_id
 _symmetry_equiv_pos_as_xyz
  1  'x, y, z'
loop_
 _atom_site_type_symbol
 _atom_site_label
 _atom_site_symmetry_multiplicity
 _atom_site_fract_x
 _atom_site_fract_y
 _atom_site_fract_z
 _atom_site_occupancy
  Zn  Zn0  1  0.05717034  0.10029933  0.45686118  1.0
  Zn  Zn1  1  0.05716760  0.95686730  0.48595982  1.0
  Zn  Zn2  1  0.94282360  0.95685836  0.60031241  1.0
  Zn  Zn3  1  0.94284095  0.98597222  0.45685616  1.0
  Zn  Zn4  1  0.94283057  0.39970019  0.04313893  1.0
  Zn  Zn5  1  0.05717828  0.54314325  0.89968783  1.0
  Zn  Zn6  1  0.94282982  0.54313018  0.01403744  1.0
  Zn  Zn7  1  0.05715909  0.51403067  0.04314346  1.0
  H  H8  1  0.92380130  0.12534880  0.29845021  1.0
  H  H9  1  0.07620390  0.37465667  0.20154936  1.0
  H  H10  1  0.92379102  0.22224083  0.20156179  1.0
  H  H11  1  0.07621458  0.27776361  0.29843723  1.0
  H  H12  1  0.92379066  0.79843311  0.77778064  1.0
  H  H13  1  0.07621192  0.70156696  0.72221698  1.0
  H  H14  1  0.92379845  0.70153952  0.87466917  1.0
  H  H15  1  0.07620369  0.79846055  0.62532774  1.0
  H  H16  1  0.92358863  0.27169536  0.96418388  1.0
  H  H17  1  0.07641758  0.46419580  0.77165100  1.0
  H  H18  1  0.92362262  0.03579619  0.72835503  1.0
  H  H19  1  0.07633327  0.22832975  0.53579191  1.0
  H  H20  1  0.07641765  0.61225675  0.15187942  1.0
  H  H21  1  0.92359036  0.65193279  0.11220890  1.0
  H  H22  1  0.07633419  0.84799320  0.38786336  1.0
  H  H23  1  0.92362475  0.88782063  0.34804191  1.0
  H  H24  1  0.73586507  0.27167318  0.15198035  1.0
  H  H25  1  0.73585767  0.46420185  0.11216219  1.0
  H  H26  1  0.26414453  0.03580522  0.38779196  1.0
  H  H27  1  0.26413329  0.22829921  0.34812546  1.0
  H  H28  1  0.26414466  0.65200330  0.77166547  1.0
  H  H29  1  0.26413393  0.61215694  0.96422088  1.0
  H  H30  1  0.73586873  0.88779827  0.53578943  1.0
  H  H31  1  0.73585450  0.84809963  0.72831425  1.0
  H  H32  1  0.08095104  0.45819588  0.65801854  1.0
  H  H33  1  0.08739795  0.38367190  0.66412721  1.0
  H  H34  1  0.14367075  0.44160790  0.67509369  1.0
  H  H35  1  0.91904199  0.15806549  0.95819927  1.0
  H  H36  1  0.91258691  0.16415994  0.88367989  1.0
  H  H37  1  0.85631795  0.17513587  0.94161612  1.0
  H  H38  1  0.14361911  0.32489765  0.55868731  1.0
  H  H39  1  0.08700753  0.33595233  0.61621023  1.0
  H  H40  1  0.08109476  0.34188501  0.54151385  1.0
  H  H41  1  0.85633045  0.05871865  0.82491874  1.0
  H  H42  1  0.91295188  0.11623248  0.83596751  1.0
  H  H43  1  0.91884931  0.04153276  0.84190610  1.0
  H  H44  1  0.91905381  0.76102439  0.12274385  1.0
  H  H45  1  0.91259594  0.74846087  0.20372549  1.0
  H  H46  1  0.85633015  0.68122298  0.20205587  1.0
  H  H47  1  0.08096320  0.62278970  0.26096784  1.0
  H  H48  1  0.08740738  0.70375446  0.24842486  1.0
  H  H49  1  0.14368132  0.70210453  0.18116761  1.0
  H  H50  1  0.85633334  0.79761019  0.31877691  1.0
  H  H51  1  0.91295432  0.79672575  0.25109085  1.0
  H  H52  1  0.91884937  0.87731926  0.23926182  1.0
  H  H53  1  0.14362518  0.81872543  0.29765424  1.0
  H  H54  1  0.08701205  0.75105966  0.29675094  1.0
  H  H55  1  0.08110152  0.73921127  0.37736124  1.0
  H  H56  1  0.61637692  0.44127844  0.20237716  1.0
  H  H57  1  0.54780978  0.38376475  0.20327419  1.0
  H  H58  1  0.61657429  0.45846414  0.12266761  1.0
  H  H59  1  0.61639265  0.17511596  0.18124470  1.0
  H  H60  1  0.54781842  0.16405273  0.24892490  1.0
  H  H61  1  0.61657781  0.15811360  0.26076527  1.0
  H  H62  1  0.38375404  0.34193292  0.23904717  1.0
  H  H63  1  0.45217512  0.33583410  0.25159159  1.0
  H  H64  1  0.38326819  0.32485016  0.31884898  1.0
  H  H65  1  0.38377198  0.04180523  0.37726598  1.0
  H  H66  1  0.45218913  0.11632837  0.29628414  1.0
  H  H67  1  0.38328260  0.05839251  0.29795333  1.0
  H  H68  1  0.38360787  0.70236519  0.94130294  1.0
  H  H69  1  0.45217791  0.70326181  0.88378538  1.0
  H  H70  1  0.38341060  0.62266119  0.95848733  1.0
  H  H71  1  0.38362262  0.68128727  0.67508975  1.0
  H  H72  1  0.45219133  0.74895236  0.66403736  1.0
  H  H73  1  0.38343247  0.76079638  0.65810253  1.0
  H  H74  1  0.61623191  0.73901364  0.84194713  1.0
  H  H75  1  0.54781079  0.75156283  0.83585215  1.0
  H  H76  1  0.61671469  0.81880531  0.82487869  1.0
  H  H77  1  0.61624519  0.87726823  0.54178509  1.0
  H  H78  1  0.54782550  0.79629109  0.61630963  1.0
  H  H79  1  0.61673930  0.79796418  0.55836786  1.0
  C  C80  1  0.18212590  0.09104820  0.40894771  1.0
  C  C81  1  0.99999003  0.86123267  0.63877289  1.0
  C  C82  1  0.99998705  0.09105799  0.59106735  1.0
  C  C83  1  0.81787287  0.90895071  0.59104093  1.0
  C  C84  1  0.00001156  0.13877038  0.36122587  1.0
  C  C85  1  0.99999084  0.90893176  0.40893939  1.0
  C  C86  1  0.00000249  0.40894842  0.90892712  1.0
  C  C87  1  0.00000707  0.63876794  0.86122743  1.0
  C  C88  1  0.81787188  0.40894237  0.09107070  1.0
  C  C89  1  0.99999226  0.59107517  0.09105119  1.0
  C  C90  1  0.99998726  0.36122989  0.13877433  1.0
  C  C91  1  0.18212830  0.59106893  0.90895503  1.0
  C  C92  1  0.00000352  0.19628483  0.30371679  1.0
  C  C93  1  0.99999968  0.30372012  0.19628443  1.0
  C  C94  1  0.95687959  0.18013357  0.27674629  1.0
  C  C95  1  0.04312420  0.31986982  0.22325412  1.0
  C  C96  1  0.95687159  0.23361535  0.22326246  1.0
  C  C97  1  0.04313220  0.26638804  0.27673711  1.0
  C  C98  1  0.00000185  0.80371797  0.69627991  1.0
  C  C99  1  0.00000147  0.69628291  0.80371699  1.0
  C  C100  1  0.95687121  0.77673680  0.76639426  1.0
  C  C101  1  0.04312966  0.72326432  0.73360430  1.0
  C  C102  1  0.95687802  0.72324770  0.81987758  1.0
  C  C103  1  0.04312305  0.77675291  0.68012112  1.0
  C  C104  1  0.00000317  0.37153772  0.87150266  1.0
  C  C105  1  0.95690690  0.29955535  0.90811051  1.0
  C  C106  1  0.95597530  0.26346758  0.87430908  1.0
  C  C107  1  0.99999086  0.30100524  0.80098487  1.0
  C  C108  1  0.04401456  0.37432322  0.76343436  1.0
  C  C109  1  0.04309202  0.40812786  0.79951807  1.0
  C  C110  1  0.99998404  0.26538045  0.76536464  1.0
  C  C111  1  0.99997868  0.23463264  0.73462279  1.0
  C  C112  1  0.99997509  0.19900626  0.69900306  1.0
  C  C113  1  0.95599652  0.12567731  0.73656524  1.0
  C  C114  1  0.95691950  0.09187268  0.70048013  1.0
  C  C115  1  0.99997511  0.12847295  0.62848635  1.0
  C  C116  1  0.04303170  0.20046391  0.59187143  1.0
  C  C117  1  0.04395331  0.23655488  0.62566786  1.0
  C  C118  1  0.00000468  0.62850868  0.12845486  1.0
  C  C119  1  0.04309845  0.63500553  0.15734078  1.0
  C  C120  1  0.04402501  0.66973333  0.19249990  1.0
  C  C121  1  0.00000433  0.69902887  0.19898154  1.0
  C  C122  1  0.95598685  0.69255241  0.16968318  1.0
  C  C123  1  0.95691398  0.65739721  0.13495261  1.0
  C  C124  1  0.99999805  0.73464134  0.23461375  1.0
  C  C125  1  0.99999074  0.76537029  0.26537325  1.0
  C  C126  1  0.99998303  0.80097885  0.30100979  1.0
  C  C127  1  0.04395927  0.80740029  0.33036058  1.0
  C  C128  1  0.04303553  0.84256284  0.36508552  1.0
  C  C129  1  0.99998191  0.87149642  0.37153733  1.0
  C  C130  1  0.95692321  0.86504408  0.34260839  1.0
  C  C131  1  0.95600127  0.83032152  0.30744284  1.0
  C  C132  1  0.74303592  0.37152522  0.12848716  1.0
  C  C133  1  0.70765504  0.29953765  0.15741525  1.0
  C  C134  1  0.63776547  0.26344751  0.19258144  1.0
  C  C135  1  0.60198951  0.30099567  0.19901606  1.0
  C  C136  1  0.63776126  0.37432207  0.16966857  1.0
  C  C137  1  0.70765078  0.40812587  0.13494000  1.0
  C  C138  1  0.53074535  0.26536904  0.23464685  1.0
  C  C139  1  0.46925510  0.23461667  0.26540340  1.0
  C  C140  1  0.39800986  0.19899058  0.30103220  1.0
  C  C141  1  0.36223752  0.12567648  0.33032534  1.0
  C  C142  1  0.29235064  0.09187268  0.36505058  1.0
  C  C143  1  0.25696223  0.12846319  0.37154839  1.0
  C  C144  1  0.29234382  0.20044165  0.34266621  1.0
  C  C145  1  0.36223054  0.23652652  0.30751181  1.0
  C  C146  1  0.25696354  0.62849502  0.87153102  1.0
  C  C147  1  0.29235139  0.65743374  0.79953444  1.0
  C  C148  1  0.36223860  0.69260070  0.76344324  1.0
  C  C149  1  0.39801014  0.69902406  0.80099807  1.0
  C  C150  1  0.36223149  0.66966764  0.87433342  1.0
  C  C151  1  0.29234406  0.63494169  0.90813859  1.0
  C  C152  1  0.46925430  0.73465067  0.76537023  1.0
  C  C153  1  0.53074535  0.76540095  0.73461511  1.0
  C  C154  1  0.60199017  0.80102231  0.69898959  1.0
  C  C155  1  0.63777089  0.83032319  0.62566653  1.0
  C  C156  1  0.70765642  0.86505072  0.59186340  1.0
  C  C157  1  0.74303853  0.87154085  0.62846283  1.0
  C  C158  1  0.70764764  0.84264510  0.70044947  1.0
  C  C159  1  0.63776228  0.80749072  0.73653635  1.0
  C  C160  1  0.09137874  0.41630499  0.68607165  1.0
  C  C161  1  0.90860959  0.18611209  0.91630673  1.0
  C  C162  1  0.09128207  0.31392105  0.58366106  1.0
  C  C163  1  0.90866769  0.08368330  0.81393903  1.0
  C  C164  1  0.90862048  0.72254154  0.17506745  1.0
  C  C165  1  0.09139001  0.67511162  0.22248911  1.0
  C  C166  1  0.90866930  0.82498620  0.27740846  1.0
  C  C167  1  0.09128847  0.77736401  0.32502481  1.0
  C  C168  1  0.60238830  0.41631441  0.17500426  1.0
  C  C169  1  0.60239679  0.18608284  0.22261392  1.0
  C  C170  1  0.39759663  0.31388158  0.27752599  1.0
  C  C171  1  0.39761271  0.08369585  0.32494099  1.0
  C  C172  1  0.39759920  0.67499628  0.91633450  1.0
  C  C173  1  0.39761321  0.72264493  0.68606893  1.0
  C  C174  1  0.60238848  0.77749206  0.81390021  1.0
  C  C175  1  0.60240356  0.82494583  0.58367638  1.0
  O  O176  1  0.00000075  0.99999854  0.49999982  1.0
  O  O177  1  0.15300034  0.12782087  0.41217902  1.0
  O  O178  1  0.04043465  0.88339047  0.57617518  1.0
  O  O179  1  0.95997800  0.02515598  0.62784534  1.0
  O  O180  1  0.15299911  0.02515715  0.43482373  1.0
  O  O181  1  0.03999465  0.12782383  0.52516793  1.0
  O  O182  1  0.95953566  0.88337543  0.65707819  1.0
  O  O183  1  0.84699648  0.91217542  0.62783064  1.0
  O  O184  1  0.95957937  0.07618481  0.38337413  1.0
  O  O185  1  0.84700365  0.93484017  0.52515085  1.0
  O  O186  1  0.04046252  0.15707102  0.38337661  1.0
  O  O187  1  0.04000123  0.91216398  0.43483453  1.0
  O  O188  1  0.96000470  0.93483672  0.41216016  1.0
  O  O189  1  0.00000191  0.50000045  0.99999947  1.0
  O  O190  1  0.95999751  0.37218730  0.97481966  1.0
  O  O191  1  0.04047053  0.61662675  0.84291498  1.0
  O  O192  1  0.84699705  0.47483666  0.06517621  1.0
  O  O193  1  0.04002771  0.47485298  0.87214704  1.0
  O  O194  1  0.84700033  0.37217020  0.08784337  1.0
  O  O195  1  0.95956672  0.61660701  0.92381753  1.0
  O  O196  1  0.95998774  0.58783479  0.06516535  1.0
  O  O197  1  0.04042526  0.42382798  0.11662899  1.0
  O  O198  1  0.03998994  0.56517148  0.08783131  1.0
  O  O199  1  0.95954989  0.34293863  0.11661955  1.0
  O  O200  1  0.15300379  0.58783844  0.87217253  1.0
  O  O201  1  0.15299674  0.56517108  0.97485122  1.0
