# generated using pymatgen
data_TmH7C9N3O8
_symmetry_space_group_name_H-M   'P 1'
_cell_length_a   6.04681705
_cell_length_b   11.75430927
_cell_length_c   12.81914533
_cell_angle_alpha   115.16334589
_cell_angle_beta   91.80711252
_cell_angle_gamma   90.18657237
_symmetry_Int_Tables_number   1
_chemical_formula_structural   TmH7C9N3O8
_chemical_formula_sum   'Tm2 H14 C18 N6 O16'
_cell_volume   824.11813361
_cell_formula_units_Z   2
loop_
 _symmetry_equiv_pos_site_id
 _symmetry_equiv_pos_as_xyz
  1  'x, y, z'
loop_
 _atom_site_type_symbol
 _atom_site_label
 _atom_site_symmetry_multiplicity
 _atom_site_fract_x
 _atom_site_fract_y
 _atom_site_fract_z
 _atom_site_occupancy
  Tm  Tm0  1  0.23741796  0.15931254  0.81612604  1.0
  Tm  Tm1  1  0.76257757  0.84068992  0.18387661  1.0
  H  H2  1  0.31762157  0.80698766  0.36493253  1.0
  H  H3  1  0.68239021  0.19300415  0.63506707  1.0
  H  H4  1  0.88512428  0.91468159  0.79664406  1.0
  H  H5  1  0.11488267  0.08531432  0.20335460  1.0
  H  H6  1  0.64768330  0.05027398  0.79885064  1.0
  H  H7  1  0.35231883  0.94972769  0.20115140  1.0
  H  H8  1  0.50779594  0.93690378  0.81190145  1.0
  H  H9  1  0.49220793  0.06310157  0.18810308  1.0
  H  H10  1  0.24098345  0.33449793  0.71213301  1.0
  H  H11  1  0.75902190  0.66550036  0.28786782  1.0
  H  H12  1  0.06674368  0.23303889  0.62876404  1.0
  H  H13  1  0.93325996  0.76695702  0.37123457  1.0
  H  H14  1  0.38224874  0.46175450  0.03963274  1.0
  H  H15  1  0.61773866  0.53825177  0.96036774  1.0
  C  C16  1  0.40015077  0.89354177  0.42489457  1.0
  C  C17  1  0.59986104  0.10645219  0.57510886  1.0
  C  C18  1  0.31626333  0.96296315  0.53384912  1.0
  C  C19  1  0.68374851  0.03703046  0.46615029  1.0
  C  C20  1  0.10799217  0.92363846  0.57316084  1.0
  C  C21  1  0.89201149  0.07635881  0.42684088  1.0
  C  C22  1  0.16771040  0.08462386  0.03529452  1.0
  C  C23  1  0.83228802  0.91536489  0.96470761  1.0
  C  C24  1  0.93351109  0.95339671  0.88800611  1.0
  C  C25  1  0.06650581  0.04659886  0.11198871  1.0
  C  C26  1  0.36670545  0.17239963  0.06806640  1.0
  C  C27  1  0.63330175  0.82760458  0.93193343  1.0
  C  C28  1  0.87567321  0.39987014  0.93159776  1.0
  C  C29  1  0.12430754  0.60013454  0.06840115  1.0
  C  C30  1  0.21232186  0.47953547  0.02138129  1.0
  C  C31  1  0.78766238  0.52047598  0.97862019  1.0
  C  C32  1  0.74042847  0.28311090  0.86076955  1.0
  C  C33  1  0.25956228  0.71689725  0.13923364  1.0
  N  N34  1  0.58259200  0.93044453  0.39074551  1.0
  N  N35  1  0.41741651  0.06954828  0.60925311  1.0
  N  N36  1  0.09754116  0.03938491  0.92418452  1.0
  N  N37  1  0.90246250  0.96060899  0.07580576  1.0
  N  N38  1  0.08804491  0.38037038  0.95231614  1.0
  N  N39  1  0.91194899  0.61963143  0.04768127  1.0
  O  O40  1  0.06167846  0.99004506  0.67815989  1.0
  O  O41  1  0.93831876  0.00995676  0.32183757  1.0
  O  O42  1  0.99327072  0.83218106  0.50327480  1.0
  O  O43  1  0.00673469  0.16781903  0.49672584  1.0
  O  O44  1  0.39457083  0.22833127  0.00307446  1.0
  O  O45  1  0.60541967  0.77167052  0.99693305  1.0
  O  O46  1  0.49964350  0.01166328  0.79241888  1.0
  O  O47  1  0.50035702  0.98834134  0.20758770  1.0
  O  O48  1  0.12274363  0.27829438  0.71232007  1.0
  O  O49  1  0.87726168  0.72170261  0.28768049  1.0
  O  O50  1  0.48977358  0.17982952  0.15169867  1.0
  O  O51  1  0.51022219  0.82017958  0.84830085  1.0
  O  O52  1  0.53891371  0.29458040  0.83664953  1.0
  O  O53  1  0.46106865  0.70542355  0.16335151  1.0
  O  O54  1  0.84120864  0.18011702  0.83215000  1.0
  O  O55  1  0.15878693  0.81988644  0.16785172  1.0
