# generated using pymatgen
data_Zr3H43C62N3O16
_symmetry_space_group_name_H-M   'P 1'
_cell_length_a   14.91324210
_cell_length_b   23.56040549
_cell_length_c   40.71765557
_cell_angle_alpha   93.85966814
_cell_angle_beta   97.78081008
_cell_angle_gamma   90.04409706
_symmetry_Int_Tables_number   1
_chemical_formula_structural   Zr3H43C62N3O16
_chemical_formula_sum   'Zr6 H86 C124 N6 O32'
_cell_volume   14142.06360252
_cell_formula_units_Z   2
loop_
 _symmetry_equiv_pos_site_id
 _symmetry_equiv_pos_as_xyz
  1  'x, y, z'
loop_
 _atom_site_type_symbol
 _atom_site_label
 _atom_site_symmetry_multiplicity
 _atom_site_fract_x
 _atom_site_fract_y
 _atom_site_fract_z
 _atom_site_occupancy
  Zr  Zr0  1  0.04844577  0.91825645  0.04136742  1.0
  Zr  Zr1  1  0.01267295  0.08245845  0.96628879  1.0
  Zr  Zr2  1  0.93014683  0.04861579  0.04151409  1.0
  Zr  Zr3  1  0.13067558  0.95193827  0.96769791  1.0
  Zr  Zr4  1  0.89200358  0.95265380  0.96937607  1.0
  Zr  Zr5  1  0.16625568  0.05076420  0.03714792  1.0
  H  H6  1  0.01321853  0.85924248  0.97209194  1.0
  H  H7  1  0.82922855  0.06447002  0.97717687  1.0
  H  H8  1  0.20277343  0.06066641  0.96992833  1.0
  H  H9  1  0.08388679  0.01338679  0.08919107  1.0
  H  H10  1  0.73392067  0.93168089  0.99395402  1.0
  H  H11  1  0.98331147  0.09548990  0.10680543  1.0
  H  H12  1  0.18159839  0.14583372  0.07580177  1.0
  H  H13  1  0.84296391  0.85855826  0.93111722  1.0
  H  H14  1  0.13824694  0.90720359  0.90531362  1.0
  H  H15  1  0.30737421  0.92818861  0.97908459  1.0
  H  H16  1  0.34270822  0.06416391  0.01841246  1.0
  H  H17  1  0.81826873  0.97311594  0.90724211  1.0
  H  H18  1  0.85533852  0.03790163  0.92136076  1.0
  H  H19  1  0.13510349  0.90869804  0.10344149  1.0
  H  H20  1  0.30559381  0.99056337  0.06899440  1.0
  H  H21  1  0.16568044  0.85569628  0.92847598  1.0
  H  H22  1  0.87451066  0.12605467  0.92842586  1.0
  H  H23  1  0.75301972  0.07429129  0.03344673  1.0
  H  H24  1  0.76136086  0.99707877  0.00834044  1.0
  H  H25  1  0.30032353  0.00009076  0.00126020  1.0
  H  H26  1  0.06204135  0.11270426  0.08479866  1.0
  H  H27  1  0.21642844  0.96178553  0.08082954  1.0
  H  H28  1  0.36681959  0.49714840  0.00071166  1.0
  H  H29  1  0.70087287  0.50262708  0.00774534  1.0
  H  H30  1  0.63699550  0.00874744  0.49809027  1.0
  H  H31  1  0.31481748  0.99443598  0.50944092  1.0
  H  H32  1  0.66246483  0.09883810  0.51571613  1.0
  H  H33  1  0.80025640  0.13606411  0.55101533  1.0
  H  H34  1  0.57228371  0.02512805  0.59983661  1.0
  H  H35  1  0.66191650  0.04076732  0.65535066  1.0
  H  H36  1  0.80899206  0.06846205  0.68939265  1.0
  H  H37  1  0.90437973  0.13404384  0.60427349  1.0
  H  H38  1  0.12141254  0.17251575  0.61640605  1.0
  H  H39  1  0.22609516  0.16587109  0.57374732  1.0
  H  H40  1  0.25500869  0.03320154  0.66521732  1.0
  H  H41  1  0.37377808  0.97938899  0.63814272  1.0
  H  H42  1  0.45627059  0.96172594  0.58977465  1.0
  H  H43  1  0.33854506  0.11059100  0.54627173  1.0
  H  H44  1  0.97134037  0.00827554  0.39099130  1.0
  H  H45  1  0.09832549  0.03982872  0.43453794  1.0
  H  H46  1  0.14023654  0.88135186  0.35007988  1.0
  H  H47  1  0.29574098  0.86407446  0.38149327  1.0
  H  H48  1  0.41536358  0.89028090  0.42775125  1.0
  H  H49  1  0.25247117  0.02793350  0.46119146  1.0
  H  H50  1  0.64999859  0.98676198  0.31268976  1.0
  H  H51  1  0.53264277  0.00858959  0.34934179  1.0
  H  H52  1  0.79237190  0.88552998  0.38659061  1.0
  H  H53  1  0.73007528  0.86909436  0.43740752  1.0
  H  H54  1  0.62882396  0.90252272  0.47827062  1.0
  H  H55  1  0.48556914  0.00876109  0.40695503  1.0
  H  H56  1  0.15845764  0.75393341  0.04704463  1.0
  H  H57  1  0.23491220  0.66047864  0.05317195  1.0
  H  H58  1  0.30794372  0.78812158  0.96731853  1.0
  H  H59  1  0.41953075  0.71768833  0.94966277  1.0
  H  H60  1  0.50197097  0.62770979  0.95786698  1.0
  H  H61  1  0.34900529  0.59164389  0.03665692  1.0
  H  H62  1  0.90387172  0.24191601  0.06268345  1.0
  H  H63  1  0.82819418  0.33534893  0.06973953  1.0
  H  H64  1  0.77279867  0.21919765  0.96174223  1.0
  H  H65  1  0.65094355  0.28584882  0.94148377  1.0
  H  H66  1  0.56265768  0.37303920  0.95092539  1.0
  H  H67  1  0.71797468  0.40667086  0.04743396  1.0
  H  H68  1  0.53470491  0.36903448  0.04788719  1.0
  H  H69  1  0.45706322  0.27877073  0.05429914  1.0
  H  H70  1  0.33455835  0.40438937  0.96525575  1.0
  H  H71  1  0.20805104  0.33602252  0.94704994  1.0
  H  H72  1  0.13031943  0.24464691  0.95354418  1.0
  H  H73  1  0.33107826  0.20956237  0.03557511  1.0
  H  H74  1  0.56034949  0.63703725  0.05310309  1.0
  H  H75  1  0.64471572  0.72806956  0.06442157  1.0
  H  H76  1  0.71212680  0.59011207  0.97279978  1.0
  H  H77  1  0.82542473  0.65708055  0.95791345  1.0
  H  H78  1  0.90264982  0.75097558  0.96662424  1.0
  H  H79  1  0.75963756  0.79534054  0.04989072  1.0
  H  H80  1  0.22821529  0.97588494  0.86550391  1.0
  H  H81  1  0.23266223  0.98613547  0.80531475  1.0
  H  H82  1  0.03036786  0.10799758  0.86773023  1.0
  H  H83  1  0.97040590  0.15246766  0.81583481  1.0
  H  H84  1  0.96187999  0.15544926  0.75443367  1.0
  H  H85  1  0.17388973  0.03190384  0.75286652  1.0
  H  H86  1  0.02658580  0.86247842  0.26143996  1.0
  H  H87  1  0.04937296  0.85805511  0.20184726  1.0
  H  H88  1  0.78904797  0.96418587  0.24047879  1.0
  H  H89  1  0.74839548  0.99865250  0.18378503  1.0
  H  H90  1  0.78719901  0.00764138  0.12659258  1.0
  H  H91  1  0.00796048  0.89190989  0.14519626  1.0
  C  C92  1  0.87981084  0.83632075  0.01138988  1.0
  C  C93  1  0.18169744  0.83203204  0.00407871  1.0
  C  C94  1  0.92742512  0.95975107  0.09963450  1.0
  C  C95  1  0.88957863  0.16974116  0.00797367  1.0
  C  C96  1  0.17942090  0.16708531  0.99822035  1.0
  C  C97  1  0.12159296  0.03512783  0.90562985  1.0
  C  C98  1  0.48428274  0.55103004  0.00270490  1.0
  C  C99  1  0.58002511  0.55279510  0.00640456  1.0
  C  C100  1  0.62718922  0.50147080  0.00607692  1.0
  C  C101  1  0.58303861  0.44870919  0.00372848  1.0
  C  C102  1  0.48802531  0.44704051  0.00335573  1.0
  C  C103  1  0.44046839  0.49830819  0.00213383  1.0
  C  C104  1  0.89795945  0.91923246  0.29004306  1.0
  C  C105  1  0.81460377  0.93230693  0.33243863  1.0
  C  C106  1  0.96886496  0.92958176  0.34296890  1.0
  C  C107  1  0.05590998  0.09595212  0.71372847  1.0
  C  C108  1  0.10969361  0.10331886  0.66485333  1.0
  C  C109  1  0.95809407  0.10771054  0.66677265  1.0
  C  C110  1  0.50681845  0.98216183  0.47350066  1.0
  C  C111  1  0.41326226  0.98056702  0.47577307  1.0
  C  C112  1  0.38606478  0.99887296  0.50651544  1.0
  C  C113  1  0.44516268  0.02112737  0.53406853  1.0
  C  C114  1  0.53765028  0.02788073  0.53061515  1.0
  C  C115  1  0.56523957  0.00640339  0.50060401  1.0
  C  C116  1  0.60892952  0.05672563  0.55497605  1.0
  C  C117  1  0.67395141  0.09043807  0.54195192  1.0
  C  C118  1  0.75035213  0.11158557  0.56157841  1.0
  C  C119  1  0.76694656  0.10076612  0.59571932  1.0
  C  C120  1  0.69873428  0.07135056  0.60985987  1.0
  C  C121  1  0.62081959  0.04986230  0.58888217  1.0
  C  C122  1  0.71461747  0.06181234  0.64428814  1.0
  C  C123  1  0.79571872  0.07703165  0.66321486  1.0
  C  C124  1  0.86603049  0.10199369  0.64840909  1.0
  C  C125  1  0.85013261  0.11495942  0.61541621  1.0
  C  C126  1  0.18214815  0.10283381  0.64329772  1.0
  C  C127  1  0.17458896  0.14076907  0.61731764  1.0
  C  C128  1  0.23189987  0.13659835  0.59357899  1.0
  C  C129  1  0.29647456  0.09232941  0.59334651  1.0
  C  C130  1  0.30576556  0.05469798  0.61987230  1.0
  C  C131  1  0.24927688  0.06214993  0.64521555  1.0
  C  C132  1  0.36674898  0.00860291  0.61826580  1.0
  C  C133  1  0.41334919  0.99903460  0.59140375  1.0
  C  C134  1  0.40406671  0.03598221  0.56491167  1.0
  C  C135  1  0.34728313  0.08222154  0.56658091  1.0
  C  C136  1  0.04912344  0.94328321  0.36782372  1.0
  C  C137  1  0.03709434  0.98786085  0.39221250  1.0
  C  C138  1  0.10690375  0.00475930  0.41634772  1.0
  C  C139  1  0.19084464  0.97602811  0.41858533  1.0
  C  C140  1  0.20283912  0.92990146  0.39474565  1.0
  C  C141  1  0.13123697  0.91552126  0.36878959  1.0
  C  C142  1  0.28603631  0.90005242  0.39894884  1.0
  C  C143  1  0.35337754  0.91492346  0.42480179  1.0
  C  C144  1  0.34293218  0.96187608  0.44791362  1.0
  C  C145  1  0.26209354  0.99138776  0.44411701  1.0
  C  C146  1  0.73037489  0.93567283  0.34798499  1.0
  C  C147  1  0.65406778  0.96871242  0.33680695  1.0
  C  C148  1  0.58880568  0.98076283  0.35729824  1.0
  C  C149  1  0.59533309  0.95978410  0.38954482  1.0
  C  C150  1  0.66742663  0.92137582  0.39902838  1.0
  C  C151  1  0.73375854  0.91081920  0.37799917  1.0
  C  C152  1  0.67620374  0.89927267  0.43082096  1.0
  C  C153  1  0.62049032  0.91791539  0.45338410  1.0
  C  C154  1  0.55217703  0.95887720  0.44525741  1.0
  C  C155  1  0.53829632  0.97777269  0.41344516  1.0
  C  C156  1  0.22862269  0.77622902  0.00655904  1.0
  C  C157  1  0.20814464  0.73978729  0.03105398  1.0
  C  C158  1  0.25067310  0.68831330  0.03431583  1.0
  C  C159  1  0.31645744  0.67061549  0.01367682  1.0
  C  C160  1  0.33734656  0.70742542  0.98897460  1.0
  C  C161  1  0.29184836  0.75984876  0.98590618  1.0
  C  C162  1  0.40426245  0.69018960  0.96876119  1.0
  C  C163  1  0.45009922  0.64014524  0.97331876  1.0
  C  C164  1  0.43116134  0.60373997  0.99816753  1.0
  C  C165  1  0.36387659  0.61884811  0.01735315  1.0
  C  C166  1  0.84368340  0.22582052  0.01142037  1.0
  C  C167  1  0.85810337  0.25826772  0.04236800  1.0
  C  C168  1  0.81536746  0.30955470  0.04626826  1.0
  C  C169  1  0.75194339  0.32914176  0.02032275  1.0
  C  C170  1  0.73403904  0.29486259  0.98960960  1.0
  C  C171  1  0.78396926  0.24440088  0.98545883  1.0
  C  C172  1  0.66539406  0.31214931  0.96472784  1.0
  C  C173  1  0.61646906  0.36064189  0.96991479  1.0
  C  C174  1  0.63581441  0.39590153  0.99983490  1.0
  C  C175  1  0.70350475  0.38032993  0.02418682  1.0
  C  C176  1  0.43981501  0.39280757  0.00580252  1.0
  C  C177  1  0.47378566  0.35633673  0.03109745  1.0
  C  C178  1  0.43045279  0.30611518  0.03471412  1.0
  C  C179  1  0.35050324  0.28899116  0.01326556  1.0
  C  C180  1  0.31510897  0.32552574  0.98785070  1.0
  C  C181  1  0.36120000  0.37715384  0.98489967  1.0
  C  C182  1  0.23504579  0.30836024  0.96640873  1.0
  C  C183  1  0.19180885  0.25792159  0.96984691  1.0
  C  C184  1  0.22674416  0.22179328  0.99502624  1.0
  C  C185  1  0.30471880  0.23744099  0.01625831  1.0
  C  C186  1  0.63099553  0.60732334  0.01202496  1.0
  C  C187  1  0.61238253  0.64729931  0.03799565  1.0
  C  C188  1  0.65930562  0.69798649  0.04429206  1.0
  C  C189  1  0.72661020  0.71240155  0.02466096  1.0
  C  C190  1  0.74573670  0.67248475  0.99835969  1.0
  C  C191  1  0.69770842  0.62006943  0.99303377  1.0
  C  C192  1  0.81085123  0.68737558  0.97793789  1.0
  C  C193  1  0.85389952  0.73952980  0.98285572  1.0
  C  C194  1  0.83534269  0.77883763  0.00900910  1.0
  C  C195  1  0.77388159  0.76514882  0.02975436  1.0
  C  C196  1  0.12857473  0.04187086  0.86991312  1.0
  C  C197  1  0.18574699  0.00686659  0.85219354  1.0
  C  C198  1  0.18816315  0.01271340  0.81888803  1.0
  C  C199  1  0.13187233  0.05256125  0.80137819  1.0
  C  C200  1  0.07342988  0.08749292  0.81935502  1.0
  C  C201  1  0.07446602  0.08190027  0.85371394  1.0
  C  C202  1  0.01396396  0.12571429  0.80195134  1.0
  C  C203  1  0.00972972  0.12786094  0.76818195  1.0
  C  C204  1  0.06796276  0.09375334  0.75026407  1.0
  C  C205  1  0.12946405  0.05788833  0.76679150  1.0
  C  C206  1  0.90589202  0.91361129  0.25420673  1.0
  C  C207  1  0.98008906  0.88344105  0.24320820  1.0
  C  C208  1  0.99288436  0.88160621  0.21036482  1.0
  C  C209  1  0.93520276  0.91209659  0.18716276  1.0
  C  C210  1  0.86024269  0.94269558  0.19819455  1.0
  C  C211  1  0.84575688  0.94121843  0.23175872  1.0
  C  C212  1  0.80568083  0.97575644  0.17541437  1.0
  C  C213  1  0.82638324  0.98060863  0.14379635  1.0
  C  C214  1  0.90042521  0.95028108  0.13288643  1.0
  C  C215  1  0.95183774  0.91545762  0.15396953  1.0
  N  N216  1  0.81527203  0.92873746  0.29941937  1.0
  N  N217  1  0.88968400  0.93483084  0.35490853  1.0
  N  N218  1  0.97650757  0.91699028  0.31082175  1.0
  N  N219  1  0.12793055  0.09116570  0.69698510  1.0
  N  N220  1  0.02689891  0.11398770  0.64907636  1.0
  N  N221  1  0.96978678  0.10240675  0.69968924  1.0
  O  O222  1  0.15326277  0.91164329  0.08161520  1.0
  O  O223  1  0.95025008  0.84571719  0.03241623  1.0
  O  O224  1  0.97360826  0.92137569  0.08624069  1.0
  O  O225  1  0.19620552  0.86380259  0.98079268  1.0
  O  O226  1  0.90481159  0.00738303  0.08789143  1.0
  O  O227  1  0.12903523  0.84423611  0.02543423  1.0
  O  O228  1  0.84414967  0.87015500  0.99040092  1.0
  O  O229  1  0.94041277  0.96679607  0.02157285  1.0
  O  O230  1  0.01725307  0.89897941  0.98007189  1.0
  O  O231  1  0.06652602  0.01044579  0.06529858  1.0
  O  O232  1  0.13696218  0.96460932  0.01791032  1.0
  O  O233  1  0.27728724  0.96405992  0.97466854  1.0
  O  O234  1  0.75407520  0.96786983  0.98712614  1.0
  O  O235  1  0.00756627  0.99414907  0.95703503  1.0
  O  O236  1  0.88611260  0.04655582  0.98479726  1.0
  O  O237  1  0.03811025  0.07542833  0.01796096  1.0
  O  O238  1  0.15623361  0.04407366  0.98087775  1.0
  O  O239  1  0.78662031  0.03930047  0.03647094  1.0
  O  O240  1  0.88318254  0.13691798  0.03123335  1.0
  O  O241  1  0.92896910  0.15878059  0.98246563  1.0
  O  O242  1  0.24942071  0.99982564  0.07782088  1.0
  O  O243  1  0.10942876  0.15488985  0.97728173  1.0
  O  O244  1  0.99180181  0.11055525  0.08576067  1.0
  O  O245  1  0.15889372  0.10817303  0.07896252  1.0
  O  O246  1  0.31001437  0.03116943  0.02393047  1.0
  O  O247  1  0.21246530  0.13573116  0.02144000  1.0
  O  O248  1  0.91351661  0.09371739  0.92520218  1.0
  O  O249  1  0.11888422  0.88336061  0.92204360  1.0
  O  O250  1  0.08882185  0.07629214  0.92166929  1.0
  O  O251  1  0.14798792  0.98784518  0.91761915  1.0
  O  O252  1  0.85769848  0.89801177  0.92870504  1.0
  O  O253  1  0.82053655  0.00196501  0.92570688  1.0
