# generated using pymatgen
data_ZnH14C18NO5
_symmetry_space_group_name_H-M   'P 1'
_cell_length_a   19.18230318
_cell_length_b   19.18236378
_cell_length_c   29.15590090
_cell_angle_alpha   109.20887605
_cell_angle_beta   109.21475491
_cell_angle_gamma   89.98189877
_symmetry_Int_Tables_number   1
_chemical_formula_structural   ZnH14C18NO5
_chemical_formula_sum   'Zn8 H112 C144 N8 O40'
_cell_volume   9496.21129166
_cell_formula_units_Z   8
loop_
 _symmetry_equiv_pos_site_id
 _symmetry_equiv_pos_as_xyz
  1  'x, y, z'
loop_
 _atom_site_type_symbol
 _atom_site_label
 _atom_site_symmetry_multiplicity
 _atom_site_fract_x
 _atom_site_fract_y
 _atom_site_fract_z
 _atom_site_occupancy
  Zn  Zn0  1  0.87260628  0.19617395  0.74513277  1.0
  Zn  Zn1  1  0.87739625  0.05382791  0.75486907  1.0
  Zn  Zn2  1  0.87259373  0.54898859  0.74515380  1.0
  Zn  Zn3  1  0.87740233  0.70101382  0.75484590  1.0
  Zn  Zn4  1  0.94616389  0.12255867  0.24515368  1.0
  Zn  Zn5  1  0.80383318  0.12744423  0.25484730  1.0
  Zn  Zn6  1  0.45103830  0.12747281  0.25486556  1.0
  Zn  Zn7  1  0.29895778  0.12252635  0.24513245  1.0
  H  H8  1  0.88073485  0.27259536  0.66924784  1.0
  H  H9  1  0.96146608  0.97738812  0.83072696  1.0
  H  H10  1  0.86927329  0.97740539  0.83075574  1.0
  H  H11  1  0.78845876  0.39665119  0.66923757  1.0
  H  H12  1  0.86933254  0.85336661  0.83079454  1.0
  H  H13  1  0.96155247  0.85335068  0.83076434  1.0
  H  H14  1  0.78854044  0.27261505  0.66927569  1.0
  H  H15  1  0.88068033  0.39663501  0.66920989  1.0
  H  H16  1  0.02257261  0.03853905  0.16920615  1.0
  H  H17  1  0.72741070  0.11922245  0.33076341  1.0
  H  H18  1  0.60334246  0.21148436  0.33075155  1.0
  H  H19  1  0.60333536  0.11926361  0.33072345  1.0
  H  H20  1  0.72742051  0.21147069  0.33079001  1.0
  H  H21  1  0.14665025  0.03851809  0.16924457  1.0
  H  H22  1  0.14666286  0.13073998  0.16927435  1.0
  H  H23  1  0.02258746  0.13078865  0.16923575  1.0
  H  H24  1  0.76614952  0.31302482  0.74994368  1.0
  H  H25  1  0.76611948  0.93699208  0.75009595  1.0
  H  H26  1  0.98385055  0.93697570  0.75005581  1.0
  H  H27  1  0.98382034  0.43694436  0.74990088  1.0
  H  H28  1  0.98389578  0.81305044  0.75007063  1.0
  H  H29  1  0.76618716  0.81306204  0.75010993  1.0
  H  H30  1  0.98388419  0.31301307  0.74991196  1.0
  H  H31  1  0.76610337  0.43694848  0.74992617  1.0
  H  H32  1  0.06297986  0.23382486  0.24992923  1.0
  H  H33  1  0.68704088  0.23392036  0.25009898  1.0
  H  H34  1  0.56307891  0.01620578  0.25005602  1.0
  H  H35  1  0.56309790  0.23397306  0.25008751  1.0
  H  H36  1  0.68701972  0.01617994  0.25007307  1.0
  H  H37  1  0.18692066  0.23379442  0.24994505  1.0
  H  H38  1  0.18689447  0.01602439  0.24990643  1.0
  H  H39  1  0.06294943  0.01607984  0.24989162  1.0
  H  H40  1  0.84192707  0.34298075  0.80918085  1.0
  H  H41  1  0.78262906  0.90701769  0.69083986  1.0
  H  H42  1  0.90807257  0.90702212  0.69082095  1.0
  H  H43  1  0.96729073  0.46623898  0.80912531  1.0
  H  H44  1  0.90810712  0.78375151  0.69085695  1.0
  H  H45  1  0.78270650  0.78376331  0.69088198  1.0
  H  H46  1  0.96737169  0.34298314  0.80916599  1.0
  H  H47  1  0.84188988  0.46625024  0.80914265  1.0
  H  H48  1  0.09289286  0.21725077  0.30914383  1.0
  H  H49  1  0.65711330  0.15816711  0.19087497  1.0
  H  H50  1  0.53379846  0.03274514  0.19081825  1.0
  H  H51  1  0.53381535  0.15820582  0.19083272  1.0
  H  H52  1  0.65710786  0.03274746  0.19085694  1.0
  H  H53  1  0.21620013  0.21725139  0.30917973  1.0
  H  H54  1  0.21617607  0.09178991  0.30916227  1.0
  H  H55  1  0.09287731  0.09182628  0.30911882  1.0
  H  H56  1  0.77948298  0.30283497  0.86260023  1.0
  H  H57  1  0.66698205  0.94711331  0.63737270  1.0
  H  H58  1  0.97051603  0.94716446  0.63740187  1.0
  H  H59  1  0.08318121  0.55974347  0.86259465  1.0
  H  H60  1  0.97029838  0.69015616  0.63738358  1.0
  H  H61  1  0.66681750  0.69025557  0.63740227  1.0
  H  H62  1  0.08302476  0.30289079  0.86262702  1.0
  H  H63  1  0.77969732  0.55984402  0.86261154  1.0
  H  H64  1  0.05276918  0.33291047  0.36261395  1.0
  H  H65  1  0.69714726  0.22058986  0.13740521  1.0
  H  H66  1  0.44023420  0.91688182  0.13739824  1.0
  H  H67  1  0.44026124  0.22039634  0.13737155  1.0
  H  H68  1  0.69723453  0.91709020  0.13738821  1.0
  H  H69  1  0.30976633  0.33311372  0.36260106  1.0
  H  H70  1  0.30974057  0.02960743  0.36263029  1.0
  H  H71  1  0.05284955  0.02941223  0.36259496  1.0
  H  H72  1  0.73600167  0.35155064  0.93861936  1.0
  H  H73  1  0.54744479  0.89855728  0.56137386  1.0
  H  H74  1  0.01399650  0.89844655  0.56138273  1.0
  H  H75  1  0.20274767  0.58708960  0.93856309  1.0
  H  H76  1  0.01367998  0.66279044  0.56132309  1.0
  H  H77  1  0.54725141  0.66290741  0.56143442  1.0
  H  H78  1  0.20255917  0.35144912  0.93862907  1.0
  H  H79  1  0.73631738  0.58720950  0.93867456  1.0
  H  H80  1  0.10147034  0.45235189  0.43867538  1.0
  H  H81  1  0.64852567  0.26418539  0.06143536  1.0
  H  H82  1  0.41293287  0.79738235  0.06138053  1.0
  H  H83  1  0.41281830  0.26392983  0.06136984  1.0
  H  H84  1  0.64853477  0.79764763  0.06132728  1.0
  H  H85  1  0.33706771  0.45261283  0.43861950  1.0
  H  H86  1  0.33718624  0.98607086  0.43863013  1.0
  H  H87  1  0.10147154  0.98581296  0.43856229  1.0
  H  H88  1  0.75769858  0.14058642  0.96078006  1.0
  H  H89  1  0.54714443  0.10960840  0.53934116  1.0
  H  H90  1  0.99229727  0.10940934  0.53922000  1.0
  H  H91  1  0.20300231  0.82023416  0.96073141  1.0
  H  H92  1  0.99211849  0.42969067  0.53926377  1.0
  H  H93  1  0.54699771  0.42976430  0.53926769  1.0
  H  H94  1  0.20285643  0.14039624  0.96065902  1.0
  H  H95  1  0.75788323  0.82031189  0.96074032  1.0
  H  H96  1  0.89042771  0.45285390  0.46073792  1.0
  H  H97  1  0.85950182  0.24227006  0.03926787  1.0
  H  H98  1  0.17980785  0.79692085  0.03922051  1.0
  H  H99  1  0.17973627  0.24219642  0.03933980  1.0
  H  H100  1  0.85957561  0.79714674  0.03926255  1.0
  H  H101  1  0.57019197  0.45307638  0.46077786  1.0
  H  H102  1  0.57026759  0.00780492  0.46065980  1.0
  H  H103  1  0.89049806  0.00773058  0.46073474  1.0
  H  H104  1  0.79676945  0.09164119  0.88344670  1.0
  H  H105  1  0.66359002  0.15839921  0.61667671  1.0
  H  H106  1  0.95322885  0.15835683  0.61655394  1.0
  H  H107  1  0.08649939  0.79174613  0.88343602  1.0
  H  H108  1  0.95315310  0.45817955  0.61664717  1.0
  H  H109  1  0.66350158  0.45825405  0.61656203  1.0
  H  H110  1  0.08641300  0.09160476  0.88332226  1.0
  H  H111  1  0.79684638  0.79182680  0.88335571  1.0
  H  H112  1  0.84153174  0.33650589  0.38335429  1.0
  H  H113  1  0.90830981  0.20306315  0.11656444  1.0
  H  H114  1  0.20819529  0.91332434  0.11655306  1.0
  H  H115  1  0.20828085  0.20308982  0.11667644  1.0
  H  H116  1  0.90847119  0.91349473  0.11664450  1.0
  H  H117  1  0.54180538  0.33667264  0.38344506  1.0
  H  H118  1  0.54172213  0.04691425  0.38332366  1.0
  H  H119  1  0.84169077  0.04693819  0.38343885  1.0
  C  C120  1  0.84431604  0.30390255  0.68860598  1.0
  C  C121  1  0.90569147  0.94609959  0.81139731  1.0
  C  C122  1  0.84426322  0.38471427  0.68857225  1.0
  C  C123  1  0.90574662  0.86528848  0.81143109  1.0
  C  C124  1  0.05385755  0.09431685  0.18856923  1.0
  C  C125  1  0.69613946  0.15569151  0.31142777  1.0
  C  C126  1  0.61529304  0.15570952  0.31139416  1.0
  C  C127  1  0.13470272  0.09429424  0.18860271  1.0
  C  C128  1  0.82177405  0.34467726  0.76980175  1.0
  C  C129  1  0.80187735  0.90532858  0.73022172  1.0
  C  C130  1  0.92822585  0.90532420  0.73019867  1.0
  C  C131  1  0.94806728  0.42512653  0.76976158  1.0
  C  C132  1  0.92825760  0.82486220  0.73021855  1.0
  C  C133  1  0.80193449  0.82487560  0.73024336  1.0
  C  C134  1  0.94812438  0.34467366  0.76978441  1.0
  C  C135  1  0.82174197  0.42513886  0.76978093  1.0
  C  C136  1  0.09464272  0.19803991  0.26978177  1.0
  C  C137  1  0.65536300  0.17830628  0.23023811  1.0
  C  C138  1  0.57487330  0.05197198  0.23019768  1.0
  C  C139  1  0.57488673  0.17834012  0.23021468  1.0
  C  C140  1  0.65535651  0.05196238  0.23021861  1.0
  C  C141  1  0.17512446  0.19802696  0.26980214  1.0
  C  C142  1  0.17510576  0.07165654  0.26978014  1.0
  C  C143  1  0.09462938  0.07169339  0.26975803  1.0
  C  C144  1  0.81789742  0.16577075  0.82390448  1.0
  C  C145  1  0.74414585  0.08416015  0.67613812  1.0
  C  C146  1  0.93210270  0.08422853  0.67609741  1.0
  C  C147  1  0.00590028  0.65815821  0.82392360  1.0
  C  C148  1  0.93210633  0.59179765  0.67617200  1.0
  C  C149  1  0.74409810  0.59184270  0.67607517  1.0
  C  C150  1  0.00585823  0.16584231  0.82386101  1.0
  C  C151  1  0.81789150  0.65820894  0.82382836  1.0
  C  C152  1  0.91562548  0.25593525  0.32383024  1.0
  C  C153  1  0.83423288  0.18198132  0.17607859  1.0
  C  C154  1  0.34186747  0.99399435  0.17609452  1.0
  C  C155  1  0.34198072  0.18199518  0.17613688  1.0
  C  C156  1  0.83437646  0.99406867  0.17617071  1.0
  C  C157  1  0.40813254  0.25600411  0.32390451  1.0
  C  C158  1  0.40801856  0.06800441  0.32386155  1.0
  C  C159  1  0.91576322  0.06802462  0.32392649  1.0
  C  C160  1  0.79124684  0.19459728  0.86891128  1.0
  C  C161  1  0.67249619  0.05539398  0.63113111  1.0
  C  C162  1  0.95875175  0.05540151  0.63108957  1.0
  C  C163  1  0.07761350  0.67429262  0.86892074  1.0
  C  C164  1  0.95861560  0.57562352  0.63110674  1.0
  C  C165  1  0.67238457  0.57570785  0.63107650  1.0
  C  C166  1  0.07750889  0.19460985  0.86886771  1.0
  C  C167  1  0.79138208  0.67438147  0.86889368  1.0
  C  C168  1  0.94451676  0.32750824  0.36889490  1.0
  C  C169  1  0.80536817  0.20869536  0.13107871  1.0
  C  C170  1  0.32568542  0.92233668  0.13108717  1.0
  C  C171  1  0.32573952  0.20863895  0.13112975  1.0
  C  C172  1  0.80548749  0.92249174  0.13110547  1.0
  C  C173  1  0.42431428  0.32766133  0.36891032  1.0
  C  C174  1  0.42426067  0.04136246  0.36886882  1.0
  C  C175  1  0.94462791  0.04130841  0.36892478  1.0
  C  C176  1  0.77412021  0.26794228  0.88439850  1.0
  C  C177  1  0.63982435  0.98207342  0.61561412  1.0
  C  C178  1  0.97587917  0.98205745  0.61560335  1.0
  C  C179  1  0.11033845  0.61645099  0.88437942  1.0
  C  C180  1  0.97563110  0.63344509  0.61556929  1.0
  C  C181  1  0.63966100  0.63354859  0.61561638  1.0
  C  C182  1  0.11018084  0.26793060  0.88438441  1.0
  C  C183  1  0.77436865  0.61655753  0.88442881  1.0
  C  C184  1  0.01787265  0.36006026  0.38443083  1.0
  C  C185  1  0.73207022  0.22596115  0.11562014  1.0
  C  C186  1  0.38354291  0.88972206  0.11560041  1.0
  C  C187  1  0.38354476  0.22579453  0.11561383  1.0
  C  C188  1  0.73213150  0.88994023  0.11557060  1.0
  C  C189  1  0.36645699  0.36027481  0.38439799  1.0
  C  C190  1  0.36645705  0.02420697  0.38438521  1.0
  C  C191  1  0.01792834  0.02404257  0.38438054  1.0
  C  C192  1  0.75066302  0.29509307  0.92662032  1.0
  C  C193  1  0.57411608  0.95500484  0.57339646  1.0
  C  C194  1  0.99933462  0.95490498  0.57338042  1.0
  C  C195  1  0.17608408  0.63155486  0.92657216  1.0
  C  C196  1  0.99907294  0.61834348  0.57334012  1.0
  C  C197  1  0.57391429  0.61844384  0.57342443  1.0
  C  C198  1  0.17588819  0.29499963  0.92660472  1.0
  C  C199  1  0.75092581  0.63165530  0.92665803  1.0
  C  C200  1  0.04500358  0.42572940  0.42665806  1.0
  C  C201  1  0.70498112  0.24951287  0.07342753  1.0
  C  C202  1  0.36847219  0.82404302  0.07337862  1.0
  C  C203  1  0.36839259  0.24928131  0.07339213  1.0
  C  C204  1  0.70500034  0.82427240  0.07334356  1.0
  C  C205  1  0.38152726  0.42595159  0.42662085  1.0
  C  C206  1  0.38161080  0.00072059  0.42660675  1.0
  C  C207  1  0.04501729  0.00048930  0.42657382  1.0
  C  C208  1  0.74594844  0.24988337  0.95506928  1.0
  C  C209  1  0.54099140  0.00026167  0.54496826  1.0
  C  C210  1  0.00404720  0.00011364  0.54493036  1.0
  C  C211  1  0.20920102  0.70523423  0.95502568  1.0
  C  C212  1  0.00386760  0.54466656  0.54492890  1.0
  C  C213  1  0.54079812  0.54476480  0.54497161  1.0
  C  C214  1  0.20901075  0.24974271  0.95503205  1.0
  C  C215  1  0.74613269  0.70533277  0.95507090  1.0
  C  C216  1  0.99973796  0.45893656  0.45507006  1.0
  C  C217  1  0.75020740  0.25417522  0.04497345  1.0
  C  C218  1  0.29481326  0.79088033  0.04492914  1.0
  C  C219  1  0.29470968  0.25397930  0.04496676  1.0
  C  C220  1  0.75026468  0.79106334  0.04492913  1.0
  C  C221  1  0.45518565  0.45911508  0.45506908  1.0
  C  C222  1  0.45529406  0.99602359  0.45503335  1.0
  C  C223  1  0.99979219  0.99582564  0.45502779  1.0
  C  C224  1  0.76275956  0.17638475  0.93944629  1.0
  C  C225  1  0.57351249  0.07374968  0.56062656  1.0
  C  C226  1  0.98723644  0.07361012  0.56055344  1.0
  C  C227  1  0.17666192  0.76308834  0.93941244  1.0
  C  C228  1  0.98706354  0.48682931  0.56057815  1.0
  C  C229  1  0.57333701  0.48690945  0.56058490  1.0
  C  C230  1  0.17648833  0.17625501  0.93937421  1.0
  C  C231  1  0.76293741  0.76317303  0.93942572  1.0
  C  C232  1  0.92625180  0.42648474  0.43942316  1.0
  C  C233  1  0.82367466  0.23724803  0.06058623  1.0
  C  C234  1  0.23693974  0.82331438  0.06055380  1.0
  C  C235  1  0.23687939  0.23711333  0.06062375  1.0
  C  C236  1  0.82374955  0.82351553  0.06057639  1.0
  C  C237  1  0.51305899  0.42668197  0.43944534  1.0
  C  C238  1  0.51312400  0.01288845  0.43937464  1.0
  C  C239  1  0.92632375  0.01274927  0.43941582  1.0
  C  C240  1  0.78436149  0.14876052  0.89632207  1.0
  C  C241  1  0.63825138  0.10129239  0.60374134  1.0
  C  C242  1  0.96563695  0.10123911  0.60367850  1.0
  C  C243  1  0.11187017  0.74754090  0.89633570  1.0
  C  C244  1  0.96549166  0.50236132  0.60370248  1.0
  C  C245  1  0.63812955  0.50245706  0.60366126  1.0
  C  C246  1  0.11175021  0.14871278  0.89625772  1.0
  C  C247  1  0.78450820  0.74764279  0.89629928  1.0
  C  C248  1  0.89865863  0.36178639  0.39630022  1.0
  C  C249  1  0.85120383  0.21553332  0.10366345  1.0
  C  C250  1  0.25243775  0.88804060  0.10367802  1.0
  C  C251  1  0.25245262  0.21549077  0.10374096  1.0
  C  C252  1  0.85134407  0.88821314  0.10369971  1.0
  C  C253  1  0.49756296  0.36195612  0.39632205  1.0
  C  C254  1  0.49754911  0.03451109  0.39625805  1.0
  C  C255  1  0.89879335  0.03446637  0.39633875  1.0
  C  C256  1  0.71982335  0.28028712  0.00001005  1.0
  C  C257  1  0.46991218  0.96990967  0.50000079  1.0
  C  C258  1  0.03017550  0.96971347  0.49999038  1.0
  C  C259  1  0.28027632  0.71981435  0.99998966  1.0
  C  C260  1  0.03004759  0.53004713  0.49999950  1.0
  C  C261  1  0.46972252  0.53018402  0.50000864  1.0
  C  C262  1  0.28009173  0.28009239  0.99999896  1.0
  C  C263  1  0.71995321  0.71995384  0.00000184  1.0
  N  N264  1  0.87146419  0.30443749  0.74282895  1.0
  N  N265  1  0.87853863  0.94556341  0.75717422  1.0
  N  N266  1  0.87139849  0.43840084  0.74279807  1.0
  N  N267  1  0.87860581  0.81160336  0.75720505  1.0
  N  N268  1  0.05439657  0.12140208  0.24279514  1.0
  N  N269  1  0.69559995  0.12860195  0.25720255  1.0
  N  N270  1  0.56160675  0.12863501  0.25717058  1.0
  N  N271  1  0.18838782  0.12136373  0.24282629  1.0
  O  O272  1  0.82697302  0.21157687  0.80255698  1.0
  O  O273  1  0.77452860  0.03831388  0.69746535  1.0
  O  O274  1  0.92302861  0.03842311  0.69744411  1.0
  O  O275  1  0.97549252  0.59100566  0.80261186  1.0
  O  O276  1  0.92303230  0.65895651  0.69751813  1.0
  O  O277  1  0.77450439  0.65899434  0.69738601  1.0
  O  O278  1  0.97547388  0.21169073  0.80253480  1.0
  O  O279  1  0.82696107  0.59104743  0.80248143  1.0
  O  O280  1  0.96143736  0.22551536  0.30248146  1.0
  O  O281  1  0.78838946  0.17288544  0.19738857  1.0
  O  O282  1  0.40901903  0.02441623  0.19744132  1.0
  O  O283  1  0.40915539  0.17293723  0.19746172  1.0
  O  O284  1  0.78856431  0.02448459  0.19751826  1.0
  O  O285  1  0.34098008  0.22558186  0.30255838  1.0
  O  O286  1  0.34084416  0.07706312  0.30253691  1.0
  O  O287  1  0.96160402  0.07711933  0.30261371  1.0
  O  O288  1  0.83030820  0.09799961  0.81077095  1.0
  O  O289  1  0.76969938  0.15191873  0.68927947  1.0
  O  O290  1  0.91969276  0.15200180  0.68923044  1.0
  O  O291  1  0.98035686  0.71276879  0.81076068  1.0
  O  O292  1  0.91976569  0.53717374  0.68932594  1.0
  O  O293  1  0.76964192  0.53723205  0.68923857  1.0
  O  O294  1  0.98030541  0.09808438  0.81071975  1.0
  O  O295  1  0.83023396  0.71283152  0.81067491  1.0
  O  O296  1  0.84784775  0.23044113  0.31067549  1.0
  O  O297  1  0.90200687  0.16960022  0.18924005  1.0
  O  O298  1  0.28722932  0.01953772  0.18922964  1.0
  O  O299  1  0.28736473  0.16958338  0.18928026  1.0
  O  O300  1  0.90215364  0.01956293  0.18932333  1.0
  O  O301  1  0.46277045  0.23045894  0.31076976  1.0
  O  O302  1  0.46263349  0.08041522  0.31071774  1.0
  O  O303  1  0.84798979  0.08040498  0.31076264  1.0
  O  O304  1  0.67437751  0.32575764  0.00000257  1.0
  O  O305  1  0.42446880  0.92446498  0.50000053  1.0
  O  O306  1  0.07562166  0.92423869  0.49999695  1.0
  O  O307  1  0.32575706  0.67437635  0.99999565  1.0
  O  O308  1  0.07549068  0.57548889  0.49999796  1.0
  O  O309  1  0.42424081  0.57562056  0.50000176  1.0
  O  O310  1  0.32553526  0.32553620  0.99999889  1.0
  O  O311  1  0.67450889  0.67451208  0.00000448  1.0
