# generated using pymatgen
data_AlH8C13SO5
_symmetry_space_group_name_H-M   'P 1'
_cell_length_a   6.65630022
_cell_length_b   12.70064141
_cell_length_c   17.73468940
_cell_angle_alpha   85.58561995
_cell_angle_beta   79.49542769
_cell_angle_gamma   75.31429530
_symmetry_Int_Tables_number   1
_chemical_formula_structural   AlH8C13SO5
_chemical_formula_sum   'Al2 H16 C26 S2 O10'
_cell_volume   1425.24614663
_cell_formula_units_Z   2
loop_
 _symmetry_equiv_pos_site_id
 _symmetry_equiv_pos_as_xyz
  1  'x, y, z'
loop_
 _atom_site_type_symbol
 _atom_site_label
 _atom_site_symmetry_multiplicity
 _atom_site_fract_x
 _atom_site_fract_y
 _atom_site_fract_z
 _atom_site_occupancy
  Al  Al0  1  0.50003669  0.49999250  0.49996317  1.0
  Al  Al1  1  0.00004119  0.50000138  0.49995474  1.0
  H  H2  1  0.22782744  0.61347767  0.43358505  1.0
  H  H3  1  0.77198491  0.38685943  0.56667357  1.0
  H  H4  1  0.44375062  0.53535891  0.73292845  1.0
  H  H5  1  0.37066841  0.52996726  0.87699688  1.0
  H  H6  1  0.74318872  0.49892747  0.87236968  1.0
  H  H7  1  0.82018541  0.50344010  0.72836717  1.0
  H  H8  1  0.25708063  0.50082696  0.12760020  1.0
  H  H9  1  0.17998055  0.49636214  0.27160712  1.0
  H  H10  1  0.55626969  0.46470907  0.26700325  1.0
  H  H11  1  0.62943565  0.47008469  0.12292649  1.0
  H  H12  1  0.81623458  0.19967560  0.53268802  1.0
  H  H13  1  0.82626964  0.08236822  0.59484599  1.0
  H  H14  1  0.63336876  0.20600262  0.61928908  1.0
  H  H15  1  0.36660039  0.79393813  0.38083695  1.0
  H  H16  1  0.17386254  0.91767761  0.40513647  1.0
  H  H17  1  0.18339060  0.80047846  0.46737047  1.0
  C  C18  1  0.66291772  0.69571901  0.49994731  1.0
  C  C19  1  0.81424945  0.48604901  0.36256933  1.0
  C  C20  1  0.33710484  0.30429805  0.50003211  1.0
  C  C21  1  0.18580538  0.51393008  0.63737850  1.0
  C  C22  1  0.13692285  0.51826692  0.72266622  1.0
  C  C23  1  0.29149329  0.52722703  0.76440027  1.0
  C  C24  1  0.25092693  0.52426137  0.84402660  1.0
  C  C25  1  0.05328851  0.51250310  0.88394857  1.0
  C  C26  1  0.89628752  0.50679230  0.84150176  1.0
  C  C27  1  0.93852913  0.50932076  0.76189373  1.0
  C  C28  1  0.01505184  0.50458170  0.96499636  1.0
  C  C29  1  0.98516223  0.49530473  0.03496268  1.0
  C  C30  1  0.94689291  0.48739220  0.11601417  1.0
  C  C31  1  0.10393034  0.49303460  0.15846188  1.0
  C  C32  1  0.06166734  0.49050283  0.23806999  1.0
  C  C33  1  0.86318792  0.48165277  0.27728300  1.0
  C  C34  1  0.70857561  0.47276109  0.23554276  1.0
  C  C35  1  0.74919583  0.47571220  0.15591732  1.0
  C  C36  1  0.57151207  0.11762285  0.53077166  1.0
  C  C37  1  0.42829333  0.88238431  0.46935929  1.0
  C  C38  1  0.40386576  0.18518902  0.49987674  1.0
  C  C39  1  0.59600710  0.81482354  0.50021165  1.0
  C  C40  1  0.42110890  0.99256483  0.48085603  1.0
  C  C41  1  0.57860073  0.00744985  0.51932400  1.0
  C  C42  1  0.71986807  0.15319314  0.57169476  1.0
  C  C43  1  0.28002707  0.84683758  0.42837145  1.0
  S  S44  1  0.25924924  0.11556117  0.45841472  1.0
  S  S45  1  0.74055157  0.88444434  0.54171705  1.0
  O  O46  1  0.53198346  0.64575884  0.48445870  1.0
  O  O47  1  0.95122518  0.50928106  0.39599571  1.0
  O  O48  1  0.15270481  0.34950655  0.48559456  1.0
  O  O49  1  0.36239924  0.53048943  0.60440074  1.0
  O  O50  1  0.46808418  0.35424552  0.51549122  1.0
  O  O51  1  0.04879778  0.49071104  0.60394686  1.0
  O  O52  1  0.84739538  0.65052507  0.51432144  1.0
  O  O53  1  0.63767422  0.46947916  0.39553985  1.0
  O  O54  1  0.24466460  0.54652443  0.46438142  1.0
  O  O55  1  0.75540377  0.45350381  0.53554051  1.0
