# generated using pymatgen
data_ZnH7C16Br2NO4
_symmetry_space_group_name_H-M   'P 1'
_cell_length_a   11.06121034
_cell_length_b   11.70899422
_cell_length_c   13.12931117
_cell_angle_alpha   90.59074485
_cell_angle_beta   91.20496407
_cell_angle_gamma   97.75313759
_symmetry_Int_Tables_number   1
_chemical_formula_structural   ZnH7C16Br2NO4
_chemical_formula_sum   'Zn2 H14 C32 Br4 N2 O8'
_cell_volume   1684.38564057
_cell_formula_units_Z   2
loop_
 _symmetry_equiv_pos_site_id
 _symmetry_equiv_pos_as_xyz
  1  'x, y, z'
loop_
 _atom_site_type_symbol
 _atom_site_label
 _atom_site_symmetry_multiplicity
 _atom_site_fract_x
 _atom_site_fract_y
 _atom_site_fract_z
 _atom_site_occupancy
  Zn  Zn0  1  0.48747983  0.38302138  0.48421169  1.0
  Zn  Zn1  1  0.52113638  0.61909118  0.51299588  1.0
  H  H2  1  0.14531773  0.67536379  0.52741492  1.0
  H  H3  1  0.05079032  0.09393434  0.47827497  1.0
  H  H4  1  0.75675378  0.29186469  0.41872765  1.0
  H  H5  1  0.55754439  0.64711744  0.82988891  1.0
  H  H6  1  0.44520641  0.28220224  0.80763874  1.0
  H  H7  1  0.58195479  0.74386836  0.00151649  1.0
  H  H8  1  0.43633544  0.26942435  0.99730513  1.0
  H  H9  1  0.46555304  0.36699920  0.16795454  1.0
  H  H10  1  0.58760708  0.21080017  0.58990632  1.0
  H  H11  1  0.66474233  0.02669049  0.66364961  1.0
  H  H12  1  0.33750024  0.96901253  0.33201468  1.0
  H  H13  1  0.65826473  0.81141243  0.64849063  1.0
  H  H14  1  0.41351326  0.78819790  0.40369483  1.0
  H  H15  1  0.18730713  0.27337091  0.52347192  1.0
  C  C16  1  0.50604399  0.53071006  0.30404962  1.0
  C  C17  1  0.54830215  0.65478567  0.14193535  1.0
  C  C18  1  0.48867951  0.44919026  0.12994856  1.0
  C  C19  1  0.26916229  0.50136436  0.50885546  1.0
  C  C20  1  0.49163409  0.45234508  0.02265636  1.0
  C  C21  1  0.52579234  0.56113458  0.97502047  1.0
  C  C22  1  0.53138090  0.56525756  0.86757351  1.0
  C  C23  1  0.46806543  0.35851386  0.85603005  1.0
  C  C24  1  0.46289249  0.35189602  0.96049772  1.0
  C  C25  1  0.60708992  0.97701065  0.60603472  1.0
  C  C26  1  0.60441005  0.85943742  0.59822259  1.0
  C  C27  1  0.05186369  0.38716209  0.49630736  1.0
  C  C28  1  0.46610305  0.84435001  0.46025252  1.0
  C  C29  1  0.46293589  0.96481225  0.46156851  1.0
  C  C30  1  0.53551084  0.03282515  0.53667794  1.0
  C  C31  1  0.50793398  0.47376124  0.69499308  1.0
  C  C32  1  0.53356804  0.15318261  0.53519393  1.0
  C  C33  1  0.39883272  0.13735371  0.39555039  1.0
  C  C34  1  0.39332052  0.01907880  0.39039678  1.0
  C  C35  1  0.73789884  0.49950095  0.49295720  1.0
  C  C36  1  0.09321379  0.27739692  0.50056977  1.0
  C  C37  1  0.01799356  0.17751645  0.47471558  1.0
  C  C38  1  0.13193228  0.49320593  0.51012704  1.0
  C  C39  1  0.89840156  0.18627703  0.43977358  1.0
  C  C40  1  0.85041327  0.28869112  0.44321429  1.0
  C  C41  1  0.92389967  0.39183748  0.47802969  1.0
  C  C42  1  0.08335682  0.59553454  0.51667356  1.0
  C  C43  1  0.95655338  0.59828811  0.51070729  1.0
  C  C44  1  0.87409326  0.49898965  0.49187739  1.0
  C  C45  1  0.50329468  0.46612237  0.80871628  1.0
  C  C46  1  0.51511252  0.54732493  0.19098465  1.0
  C  C47  1  0.55405935  0.66119248  0.03730376  1.0
  Br  Br48  1  0.59515874  0.79647341  0.21541252  1.0
  Br  Br49  1  0.30655261  0.21076172  0.30010685  1.0
  Br  Br50  1  0.80311670  0.05003449  0.38516749  1.0
  Br  Br51  1  0.91281446  0.74919038  0.53201718  1.0
  N  N52  1  0.46786948  0.20332362  0.46698522  1.0
  N  N53  1  0.53440116  0.79490321  0.52587295  1.0
  O  O54  1  0.52518902  0.43244914  0.33672279  1.0
  O  O55  1  0.47798931  0.61298771  0.35879913  1.0
  O  O56  1  0.31289403  0.41485771  0.47183358  1.0
  O  O57  1  0.33184727  0.59441102  0.54027784  1.0
  O  O58  1  0.46887882  0.38332023  0.64295076  1.0
  O  O59  1  0.55017190  0.57149710  0.65853198  1.0
  O  O60  1  0.67259999  0.40529225  0.51617086  1.0
  O  O61  1  0.69617264  0.59272766  0.47317369  1.0
