# generated using pymatgen
data_ZnH7C17NO5
_symmetry_space_group_name_H-M   'P 1'
_cell_length_a   11.01004689
_cell_length_b   14.84932250
_cell_length_c   16.19250002
_cell_angle_alpha   89.49482959
_cell_angle_beta   89.91961351
_cell_angle_gamma   89.83591898
_symmetry_Int_Tables_number   1
_chemical_formula_structural   ZnH7C17NO5
_chemical_formula_sum   'Zn2 H14 C34 N2 O10'
_cell_volume   2647.22368885
_cell_formula_units_Z   2
loop_
 _symmetry_equiv_pos_site_id
 _symmetry_equiv_pos_as_xyz
  1  'x, y, z'
loop_
 _atom_site_type_symbol
 _atom_site_label
 _atom_site_symmetry_multiplicity
 _atom_site_fract_x
 _atom_site_fract_y
 _atom_site_fract_z
 _atom_site_occupancy
  Zn  Zn0  1  0.49842254  0.59493886  0.49747890  1.0
  Zn  Zn1  1  0.50056229  0.40561241  0.50235997  1.0
  H  H2  1  0.11285257  0.44022043  0.61287634  1.0
  H  H3  1  0.88609241  0.44093040  0.61314695  1.0
  H  H4  1  0.22512468  0.56060929  0.34756314  1.0
  H  H5  1  0.77359008  0.56228611  0.34831235  1.0
  H  H6  1  0.39528503  0.62268139  0.92271853  1.0
  H  H7  1  0.39524133  0.62167287  0.07617909  1.0
  H  H8  1  0.62214816  0.38409038  0.07653235  1.0
  H  H9  1  0.62126319  0.38477309  0.92278277  1.0
  H  H10  1  0.34217165  0.08415655  0.57894171  1.0
  H  H11  1  0.65883118  0.08447406  0.42066374  1.0
  H  H12  1  0.23702072  0.60098503  0.21232016  1.0
  H  H13  1  0.76084859  0.61585446  0.21694149  1.0
  H  H14  1  0.34103819  0.91578414  0.57840545  1.0
  H  H15  1  0.65776666  0.91609733  0.42016209  1.0
  C  C16  1  0.50056106  0.50014455  0.66084698  1.0
  C  C17  1  0.50213215  0.50021965  0.33812516  1.0
  C  C18  1  0.57241286  0.43582193  0.04237925  1.0
  C  C19  1  0.57205626  0.43632962  0.95678843  1.0
  C  C20  1  0.50699321  0.50098670  0.17381323  1.0
  C  C21  1  0.50595046  0.50328305  0.82517150  1.0
  C  C22  1  0.50352432  0.50265320  0.74992395  1.0
  C  C23  1  0.50486196  0.49905487  0.24908318  1.0
  C  C24  1  0.40982991  0.95332976  0.54426060  1.0
  C  C25  1  0.58941503  0.95345661  0.45454031  1.0
  C  C26  1  0.49927081  0.90688549  0.49923667  1.0
  C  C27  1  0.59007205  0.04693562  0.45483946  1.0
  C  C28  1  0.41051238  0.04679118  0.54456907  1.0
  C  C29  1  0.50065197  0.09339524  0.49988250  1.0
  C  C30  1  0.49842227  0.81116201  0.49875655  1.0
  C  C31  1  0.50126408  0.18915349  0.50044212  1.0
  C  C32  1  0.26358271  0.49940758  0.49557347  1.0
  C  C33  1  0.73548169  0.50125682  0.49650273  1.0
  C  C34  1  0.12596624  0.55918529  0.34782260  1.0
  C  C35  1  0.87277385  0.56208641  0.34890591  1.0
  C  C36  1  0.06447185  0.58760401  0.27785365  1.0
  C  C37  1  0.93414223  0.58682189  0.27771084  1.0
  C  C38  1  0.93427924  0.53276401  0.42151381  1.0
  C  C39  1  0.06460783  0.53095124  0.42083248  1.0
  C  C40  1  0.12747082  0.49865508  0.49191610  1.0
  C  C41  1  0.87155744  0.50081027  0.49278885  1.0
  C  C42  1  0.06329774  0.46617651  0.55943727  1.0
  C  C43  1  0.93571336  0.46691463  0.55973512  1.0
  C  C44  1  0.44477933  0.57008788  0.04235888  1.0
  C  C45  1  0.44465619  0.57063326  0.95673098  1.0
  C  C46  1  0.50832297  0.50243369  0.08646758  1.0
  C  C47  1  0.50780435  0.50356367  0.91257508  1.0
  C  C48  1  0.14158386  0.62737161  0.21166991  1.0
  C  C49  1  0.85749243  0.59788399  0.20281246  1.0
  N  N50  1  0.50149586  0.26725520  0.50124099  1.0
  N  N51  1  0.49775130  0.73306771  0.49813787  1.0
  O  O52  1  0.49889772  0.57591926  0.62305225  1.0
  O  O53  1  0.49843702  0.57805750  0.37088716  1.0
  O  O54  1  0.49989128  0.42227322  0.62837283  1.0
  O  O55  1  0.50372304  0.42435433  0.37556562  1.0
  O  O56  1  0.31397956  0.57633729  0.49349848  1.0
  O  O57  1  0.68322575  0.57767273  0.49277847  1.0
  O  O58  1  0.31601386  0.42327106  0.50151043  1.0
  O  O59  1  0.68485565  0.42479123  0.50379926  1.0
  O  O60  1  0.11112173  0.68723615  0.16363591  1.0
  O  O61  1  0.89016022  0.58300238  0.13207930  1.0
