# generated using pymatgen
data_Zr3H23C63N3O16F15
_symmetry_space_group_name_H-M   'P 1'
_cell_length_a   17.51533649
_cell_length_b   17.53244553
_cell_length_c   17.78124363
_cell_angle_alpha   92.40614117
_cell_angle_beta   92.31748302
_cell_angle_gamma   92.86502192
_symmetry_Int_Tables_number   1
_chemical_formula_structural   Zr3H23C63N3O16F15
_chemical_formula_sum   'Zr6 H46 C126 N6 O32 F30'
_cell_volume   5443.79739506
_cell_formula_units_Z   2
loop_
 _symmetry_equiv_pos_site_id
 _symmetry_equiv_pos_as_xyz
  1  'x, y, z'
loop_
 _atom_site_type_symbol
 _atom_site_label
 _atom_site_symmetry_multiplicity
 _atom_site_fract_x
 _atom_site_fract_y
 _atom_site_fract_z
 _atom_site_occupancy
  Zr  Zr0  1  0.81131616  0.95195829  0.84974721  1.0
  Zr  Zr1  1  0.75544854  0.84511563  0.00431566  1.0
  Zr  Zr2  1  0.99772340  0.98181409  0.93189305  1.0
  Zr  Zr3  1  0.91589962  0.79336492  0.90145024  1.0
  Zr  Zr4  1  0.83826355  0.03239247  0.03600400  1.0
  Zr  Zr5  1  0.94285718  0.87423015  0.08626687  1.0
  H  H6  1  0.13630168  0.25877347  0.58882284  1.0
  H  H7  1  0.14198699  0.23154741  0.44131669  1.0
  H  H8  1  0.63181682  0.57058751  0.34484218  1.0
  H  H9  1  0.61942371  0.59375547  0.49158432  1.0
  H  H10  1  0.21145729  0.53846130  0.21900090  1.0
  H  H11  1  0.19685493  0.38812562  0.23429724  1.0
  H  H12  1  0.53576477  0.28798987  0.71421128  1.0
  H  H13  1  0.56680240  0.43786390  0.71207378  1.0
  H  H14  1  0.50301877  0.16499923  0.32621909  1.0
  H  H15  1  0.35261808  0.17831153  0.30212442  1.0
  H  H16  1  0.25073257  0.66438968  0.60986259  1.0
  H  H17  1  0.40063270  0.65063820  0.63511298  1.0
  H  H18  1  0.76051463  0.79562381  0.85056939  1.0
  H  H19  1  0.88849986  0.09321853  0.90351812  1.0
  H  H20  1  0.05672836  0.84781608  0.97892362  1.0
  H  H21  1  0.80859374  0.92090998  0.14526524  1.0
  H  H22  1  0.04532369  0.76155665  0.70451407  1.0
  H  H23  1  0.29019250  0.91288775  0.69197282  1.0
  H  H24  1  0.46175045  0.69751218  0.73670948  1.0
  H  H25  1  0.59985664  0.94945055  0.72992357  1.0
  H  H26  1  0.14660551  0.88453023  0.21177497  1.0
  H  H27  1  0.29974251  0.12704466  0.19521970  1.0
  H  H28  1  0.70356290  0.07102407  0.22153037  1.0
  H  H29  1  0.46285970  0.91538866  0.24472469  1.0
  H  H30  1  0.31100571  0.03355048  0.45022181  1.0
  H  H31  1  0.44403891  0.79576613  0.48642225  1.0
  H  H32  1  0.62244335  0.08279175  0.80535746  1.0
  H  H33  1  0.58128570  0.31196081  0.96821286  1.0
  H  H34  1  0.58508755  0.56021848  0.75082647  1.0
  H  H35  1  0.68839792  0.57096570  0.01513210  1.0
  H  H36  1  0.06139515  0.17376795  0.15597538  1.0
  H  H37  1  0.17432912  0.34509871  0.97022451  1.0
  H  H38  1  0.06077182  0.59809372  0.93907902  1.0
  H  H39  1  0.24122483  0.65609542  0.15853348  1.0
  H  H40  1  0.31863127  0.30410560  0.03922277  1.0
  H  H41  1  0.43189592  0.51399846  0.89800655  1.0
  H  H42  1  0.90888843  0.73100828  0.27439047  1.0
  H  H43  1  0.69378156  0.53779585  0.22824561  1.0
  H  H44  1  0.65640815  0.66611701  0.57688463  1.0
  H  H45  1  0.92641270  0.69273912  0.66871032  1.0
  H  H46  1  0.10572327  0.18588298  0.33593034  1.0
  H  H47  1  0.82943670  0.12407412  0.28443659  1.0
  H  H48  1  0.04588829  0.16824175  0.79353092  1.0
  H  H49  1  0.88167200  0.19524868  0.56343055  1.0
  H  H50  1  0.96999228  0.36974271  0.37419903  1.0
  H  H51  1  0.79306397  0.45592297  0.56459964  1.0
  C  C52  1  0.01542444  0.27895024  0.56490137  1.0
  C  C53  1  0.09085785  0.26867850  0.54764513  1.0
  C  C54  1  0.09329012  0.25392019  0.46909379  1.0
  C  C55  1  0.01979837  0.25682917  0.43729738  1.0
  C  C56  1  0.75140583  0.54770990  0.37325599  1.0
  C  C57  1  0.67527279  0.55874945  0.38742055  1.0
  C  C58  1  0.66946157  0.57216094  0.46565564  1.0
  C  C59  1  0.74186388  0.56953789  0.50026099  1.0
  C  C60  1  0.24143705  0.50901666  0.10306283  1.0
  C  C61  1  0.22792416  0.49541336  0.17799223  1.0
  C  C62  1  0.21904719  0.41578414  0.18580351  1.0
  C  C63  1  0.22655284  0.37994329  0.11549343  1.0
  C  C64  1  0.50692977  0.31133281  0.83146188  1.0
  C  C65  1  0.52292884  0.32949338  0.75824707  1.0
  C  C66  1  0.53926716  0.40908603  0.75736836  1.0
  C  C67  1  0.53181107  0.44062067  0.82954092  1.0
  C  C68  1  0.47270361  0.04289862  0.33430631  1.0
  C  C69  1  0.45917823  0.11982592  0.33160344  1.0
  C  C70  1  0.37925568  0.12653210  0.31844143  1.0
  C  C71  1  0.34383034  0.05417376  0.31498476  1.0
  C  C72  1  0.28157080  0.78632325  0.60132222  1.0
  C  C73  1  0.29476737  0.70939835  0.60470201  1.0
  C  C74  1  0.37452002  0.70256196  0.61846597  1.0
  C  C75  1  0.41029056  0.77486031  0.62176583  1.0
  C  C76  1  0.93622473  0.05603883  0.77530825  1.0
  C  C77  1  0.64410216  0.87395093  0.85115666  1.0
  C  C78  1  0.83994831  0.79762571  0.73628471  1.0
  C  C79  1  0.72922385  0.10362731  0.91620575  1.0
  C  C80  1  0.82069311  0.76207352  0.15447646  1.0
  C  C81  1  0.10704417  0.95708520  0.08804928  1.0
  C  C82  1  0.75961468  0.67803509  0.92806913  1.0
  C  C83  1  0.67887580  0.96765151  0.10716028  1.0
  C  C84  1  0.99920585  0.14425914  0.01419814  1.0
  C  C85  1  0.06962677  0.86182991  0.82218837  1.0
  C  C86  1  0.01970553  0.71869098  0.02458730  1.0
  C  C87  1  0.91840263  0.03464560  0.19813861  1.0
  C  C88  1  0.09762152  0.79688533  0.69949057  1.0
  C  C89  1  0.11727981  0.85452996  0.75533241  1.0
  C  C90  1  0.18482062  0.89923012  0.74637190  1.0
  C  C91  1  0.23454278  0.88247484  0.69022602  1.0
  C  C92  1  0.21777615  0.82130906  0.63725291  1.0
  C  C93  1  0.14554530  0.78286663  0.64137662  1.0
  C  C94  1  0.49305257  0.75217498  0.73226075  1.0
  C  C95  1  0.47665076  0.79903688  0.67137014  1.0
  C  C96  1  0.51681409  0.87067188  0.67432690  1.0
  C  C97  1  0.56857604  0.89445889  0.73229898  1.0
  C  C98  1  0.58249237  0.84845014  0.79373676  1.0
  C  C99  1  0.54290446  0.77701213  0.79161517  1.0
  C  C100  1  0.18088704  0.93757105  0.20774805  1.0
  C  C101  1  0.16993566  0.98169082  0.14430785  1.0
  C  C102  1  0.21439640  0.05016872  0.14288599  1.0
  C  C103  1  0.26522480  0.07462965  0.20158355  1.0
  C  C104  1  0.27759306  0.03013773  0.26508179  1.0
  C  C105  1  0.23359620  0.96090024  0.26499610  1.0
  C  C106  1  0.65244732  0.03459285  0.22900969  1.0
  C  C107  1  0.63180192  0.97604138  0.17427930  1.0
  C  C108  1  0.56560172  0.93038646  0.18608938  1.0
  C  C109  1  0.51791167  0.94668971  0.24411363  1.0
  C  C110  1  0.53555360  0.00850415  0.29619681  1.0
  C  C111  1  0.60681351  0.04808778  0.28904631  1.0
  C  C112  1  0.34045224  0.98082779  0.45667655  1.0
  C  C113  1  0.38789030  0.95529560  0.40018479  1.0
  C  C114  1  0.42457687  0.88784215  0.41454842  1.0
  C  C115  1  0.41442131  0.84839732  0.47981771  1.0
  C  C116  1  0.36680794  0.87386183  0.53619178  1.0
  C  C117  1  0.33029355  0.94143212  0.52195008  1.0
  C  C118  1  0.61125237  0.13159183  0.84245327  1.0
  C  C119  1  0.66034499  0.14853957  0.90626282  1.0
  C  C120  1  0.64286536  0.21114939  0.95330288  1.0
  C  C121  1  0.58597654  0.25967509  0.93383334  1.0
  C  C122  1  0.54157193  0.24679326  0.86617105  1.0
  C  C123  1  0.55268699  0.17815989  0.82489410  1.0
  C  C124  1  0.60742129  0.56031738  0.80886653  1.0
  C  C125  1  0.57640813  0.50833230  0.85963772  1.0
  C  C126  1  0.60780183  0.51613614  0.93407236  1.0
  C  C127  1  0.66790089  0.56754787  0.95643602  1.0
  C  C128  1  0.70147047  0.61462489  0.90405562  1.0
  C  C129  1  0.66856336  0.61001345  0.83112297  1.0
  C  C130  1  0.08618269  0.21061889  0.11478662  1.0
  C  C131  1  0.05774586  0.20607164  0.04007821  1.0
  C  C132  1  0.09445646  0.25297102  0.98943143  1.0
  C  C133  1  0.15357956  0.30548401  0.01121793  1.0
  C  C134  1  0.18196431  0.31163252  0.08690988  1.0
  C  C135  1  0.14814672  0.25983306  0.13578972  1.0
  C  C136  1  0.10088790  0.61138358  0.98680802  1.0
  C  C137  1  0.08937171  0.67481394  0.03523045  1.0
  C  C138  1  0.14462278  0.69084474  0.09423451  1.0
  C  C139  1  0.20266153  0.64252521  0.10972659  1.0
  C  C140  1  0.20784963  0.57335251  0.06743870  1.0
  C  C141  1  0.15913554  0.56339094  0.00202779  1.0
  C  C142  1  0.34136264  0.35170032  0.00814747  1.0
  C  C143  1  0.31000011  0.42376341  0.01466071  1.0
  C  C144  1  0.34675201  0.48015485  0.97285951  1.0
  C  C145  1  0.40881910  0.46643624  0.92895571  1.0
  C  C146  1  0.44052261  0.39456405  0.92294418  1.0
  C  C147  1  0.40321152  0.33795863  0.96408608  1.0
  C  C148  1  0.86228015  0.68797844  0.26367956  1.0
  C  C149  1  0.81259386  0.69356635  0.20039792  1.0
  C  C150  1  0.75469125  0.63543227  0.18827977  1.0
  C  C151  1  0.74196947  0.57903374  0.23908393  1.0
  C  C152  1  0.78564699  0.57934870  0.30739224  1.0
  C  C153  1  0.84938341  0.63237841  0.31495226  1.0
  C  C154  1  0.71630445  0.66969524  0.59581333  1.0
  C  C155  1  0.76829541  0.61802521  0.56617789  1.0
  C  C156  1  0.84447301  0.63075892  0.59444594  1.0
  C  C157  1  0.86718848  0.68852760  0.64731026  1.0
  C  C158  1  0.81561031  0.74118050  0.67338357  1.0
  C  C159  1  0.73996482  0.72992533  0.64516277  1.0
  C  C160  1  0.04453591  0.17316101  0.32715224  1.0
  C  C161  1  0.99129758  0.21308918  0.36949227  1.0
  C  C162  1  0.91374881  0.19214399  0.35089760  1.0
  C  C163  1  0.89042124  0.13568732  0.29676839  1.0
  C  C164  1  0.94400999  0.09282100  0.25954452  1.0
  C  C165  1  0.02100608  0.11351356  0.27710228  1.0
  C  C166  1  0.00859989  0.17561974  0.74414277  1.0
  C  C167  1  0.94638815  0.12276718  0.72751049  1.0
  C  C168  1  0.89876014  0.13594807  0.66431571  1.0
  C  C169  1  0.91603478  0.19318391  0.61557828  1.0
  C  C170  1  0.98173224  0.24243351  0.62878003  1.0
  C  C171  1  0.02372157  0.23449081  0.69705971  1.0
  C  C172  1  0.93099230  0.38689470  0.41718854  1.0
  C  C173  1  0.92484389  0.34586602  0.48289122  1.0
  C  C174  1  0.87381844  0.37488583  0.53453549  1.0
  C  C175  1  0.83241532  0.43885767  0.52189518  1.0
  C  C176  1  0.83909539  0.48037995  0.45649029  1.0
  C  C177  1  0.88944890  0.45080225  0.40443497  1.0
  N  N178  1  0.97220386  0.28280198  0.49515701  1.0
  N  N179  1  0.79142490  0.54306596  0.44410519  1.0
  N  N180  1  0.25085304  0.43700379  0.06584537  1.0
  N  N181  1  0.50160526  0.38177280  0.87390045  1.0
  N  N182  1  0.39999937  0.00127790  0.33564792  1.0
  N  N183  1  0.35430966  0.82772614  0.60058568  1.0
  O  O184  1  0.99168845  0.04153978  0.81989833  1.0
  O  O185  1  0.64844357  0.84691417  0.91600110  1.0
  O  O186  1  0.81329548  0.86319434  0.74185522  1.0
  O  O187  1  0.74589351  0.06042314  0.86057103  1.0
  O  O188  1  0.76812666  0.11199905  0.97917086  1.0
  O  O189  1  0.88728426  0.76980367  0.78386927  1.0
  O  O190  1  0.69271787  0.92276116  0.82553012  1.0
  O  O191  1  0.87127522  0.01812779  0.76983531  1.0
  O  O192  1  0.78412884  0.95019576  0.96271294  1.0
  O  O193  1  0.91565843  0.90798489  0.87674025  1.0
  O  O194  1  0.79362370  0.82883091  0.88415843  1.0
  O  O195  1  0.88586435  0.04135836  0.92057387  1.0
  O  O196  1  0.76524922  0.77760014  0.11068062  1.0
  O  O197  1  0.10198935  0.98447091  0.02336147  1.0
  O  O198  1  0.82563854  0.68263037  0.90202000  1.0
  O  O199  1  0.72342815  0.02415557  0.09287326  1.0
  O  O200  1  0.93480568  0.13770779  0.04343280  1.0
  O  O201  1  0.02521824  0.80482043  0.83575023  1.0
  O  O202  1  0.00008132  0.76094798  0.07942734  1.0
  O  O203  1  0.94689283  0.97009575  0.19286594  1.0
  O  O204  1  0.98384739  0.71082999  0.95970460  1.0
  O  O205  1  0.86622241  0.05949461  0.15367797  1.0
  O  O206  1  0.73127192  0.72618214  0.97384556  1.0
  O  O207  1  0.07731044  0.92472599  0.86196205  1.0
  O  O208  1  0.02459987  0.09977430  0.96287557  1.0
  O  O209  1  0.67314349  0.90329215  0.06953858  1.0
  O  O210  1  0.88395020  0.80271048  0.16515076  1.0
  O  O211  1  0.05932886  0.90722491  0.11354800  1.0
  O  O212  1  0.93997997  0.97655622  0.03198525  1.0
  O  O213  1  0.87049708  0.81912394  0.00424629  1.0
  O  O214  1  0.00435922  0.86337970  0.97612859  1.0
  O  O215  1  0.82572803  0.91963036  0.09406301  1.0
  F  F216  1  0.12538235  0.72446225  0.58996650  1.0
  F  F217  1  0.20788775  0.95664287  0.79684321  1.0
  F  F218  1  0.55211104  0.72916653  0.84900362  1.0
  F  F219  1  0.50426481  0.91976289  0.61807731  1.0
  F  F220  1  0.24283623  0.91398563  0.32376626  1.0
  F  F221  1  0.20920396  0.09537829  0.08300024  1.0
  F  F222  1  0.62808283  0.10709346  0.33950634  1.0
  F  F223  1  0.54197198  0.87212860  0.13681104  1.0
  F  F224  1  0.28314906  0.97186029  0.57292145  1.0
  F  F225  1  0.47203437  0.85756627  0.36365242  1.0
  F  F226  1  0.50840845  0.16094017  0.76070795  1.0
  F  F227  1  0.68530709  0.23036532  0.01741823  1.0
  F  F228  1  0.69587897  0.65959591  0.78007452  1.0
  F  F229  1  0.58091410  0.46874252  0.98721779  1.0
  F  F230  1  0.17528273  0.25991545  0.20935973  1.0
  F  F231  1  0.06860751  0.25029367  0.91597287  1.0
  F  F232  1  0.16392566  0.50010890  0.95540192  1.0
  F  F233  1  0.14251963  0.75502618  0.13944273  1.0
  F  F234  1  0.42680546  0.26513352  0.96259723  1.0
  F  F235  1  0.32304758  0.55301246  0.97444017  1.0
  F  F236  1  0.89590081  0.63513901  0.37829708  1.0
  F  F237  1  0.70706070  0.63351561  0.12591555  1.0
  F  F238  1  0.68599069  0.77773968  0.66827195  1.0
  F  F239  1  0.89994464  0.58573720  0.56873273  1.0
  F  F240  1  0.07620798  0.07557178  0.24148952  1.0
  F  F241  1  0.85768632  0.22631003  0.38905712  1.0
  F  F242  1  0.08611578  0.28309394  0.71387201  1.0
  F  F243  1  0.83647701  0.08906913  0.64506511  1.0
  F  F244  1  0.89959009  0.48361708  0.33727877  1.0
  F  F245  1  0.86265834  0.34045843  0.60073416  1.0
