# generated using pymatgen
data_ZnH13C22(N2O3)2
_symmetry_space_group_name_H-M   'P 1'
_cell_length_a   16.24245620
_cell_length_b   17.12038089
_cell_length_c   19.14428874
_cell_angle_alpha   88.99640286
_cell_angle_beta   86.90932188
_cell_angle_gamma   85.20615795
_symmetry_Int_Tables_number   1
_chemical_formula_structural   ZnH13C22(N2O3)2
_chemical_formula_sum   'Zn2 H26 C44 N8 O12'
_cell_volume   5296.79530465
_cell_formula_units_Z   2
loop_
 _symmetry_equiv_pos_site_id
 _symmetry_equiv_pos_as_xyz
  1  'x, y, z'
loop_
 _atom_site_type_symbol
 _atom_site_label
 _atom_site_symmetry_multiplicity
 _atom_site_fract_x
 _atom_site_fract_y
 _atom_site_fract_z
 _atom_site_occupancy
  Zn  Zn0  1  0.58640582  0.50167982  0.49239289  1.0
  Zn  Zn1  1  0.41484982  0.49462788  0.50300598  1.0
  H  H2  1  0.62645679  0.53246535  0.70994912  1.0
  H  H3  1  0.36502094  0.51768803  0.28376031  1.0
  H  H4  1  0.62413452  0.55738924  0.83885749  1.0
  H  H5  1  0.36165028  0.54129473  0.15429364  1.0
  H  H6  1  0.36331696  0.52683463  0.85488380  1.0
  H  H7  1  0.62684525  0.54281029  0.14102081  1.0
  H  H8  1  0.36730323  0.49936931  0.72629902  1.0
  H  H9  1  0.62955069  0.51691852  0.27034308  1.0
  H  H10  1  0.42548517  0.23858043  0.46961907  1.0
  H  H11  1  0.57618854  0.76191517  0.45930275  1.0
  H  H12  1  0.37849701  0.72139635  0.61012162  1.0
  H  H13  1  0.62784498  0.26882371  0.59919751  1.0
  H  H14  1  0.63027198  0.12892583  0.63723129  1.0
  H  H15  1  0.37479842  0.85954511  0.64963652  1.0
  H  H16  1  0.56902915  0.90167020  0.49355039  1.0
  H  H17  1  0.43148515  0.09712806  0.50179142  1.0
  H  H18  1  0.27700613  0.56980344  0.42637666  1.0
  H  H19  1  0.72503107  0.42561244  0.56636316  1.0
  H  H20  1  0.70668564  0.59624654  0.41132722  1.0
  H  H21  1  0.29333340  0.40369090  0.58546667  1.0
  H  H22  1  0.99372323  0.56806697  0.44378391  1.0
  H  H23  1  0.00661664  0.43413019  0.55339090  1.0
  H  H24  1  0.13965625  0.39502659  0.59311386  1.0
  H  H25  1  0.86003911  0.60720945  0.40468060  1.0
  H  H26  1  0.87774625  0.42905525  0.56795179  1.0
  H  H27  1  0.12376298  0.56992972  0.42694553  1.0
  C  C28  1  0.52280666  0.34699708  0.51111432  1.0
  C  C29  1  0.48166467  0.64960561  0.51019016  1.0
  C  C30  1  0.49846275  0.50203213  0.63362745  1.0
  C  C31  1  0.49871289  0.50594608  0.36257482  1.0
  C  C32  1  0.56961025  0.53041443  0.74259384  1.0
  C  C33  1  0.42193432  0.52301744  0.25187904  1.0
  C  C34  1  0.56824552  0.54449958  0.81385872  1.0
  C  C35  1  0.42001363  0.53608974  0.18013660  1.0
  C  C36  1  0.49355707  0.54366034  0.85458780  1.0
  C  C37  1  0.49398060  0.54412156  0.13990432  1.0
  C  C38  1  0.42086852  0.52709259  0.82295548  1.0
  C  C39  1  0.56982419  0.53680487  0.17259947  1.0
  C  C40  1  0.42296021  0.51209389  0.75176509  1.0
  C  C41  1  0.57129435  0.52285225  0.24431494  1.0
  C  C42  1  0.49708981  0.51423849  0.71099181  1.0
  C  C43  1  0.49738743  0.51681922  0.28471639  1.0
  C  C44  1  0.49191873  0.55954509  0.06445154  1.0
  C  C45  1  0.49162529  0.55947552  0.92963819  1.0
  C  C46  1  0.52641840  0.26206941  0.53229958  1.0
  C  C47  1  0.47764023  0.73349184  0.53247233  1.0
  C  C48  1  0.47006170  0.21377884  0.50616115  1.0
  C  C49  1  0.53237595  0.78407507  0.50081278  1.0
  C  C50  1  0.47268322  0.13511248  0.52525737  1.0
  C  C51  1  0.52911798  0.86174106  0.52096765  1.0
  C  C52  1  0.53000659  0.10344753  0.57297531  1.0
  C  C53  1  0.47271887  0.88999956  0.57503249  1.0
  C  C54  1  0.58571734  0.15241262  0.59998168  1.0
  C  C55  1  0.41862103  0.83867252  0.60753059  1.0
  C  C56  1  0.58438048  0.23068193  0.57911062  1.0
  C  C57  1  0.42064208  0.76143915  0.58582484  1.0
  C  C58  1  0.53313071  0.01963031  0.58877847  1.0
  C  C59  1  0.46914905  0.97310908  0.59174233  1.0
  C  C60  1  0.24321400  0.53267895  0.46265579  1.0
  C  C61  1  0.75822955  0.46483049  0.53169236  1.0
  C  C62  1  0.15795390  0.53202629  0.46350891  1.0
  C  C63  1  0.84323377  0.46718651  0.53177731  1.0
  C  C64  1  0.11747964  0.48252652  0.51115202  1.0
  C  C65  1  0.88311213  0.51838797  0.48534129  1.0
  C  C66  1  0.16742009  0.43499094  0.55549762  1.0
  C  C67  1  0.83273637  0.56603074  0.44140849  1.0
  C  C68  1  0.25260832  0.43914365  0.55168143  1.0
  C  C69  1  0.74778241  0.56036942  0.44448696  1.0
  C  C70  1  0.02816589  0.47834294  0.51642196  1.0
  C  C71  1  0.97231396  0.52354418  0.48051430  1.0
  N  N72  1  0.41749549  0.56753996  0.96602637  1.0
  N  N73  1  0.56309288  0.57351148  0.02785594  1.0
  N  N74  1  0.41782713  0.56716583  0.03472581  1.0
  N  N75  1  0.56297514  0.57309081  0.95914778  1.0
  N  N76  1  0.28982459  0.48735423  0.50618341  1.0
  N  N77  1  0.71122609  0.51032875  0.48863514  1.0
  N  N78  1  0.38428743  0.01227691  0.60552412  1.0
  N  N79  1  0.61797632  0.97985179  0.59430679  1.0
  O  O80  1  0.58810414  0.38245195  0.51586334  1.0
  O  O81  1  0.41728637  0.61308684  0.52319462  1.0
  O  O82  1  0.45369026  0.37720347  0.49078528  1.0
  O  O83  1  0.54977073  0.62117384  0.48115311  1.0
  O  O84  1  0.56394682  0.51819203  0.59853599  1.0
  O  O85  1  0.42934535  0.51462351  0.39714560  1.0
  O  O86  1  0.43409379  0.47801584  0.60862285  1.0
  O  O87  1  0.56894109  0.48991512  0.38838767  1.0
  O  O88  1  0.33034584  0.99678038  0.56571715  1.0
  O  O89  1  0.37327726  0.05516498  0.65710561  1.0
  O  O90  1  0.67101403  0.99524209  0.54828773  1.0
  O  O91  1  0.62994700  0.93683447  0.64595770  1.0
