# generated using pymatgen
data_Zn2H35C54N4Cl5O17
_symmetry_space_group_name_H-M   'P 1'
_cell_length_a   9.60117360
_cell_length_b   10.74203084
_cell_length_c   27.42278691
_cell_angle_alpha   90.53970873
_cell_angle_beta   90.85715083
_cell_angle_gamma   90.22106660
_symmetry_Int_Tables_number   1
_chemical_formula_structural   Zn2H35C54N4Cl5O17
_chemical_formula_sum   'Zn2 H35 C54 N4 Cl5 O17'
_cell_volume   2827.81480379
_cell_formula_units_Z   1
loop_
 _symmetry_equiv_pos_site_id
 _symmetry_equiv_pos_as_xyz
  1  'x, y, z'
loop_
 _atom_site_type_symbol
 _atom_site_label
 _atom_site_symmetry_multiplicity
 _atom_site_fract_x
 _atom_site_fract_y
 _atom_site_fract_z
 _atom_site_occupancy
  Zn  Zn0  1  0.63209578  0.48841746  0.50031541  1.0
  Zn  Zn1  1  0.33378485  0.47746744  0.50114250  1.0
  H  H2  1  0.63640384  0.67589748  0.37603080  1.0
  H  H3  1  0.26573359  0.85215034  0.12824337  1.0
  H  H4  1  0.65868847  0.66270738  0.63807678  1.0
  H  H5  1  0.68416441  0.72039063  0.72642141  1.0
  H  H6  1  0.25300849  0.82505621  0.87717094  1.0
  H  H7  1  0.26507146  0.85543578  0.96665078  1.0
  H  H8  1  0.26869120  0.86328313  0.03823117  1.0
  H  H9  1  0.87973394  0.55507150  0.13108674  1.0
  H  H10  1  0.87803613  0.54160203  0.97070942  1.0
  H  H11  1  0.85634524  0.51190253  0.88137418  1.0
  H  H12  1  0.34497099  0.47269760  0.75853214  1.0
  H  H13  1  0.89066375  0.56434456  0.04106796  1.0
  H  H14  1  0.69406761  0.86374066  0.47355747  1.0
  H  H15  1  0.28300612  0.89889121  0.52712569  1.0
  H  H16  1  0.70269429  0.08643380  0.53443086  1.0
  H  H17  1  0.48258704  0.07364359  0.57846208  1.0
  H  H18  1  0.70428480  0.07936885  0.47010712  1.0
  H  H19  1  0.32105090  0.10756551  0.54946761  1.0
  H  H20  1  0.49922664  0.88301083  0.42192561  1.0
  H  H21  1  0.32717664  0.87460030  0.44359108  1.0
  H  H22  1  0.47511289  0.09957514  0.42187167  1.0
  H  H23  1  0.31653511  0.09281459  0.45323457  1.0
  H  H24  1  0.12664727  0.66778931  0.47904833  1.0
  H  H25  1  0.88974773  0.68117840  0.49686987  1.0
  H  H26  1  0.11447980  0.44000670  0.57254772  1.0
  H  H27  1  0.86908591  0.40690516  0.56447066  1.0
  H  H28  1  0.09979014  0.59857667  0.55771905  1.0
  H  H29  1  0.85537332  0.57075401  0.56663907  1.0
  H  H30  1  0.07574824  0.29303440  0.51080235  1.0
  H  H31  1  0.83896147  0.29704941  0.49163522  1.0
  H  H32  1  0.24963404  0.37082704  0.69563738  1.0
  H  H33  1  0.19783916  0.54904162  0.41175028  1.0
  H  H34  1  0.90220414  0.59604360  0.40145898  1.0
  H  H35  1  0.06595415  0.33463849  0.41094259  1.0
  H  H36  1  0.76445202  0.38785917  0.41680201  1.0
  C  C37  1  0.47538091  0.71972970  0.49610959  1.0
  C  C38  1  0.48279958  0.48533340  0.40382672  1.0
  C  C39  1  0.49872464  0.24594969  0.50286076  1.0
  C  C40  1  0.48269787  0.51006522  0.59450409  1.0
  C  C41  1  0.44333811  0.73562563  0.18699628  1.0
  C  C42  1  0.67053496  0.62015195  0.18741461  1.0
  C  C43  1  0.44315837  0.51851792  0.26593934  1.0
  C  C44  1  0.42613727  0.47177553  0.31313732  1.0
  C  C45  1  0.58044907  0.63401689  0.34507210  1.0
  C  C46  1  0.59346002  0.68232401  0.29841163  1.0
  C  C47  1  0.52650564  0.62430722  0.25856396  1.0
  C  C48  1  0.57082161  0.70028149  0.10837633  1.0
  C  C49  1  0.45655328  0.75140658  0.13372524  1.0
  C  C50  1  0.35162338  0.81187422  0.10793506  1.0
  C  C51  1  0.68050535  0.64200383  0.13453913  1.0
  C  C52  1  0.49640938  0.52966402  0.35231316  1.0
  C  C53  1  0.48916531  0.53687007  0.64813306  1.0
  C  C54  1  0.45809230  0.75531590  0.97687879  1.0
  C  C55  1  0.68437679  0.64152247  0.97817808  1.0
  C  C56  1  0.56716778  0.69115289  0.95223035  1.0
  C  C57  1  0.34847540  0.80458460  0.94892641  1.0
  C  C58  1  0.34016064  0.78797617  0.89836668  1.0
  C  C59  1  0.44177119  0.72109791  0.87400597  1.0
  C  C60  1  0.55734173  0.67359825  0.90047305  1.0
  C  C61  1  0.66208406  0.60695397  0.87563087  1.0
  C  C62  1  0.64993187  0.58012800  0.82273242  1.0
  C  C63  1  0.42585882  0.69893717  0.82081134  1.0
  C  C64  1  0.60473078  0.65436112  0.71399365  1.0
  C  C65  1  0.59094441  0.62154944  0.66507508  1.0
  C  C66  1  0.39838739  0.48380934  0.68228222  1.0
  C  C67  1  0.41370586  0.51467563  0.73185053  1.0
  C  C68  1  0.51571097  0.59910505  0.74719781  1.0
  C  C69  1  0.46124161  0.76181104  0.03024642  1.0
  C  C70  1  0.57419741  0.70513363  0.05626149  1.0
  C  C71  1  0.68912477  0.65060765  0.03141736  1.0
  C  C72  1  0.35446931  0.81710645  0.05705896  1.0
  C  C73  1  0.79557063  0.59725005  0.10991933  1.0
  C  C74  1  0.78768618  0.58000119  0.95178426  1.0
  C  C75  1  0.77680187  0.56239522  0.90138308  1.0
  C  C76  1  0.79983017  0.60245591  0.05912937  1.0
  C  C77  1  0.63873711  0.90670750  0.50395357  1.0
  C  C78  1  0.39042353  0.91651042  0.53952982  1.0
  C  C79  1  0.64620810  0.05001045  0.50233229  1.0
  C  C80  1  0.41903020  0.05646266  0.54542902  1.0
  C  C81  1  0.43057846  0.91512002  0.45116646  1.0
  C  C82  1  0.48660943  0.86116238  0.50047454  1.0
  C  C83  1  0.49877968  0.10434993  0.50072162  1.0
  C  C84  1  0.42411643  0.05871482  0.45363822  1.0
  C  C85  1  0.06950900  0.58521961  0.46520703  1.0
  C  C86  1  0.90954243  0.60452644  0.47104612  1.0
  C  C87  1  0.05497414  0.35566041  0.48002531  1.0
  C  C88  1  0.89483181  0.37127264  0.47240479  1.0
  C  C89  1  0.06434374  0.50467220  0.54709525  1.0
  C  C90  1  0.90401976  0.49309541  0.54711909  1.0
  N  N91  1  0.54883773  0.66490953  0.20982505  1.0
  N  N92  1  0.53080031  0.62736981  0.79858832  1.0
  N  N93  1  0.11681341  0.47925402  0.49699195  1.0
  N  N94  1  0.84885606  0.49129416  0.49589087  1.0
  Cl  Cl95  1  0.36518075  0.44535606  0.21664648  1.0
  Cl  Cl96  1  0.73391288  0.84956281  0.55706825  1.0
  Cl  Cl97  1  0.39911992  0.84144557  0.59809169  1.0
  Cl  Cl98  1  0.69462234  0.81269719  0.28963189  1.0
  Cl  Cl99  1  0.32548658  0.34183268  0.32285791  1.0
  O  O100  1  0.58312499  0.66316689  0.48133947  1.0
  O  O101  1  0.35902678  0.66948275  0.50528135  1.0
  O  O102  1  0.58961609  0.43865290  0.42424485  1.0
  O  O103  1  0.36718247  0.50455422  0.42438419  1.0
  O  O104  1  0.61300686  0.30243407  0.51222536  1.0
  O  O105  1  0.38166871  0.29699340  0.49513974  1.0
  O  O106  1  0.59558665  0.52912610  0.57155895  1.0
  O  O107  1  0.36810266  0.47375957  0.57532218  1.0
  O  O108  1  0.34532215  0.77613584  0.21053510  1.0
  O  O109  1  0.32648024  0.73850188  0.79687403  1.0
  O  O110  1  0.75812733  0.56226210  0.21101651  1.0
  O  O111  1  0.73658705  0.51826253  0.80063554  1.0
  O  O112  1  0.29839150  0.40047203  0.66704923  1.0
  O  O113  1  0.09613188  0.56210715  0.41597477  1.0
  O  O114  1  0.84453504  0.63339746  0.42695862  1.0
  O  O115  1  0.11895867  0.30526321  0.43938659  1.0
  O  O116  1  0.86451184  0.36910847  0.42234630  1.0
