# generated using pymatgen
data_Zn2H15C30N3O14
_symmetry_space_group_name_H-M   'P 1'
_cell_length_a   9.50737748
_cell_length_b   11.01261316
_cell_length_c   12.78540838
_cell_angle_alpha   90.01427896
_cell_angle_beta   106.35237785
_cell_angle_gamma   91.22962519
_symmetry_Int_Tables_number   1
_chemical_formula_structural   Zn2H15C30N3O14
_chemical_formula_sum   'Zn2 H15 C30 N3 O14'
_cell_volume   1284.17205425
_cell_formula_units_Z   1
loop_
 _symmetry_equiv_pos_site_id
 _symmetry_equiv_pos_as_xyz
  1  'x, y, z'
loop_
 _atom_site_type_symbol
 _atom_site_label
 _atom_site_symmetry_multiplicity
 _atom_site_fract_x
 _atom_site_fract_y
 _atom_site_fract_z
 _atom_site_occupancy
  Zn  Zn0  1  0.87108954  0.50236974  0.52043549  1.0
  Zn  Zn1  1  0.13650199  0.50569307  0.47833226  1.0
  H  H2  1  0.98407937  0.36793476  0.14042227  1.0
  H  H3  1  0.60771352  0.29905294  0.80013789  1.0
  H  H4  1  0.60274037  0.53070312  0.18724266  1.0
  H  H5  1  0.00461091  0.57054446  0.85767108  1.0
  H  H6  1  0.11629802  0.58163463  0.05961144  1.0
  H  H7  1  0.35563919  0.36543055  0.72631632  1.0
  H  H8  1  0.24349488  0.89743387  0.54588156  1.0
  H  H9  1  0.23896722  0.12501126  0.54846524  1.0
  H  H10  1  0.76852506  0.11073886  0.44301322  1.0
  H  H11  1  0.77223862  0.88294981  0.44462550  1.0
  H  H12  1  0.35009321  0.33596173  0.41359004  1.0
  H  H13  1  0.62897585  0.33588232  0.44943025  1.0
  H  H14  1  0.38256982  0.67670764  0.55853376  1.0
  H  H15  1  0.70357999  0.86421511  0.64977742  1.0
  H  H16  1  0.33601802  0.59134841  0.29720041  1.0
  C  C17  1  0.01006703  0.74131875  0.49695846  1.0
  C  C18  1  0.12557943  0.49592620  0.70816493  1.0
  C  C19  1  0.00200754  0.26668149  0.49576036  1.0
  C  C20  1  0.87948111  0.48784370  0.28970976  1.0
  C  C21  1  0.79059415  0.35699870  0.00453161  1.0
  C  C22  1  0.79846709  0.45332895  0.17471981  1.0
  C  C23  1  0.11588889  0.54023354  0.89466583  1.0
  C  C24  1  0.17956724  0.54782708  0.00715816  1.0
  C  C25  1  0.32247120  0.51015663  0.05484000  1.0
  C  C26  1  0.40986713  0.46633557  0.98918259  1.0
  C  C27  1  0.33997563  0.45091198  0.87524860  1.0
  C  C28  1  0.56596799  0.44085227  0.02979298  1.0
  C  C29  1  0.63872132  0.38142030  0.95992156  1.0
  C  C30  1  0.55568139  0.34944828  0.85148445  1.0
  C  C31  1  0.41502370  0.38669557  0.81051527  1.0
  C  C32  1  0.65034547  0.47842613  0.13429094  1.0
  C  C33  1  0.86890197  0.39013773  0.10943125  1.0
  C  C34  1  0.19496481  0.49267924  0.82888302  1.0
  C  C35  1  0.13984870  0.94477932  0.52399602  1.0
  C  C36  1  0.13752498  0.07098313  0.52504220  1.0
  C  C37  1  0.00360328  0.13094224  0.49615066  1.0
  C  C38  1  0.87183002  0.06301992  0.46682451  1.0
  C  C39  1  0.87393016  0.93674879  0.46738446  1.0
  C  C40  1  0.00806596  0.87701271  0.49580838  1.0
  C  C41  1  0.42055433  0.41074968  0.45485528  1.0
  C  C42  1  0.57286637  0.40944617  0.47679258  1.0
  C  C43  1  0.59173660  0.59652916  0.56264996  1.0
  C  C44  1  0.43959993  0.60038106  0.53648330  1.0
  C  C45  1  0.68533519  0.69315411  0.63459613  1.0
  C  C46  1  0.36022964  0.50224817  0.17589985  1.0
  N  N47  1  0.65686467  0.50125854  0.53066105  1.0
  N  N48  1  0.35585237  0.50710730  0.48339338  1.0
  N  N49  1  0.87551099  0.29410275  0.94096484  1.0
  O  O50  1  0.90655252  0.68675831  0.52438210  1.0
  O  O51  1  0.11507539  0.69058548  0.47110648  1.0
  O  O52  1  0.98872547  0.47246346  0.67503390  1.0
  O  O53  1  0.20692459  0.52689415  0.64829798  1.0
  O  O54  1  0.88016671  0.31767429  0.48682539  1.0
  O  O55  1  0.12398801  0.32244907  0.50417727  1.0
  O  O56  1  0.80219967  0.52074620  0.35090754  1.0
  O  O57  1  0.01888549  0.47834906  0.31865401  1.0
  O  O58  1  0.78343210  0.67101335  0.71575869  1.0
  O  O59  1  0.63820925  0.80556339  0.60040533  1.0
  O  O60  1  0.97840850  0.23111216  0.99276011  1.0
  O  O61  1  0.84219760  0.30875956  0.84070141  1.0
  O  O62  1  0.40158239  0.41089723  0.22937503  1.0
  O  O63  1  0.33045667  0.60741622  0.22080587  1.0
