# generated using pymatgen
data_Zn8H23C52Br5O32
_symmetry_space_group_name_H-M   'P 1'
_cell_length_a   18.45983148
_cell_length_b   18.52782318
_cell_length_c   18.55906197
_cell_angle_alpha   60.73401217
_cell_angle_beta   60.41304381
_cell_angle_gamma   60.35751720
_symmetry_Int_Tables_number   1
_chemical_formula_structural   Zn8H23C52Br5O32
_chemical_formula_sum   'Zn8 H23 C52 Br5 O32'
_cell_volume   4539.17675097
_cell_formula_units_Z   1
loop_
 _symmetry_equiv_pos_site_id
 _symmetry_equiv_pos_as_xyz
  1  'x, y, z'
loop_
 _atom_site_type_symbol
 _atom_site_label
 _atom_site_symmetry_multiplicity
 _atom_site_fract_x
 _atom_site_fract_y
 _atom_site_fract_z
 _atom_site_occupancy
  Zn  Zn0  1  0.54439316  0.04987089  0.86657975  1.0
  Zn  Zn1  1  0.54761571  0.87497950  0.03667175  1.0
  Zn  Zn2  1  0.37440776  0.04893337  0.04001680  1.0
  Zn  Zn3  1  0.54618907  0.04742869  0.04001401  1.0
  Zn  Zn4  1  0.94933776  0.46618834  0.63256417  1.0
  Zn  Zn5  1  0.12830461  0.45492718  0.46679001  1.0
  Zn  Zn6  1  0.95459862  0.62701158  0.45245687  1.0
  Zn  Zn7  1  0.96024211  0.44644922  0.46473206  1.0
  H  H8  1  0.24455234  0.27746675  0.67693389  1.0
  H  H9  1  0.70252561  0.85082104  0.21713893  1.0
  H  H10  1  0.25041138  0.66574529  0.34033776  1.0
  H  H11  1  0.82838774  0.80059831  0.60289629  1.0
  H  H12  1  0.70375856  0.74257346  0.83398120  1.0
  H  H13  1  0.58015488  0.50982515  0.81683622  1.0
  H  H14  1  0.73279192  0.45527755  0.72657243  1.0
  H  H15  1  0.98258786  0.21190959  0.60718513  1.0
  H  H16  1  0.79195285  0.02398767  0.78486657  1.0
  H  H17  1  0.64389970  0.74834709  0.36239157  1.0
  H  H18  1  0.06227249  0.76964987  0.24834613  1.0
  H  H19  1  0.19001020  0.22260207  0.91305389  1.0
  H  H20  1  0.62223466  0.74429128  0.75856139  1.0
  H  H21  1  0.64132386  0.98630971  0.66566528  1.0
  H  H22  1  0.43902730  0.49221019  0.91571020  1.0
  H  H23  1  0.09092420  0.99139988  0.58490963  1.0
  H  H24  1  0.34193979  0.24423975  0.73587914  1.0
  H  H25  1  0.10170074  0.29232601  0.30092339  1.0
  H  H26  1  0.27274483  0.28875619  0.29610799  1.0
  H  H27  1  0.19958600  0.17925718  0.22765413  1.0
  H  H28  1  0.34741303  0.25013024  0.16772382  1.0
  H  H29  1  0.73337550  0.69752822  0.16929874  1.0
  H  H30  1  0.54447170  0.26410599  0.90303893  1.0
  C  C31  1  0.63603407  0.86786796  0.13667294  1.0
  C  C32  1  0.97279089  0.08933144  0.64263579  1.0
  C  C33  1  0.91738815  0.03596368  0.69390721  1.0
  C  C34  1  0.36489369  0.15671624  0.86071636  1.0
  C  C35  1  0.83280660  0.06584180  0.74708254  1.0
  C  C36  1  0.15801474  0.30671182  0.79255588  1.0
  C  C37  1  0.17877590  0.31750816  0.70783688  1.0
  C  C38  1  0.21897977  0.24678219  0.84184359  1.0
  C  C39  1  0.30779394  0.22065000  0.80603169  1.0
  C  C40  1  0.17315990  0.27537410  0.28036290  1.0
  C  C41  1  0.20256624  0.30615538  0.30980567  1.0
  C  C42  1  0.69282076  0.41263864  0.76374903  1.0
  C  C43  1  0.22897606  0.21854619  0.22679763  1.0
  C  C44  1  0.31394202  0.21080730  0.17544282  1.0
  C  C45  1  0.79967694  0.67516519  0.25208464  1.0
  C  C46  1  0.63595008  0.86938110  0.85506388  1.0
  C  C47  1  0.78646129  0.67317038  0.33161849  1.0
  C  C48  1  0.73926600  0.72863009  0.20238998  1.0
  C  C49  1  0.69453083  0.81485621  0.19089118  1.0
  C  C50  1  0.17490435  0.77170833  0.26064865  1.0
  C  C51  1  0.19083945  0.69300677  0.32373357  1.0
  C  C52  1  0.23335655  0.82378906  0.22048516  1.0
  C  C53  1  0.73032885  0.32566289  0.75952003  1.0
  C  C54  1  0.30991216  0.81500771  0.15380542  1.0
  C  C55  1  0.77245186  0.78298289  0.65925095  1.0
  C  C56  1  0.76032176  0.70924234  0.67476878  1.0
  C  C57  1  0.71821961  0.84257421  0.71015826  1.0
  C  C58  1  0.36820050  0.14764101  0.12677558  1.0
  C  C59  1  0.68704226  0.81301429  0.79893116  1.0
  C  C60  1  0.14203980  0.36250401  0.36567576  1.0
  C  C61  1  0.83338236  0.64886719  0.62359739  1.0
  C  C62  1  0.12564977  0.37571863  0.64930126  1.0
  C  C63  1  0.85728494  0.61972767  0.37348747  1.0
  C  C64  1  0.67594487  0.26989914  0.81121605  1.0
  C  C65  1  0.13450356  0.63643662  0.37416805  1.0
  C  C66  1  0.87260476  0.35121814  0.64736787  1.0
  C  C67  1  0.36804256  0.86933741  0.11240640  1.0
  C  C68  1  0.65261317  0.12851023  0.86116354  1.0
  C  C69  1  0.58749984  0.30401593  0.86328016  1.0
  C  C70  1  0.55331376  0.38863033  0.86501020  1.0
  C  C71  1  0.60707340  0.44317698  0.81480508  1.0
  C  C72  1  0.70001976  0.71761805  0.38701825  1.0
  C  C73  1  0.10200199  0.81121909  0.22413534  1.0
  C  C74  1  0.67731838  0.68931406  0.73458370  1.0
  C  C75  1  0.81692467  0.29292379  0.70504816  1.0
  C  C76  1  0.70926402  0.93809058  0.65677583  1.0
  C  C77  1  0.46051494  0.42295821  0.91895049  1.0
  C  C78  1  0.06521461  0.06000020  0.58445722  1.0
  C  C79  1  0.85131732  0.20748320  0.70056087  1.0
  C  C80  1  0.79695824  0.15201815  0.75246578  1.0
  C  C81  1  0.71071457  0.18444905  0.80681155  1.0
  C  C82  1  0.93876350  0.17283301  0.64726807  1.0
  Br  Br83  1  0.95928477  0.92074844  0.68913653  1.0
  Br  Br84  1  0.90899970  0.60385687  0.19175823  1.0
  Br  Br85  1  0.18797837  0.90885647  0.27494514  1.0
  Br  Br86  1  0.35319456  0.72730638  0.10335577  1.0
  Br  Br87  1  0.04721913  0.36741528  0.86051925  1.0
  O  O88  1  0.50462600  0.00350304  0.99473813  1.0
  O  O89  1  0.89646524  0.66258856  0.36933388  1.0
  O  O90  1  0.17493786  0.55429395  0.40103740  1.0
  O  O91  1  0.60416609  0.95007187  0.12505010  1.0
  O  O92  1  0.89573224  0.36832574  0.56534729  1.0
  O  O93  1  0.05161008  0.67473508  0.38767168  1.0
  O  O94  1  0.89137291  0.37841937  0.68504783  1.0
  O  O95  1  0.04333291  0.41494133  0.68136705  1.0
  O  O96  1  0.86898636  0.53827069  0.41029517  1.0
  O  O97  1  0.17905674  0.38566678  0.39005002  1.0
  O  O98  1  0.86724192  0.68417131  0.54179271  1.0
  O  O99  1  0.61790310  0.95236391  0.81725434  1.0
  O  O100  1  0.44749858  0.12805242  0.81863128  1.0
  O  O101  1  0.61476010  0.82888819  0.93731239  1.0
  O  O102  1  0.33066567  0.10612998  0.12512904  1.0
  O  O103  1  0.44907015  0.82763067  0.10563712  1.0
  O  O104  1  0.63673017  0.09980178  0.94341589  1.0
  O  O105  1  0.33010238  0.95183004  0.08762102  1.0
  O  O106  1  0.62391225  0.11587567  0.81989069  1.0
  O  O107  1  0.68947007  0.71817231  0.45741761  1.0
  O  O108  1  0.08879720  0.88393924  0.16901841  1.0
  O  O109  1  0.66503615  0.62220267  0.75293806  1.0
  O  O110  1  0.45066366  0.13857012  0.09028785  1.0
  O  O111  1  0.77450372  0.95916325  0.60431638  1.0
  O  O112  1  0.40891174  0.38157005  0.96432864  1.0
  O  O113  1  0.11168594  0.10680607  0.53822753  1.0
  O  O114  1  0.62325010  0.82800052  0.10619987  1.0
  O  O115  1  0.32821099  0.13540777  0.94364737  1.0
  O  O116  1  0.99818072  0.49930885  0.50415207  1.0
  O  O117  1  0.05876550  0.38359925  0.38525281  1.0
  O  O118  1  0.85595426  0.56821175  0.66866164  1.0
  O  O119  1  0.16898827  0.38092945  0.56854287  1.0
