# generated using pymatgen
data_YH3(C3O2)3
_symmetry_space_group_name_H-M   'P 1'
_cell_length_a   10.32805689
_cell_length_b   10.32802349
_cell_length_c   14.17579880
_cell_angle_alpha   90.00016317
_cell_angle_beta   90.00001520
_cell_angle_gamma   89.99893290
_symmetry_Int_Tables_number   1
_chemical_formula_structural   YH3(C3O2)3
_chemical_formula_sum   'Y4 H12 C36 O24'
_cell_volume   1512.10997726
_cell_formula_units_Z   4
loop_
 _symmetry_equiv_pos_site_id
 _symmetry_equiv_pos_as_xyz
  1  'x, y, z'
loop_
 _atom_site_type_symbol
 _atom_site_label
 _atom_site_symmetry_multiplicity
 _atom_site_fract_x
 _atom_site_fract_y
 _atom_site_fract_z
 _atom_site_occupancy
  Y  Y0  1  0.37019314  0.37019438  0.12499886  1.0
  Y  Y1  1  0.62980790  0.62980506  0.62499920  1.0
  Y  Y2  1  0.37018795  0.62981281  0.87500061  1.0
  Y  Y3  1  0.62981414  0.37018858  0.37499962  1.0
  H  H4  1  0.42386380  0.03510611  0.89166925  1.0
  H  H5  1  0.57613636  0.96489632  0.39167300  1.0
  H  H6  1  0.03510408  0.57613240  0.64166693  1.0
  H  H7  1  0.96489793  0.42386614  0.14166894  1.0
  H  H8  1  0.42386565  0.96489718  0.10833587  1.0
  H  H9  1  0.57612860  0.03510123  0.60832862  1.0
  H  H10  1  0.03510642  0.42385973  0.35833107  1.0
  H  H11  1  0.96489373  0.57613676  0.85833065  1.0
  H  H12  1  0.50000349  0.39566007  0.74999931  1.0
  H  H13  1  0.49999855  0.60433986  0.25000230  1.0
  H  H14  1  0.39566146  0.50000191  0.50000080  1.0
  H  H15  1  0.60434069  0.50000095  0.99999874  1.0
  C  C16  1  0.45846681  0.22348246  0.83009409  1.0
  C  C17  1  0.45713577  0.08799963  0.82974758  1.0
  C  C18  1  0.41932323  0.29873844  0.91510524  1.0
  C  C19  1  0.54153334  0.77651972  0.33009603  1.0
  C  C20  1  0.54286146  0.91200256  0.32975192  1.0
  C  C21  1  0.58068082  0.70126408  0.41510563  1.0
  C  C22  1  0.22347865  0.54153630  0.58009366  1.0
  C  C23  1  0.08799720  0.54285824  0.57974799  1.0
  C  C24  1  0.29873059  0.58068459  0.66510550  1.0
  C  C25  1  0.77652334  0.45846296  0.08009429  1.0
  C  C26  1  0.91200479  0.45714199  0.07974865  1.0
  C  C27  1  0.70126852  0.41931501  0.16510321  1.0
  C  C28  1  0.45846250  0.77652212  0.16990822  1.0
  C  C29  1  0.45713960  0.91200498  0.17025543  1.0
  C  C30  1  0.41931352  0.70126978  0.08489706  1.0
  C  C31  1  0.54153371  0.22347556  0.66990418  1.0
  C  C32  1  0.54285468  0.08799368  0.67025040  1.0
  C  C33  1  0.58068460  0.29872757  0.58489388  1.0
  C  C34  1  0.22348326  0.45846975  0.41990437  1.0
  C  C35  1  0.08800087  0.45713581  0.42025143  1.0
  C  C36  1  0.29874075  0.41932393  0.33489466  1.0
  C  C37  1  0.77651885  0.54153182  0.91990525  1.0
  C  C38  1  0.91200124  0.54286286  0.92025163  1.0
  C  C39  1  0.70126230  0.58067827  0.83489491  1.0
  C  C40  1  0.50000060  0.29037855  0.74999779  1.0
  C  C41  1  0.49999150  0.02059992  0.74999892  1.0
  C  C42  1  0.49998837  0.87557765  0.74999839  1.0
  C  C43  1  0.49999661  0.70962235  0.25000171  1.0
  C  C44  1  0.50000281  0.97940001  0.25000339  1.0
  C  C45  1  0.50000593  0.12442229  0.25000040  1.0
  C  C46  1  0.29037931  0.50000676  0.50000008  1.0
  C  C47  1  0.02060349  0.49999281  0.49999935  1.0
  C  C48  1  0.87558135  0.49999260  0.49999943  1.0
  C  C49  1  0.70962283  0.49999706  0.99999946  1.0
  C  C50  1  0.97939943  0.50000517  0.00000081  1.0
  C  C51  1  0.12442060  0.50001023  0.00000002  1.0
  O  O52  1  0.40950102  0.24152638  0.99434939  1.0
  O  O53  1  0.40007065  0.42021586  0.90594750  1.0
  O  O54  1  0.58353994  0.81939661  0.69815717  1.0
  O  O55  1  0.59050015  0.75847451  0.49434990  1.0
  O  O56  1  0.59993629  0.57978759  0.40594623  1.0
  O  O57  1  0.41645919  0.18060312  0.19815646  1.0
  O  O58  1  0.24152615  0.59051001  0.74434901  1.0
  O  O59  1  0.42020825  0.59992624  0.65593991  1.0
  O  O60  1  0.81940795  0.41644170  0.44815817  1.0
  O  O61  1  0.75847203  0.40948990  0.24434812  1.0
  O  O62  1  0.57979086  0.40007236  0.15593685  1.0
  O  O63  1  0.18059320  0.58355805  0.94815832  1.0
  O  O64  1  0.40949215  0.75847330  0.00565291  1.0
  O  O65  1  0.40006805  0.57979078  0.09406397  1.0
  O  O66  1  0.58355453  0.18059596  0.30184163  1.0
  O  O67  1  0.59050981  0.24152180  0.50564961  1.0
  O  O68  1  0.59993104  0.42020564  0.59405963  1.0
  O  O69  1  0.41643883  0.81940418  0.80183809  1.0
  O  O70  1  0.24152968  0.40950055  0.25564973  1.0
  O  O71  1  0.42021586  0.40007131  0.34405604  1.0
  O  O72  1  0.81940061  0.58354261  0.55183998  1.0
  O  O73  1  0.75847334  0.59049941  0.75565142  1.0
  O  O74  1  0.57978622  0.59993480  0.84405419  1.0
  O  O75  1  0.18060234  0.41645945  0.05184252  1.0
