# generated using pymatgen
data_FeH2C7N3ClO2
_symmetry_space_group_name_H-M   'P 1'
_cell_length_a   7.94090207
_cell_length_b   22.18419047
_cell_length_c   22.18424308
_cell_angle_alpha   118.60237435
_cell_angle_beta   96.85305375
_cell_angle_gamma   96.85310815
_symmetry_Int_Tables_number   1
_chemical_formula_structural   FeH2C7N3ClO2
_chemical_formula_sum   'Fe6 H12 C42 N18 Cl6 O12'
_cell_volume   3336.07302129
_cell_formula_units_Z   6
loop_
 _symmetry_equiv_pos_site_id
 _symmetry_equiv_pos_as_xyz
  1  'x, y, z'
loop_
 _atom_site_type_symbol
 _atom_site_label
 _atom_site_symmetry_multiplicity
 _atom_site_fract_x
 _atom_site_fract_y
 _atom_site_fract_z
 _atom_site_occupancy
  Fe  Fe0  1  0.19886730  0.39773466  0.69887089  1.0
  Fe  Fe1  1  0.80113326  0.30113012  0.60226672  1.0
  Fe  Fe2  1  0.50000078  0.30114609  0.69885424  1.0
  Fe  Fe3  1  0.80113360  0.60226633  0.30112986  1.0
  Fe  Fe4  1  0.19886712  0.69886983  0.39773305  1.0
  Fe  Fe5  1  0.49999960  0.69885386  0.30114643  1.0
  H  H6  1  0.24121155  0.48634043  0.60806914  1.0
  H  H7  1  0.75878672  0.39193041  0.51365925  1.0
  H  H8  1  0.63319963  0.39191619  0.87828776  1.0
  H  H9  1  0.75485387  0.12172675  0.51361680  1.0
  H  H10  1  0.24514419  0.48638392  0.87827410  1.0
  H  H11  1  0.36680064  0.12171200  0.60808327  1.0
  H  H12  1  0.75878576  0.51365847  0.39193136  1.0
  H  H13  1  0.24121059  0.60806849  0.48634080  1.0
  H  H14  1  0.36680048  0.60808324  0.12171221  1.0
  H  H15  1  0.24514677  0.87827372  0.48638324  1.0
  H  H16  1  0.75485418  0.51361708  0.12172564  1.0
  H  H17  1  0.63320227  0.87828795  0.39191617  1.0
  C  C18  1  0.42729994  0.42002368  0.60633235  1.0
  C  C19  1  0.57269859  0.39366761  0.57997629  1.0
  C  C20  1  0.82102140  0.39364607  0.81370484  1.0
  C  C21  1  0.00726516  0.18629027  0.57995004  1.0
  C  C22  1  0.99273438  0.42005006  0.81371053  1.0
  C  C23  1  0.17897919  0.18629584  0.60635357  1.0
  C  C24  1  0.57269890  0.57997574  0.39366801  1.0
  C  C25  1  0.42730051  0.60633235  0.42002433  1.0
  C  C26  1  0.17897898  0.60635388  0.18629538  1.0
  C  C27  1  0.99273548  0.81371021  0.42005000  1.0
  C  C28  1  0.00726499  0.57995042  0.18628946  1.0
  C  C29  1  0.82102272  0.81370463  0.39364607  1.0
  C  C30  1  0.35274086  0.46529184  0.58879541  1.0
  C  C31  1  0.64725652  0.41120394  0.53470750  1.0
  C  C32  1  0.76401445  0.41115903  0.87650624  1.0
  C  C33  1  0.88741299  0.12348613  0.53465625  1.0
  C  C34  1  0.11258702  0.46534367  0.87651460  1.0
  C  C35  1  0.23598567  0.12349415  0.58884017  1.0
  C  C36  1  0.64725646  0.53470706  0.41120464  1.0
  C  C37  1  0.35274106  0.58879549  0.46529280  1.0
  C  C38  1  0.23598593  0.58884092  0.12349354  1.0
  C  C39  1  0.11258765  0.87651435  0.46534333  1.0
  C  C40  1  0.88741262  0.53465732  0.12348564  1.0
  C  C41  1  0.76401651  0.87650685  0.41115883  1.0
  C  C42  1  0.42719362  0.48235009  0.54437427  1.0
  C  C43  1  0.57280428  0.45562543  0.51764993  1.0
  C  C44  1  0.88290874  0.45560386  0.93797793  1.0
  C  C45  1  0.94479828  0.06200666  0.51761786  1.0
  C  C46  1  0.05520229  0.48238158  0.93799371  1.0
  C  C47  1  0.11709078  0.06202215  0.54439552  1.0
  C  C48  1  0.57280496  0.51764881  0.45562583  1.0
  C  C49  1  0.42719356  0.54437452  0.48235109  1.0
  C  C50  1  0.11709011  0.54439557  0.06202198  1.0
  C  C51  1  0.05520236  0.93799381  0.48238217  1.0
  C  C52  1  0.94479835  0.51761890  0.06200678  1.0
  C  C53  1  0.88291113  0.93797832  0.45560412  1.0
  C  C54  1  0.24481818  0.48964916  0.74485365  1.0
  C  C55  1  0.75518169  0.25514340  0.51034968  1.0
  C  C56  1  0.49999986  0.25519997  0.74479907  1.0
  C  C57  1  0.75518038  0.51034712  0.25514159  1.0
  C  C58  1  0.24481586  0.74485341  0.48964667  1.0
  C  C59  1  0.49999979  0.74480103  0.25519938  1.0
  N  N60  1  0.38618374  0.39279351  0.64767643  1.0
  N  N61  1  0.61381665  0.35232460  0.60720758  1.0
  N  N62  1  0.73853773  0.35231820  0.74512132  1.0
  N  N63  1  0.99338800  0.25487377  0.60718954  1.0
  N  N64  1  0.00661234  0.39281198  0.74512734  1.0
  N  N65  1  0.26146279  0.25487925  0.64768186  1.0
  N  N66  1  0.61381537  0.60720644  0.35232419  1.0
  N  N67  1  0.38618373  0.64767535  0.39279310  1.0
  N  N68  1  0.26146265  0.64768175  0.25487891  1.0
  N  N69  1  0.00661264  0.74512670  0.39281095  1.0
  N  N70  1  0.99338729  0.60718902  0.25487291  1.0
  N  N71  1  0.73853786  0.74512122  0.35231817  1.0
  N  N72  1  0.50000055  0.35297570  0.64702522  1.0
  N  N73  1  0.85298623  0.35298251  0.70595269  1.0
  N  N74  1  0.14701371  0.29404847  0.64701956  1.0
  N  N75  1  0.49999983  0.64702425  0.35297545  1.0
  N  N76  1  0.14701467  0.64701849  0.29404761  1.0
  N  N77  1  0.85298566  0.70595201  0.35298177  1.0
  Cl  Cl78  1  0.38909792  0.38908981  0.77816006  1.0
  Cl  Cl79  1  0.61090278  0.22184072  0.61091109  1.0
  Cl  Cl80  1  0.00000042  0.38907244  0.61092913  1.0
  Cl  Cl81  1  0.61090298  0.61091119  0.22184114  1.0
  Cl  Cl82  1  0.38909759  0.77815923  0.38908959  1.0
  Cl  Cl83  1  0.99999869  0.61092751  0.38907149  1.0
  O  O84  1  0.35448272  0.52650574  0.52650630  1.0
  O  O85  1  0.64551486  0.47349369  0.47349446  1.0
  O  O86  1  0.82797085  0.47345650  0.99998295  1.0
  O  O87  1  0.82797262  0.99998315  0.47345637  1.0
  O  O88  1  0.17202826  0.52654345  0.00001677  1.0
  O  O89  1  0.17202903  0.00001680  0.52654301  1.0
  O  O90  1  0.27531237  0.55070285  0.77541940  1.0
  O  O91  1  0.72469368  0.22457978  0.44930169  1.0
  O  O92  1  0.50000030  0.22467530  0.77532363  1.0
  O  O93  1  0.72469318  0.44930235  0.22457905  1.0
  O  O94  1  0.27530670  0.77542017  0.55069989  1.0
  O  O95  1  0.50000029  0.77532256  0.22467740  1.0
