# generated using pymatgen
data_Er4H36C57(O11F6)3
_symmetry_space_group_name_H-M   'P 1'
_cell_length_a   7.87794356
_cell_length_b   21.28973680
_cell_length_c   22.88966535
_cell_angle_alpha   82.75839039
_cell_angle_beta   82.35157433
_cell_angle_gamma   80.13087405
_symmetry_Int_Tables_number   1
_chemical_formula_structural   Er4H36C57(O11F6)3
_chemical_formula_sum   'Er8 H72 C114 O66 F36'
_cell_volume   3727.56749203
_cell_formula_units_Z   2
loop_
 _symmetry_equiv_pos_site_id
 _symmetry_equiv_pos_as_xyz
  1  'x, y, z'
loop_
 _atom_site_type_symbol
 _atom_site_label
 _atom_site_symmetry_multiplicity
 _atom_site_fract_x
 _atom_site_fract_y
 _atom_site_fract_z
 _atom_site_occupancy
  Er  Er0  1  0.19651136  0.57746417  0.71252893  1.0
  Er  Er1  1  0.61981147  0.52827789  0.56577272  1.0
  Er  Er2  1  0.53133645  0.75269457  0.90314056  1.0
  Er  Er3  1  0.76768294  0.90536668  0.96364160  1.0
  Er  Er4  1  0.80348090  0.42253730  0.28746665  1.0
  Er  Er5  1  0.38019181  0.47171879  0.43423427  1.0
  Er  Er6  1  0.46865550  0.24731074  0.09685895  1.0
  Er  Er7  1  0.23232047  0.09463575  0.03635990  1.0
  H  H8  1  0.49741692  0.58263813  0.77733874  1.0
  H  H9  1  0.37149501  0.53772350  0.81502333  1.0
  H  H10  1  0.99046038  0.54631002  0.83292379  1.0
  H  H11  1  0.07382288  0.60936535  0.83285223  1.0
  H  H12  1  0.80413367  0.59782577  0.74080121  1.0
  H  H13  1  0.85069492  0.54598722  0.69534281  1.0
  H  H14  1  0.92171929  0.57651153  0.59731951  1.0
  H  H15  1  0.00320868  0.53234645  0.54834598  1.0
  H  H16  1  0.15383892  0.73810984  0.94801795  1.0
  H  H17  1  0.18235095  0.73022320  0.87829743  1.0
  H  H18  1  0.89107808  0.69180806  0.89024274  1.0
  H  H19  1  0.86364206  0.69456310  0.95861370  1.0
  H  H20  1  0.55664384  0.63149438  0.86082325  1.0
  H  H21  1  0.39256271  0.63919243  0.90805588  1.0
  H  H22  1  0.09119975  0.96670998  0.94759407  1.0
  H  H23  1  0.12793133  0.89962305  0.91874064  1.0
  H  H24  1  0.61331059  0.04187311  0.92328781  1.0
  H  H25  1  0.81695548  0.04054096  0.91833657  1.0
  H  H26  1  0.43091452  0.36098504  0.75560741  1.0
  H  H27  1  0.45908822  0.28688714  0.55794893  1.0
  H  H28  1  0.55704303  0.20976338  0.64003814  1.0
  H  H29  1  0.63281382  0.23334706  0.87785087  1.0
  H  H30  1  0.00675937  0.25412948  0.85593412  1.0
  H  H31  1  0.21943693  0.25646534  0.76656398  1.0
  H  H32  1  0.67147058  0.71173748  0.56357662  1.0
  H  H33  1  0.67155927  0.81769781  0.74387465  1.0
  H  H34  1  0.77488090  0.87053475  0.64672310  1.0
  H  H35  1  0.02529561  0.73301935  0.58875784  1.0
  H  H36  1  0.01309414  0.68533276  0.38329102  1.0
  H  H37  1  0.84740258  0.78692610  0.41619595  1.0
  H  H38  1  0.35557862  0.90334739  0.78409444  1.0
  H  H39  1  0.16252349  0.12444455  0.83828250  1.0
  H  H40  1  0.09886555  0.09720864  0.74319640  1.0
  H  H41  1  0.96681747  0.93277525  0.79188022  1.0
  H  H42  1  0.24075005  0.75231316  0.67812678  1.0
  H  H43  1  0.30026726  0.86113520  0.64111880  1.0
  H  H44  1  0.50258297  0.41736046  0.22266032  1.0
  H  H45  1  0.62848815  0.46228133  0.18497139  1.0
  H  H46  1  0.00955077  0.45368617  0.16707766  1.0
  H  H47  1  0.92616637  0.39063421  0.16715071  1.0
  H  H48  1  0.19587724  0.40217714  0.25920382  1.0
  H  H49  1  0.14929364  0.45402911  0.30464768  1.0
  H  H50  1  0.07831095  0.42348175  0.40266741  1.0
  H  H51  1  0.99681612  0.46765068  0.45164380  1.0
  H  H52  1  0.84615661  0.26190218  0.05198059  1.0
  H  H53  1  0.81763310  0.26978260  0.12170239  1.0
  H  H54  1  0.10890975  0.30819486  0.10975855  1.0
  H  H55  1  0.13634139  0.30544413  0.04138554  1.0
  H  H56  1  0.44334049  0.36850471  0.13918215  1.0
  H  H57  1  0.60742277  0.36081002  0.09194776  1.0
  H  H58  1  0.90880661  0.03329149  0.05240435  1.0
  H  H59  1  0.87206274  0.10038321  0.08124949  1.0
  H  H60  1  0.38668250  0.95812645  0.07671277  1.0
  H  H61  1  0.18303246  0.95946484  0.08167311  1.0
  H  H62  1  0.56908685  0.63901307  0.24439164  1.0
  H  H63  1  0.54092261  0.71311289  0.44205383  1.0
  H  H64  1  0.44296631  0.79023713  0.35996419  1.0
  H  H65  1  0.36717444  0.76666401  0.12215468  1.0
  H  H66  1  0.99323277  0.74586624  0.14406913  1.0
  H  H67  1  0.78055056  0.74353231  0.23343838  1.0
  H  H68  1  0.32856773  0.28825199  0.43642349  1.0
  H  H69  1  0.32843455  0.18230606  0.25612013  1.0
  H  H70  1  0.22509745  0.12946625  0.35326881  1.0
  H  H71  1  0.97471620  0.26697828  0.41123729  1.0
  H  H72  1  0.98690883  0.31467062  0.61669903  1.0
  H  H73  1  0.15259326  0.21307298  0.58380280  1.0
  H  H74  1  0.64444911  0.09665502  0.21590070  1.0
  H  H75  1  0.83745402  0.87555550  0.16171786  1.0
  H  H76  1  0.90110924  0.90278566  0.25680258  1.0
  H  H77  1  0.03317459  0.06722670  0.20811749  1.0
  H  H78  1  0.75927071  0.24768160  0.32188269  1.0
  H  H79  1  0.69975693  0.13886050  0.35888603  1.0
  C  C80  1  0.56974958  0.23541237  0.75808451  1.0
  C  C81  1  0.50411170  0.27972176  0.70455573  1.0
  C  C82  1  0.44258592  0.34425465  0.71195517  1.0
  C  C83  1  0.39830784  0.38897197  0.66399930  1.0
  C  C84  1  0.40525145  0.36787150  0.60777005  1.0
  C  C85  1  0.45656410  0.30272943  0.60143781  1.0
  C  C86  1  0.51029134  0.25920290  0.64841881  1.0
  C  C87  1  0.34036888  0.45684005  0.67806060  1.0
  C  C88  1  0.37284943  0.41007346  0.55184022  1.0
  C  C89  1  0.44310755  0.24281857  0.81489109  1.0
  C  C90  1  0.49705669  0.23715933  0.87134902  1.0
  C  C91  1  0.37682242  0.23397006  0.92196227  1.0
  C  C92  1  0.19952383  0.23758817  0.91690703  1.0
  C  C93  1  0.14436540  0.24826830  0.86051692  1.0
  C  C94  1  0.26474863  0.25005371  0.81019408  1.0
  C  C95  1  0.43315772  0.22744400  0.98211883  1.0
  C  C96  1  0.07157015  0.22828841  0.97123007  1.0
  C  C97  1  0.75208228  0.25122858  0.76456642  1.0
  C  C98  1  0.59260081  0.16316870  0.74753375  1.0
  C  C99  1  0.80056320  0.82191724  0.53448082  1.0
  C  C100  1  0.73090210  0.79543411  0.59734282  1.0
  C  C101  1  0.67138308  0.73625311  0.60258563  1.0
  C  C102  1  0.61522214  0.70629255  0.65758883  1.0
  C  C103  1  0.61635280  0.73551661  0.70924228  1.0
  C  C104  1  0.67082366  0.79526821  0.70380526  1.0
  C  C105  1  0.72948356  0.82483437  0.64863779  1.0
  C  C106  1  0.54391476  0.64531629  0.65840442  1.0
  C  C107  1  0.57159030  0.70345571  0.76995550  1.0
  C  C108  1  0.92003970  0.76646553  0.50562077  1.0
  C  C109  1  0.02305640  0.72373843  0.54317693  1.0
  C  C110  1  0.11575663  0.66666667  0.52479337  1.0
  C  C111  1  0.10812247  0.65224070  0.46699153  1.0
  C  C112  1  0.01716111  0.69710901  0.42797365  1.0
  C  C113  1  0.92292572  0.75404873  0.44693162  1.0
  C  C114  1  0.21800818  0.62294221  0.56901946  1.0
  C  C115  1  0.18007117  0.58693678  0.45030629  1.0
  C  C116  1  0.63965029  0.84885037  0.50087875  1.0
  C  C117  1  0.90927344  0.87667484  0.53390103  1.0
  C  C118  1  0.17886721  0.97496864  0.69969808  1.0
  C  C119  1  0.22084506  0.99784235  0.75649023  1.0
  C  C120  1  0.31440446  0.95249768  0.79459579  1.0
  C  C121  1  0.34927420  0.96745751  0.84885211  1.0
  C  C122  1  0.29443094  0.02993861  0.86478121  1.0
  C  C123  1  0.20684480  0.07609194  0.82579911  1.0
  C  C124  1  0.16990031  0.06031858  0.77203097  1.0
  C  C125  1  0.42969797  0.91505738  0.89128751  1.0
  C  C126  1  0.29417443  0.04591379  0.92654107  1.0
  C  C127  1  0.14072806  0.90573466  0.71429690  1.0
  C  C128  1  0.02792796  0.89396460  0.76576853  1.0
  C  C129  1  0.99197713  0.83268160  0.78626889  1.0
  C  C130  1  0.07239243  0.78058384  0.75493787  1.0
  C  C131  1  0.17916650  0.79274415  0.70224124  1.0
  C  C132  1  0.21372256  0.85446422  0.68181118  1.0
  C  C133  1  0.85786999  0.82775993  0.83878613  1.0
  C  C134  1  0.06197489  0.71174936  0.77672165  1.0
  C  C135  1  0.33900654  0.98175768  0.65302380  1.0
  C  C136  1  0.01481833  0.01593952  0.67515152  1.0
  C  C137  1  0.43024655  0.76458911  0.24191918  1.0
  C  C138  1  0.49588180  0.72027684  0.29544799  1.0
  C  C139  1  0.55741308  0.65574299  0.28804274  1.0
  C  C140  1  0.60168228  0.61102855  0.33600217  1.0
  C  C141  1  0.59474984  0.63212373  0.39222716  1.0
  C  C142  1  0.54344336  0.69727252  0.39856575  1.0
  C  C143  1  0.48970337  0.74079283  0.35158520  1.0
  C  C144  1  0.65961010  0.54315952  0.32193844  1.0
  C  C145  1  0.62717096  0.58992512  0.44815877  1.0
  C  C146  1  0.55688629  0.75718531  0.18511199  1.0
  C  C147  1  0.50292859  0.76284359  0.12865500  1.0
  C  C148  1  0.62316561  0.76603237  0.07803732  1.0
  C  C149  1  0.80046595  0.76241618  0.08309269  1.0
  C  C150  1  0.85562741  0.75172886  0.13948526  1.0
  C  C151  1  0.73524804  0.74994345  0.18981054  1.0
  C  C152  1  0.56683077  0.77256035  0.01787745  1.0
  C  C153  1  0.92841203  0.77171883  0.02877185  1.0
  C  C154  1  0.24790457  0.74877674  0.23544205  1.0
  C  C155  1  0.40740599  0.83683182  0.25247393  1.0
  C  C156  1  0.19945515  0.17807702  0.46551659  1.0
  C  C157  1  0.26911409  0.20455920  0.40265436  1.0
  C  C158  1  0.32864526  0.26373876  0.39741465  1.0
  C  C159  1  0.38478565  0.29370557  0.34241341  1.0
  C  C160  1  0.38365652  0.26448389  0.29075481  1.0
  C  C161  1  0.32918586  0.20473181  0.29619013  1.0
  C  C162  1  0.27052204  0.17516278  0.35135506  1.0
  C  C163  1  0.45608452  0.35468375  0.34159537  1.0
  C  C164  1  0.42842152  0.29654191  0.23004181  1.0
  C  C165  1  0.07996866  0.23353114  0.49437419  1.0
  C  C166  1  0.97696539  0.27625679  0.45681845  1.0
  C  C167  1  0.88424856  0.33333333  0.47519982  1.0
  C  C168  1  0.89188232  0.34775837  0.53300331  1.0
  C  C169  1  0.98283920  0.30289148  0.57201162  1.0
  C  C170  1  0.07709277  0.24594218  0.55306662  1.0
  C  C171  1  0.78199565  0.37705302  0.43097370  1.0
  C  C172  1  0.81993214  0.41306276  0.54968901  1.0
  C  C173  1  0.36036046  0.15114678  0.49912260  1.0
  C  C174  1  0.09073913  0.12331800  0.46610074  1.0
  C  C175  1  0.82112392  0.02502948  0.30030363  1.0
  C  C176  1  0.77914033  0.00215722  0.24350938  1.0
  C  C177  1  0.68559542  0.04750091  0.20540284  1.0
  C  C178  1  0.65071996  0.03254253  0.15114835  1.0
  C  C179  1  0.70555324  0.97006383  0.13521943  1.0
  C  C180  1  0.79313210  0.92390955  0.17420068  1.0
  C  C181  1  0.83008609  0.93967858  0.22796845  1.0
  C  C182  1  0.57030611  0.08494649  0.10871247  1.0
  C  C183  1  0.70581535  0.95409056  0.07345733  1.0
  C  C184  1  0.85927352  0.09426298  0.28570307  1.0
  C  C185  1  0.97207086  0.10603352  0.23423369  1.0
  C  C186  1  0.00803054  0.16731987  0.21373602  1.0
  C  C187  1  0.92762224  0.21941618  0.24506514  1.0
  C  C188  1  0.82085177  0.20725348  0.29776801  1.0
  C  C189  1  0.78629529  0.14553437  0.31819448  1.0
  C  C190  1  0.14212533  0.17224347  0.16121476  1.0
  C  C191  1  0.93803211  0.28825068  0.22328477  1.0
  C  C192  1  0.66098109  0.01824572  0.34697919  1.0
  C  C193  1  0.98517291  0.98405524  0.32484446  1.0
  O  O194  1  0.21337624  0.46725136  0.71847049  1.0
  O  O195  1  0.41671372  0.50338639  0.65301758  1.0
  O  O196  1  0.43648422  0.46244207  0.54105220  1.0
  O  O197  1  0.29623094  0.39196346  0.51323308  1.0
  O  O198  1  0.35428616  0.19332256  0.02450585  1.0
  O  O199  1  0.54799621  0.25792527  0.99345606  1.0
  O  O200  1  0.04732216  0.17046442  0.98757629  1.0
  O  O201  1  0.99680285  0.27652822  0.99665798  1.0
  O  O202  1  0.39088804  0.64443967  0.68401739  1.0
  O  O203  1  0.63792282  0.60038686  0.63238874  1.0
  O  O204  1  0.49109770  0.73856704  0.80883139  1.0
  O  O205  1  0.62168542  0.64260806  0.78126533  1.0
  O  O206  1  0.13304240  0.60922113  0.61977255  1.0
  O  O207  1  0.37725579  0.60563604  0.55510048  1.0
  O  O208  1  0.25226694  0.57751233  0.39851491  1.0
  O  O209  1  0.17024228  0.53981499  0.49120888  1.0
  O  O210  1  0.41507556  0.85774885  0.88454945  1.0
  O  O211  1  0.50008313  0.93153316  0.93263769  1.0
  O  O212  1  0.40055197  0.07866639  0.94109297  1.0
  O  O213  1  0.16974492  0.03001462  0.96436853  1.0
  O  O214  1  0.75569888  0.78745028  0.84048155  1.0
  O  O215  1  0.84907210  0.86700048  0.87701579  1.0
  O  O216  1  0.05480976  0.67477792  0.73813555  1.0
  O  O217  1  0.07141167  0.69188726  0.83187388  1.0
  O  O218  1  0.42451426  0.54948570  0.77503033  1.0
  O  O219  1  0.09819868  0.56379355  0.82295147  1.0
  O  O220  1  0.89843388  0.56469604  0.72511583  1.0
  O  O221  1  0.90846773  0.53712388  0.58168403  1.0
  O  O222  1  0.23962809  0.74061373  0.91115028  1.0
  O  O223  1  0.80364884  0.68749815  0.92520492  1.0
  O  O224  1  0.51811135  0.63773169  0.90329924  1.0
  O  O225  1  0.03786995  0.93400575  0.93169598  1.0
  O  O226  1  0.72829864  0.01400052  0.91802680  1.0
  O  O227  1  0.78661786  0.53274581  0.28153250  1.0
  O  O228  1  0.58325015  0.49661558  0.34697881  1.0
  O  O229  1  0.56353551  0.53755508  0.45895048  1.0
  O  O230  1  0.70380182  0.60803606  0.48675648  1.0
  O  O231  1  0.64570752  0.80667556  0.97549181  1.0
  O  O232  1  0.45198603  0.74208484  0.00654332  1.0
  O  O233  1  0.95266452  0.82953514  0.01242414  1.0
  O  O234  1  0.00318856  0.72347230  0.00334387  1.0
  O  O235  1  0.60912411  0.35555413  0.31598298  1.0
  O  O236  1  0.36207630  0.39961652  0.36760367  1.0
  O  O237  1  0.50890407  0.26143011  0.19116732  1.0
  O  O238  1  0.37832429  0.35739148  0.21872749  1.0
  O  O239  1  0.86696549  0.39077362  0.38022135  1.0
  O  O240  1  0.62274103  0.39436063  0.44489108  1.0
  O  O241  1  0.74772573  0.42248818  0.60148207  1.0
  O  O242  1  0.82978169  0.46018120  0.50879241  1.0
  O  O243  1  0.58492608  0.14225166  0.11544930  1.0
  O  O244  1  0.49992673  0.06846303  0.06736076  1.0
  O  O245  1  0.59943713  0.92133652  0.05890521  1.0
  O  O246  1  0.83024763  0.96998925  0.03562981  1.0
  O  O247  1  0.24427566  0.21255983  0.15951383  1.0
  O  O248  1  0.15092787  0.13300100  0.12298642  1.0
  O  O249  1  0.94522961  0.32521826  0.26187376  1.0
  O  O250  1  0.92856366  0.30811808  0.16813688  1.0
  O  O251  1  0.57548137  0.45051386  0.22496706  1.0
  O  O252  1  0.90180256  0.43620792  0.17704850  1.0
  O  O253  1  0.10156850  0.43530878  0.27487845  1.0
  O  O254  1  0.09156354  0.46286702  0.41830750  1.0
  O  O255  1  0.76036513  0.25939158  0.08884873  1.0
  O  O256  1  0.19633522  0.31250764  0.07479490  1.0
  O  O257  1  0.48187582  0.36226980  0.09670444  1.0
  O  O258  1  0.96212879  0.06599860  0.06830114  1.0
  O  O259  1  0.27170112  0.98600143  0.08197361  1.0
  F  F260  1  0.85282396  0.25618425  0.71178735  1.0
  F  F261  1  0.84425010  0.20510264  0.80075813  1.0
  F  F262  1  0.73919167  0.30768011  0.78804779  1.0
  F  F263  1  0.72494698  0.14715736  0.70475528  1.0
  F  F264  1  0.44558814  0.14921916  0.73035527  1.0
  F  F265  1  0.62580064  0.12332349  0.79739735  1.0
  F  F266  1  0.55403062  0.80083081  0.49181046  1.0
  F  F267  1  0.52312071  0.89016919  0.53229166  1.0
  F  F268  1  0.68089742  0.88036473  0.44685624  1.0
  F  F269  1  0.98970139  0.89167097  0.47891302  1.0
  F  F270  1  0.81269156  0.93164482  0.55188306  1.0
  F  F271  1  0.03638003  0.85802179  0.57043968  1.0
  F  F272  1  0.38756559  0.04032172  0.65074798  1.0
  F  F273  1  0.47797455  0.93784331  0.66810443  1.0
  F  F274  1  0.31091696  0.97344679  0.59752719  1.0
  F  F275  1  0.03932501  0.07650249  0.65258553  1.0
  F  F276  1  0.87914497  0.02122641  0.71885974  1.0
  F  F277  1  0.96407649  0.98849631  0.63141368  1.0
  F  F278  1  0.14717557  0.74382442  0.28822102  1.0
  F  F279  1  0.15572946  0.79490173  0.19924948  1.0
  F  F280  1  0.26078508  0.69232187  0.21196679  1.0
  F  F281  1  0.27506610  0.85284651  0.29525041  1.0
  F  F282  1  0.55443328  0.85076793  0.26965420  1.0
  F  F283  1  0.37422891  0.87668085  0.20261189  1.0
  F  F284  1  0.44597652  0.19916587  0.50819723  1.0
  F  F285  1  0.47689598  0.10982604  0.46771183  1.0
  F  F286  1  0.31910429  0.11962955  0.55314499  1.0
  F  F287  1  0.01030707  0.10832858  0.52108815  1.0
  F  F288  1  0.18730511  0.06834324  0.44812657  1.0
  F  F289  1  0.96364224  0.14197535  0.42955807  1.0
  F  F290  1  0.61239225  0.95968554  0.34925681  1.0
  F  F291  1  0.52203597  0.06216967  0.33189943  1.0
  F  F292  1  0.68908254  0.02655276  0.40247527  1.0
  F  F293  1  0.96066946  0.92349371  0.34741145  1.0
  F  F294  1  0.12083243  0.97877075  0.28113223  1.0
  F  F295  1  0.03594009  0.01149604  0.36858185  1.0
