# generated using pymatgen
data_ZnH11C21N2Cl3O4
_symmetry_space_group_name_H-M   'P 1'
_cell_length_a   16.54284571
_cell_length_b   17.37090100
_cell_length_c   17.96485363
_cell_angle_alpha   89.69515341
_cell_angle_beta   84.87149972
_cell_angle_gamma   89.09981784
_symmetry_Int_Tables_number   1
_chemical_formula_structural   ZnH11C21N2Cl3O4
_chemical_formula_sum   'Zn2 H22 C42 N4 Cl6 O8'
_cell_volume   5141.11355714
_cell_formula_units_Z   2
loop_
 _symmetry_equiv_pos_site_id
 _symmetry_equiv_pos_as_xyz
  1  'x, y, z'
loop_
 _atom_site_type_symbol
 _atom_site_label
 _atom_site_symmetry_multiplicity
 _atom_site_fract_x
 _atom_site_fract_y
 _atom_site_fract_z
 _atom_site_occupancy
  Zn  Zn0  1  0.41563936  0.49309888  0.50327818  1.0
  Zn  Zn1  1  0.58436672  0.50688988  0.49672295  1.0
  H  H2  1  0.71364440  0.42420896  0.57364163  1.0
  H  H3  1  0.86092827  0.42376892  0.57373065  1.0
  H  H4  1  0.86473966  0.59996165  0.40181744  1.0
  H  H5  1  0.71600556  0.59228116  0.41001040  1.0
  H  H6  1  0.13527216  0.40001043  0.59815713  1.0
  H  H7  1  0.13907859  0.57620948  0.42625377  1.0
  H  H8  1  0.28636045  0.57578037  0.42634624  1.0
  H  H9  1  0.28400661  0.40770588  0.58997465  1.0
  H  H10  1  0.61632699  0.50437953  0.73404733  1.0
  H  H11  1  0.61243929  0.50425966  0.86907310  1.0
  H  H12  1  0.35082627  0.49462525  0.88242511  1.0
  H  H13  1  0.35699017  0.49426178  0.74638571  1.0
  H  H14  1  0.64918507  0.50547407  0.11757002  1.0
  H  H15  1  0.38757381  0.49580972  0.13091702  1.0
  H  H16  1  0.38367872  0.49569559  0.26594171  1.0
  H  H17  1  0.64301775  0.50579262  0.25361048  1.0
  H  H18  1  0.61099856  0.74879103  0.49649333  1.0
  H  H19  1  0.60901558  0.89349135  0.49664322  1.0
  H  H20  1  0.34853354  0.89027750  0.50547289  1.0
  H  H21  1  0.65144916  0.10970889  0.49482966  1.0
  H  H22  1  0.39097076  0.10649217  0.50360617  1.0
  H  H23  1  0.38899377  0.25119309  0.50366649  1.0
  C  C24  1  0.49109157  0.49866693  0.64653970  1.0
  C  C25  1  0.50785532  0.34876225  0.50021977  1.0
  C  C26  1  0.50891833  0.50134487  0.35345877  1.0
  C  C27  1  0.49215082  0.65122650  0.49985706  1.0
  C  C28  1  0.74990608  0.46269148  0.53650337  1.0
  C  C29  1  0.83397019  0.46290701  0.53586492  1.0
  C  C30  1  0.88079223  0.51265952  0.48735526  1.0
  C  C31  1  0.83523002  0.55971016  0.44139237  1.0
  C  C32  1  0.75127066  0.55609120  0.44536928  1.0
  C  C33  1  0.97098316  0.51902289  0.48123961  1.0
  C  C34  1  0.02902814  0.48094457  0.51873002  1.0
  C  C35  1  0.16478238  0.44026364  0.55858382  1.0
  C  C36  1  0.11921841  0.48731083  0.51261998  1.0
  C  C37  1  0.16603968  0.53707312  0.46411702  1.0
  C  C38  1  0.25010062  0.53729556  0.46348491  1.0
  C  C39  1  0.24873678  0.44388892  0.55461286  1.0
  C  C40  1  0.48723229  0.49886647  0.73016668  1.0
  C  C41  1  0.55792708  0.50187486  0.76714549  1.0
  C  C42  1  0.55526395  0.50191358  0.84470290  1.0
  C  C43  1  0.48085059  0.49916784  0.89040892  1.0
  C  C44  1  0.41008350  0.49650378  0.85134639  1.0
  C  C45  1  0.41302087  0.49624217  0.77388535  1.0
  C  C46  1  0.47197591  0.49895786  0.97373338  1.0
  C  C47  1  0.52803922  0.50110058  0.02625885  1.0
  C  C48  1  0.58992499  0.50358574  0.14864791  1.0
  C  C49  1  0.51916421  0.50090788  0.10958326  1.0
  C  C50  1  0.44474606  0.49815867  0.15528857  1.0
  C  C51  1  0.44208292  0.49819797  0.23284710  1.0
  C  C52  1  0.51277261  0.50118677  0.26982810  1.0
  C  C53  1  0.58698733  0.50383008  0.22611295  1.0
  C  C54  1  0.48243586  0.73764275  0.50043249  1.0
  C  C55  1  0.55397628  0.78126523  0.49822297  1.0
  C  C56  1  0.55318457  0.86091450  0.49839728  1.0
  C  C57  1  0.47807005  0.90042005  0.50095204  1.0
  C  C58  1  0.40614615  0.85883390  0.50338231  1.0
  C  C59  1  0.40784022  0.77845913  0.50314681  1.0
  C  C60  1  0.59383774  0.14115249  0.49689455  1.0
  C  C61  1  0.52191811  0.09956578  0.49933894  1.0
  C  C62  1  0.44680054  0.13907017  0.50185721  1.0
  C  C63  1  0.44601667  0.21871946  0.50196797  1.0
  C  C64  1  0.51755157  0.26234366  0.49972160  1.0
  C  C65  1  0.59215082  0.22153131  0.49706040  1.0
  N  N66  1  0.70860588  0.50839575  0.49238733  1.0
  N  N67  1  0.29140505  0.49159302  0.50759948  1.0
  N  N68  1  0.46729837  0.98133113  0.50140383  1.0
  N  N69  1  0.53268861  0.01865412  0.49890617  1.0
  Cl  Cl70  1  0.00477976  0.58708344  0.41456631  1.0
  Cl  Cl71  1  0.99523088  0.41288690  0.58540560  1.0
  Cl  Cl72  1  0.36995232  0.49512662  0.00899259  1.0
  Cl  Cl73  1  0.63006386  0.50494046  0.99100118  1.0
  Cl  Cl74  1  0.31371234  0.73532456  0.50662344  1.0
  Cl  Cl75  1  0.68628301  0.26466013  0.49352834  1.0
  O  O76  1  0.42426894  0.49213979  0.61705598  1.0
  O  O77  1  0.56104060  0.50508442  0.61128804  1.0
  O  O78  1  0.57154010  0.38876170  0.49783290  1.0
  O  O79  1  0.43531096  0.37522854  0.50297935  1.0
  O  O80  1  0.57574917  0.50768835  0.38294442  1.0
  O  O81  1  0.43894052  0.49507471  0.38870985  1.0
  O  O82  1  0.42844755  0.61121664  0.50241307  1.0
  O  O83  1  0.56469247  0.62476655  0.49688226  1.0
