# generated using pymatgen
data_H12PbC12(SO)4
_symmetry_space_group_name_H-M   'P 1'
_cell_length_a   12.24658044
_cell_length_b   16.95989245
_cell_length_c   16.95966778
_cell_angle_alpha   110.29112387
_cell_angle_beta   99.22580697
_cell_angle_gamma   99.22733138
_symmetry_Int_Tables_number   1
_chemical_formula_structural   H12PbC12(SO)4
_chemical_formula_sum   'H72 Pb6 C72 S24 O24'
_cell_volume   3171.23670873
_cell_formula_units_Z   6
loop_
 _symmetry_equiv_pos_site_id
 _symmetry_equiv_pos_as_xyz
  1  'x, y, z'
loop_
 _atom_site_type_symbol
 _atom_site_label
 _atom_site_symmetry_multiplicity
 _atom_site_fract_x
 _atom_site_fract_y
 _atom_site_fract_z
 _atom_site_occupancy
  H  H0  1  0.11713193  0.79123579  0.50093710  1.0
  H  H1  1  0.88287640  0.49906181  0.20874807  1.0
  H  H2  1  0.88287281  0.20876145  0.49905766  1.0
  H  H3  1  0.11712390  0.50092899  0.79123684  1.0
  H  H4  1  0.02053066  0.68885428  0.44188390  1.0
  H  H5  1  0.97946589  0.55811531  0.31113781  1.0
  H  H6  1  0.97946590  0.31114616  0.55810636  1.0
  H  H7  1  0.02053020  0.44187805  0.68884754  1.0
  H  H8  1  0.98709070  0.76421617  0.53379677  1.0
  H  H9  1  0.01291660  0.46620589  0.23578051  1.0
  H  H10  1  0.01291259  0.23578169  0.46620041  1.0
  H  H11  1  0.98708412  0.53378618  0.76421021  1.0
  H  H12  1  0.29834588  0.14852886  0.54559283  1.0
  H  H13  1  0.70168044  0.45441093  0.85146561  1.0
  H  H14  1  0.70167040  0.85145677  0.45441033  1.0
  H  H15  1  0.29832991  0.54557731  0.14852778  1.0
  H  H16  1  0.34220682  0.16255973  0.45456688  1.0
  H  H17  1  0.65781417  0.54542961  0.83743329  1.0
  H  H18  1  0.65781150  0.83742721  0.54543697  1.0
  H  H19  1  0.34218733  0.45455662  0.16256076  1.0
  H  H20  1  0.30039970  0.05557872  0.45281598  1.0
  H  H21  1  0.69961878  0.54718099  0.94441574  1.0
  H  H22  1  0.69960373  0.94440558  0.54717997  1.0
  H  H23  1  0.30039386  0.45280662  0.05557709  1.0
  H  H24  1  0.99234998  0.84988228  0.03334477  1.0
  H  H25  1  0.00765405  0.96663751  0.15010255  1.0
  H  H26  1  0.00763958  0.15011095  0.96665632  1.0
  H  H27  1  0.99232631  0.03336667  0.84989429  1.0
  H  H28  1  0.89874846  0.75729861  0.94959869  1.0
  H  H29  1  0.10125523  0.05038497  0.24268918  1.0
  H  H30  1  0.10124454  0.24269788  0.05040274  1.0
  H  H31  1  0.89873511  0.94961672  0.75730436  1.0
  H  H32  1  0.91404548  0.86027014  0.93953269  1.0
  H  H33  1  0.08596757  0.06044466  0.13971318  1.0
  H  H34  1  0.08593693  0.13972947  0.06047632  1.0
  H  H35  1  0.91402033  0.93955443  0.86027799  1.0
  H  H36  1  0.32113442  0.13081142  0.22682458  1.0
  H  H37  1  0.67888648  0.77315820  0.86917634  1.0
  H  H38  1  0.67887842  0.86918522  0.77317146  1.0
  H  H39  1  0.32111125  0.22684864  0.13082868  1.0
  H  H40  1  0.42270547  0.10337903  0.29551835  1.0
  H  H41  1  0.57730600  0.70447547  0.89661424  1.0
  H  H42  1  0.57730331  0.89661499  0.70447926  1.0
  H  H43  1  0.42269477  0.29552494  0.10338650  1.0
  H  H44  1  0.28989531  0.02733889  0.23644815  1.0
  H  H45  1  0.71012004  0.76353777  0.97265540  1.0
  H  H46  1  0.71011396  0.97265967  0.76354699  1.0
  H  H47  1  0.28987929  0.23646326  0.02734894  1.0
  H  H48  1  0.46566739  0.74808537  0.48365246  1.0
  H  H49  1  0.53432438  0.51636314  0.25191972  1.0
  H  H50  1  0.53433070  0.25192279  0.51634777  1.0
  H  H51  1  0.46565286  0.48366686  0.74808234  1.0
  H  H52  1  0.49744922  0.75292886  0.38472780  1.0
  H  H53  1  0.50256181  0.61528483  0.24706793  1.0
  H  H54  1  0.50255745  0.24707484  0.61527004  1.0
  H  H55  1  0.49744102  0.38474541  0.75291997  1.0
  H  H56  1  0.37763155  0.67476848  0.38100695  1.0
  H  H57  1  0.62237021  0.61900743  0.32523413  1.0
  H  H58  1  0.62237128  0.32523070  0.61898710  1.0
  H  H59  1  0.37761792  0.38102588  0.67476618  1.0
  H  H60  1  0.80347755  0.06646532  0.45716655  1.0
  H  H61  1  0.19653189  0.54282888  0.93352394  1.0
  H  H62  1  0.19653258  0.93353323  0.54283340  1.0
  H  H63  1  0.80347490  0.45716713  0.06646118  1.0
  H  H64  1  0.80409729  0.05688629  0.34781126  1.0
  H  H65  1  0.19591434  0.65218409  0.94310247  1.0
  H  H66  1  0.19592266  0.94310908  0.65219044  1.0
  H  H67  1  0.80408825  0.34781448  0.05688426  1.0
  H  H68  1  0.73818194  0.96565118  0.36718656  1.0
  H  H69  1  0.26182447  0.63280739  0.03433856  1.0
  H  H70  1  0.26184047  0.03434422  0.63281130  1.0
  H  H71  1  0.73817386  0.36718791  0.96564890  1.0
  Pb  Pb72  1  0.49999257  0.85625624  0.14370072  1.0
  Pb  Pb73  1  0.49998173  0.14373304  0.85629491  1.0
  Pb  Pb74  1  0.19111317  0.80679771  0.22083589  1.0
  Pb  Pb75  1  0.80890247  0.77917228  0.19320342  1.0
  Pb  Pb76  1  0.80888710  0.19320658  0.77916675  1.0
  Pb  Pb77  1  0.19109814  0.22081066  0.80680117  1.0
  C  C78  1  0.08429369  0.92118199  0.34739580  1.0
  C  C79  1  0.91575584  0.65261946  0.07882514  1.0
  C  C80  1  0.91571512  0.07882041  0.65260654  1.0
  C  C81  1  0.08423297  0.34736864  0.92116639  1.0
  C  C82  1  0.97871624  0.90884926  0.45949770  1.0
  C  C83  1  0.02130335  0.54050122  0.09114985  1.0
  C  C84  1  0.02130010  0.09115899  0.54050873  1.0
  C  C85  1  0.97868882  0.45948433  0.90883879  1.0
  C  C86  1  0.03865475  0.96263161  0.42551318  1.0
  C  C87  1  0.96137103  0.57449339  0.03737242  1.0
  C  C88  1  0.96136645  0.03737343  0.57449501  1.0
  C  C89  1  0.03862713  0.42550125  0.96261774  1.0
  C  C90  1  0.06148178  0.05309276  0.46591323  1.0
  C  C91  1  0.93851922  0.53408265  0.94690672  1.0
  C  C92  1  0.93853009  0.94691158  0.53409191  1.0
  C  C93  1  0.06147910  0.46590679  0.05308811  1.0
  C  C94  1  0.02709902  0.75754527  0.47919456  1.0
  C  C95  1  0.97290745  0.52080524  0.24245031  1.0
  C  C96  1  0.97290235  0.24245453  0.52080132  1.0
  C  C97  1  0.02709326  0.47918683  0.75753982  1.0
  C  C98  1  0.28495038  0.12072398  0.47500772  1.0
  C  C99  1  0.71507314  0.52499373  0.87927046  1.0
  C  C100  1  0.71506685  0.87926489  0.52499551  1.0
  C  C101  1  0.28493369  0.47499385  0.12072053  1.0
  C  C102  1  0.23704075  0.87159236  0.08015927  1.0
  C  C103  1  0.76299945  0.91983166  0.12838629  1.0
  C  C104  1  0.76296549  0.12840423  0.91983897  1.0
  C  C105  1  0.23694886  0.08020821  0.87166672  1.0
  C  C106  1  0.16325991  0.89295339  0.94370457  1.0
  C  C107  1  0.83674247  0.05629731  0.10704158  1.0
  C  C108  1  0.83672442  0.10705015  0.05629603  1.0
  C  C109  1  0.16324009  0.94371138  0.89296240  1.0
  C  C110  1  0.24164229  0.92389358  0.02405413  1.0
  C  C111  1  0.75838016  0.97593745  0.07609028  1.0
  C  C112  1  0.75835209  0.07610488  0.97594344  1.0
  C  C113  1  0.24160554  0.02407060  0.92391619  1.0
  C  C114  1  0.32215112  0.00314966  0.05393001  1.0
  C  C115  1  0.67785833  0.94607378  0.99684388  1.0
  C  C116  1  0.67784743  0.99684879  0.94607274  1.0
  C  C117  1  0.32213148  0.05392591  0.00315775  1.0
  C  C118  1  0.95804435  0.81876899  0.96353465  1.0
  C  C119  1  0.04196495  0.03644718  0.18121681  1.0
  C  C120  1  0.04194655  0.18122877  0.03646641  1.0
  C  C121  1  0.95802412  0.96355577  0.81877821  1.0
  C  C122  1  0.35645320  0.07804830  0.23533862  1.0
  C  C123  1  0.64356927  0.76465014  0.92194196  1.0
  C  C124  1  0.64355946  0.92194770  0.76465776  1.0
  C  C125  1  0.35643228  0.23535286  0.07806096  1.0
  C  C126  1  0.48014301  0.89401290  0.32146805  1.0
  C  C127  1  0.51984794  0.67852328  0.10599088  1.0
  C  C128  1  0.51987991  0.10597863  0.67852968  1.0
  C  C129  1  0.48012247  0.32147750  0.89402488  1.0
  C  C130  1  0.42913067  0.91526299  0.46481070  1.0
  C  C131  1  0.57088072  0.53519508  0.08474397  1.0
  C  C132  1  0.57087823  0.08474268  0.53518573  1.0
  C  C133  1  0.42912857  0.46481439  0.91526623  1.0
  C  C134  1  0.48855374  0.94790445  0.41434633  1.0
  C  C135  1  0.51145477  0.58564710  0.05209341  1.0
  C  C136  1  0.51146387  0.05209159  0.58564768  1.0
  C  C137  1  0.48853894  0.41435455  0.94790993  1.0
  C  C138  1  0.55891362  0.03192449  0.44787834  1.0
  C  C139  1  0.44109807  0.55212349  0.96807233  1.0
  C  C140  1  0.44110504  0.96807218  0.55212013  1.0
  C  C141  1  0.55890452  0.44788601  0.03192592  1.0
  C  C142  1  0.42989238  0.74071329  0.41720980  1.0
  C  C143  1  0.57011409  0.58280147  0.25928741  1.0
  C  C144  1  0.57011333  0.25928718  0.58278680  1.0
  C  C145  1  0.42988002  0.41722413  0.74071144  1.0
  C  C146  1  0.75632675  0.03623025  0.38950597  1.0
  C  C147  1  0.24368444  0.61049178  0.96376099  1.0
  C  C148  1  0.24369051  0.96376446  0.61049343  1.0
  C  C149  1  0.75632040  0.38950873  0.03622845  1.0
  S  S150  1  0.95135759  0.79498247  0.40332164  1.0
  S  S151  1  0.04866347  0.59667683  0.20501642  1.0
  S  S152  1  0.04864641  0.20502057  0.59667744  1.0
  S  S153  1  0.95133922  0.40331074  0.79497293  1.0
  S  S154  1  0.14219458  0.11804830  0.42291982  1.0
  S  S155  1  0.85782851  0.57708450  0.88195464  1.0
  S  S156  1  0.85782445  0.88196061  0.57708831  1.0
  S  S157  1  0.14217411  0.42290564  0.11803561  1.0
  S  S158  1  0.06873139  0.78962425  0.90770641  1.0
  S  S159  1  0.93128991  0.09228903  0.21036560  1.0
  S  S160  1  0.93125744  0.21038064  0.09229103  1.0
  S  S161  1  0.06870358  0.90772039  0.78963397  1.0
  S  S162  1  0.42984308  0.03547710  0.15068230  1.0
  S  S163  1  0.57017712  0.84930891  0.96450226  1.0
  S  S164  1  0.57016039  0.96451303  0.84931158  1.0
  S  S165  1  0.42981898  0.15068949  0.03550668  1.0
  S  S166  1  0.33367802  0.81132701  0.41622234  1.0
  S  S167  1  0.66633370  0.58378145  0.18867579  1.0
  S  S168  1  0.66632952  0.18867413  0.58377234  1.0
  S  S169  1  0.33367155  0.41622285  0.81132977  1.0
  S  S170  1  0.62388438  0.07021303  0.37729199  1.0
  S  S171  1  0.37613509  0.62270631  0.92978547  1.0
  S  S172  1  0.37613252  0.92977784  0.62270011  1.0
  S  S173  1  0.62387587  0.37730063  0.07021694  1.0
  O  O174  1  0.01805060  0.88668422  0.27278184  1.0
  O  O175  1  0.98200121  0.72722482  0.11330734  1.0
  O  O176  1  0.98195463  0.11331170  0.72721900  1.0
  O  O177  1  0.01799205  0.27276133  0.88669342  1.0
  O  O178  1  0.28844623  0.81104820  0.06974892  1.0
  O  O179  1  0.71156712  0.93023380  0.18892460  1.0
  O  O180  1  0.71154603  0.18894316  0.93024414  1.0
  O  O181  1  0.28839209  0.06982952  0.81111194  1.0
  O  O182  1  0.17944682  0.89453620  0.13764385  1.0
  O  O183  1  0.82058707  0.86234884  0.10544485  1.0
  O  O184  1  0.82057496  0.10547078  0.86236568  1.0
  O  O185  1  0.17936128  0.13767421  0.89461167  1.0
  O  O186  1  0.56007809  0.85847905  0.30235371  1.0
  O  O187  1  0.43991961  0.69762859  0.14153246  1.0
  O  O188  1  0.43993983  0.14151248  0.69763874  1.0
  O  O189  1  0.56005785  0.30235670  0.85848806  1.0
  O  O190  1  0.39443034  0.89215559  0.26491435  1.0
  O  O191  1  0.60557025  0.73508406  0.10785306  1.0
  O  O192  1  0.60558181  0.10782747  0.73508155  1.0
  O  O193  1  0.39441736  0.26492964  0.89218510  1.0
  O  O194  1  0.18936567  0.91993531  0.36136567  1.0
  O  O195  1  0.81067786  0.63865633  0.08007736  1.0
  O  O196  1  0.81063979  0.08006710  0.63863100  1.0
  O  O197  1  0.18931380  0.36133310  0.91991259  1.0
