# generated using pymatgen
data_Zn3C30Cl8(O3F)4
_symmetry_space_group_name_H-M   'P 1'
_cell_length_a   19.04601386
_cell_length_b   19.04684778
_cell_length_c   19.23313138
_cell_angle_alpha   110.70210789
_cell_angle_beta   110.69997351
_cell_angle_gamma   104.13824131
_symmetry_Int_Tables_number   1
_chemical_formula_structural   Zn3C30Cl8(O3F)4
_chemical_formula_sum   'Zn6 C60 Cl16 O24 F8'
_cell_volume   5535.19870401
_cell_formula_units_Z   2
loop_
 _symmetry_equiv_pos_site_id
 _symmetry_equiv_pos_as_xyz
  1  'x, y, z'
loop_
 _atom_site_type_symbol
 _atom_site_label
 _atom_site_symmetry_multiplicity
 _atom_site_fract_x
 _atom_site_fract_y
 _atom_site_fract_z
 _atom_site_occupancy
  Zn  Zn0  1  0.56172088  0.00208515  0.06017317  1.0
  Zn  Zn1  1  0.44642657  0.44637126  0.50270979  1.0
  Zn  Zn2  1  0.55363966  0.55357713  0.49728929  1.0
  Zn  Zn3  1  0.43823203  0.99785509  0.93972082  1.0
  Zn  Zn4  1  0.99791590  0.43827469  0.93983508  1.0
  Zn  Zn5  1  0.00214252  0.56175313  0.06029629  1.0
  C  C6  1  0.45880776  0.09509871  0.09675031  1.0
  C  C7  1  0.55682919  0.85145556  0.76813623  1.0
  C  C8  1  0.12615538  0.44625429  0.36847271  1.0
  C  C9  1  0.44617847  0.12632359  0.36839475  1.0
  C  C10  1  0.55392295  0.87386456  0.63157985  1.0
  C  C11  1  0.87373508  0.55393378  0.63168455  1.0
  C  C12  1  0.48282754  0.20589787  0.38258096  1.0
  C  C13  1  0.51730332  0.79427068  0.61736226  1.0
  C  C14  1  0.79415017  0.51725265  0.61746882  1.0
  C  C15  1  0.20574766  0.48280863  0.38266050  1.0
  C  C16  1  0.85136238  0.55677501  0.76823261  1.0
  C  C17  1  0.47402610  0.22000307  0.31223281  1.0
  C  C18  1  0.52611573  0.78014080  0.68769883  1.0
  C  C19  1  0.78002262  0.52601330  0.68779694  1.0
  C  C20  1  0.21986177  0.47391308  0.31229894  1.0
  C  C21  1  0.14853917  0.44318548  0.23186310  1.0
  C  C22  1  0.44324667  0.14865029  0.23179837  1.0
  C  C23  1  0.45681538  0.16088137  0.16760042  1.0
  C  C24  1  0.54323395  0.83915456  0.83229195  1.0
  C  C25  1  0.83911681  0.54316850  0.83240535  1.0
  C  C26  1  0.54116028  0.90487073  0.90312339  1.0
  C  C27  1  0.16083426  0.45670805  0.16766994  1.0
  C  C28  1  0.48684446  0.23989093  0.17962656  1.0
  C  C29  1  0.51328172  0.76012062  0.82023278  1.0
  C  C30  1  0.76009732  0.51313993  0.82036844  1.0
  C  C31  1  0.23986612  0.48660977  0.17970299  1.0
  C  C32  1  0.90488795  0.54115538  0.90324129  1.0
  C  C33  1  0.50150894  0.30990960  0.25146588  1.0
  C  C34  1  0.49876118  0.69016923  0.74842819  1.0
  C  C35  1  0.69008933  0.49849913  0.74853561  1.0
  C  C36  1  0.30981949  0.50115137  0.25152334  1.0
  C  C37  1  0.09512257  0.45877835  0.09683029  1.0
  C  C38  1  0.49530223  0.30083798  0.31819209  1.0
  C  C39  1  0.50494797  0.69930573  0.68171831  1.0
  C  C40  1  0.69917513  0.50472337  0.68182145  1.0
  C  C41  1  0.30069172  0.49503708  0.31826453  1.0
  C  C42  1  0.37017210  0.49413811  0.38648313  1.0
  C  C43  1  0.62961782  0.50558111  0.61363409  1.0
  C  C44  1  0.50585593  0.62982365  0.61351127  1.0
  C  C45  1  0.49444112  0.37039397  0.38637608  1.0
  C  C46  1  0.59870327  0.12658017  0.00935639  1.0
  C  C47  1  0.40125414  0.87338162  0.99057951  1.0
  C  C48  1  0.87341835  0.40130834  0.99067966  1.0
  C  C49  1  0.12662567  0.59877752  0.00948266  1.0
  C  C50  1  0.65543214  0.19160948  0.00902830  1.0
  C  C51  1  0.34451836  0.80838809  0.99094167  1.0
  C  C52  1  0.80838805  0.34458094  0.99099117  1.0
  C  C53  1  0.19161749  0.65550803  0.00912023  1.0
  C  C54  1  0.70384329  0.24189660  0.00318331  1.0
  C  C55  1  0.29611023  0.75813368  0.99682573  1.0
  C  C56  1  0.75809219  0.29615257  0.99683128  1.0
  C  C57  1  0.24188019  0.70390672  0.00322632  1.0
  C  C58  1  0.40141767  0.06818476  0.21879884  1.0
  C  C59  1  0.59862831  0.93194502  0.78116955  1.0
  C  C60  1  0.93183906  0.59863430  0.78126507  1.0
  C  C61  1  0.06804954  0.40144243  0.21886227  1.0
  C  C62  1  0.40099957  0.05699439  0.28623887  1.0
  C  C63  1  0.59907463  0.94317319  0.71375376  1.0
  C  C64  1  0.94304991  0.59909799  0.71384929  1.0
  C  C65  1  0.05682869  0.40109126  0.28631149  1.0
  Cl  Cl66  1  0.34503179  0.98455954  0.11850690  1.0
  Cl  Cl67  1  0.65009756  0.03768001  0.72630040  1.0
  Cl  Cl68  1  0.03754902  0.65015658  0.72638440  1.0
  Cl  Cl69  1  0.96231254  0.35016189  0.27380959  1.0
  Cl  Cl70  1  0.34998400  0.96250663  0.27374467  1.0
  Cl  Cl71  1  0.54532867  0.28184336  0.48643589  1.0
  Cl  Cl72  1  0.45479165  0.71833078  0.51348740  1.0
  Cl  Cl73  1  0.71822891  0.45476138  0.51359898  1.0
  Cl  Cl74  1  0.65497035  0.01554218  0.88147624  1.0
  Cl  Cl75  1  0.28171852  0.54533231  0.48651705  1.0
  Cl  Cl76  1  0.52328842  0.40044183  0.24694132  1.0
  Cl  Cl77  1  0.47712637  0.59963509  0.75294211  1.0
  Cl  Cl78  1  0.59954957  0.47673893  0.75305835  1.0
  Cl  Cl79  1  0.40035074  0.52271906  0.24698972  1.0
  Cl  Cl80  1  0.01544378  0.65499899  0.88156547  1.0
  Cl  Cl81  1  0.98443883  0.34507151  0.11856693  1.0
  O  O82  1  0.51634273  0.07266372  0.12321056  1.0
  O  O83  1  0.58974013  0.92744380  0.97980751  1.0
  O  O84  1  0.92745909  0.58973921  0.97992274  1.0
  O  O85  1  0.07253425  0.41018704  0.02014692  1.0
  O  O86  1  0.41020280  0.07251006  0.02007320  1.0
  O  O87  1  0.63053061  0.10252211  0.06214644  1.0
  O  O88  1  0.36943357  0.89743168  0.93778072  1.0
  O  O89  1  0.89746489  0.36949223  0.93786855  1.0
  O  O90  1  0.48360315  0.92727841  0.87666238  1.0
  O  O91  1  0.10255910  0.63059797  0.06226693  1.0
  O  O92  1  0.52240953  0.09835672  0.95588339  1.0
  O  O93  1  0.47755209  0.90158966  0.04403870  1.0
  O  O94  1  0.90165966  0.47759318  0.04418262  1.0
  O  O95  1  0.09843250  0.52247783  0.95603766  1.0
  O  O96  1  0.92733914  0.48363654  0.87677181  1.0
  O  O97  1  0.44441764  0.54346670  0.41411174  1.0
  O  O98  1  0.55538518  0.45618827  0.58597392  1.0
  O  O99  1  0.45652675  0.55558582  0.58588290  1.0
  O  O100  1  0.54383831  0.44463072  0.41403525  1.0
  O  O101  1  0.07273398  0.51635253  0.12329651  1.0
  O  O102  1  0.34913215  0.44027039  0.40858863  1.0
  O  O103  1  0.65062453  0.55951967  0.59160317  1.0
  O  O104  1  0.55973604  0.65086018  0.59141094  1.0
  O  O105  1  0.44050430  0.34939457  0.40840713  1.0
  F  F106  1  0.50450356  0.25226373  0.12156453  1.0
  F  F107  1  0.54626283  0.88671281  0.56525067  1.0
  F  F108  1  0.88656333  0.54629850  0.56534670  1.0
  F  F109  1  0.11331027  0.45401512  0.43482589  1.0
  F  F110  1  0.45386082  0.11351496  0.43475035  1.0
  F  F111  1  0.49559626  0.74766491  0.87824756  1.0
  F  F112  1  0.74770608  0.49545263  0.87840913  1.0
  F  F113  1  0.25232432  0.50422122  0.12165189  1.0
