# generated using pymatgen
data_ZnH36C27N7O8
_symmetry_space_group_name_H-M   'P 1'
_cell_length_a   10.69431003
_cell_length_b   16.80830439
_cell_length_c   17.69482773
_cell_angle_alpha   92.03685486
_cell_angle_beta   93.07223897
_cell_angle_gamma   93.42785646
_symmetry_Int_Tables_number   1
_chemical_formula_structural   ZnH36C27N7O8
_chemical_formula_sum   'Zn2 H72 C54 N14 O16'
_cell_volume   3168.05203780
_cell_formula_units_Z   2
loop_
 _symmetry_equiv_pos_site_id
 _symmetry_equiv_pos_as_xyz
  1  'x, y, z'
loop_
 _atom_site_type_symbol
 _atom_site_label
 _atom_site_symmetry_multiplicity
 _atom_site_fract_x
 _atom_site_fract_y
 _atom_site_fract_z
 _atom_site_occupancy
  Zn  Zn0  1  0.50232639  0.40722643  0.50670279  1.0
  Zn  Zn1  1  0.49205226  0.59095836  0.50533702  1.0
  H  H2  1  0.97310402  0.53255705  0.72613902  1.0
  H  H3  1  0.83936926  0.46878201  0.69151646  1.0
  H  H4  1  0.81641409  0.55855861  0.74492071  1.0
  H  H5  1  0.99602749  0.69727613  0.58598479  1.0
  H  H6  1  0.13716583  0.70297133  0.53468705  1.0
  H  H7  1  0.13985411  0.74079470  0.63100577  1.0
  H  H8  1  0.28784568  0.63939603  0.44936468  1.0
  H  H9  1  0.17040156  0.63822425  0.34117623  1.0
  H  H10  1  0.29505086  0.69537840  0.30268679  1.0
  H  H11  1  0.16987199  0.74431093  0.34404495  1.0
  H  H12  1  0.60107187  0.67375484  0.61684038  1.0
  H  H13  1  0.80209334  0.70358312  0.64814044  1.0
  H  H14  1  0.75970840  0.80214213  0.67360232  1.0
  H  H15  1  0.81005521  0.78030725  0.58138759  1.0
  H  H16  1  0.81664519  0.49859248  0.35423260  1.0
  H  H17  1  0.85417037  0.41375903  0.40852531  1.0
  H  H18  1  0.96860794  0.45991252  0.35001833  1.0
  H  H19  1  0.07123647  0.38643387  0.67275429  1.0
  H  H20  1  0.21079828  0.35890327  0.62779605  1.0
  H  H21  1  0.06370063  0.30388368  0.60488640  1.0
  H  H22  1  0.46822640  0.31787463  0.85760481  1.0
  H  H23  1  0.59346344  0.26611804  0.94888140  1.0
  H  H24  1  0.54172624  0.34189023  0.01133637  1.0
  H  H25  1  0.68118707  0.35947951  0.96242716  1.0
  H  H26  1  0.32505111  0.36673314  0.12758812  1.0
  H  H27  1  0.24161881  0.38631422  0.00962953  1.0
  H  H28  1  0.37161971  0.44924746  0.98642594  1.0
  H  H29  1  0.26134214  0.48601397  0.04914265  1.0
  H  H30  1  0.47948038  0.24262688  0.73925088  1.0
  H  H31  1  0.62194470  0.30482250  0.75490886  1.0
  H  H32  1  0.54123702  0.29840897  0.66328112  1.0
  H  H33  1  0.46828467  0.28674893  0.20333622  1.0
  H  H34  1  0.34618694  0.26138119  0.26581762  1.0
  H  H35  1  0.49128556  0.31035223  0.30368629  1.0
  H  H36  1  0.63323260  0.68979259  0.77199532  1.0
  H  H37  1  0.46062144  0.73991191  0.70657309  1.0
  H  H38  1  0.39685801  0.68606785  0.78304045  1.0
  H  H39  1  0.39153612  0.64196899  0.68934895  1.0
  H  H40  1  0.66474822  0.59140738  0.35953097  1.0
  H  H41  1  0.51851369  0.69126389  0.32265757  1.0
  H  H42  1  0.62845479  0.72090243  0.25485651  1.0
  H  H43  1  0.67391702  0.72790474  0.35336926  1.0
  H  H44  1  0.62850826  0.69253998  0.87373403  1.0
  H  H45  1  0.81139253  0.70370310  0.95288411  1.0
  H  H46  1  0.84747621  0.63924999  0.87532544  1.0
  H  H47  1  0.80450632  0.59901475  0.96316782  1.0
  H  H48  1  0.75932042  0.63916230  0.20413077  1.0
  H  H49  1  0.61557482  0.72065542  0.12411813  1.0
  H  H50  1  0.64329894  0.65216941  0.04839063  1.0
  H  H51  1  0.77049622  0.71279628  0.09227030  1.0
  H  H52  1  0.28914005  0.04939499  0.46081166  1.0
  H  H53  1  0.29102831  0.08431360  0.32730234  1.0
  H  H54  1  0.20933067  0.16957764  0.35340343  1.0
  H  H55  1  0.13733455  0.07266134  0.36276775  1.0
  H  H56  1  0.72593623  0.06990367  0.46611302  1.0
  H  H57  1  0.73369382  0.07925010  0.60523509  1.0
  H  H58  1  0.81396456  0.17452269  0.59826856  1.0
  H  H59  1  0.88339211  0.08759952  0.56463777  1.0
  H  H60  1  0.21366530  0.22195000  0.48087587  1.0
  H  H61  1  0.19362541  0.29231442  0.36772615  1.0
  H  H62  1  0.30937707  0.36548658  0.40433561  1.0
  H  H63  1  0.16100434  0.35821610  0.44525000  1.0
  H  H64  1  0.79683582  0.25211435  0.49040340  1.0
  H  H65  1  0.79783683  0.29084316  0.62371037  1.0
  H  H66  1  0.69850531  0.36836918  0.59924556  1.0
  H  H67  1  0.85302711  0.37150356  0.56813947  1.0
  H  H68  1  0.40461762  0.82232472  0.27789596  1.0
  H  H69  1  0.45606270  0.91981462  0.31704680  1.0
  H  H70  1  0.30017238  0.90228501  0.27470080  1.0
  H  H71  1  0.56625971  0.87223582  0.67504446  1.0
  H  H72  1  0.51697864  0.95860158  0.62706431  1.0
  H  H73  1  0.66957188  0.96062753  0.67527759  1.0
  C  C74  1  0.48745524  0.48859748  0.36014615  1.0
  C  C75  1  0.52929991  0.49715956  0.65300844  1.0
  C  C76  1  0.26778172  0.49716695  0.54166468  1.0
  C  C77  1  0.73574672  0.53185381  0.49824006  1.0
  C  C78  1  0.93518510  0.55022363  0.57837867  1.0
  C  C79  1  0.07174771  0.55180148  0.58904987  1.0
  C  C80  1  0.87697413  0.53427221  0.50902097  1.0
  C  C81  1  0.13839182  0.48876054  0.56775912  1.0
  C  C82  1  0.54241732  0.42966539  0.85713976  1.0
  C  C83  1  0.45876725  0.45132628  0.14581714  1.0
  C  C84  1  0.51372220  0.43169902  0.77827584  1.0
  C  C85  1  0.45029298  0.44056967  0.22394442  1.0
  C  C86  1  0.53200001  0.50200109  0.73802412  1.0
  C  C87  1  0.51383799  0.49364804  0.27797002  1.0
  C  C88  1  0.57106675  0.57462048  0.77927325  1.0
  C  C89  1  0.59519387  0.55608968  0.25425984  1.0
  C  C90  1  0.60654770  0.57259956  0.85704052  1.0
  C  C91  1  0.61615301  0.56241254  0.17642564  1.0
  C  C92  1  0.58928183  0.50122713  0.89693966  1.0
  C  C93  1  0.54815675  0.51016722  0.12164380  1.0
  C  C94  1  0.59259343  0.50599195  0.97679537  1.0
  C  C95  1  0.57574475  0.51061244  0.04468319  1.0
  C  C96  1  0.39377212  0.15187573  0.46337680  1.0
  C  C97  1  0.62002558  0.16051155  0.48835040  1.0
  C  C98  1  0.39486825  0.23559545  0.47615382  1.0
  C  C99  1  0.61524166  0.24415094  0.49764752  1.0
  C  C100  1  0.50738273  0.11422438  0.47086784  1.0
  C  C101  1  0.50749404  0.03031545  0.46381821  1.0
  C  C102  1  0.50402686  0.95754654  0.46285673  1.0
  C  C103  1  0.40764495  0.82385837  0.43024797  1.0
  C  C104  1  0.57602651  0.84419100  0.52935167  1.0
  C  C105  1  0.39153872  0.74344088  0.45081715  1.0
  C  C106  1  0.56128704  0.76239327  0.54463113  1.0
  C  C107  1  0.49889525  0.87418174  0.47150296  1.0
  C  C108  1  0.87490256  0.53105831  0.70353706  1.0
  C  C109  1  0.09848301  0.69450436  0.59042893  1.0
  C  C110  1  0.22965938  0.69374434  0.34882386  1.0
  C  C111  1  0.75669993  0.75602374  0.62750795  1.0
  C  C112  1  0.89132553  0.47024666  0.38667780  1.0
  C  C113  1  0.10882214  0.36306724  0.62007866  1.0
  C  C114  1  0.58586996  0.33076027  0.95747754  1.0
  C  C115  1  0.31111102  0.43308745  0.03206959  1.0
  C  C116  1  0.52924757  0.29863786  0.72441205  1.0
  C  C117  1  0.42267980  0.30523452  0.25500336  1.0
  C  C118  1  0.44834871  0.68082455  0.73071039  1.0
  C  C119  1  0.61808438  0.69205851  0.30910208  1.0
  C  C120  1  0.78615707  0.64603513  0.92326549  1.0
  C  C121  1  0.68275582  0.67862251  0.10267682  1.0
  C  C122  1  0.22696223  0.10831901  0.36823419  1.0
  C  C123  1  0.79418635  0.11592180  0.56959300  1.0
  C  C124  1  0.23354347  0.32412285  0.42011372  1.0
  C  C125  1  0.77135001  0.33176857  0.57865388  1.0
  C  C126  1  0.37538539  0.87598340  0.30816940  1.0
  C  C127  1  0.59770518  0.92323086  0.64180808  1.0
  N  N128  1  0.50429384  0.28073163  0.49306066  1.0
  N  N129  1  0.47323207  0.71416293  0.50375633  1.0
  N  N130  1  0.29542102  0.69245624  0.42274902  1.0
  N  N131  1  0.62984880  0.72948682  0.60078768  1.0
  N  N132  1  0.51454145  0.35977307  0.89284926  1.0
  N  N133  1  0.38251902  0.40088432  0.09588041  1.0
  N  N134  1  0.57251072  0.64872051  0.74367400  1.0
  N  N135  1  0.66446666  0.61138293  0.30580707  1.0
  N  N136  1  0.65221601  0.64206326  0.89962005  1.0
  N  N137  1  0.71073248  0.61702057  0.15596163  1.0
  N  N138  1  0.27818008  0.10722517  0.44715230  1.0
  N  N139  1  0.73669505  0.12482734  0.49306909  1.0
  N  N140  1  0.27897869  0.26797122  0.47543333  1.0
  N  N141  1  0.72936644  0.28817467  0.50765285  1.0
  O  O142  1  0.48984239  0.42113159  0.39049492  1.0
  O  O143  1  0.54403265  0.42894333  0.62199190  1.0
  O  O144  1  0.46542104  0.55412344  0.39381007  1.0
  O  O145  1  0.51860068  0.56089848  0.61675375  1.0
  O  O146  1  0.32772556  0.43434255  0.53691609  1.0
  O  O147  1  0.68190367  0.46298529  0.49650759  1.0
  O  O148  1  0.30675747  0.56611693  0.52104421  1.0
  O  O149  1  0.68448719  0.59780183  0.49091320  1.0
  O  O150  1  0.86351007  0.57662698  0.63659017  1.0
  O  O151  1  0.13497325  0.61983063  0.61936775  1.0
  O  O152  1  0.94590494  0.52275659  0.44744640  1.0
  O  O153  1  0.07806611  0.41328264  0.55818268  1.0
  O  O154  1  0.45305958  0.36296101  0.74502347  1.0
  O  O155  1  0.36570109  0.38014868  0.24513517  1.0
  O  O156  1  0.32397811  0.85568365  0.37897088  1.0
  O  O157  1  0.65537582  0.89638079  0.57469240  1.0
