# generated using pymatgen
data_ZnH6C9NO4
_symmetry_space_group_name_H-M   'P 1'
_cell_length_a   9.59416748
_cell_length_b   11.06061561
_cell_length_c   11.21026508
_cell_angle_alpha   88.27471318
_cell_angle_beta   89.71269974
_cell_angle_gamma   89.85329057
_symmetry_Int_Tables_number   1
_chemical_formula_structural   ZnH6C9NO4
_chemical_formula_sum   'Zn2 H12 C18 N2 O8'
_cell_volume   1189.04648075
_cell_formula_units_Z   2
loop_
 _symmetry_equiv_pos_site_id
 _symmetry_equiv_pos_as_xyz
  1  'x, y, z'
loop_
 _atom_site_type_symbol
 _atom_site_label
 _atom_site_symmetry_multiplicity
 _atom_site_fract_x
 _atom_site_fract_y
 _atom_site_fract_z
 _atom_site_occupancy
  Zn  Zn0  1  0.36041955  0.50033857  0.50130758  1.0
  Zn  Zn1  1  0.64274280  0.49960698  0.49930567  1.0
  H  H2  1  0.70595105  0.52053558  0.88965286  1.0
  H  H3  1  0.86917330  0.36333941  0.37755403  1.0
  H  H4  1  0.13387080  0.63683235  0.62311425  1.0
  H  H5  1  0.13735816  0.36307461  0.37870401  1.0
  H  H6  1  0.70607486  0.48024505  0.10915681  1.0
  H  H7  1  0.39523034  0.45315568  0.90462381  1.0
  H  H8  1  0.39468804  0.54655221  0.09717195  1.0
  H  H9  1  0.72292560  0.11266693  0.46469166  1.0
  H  H10  1  0.72154531  0.88545828  0.46804036  1.0
  H  H11  1  0.28122722  0.88729853  0.53652586  1.0
  H  H12  1  0.28141706  0.11451098  0.52788471  1.0
  H  H13  1  0.86571820  0.63697297  0.62203734  1.0
  C  C14  1  0.50232675  0.26241700  0.49339569  1.0
  C  C15  1  0.62601124  0.93661366  0.48231168  1.0
  C  C16  1  0.50145861  0.87312790  0.50328700  1.0
  C  C17  1  0.50210998  0.12685265  0.49561730  1.0
  C  C18  1  0.37724195  0.93759332  0.52009789  1.0
  C  C19  1  0.37736802  0.06343004  0.51537256  1.0
  C  C20  1  0.92797071  0.57642217  0.56825989  1.0
  C  C21  1  0.92996463  0.42380316  0.43178189  1.0
  C  C22  1  0.07308361  0.57630375  0.56892657  1.0
  C  C23  1  0.07506222  0.42373396  0.43231229  1.0
  C  C24  1  0.50117584  0.73747740  0.50637714  1.0
  C  C25  1  0.50163195  0.51351143  0.26676170  1.0
  C  C26  1  0.50097715  0.48624833  0.73386248  1.0
  C  C27  1  0.60695953  0.50137222  0.93507930  1.0
  C  C28  1  0.60691833  0.49905970  0.06453261  1.0
  C  C29  1  0.49586706  0.47884620  0.86598815  1.0
  C  C30  1  0.49565876  0.52111993  0.13469864  1.0
  C  C31  1  0.62654004  0.06243870  0.47958676  1.0
  N  N32  1  0.14483618  0.50001867  0.50090732  1.0
  N  N33  1  0.85819241  0.50013196  0.49972651  1.0
  O  O34  1  0.38537461  0.31596517  0.47943498  1.0
  O  O35  1  0.38472325  0.68445707  0.52454386  1.0
  O  O36  1  0.61966794  0.31425441  0.50654233  1.0
  O  O37  1  0.61783050  0.68470901  0.48987648  1.0
  O  O38  1  0.38520061  0.52782852  0.32088949  1.0
  O  O39  1  0.38410487  0.47231600  0.68151674  1.0
  O  O40  1  0.61882988  0.49334165  0.31694351  1.0
  O  O41  1  0.61773353  0.50592298  0.68185419  1.0
