# generated using pymatgen
data_Al3H22C48N12Cl3O14
_symmetry_space_group_name_H-M   'P 1'
_cell_length_a   13.33834920
_cell_length_b   13.85783981
_cell_length_c   35.17909544
_cell_angle_alpha   89.80235434
_cell_angle_beta   89.86568814
_cell_angle_gamma   61.27506824
_symmetry_Int_Tables_number   1
_chemical_formula_structural   Al3H22C48N12Cl3O14
_chemical_formula_sum   'Al6 H44 C96 N24 Cl6 O28'
_cell_volume   5702.27322600
_cell_formula_units_Z   2
loop_
 _symmetry_equiv_pos_site_id
 _symmetry_equiv_pos_as_xyz
  1  'x, y, z'
loop_
 _atom_site_type_symbol
 _atom_site_label
 _atom_site_symmetry_multiplicity
 _atom_site_fract_x
 _atom_site_fract_y
 _atom_site_fract_z
 _atom_site_occupancy
  Al  Al0  1  0.77244783  0.74291597  0.50008812  1.0
  Al  Al1  1  0.74203121  0.52727776  0.49954496  1.0
  Al  Al2  1  0.53029752  0.74802752  0.49977583  1.0
  Al  Al3  1  0.51474126  0.25509360  0.00002093  1.0
  Al  Al4  1  0.26958924  0.47247662  0.99955302  1.0
  Al  Al5  1  0.27701386  0.25234737  0.99962291  1.0
  H  H6  1  0.68784684  0.39898649  0.40427983  1.0
  H  H7  1  0.38436299  0.91995580  0.40387502  1.0
  H  H8  1  0.92932023  0.67798378  0.40005671  1.0
  H  H9  1  0.08660501  0.60351515  0.90371384  1.0
  H  H10  1  0.29938209  0.08272976  0.90363977  1.0
  H  H11  1  0.60699280  0.31681198  0.90023594  1.0
  H  H12  1  0.39569818  0.72156939  0.39998718  1.0
  H  H13  1  0.72050165  0.88732003  0.39730079  1.0
  H  H14  1  0.88845234  0.38928416  0.39799148  1.0
  H  H15  1  0.11809085  0.28035207  0.89977821  1.0
  H  H16  1  0.60599235  0.11007322  0.89744047  1.0
  H  H17  1  0.28221972  0.61103103  0.89835391  1.0
  H  H18  1  0.57869923  0.30653258  0.10151717  1.0
  H  H19  1  0.28795553  0.12050862  0.09904612  1.0
  H  H20  1  0.13107420  0.57423404  0.09786814  1.0
  H  H21  1  0.88832598  0.69322624  0.60027101  1.0
  H  H22  1  0.40971850  0.87520365  0.59937390  1.0
  H  H23  1  0.70736268  0.42588820  0.59840761  1.0
  H  H24  1  0.66392261  0.37299561  0.33507183  1.0
  H  H25  1  0.35528078  0.96587355  0.33430552  1.0
  H  H26  1  0.97227102  0.65831936  0.33013317  1.0
  H  H27  1  0.03621095  0.62977619  0.83449737  1.0
  H  H28  1  0.31631781  0.03643607  0.83415700  1.0
  H  H29  1  0.62962672  0.33590428  0.83024131  1.0
  H  H30  1  0.37111994  0.69642674  0.33079545  1.0
  H  H31  1  0.69237492  0.93322650  0.32776533  1.0
  H  H32  1  0.92977439  0.36939689  0.32806439  1.0
  H  H33  1  0.06823001  0.30561491  0.83057808  1.0
  H  H34  1  0.62408432  0.06351657  0.82797020  1.0
  H  H35  1  0.30311583  0.63040090  0.82833893  1.0
  H  H36  1  0.60574166  0.32033960  0.17113461  1.0
  H  H37  1  0.30063420  0.07491090  0.16824452  1.0
  H  H38  1  0.08490093  0.60249299  0.16695846  1.0
  H  H39  1  0.92729544  0.68095193  0.67002830  1.0
  H  H40  1  0.37546735  0.92127474  0.66845393  1.0
  H  H41  1  0.68935037  0.39737315  0.66753897  1.0
  H  H42  1  0.32526369  0.65168687  0.16956648  1.0
  H  H43  1  0.64602970  0.02283469  0.16899307  1.0
  H  H44  1  0.00859153  0.33363539  0.16505522  1.0
  H  H45  1  0.97823706  0.34937772  0.66967084  1.0
  H  H46  1  0.66472952  0.97978629  0.66929147  1.0
  H  H47  1  0.34322531  0.66372573  0.66492606  1.0
  H  H48  1  0.86075710  0.84355244  0.47811789  1.0
  H  H49  1  0.70226601  0.20583252  0.98166849  1.0
  C  C50  1  0.57714978  0.86381720  0.44479801  1.0
  C  C51  1  0.87208216  0.55433694  0.44372293  1.0
  C  C52  1  0.56260374  0.58121173  0.44617510  1.0
  C  C53  1  0.43716239  0.13797781  0.94441269  1.0
  C  C54  1  0.42880710  0.44496203  0.94423578  1.0
  C  C55  1  0.14369278  0.42070168  0.94586980  1.0
  C  C56  1  0.50153144  0.51896974  0.28807051  1.0
  C  C57  1  0.50785670  0.97673072  0.28595867  1.0
  C  C58  1  0.97637034  0.50210374  0.28374533  1.0
  C  C59  1  0.01931235  0.48381702  0.78773654  1.0
  C  C60  1  0.48110247  0.02356490  0.78599995  1.0
  C  C61  1  0.47993579  0.49517376  0.78392463  1.0
  C  C62  1  0.53905215  0.38937742  0.15563051  1.0
  C  C63  1  0.37294825  0.07320460  0.15325948  1.0
  C  C64  1  0.07810401  0.53808266  0.15142297  1.0
  C  C65  1  0.93017899  0.61149754  0.65474943  1.0
  C  C66  1  0.44551995  0.92421588  0.65352134  1.0
  C  C67  1  0.61799376  0.46134159  0.65183541  1.0
  C  C68  1  0.52427591  0.38193202  0.11697633  1.0
  C  C69  1  0.36636652  0.09791389  0.11479428  1.0
  C  C70  1  0.10309989  0.52258165  0.11293590  1.0
  C  C71  1  0.90896706  0.61810911  0.61601603  1.0
  C  C72  1  0.46440994  0.89918536  0.61512813  1.0
  C  C73  1  0.62752630  0.47693895  0.61333088  1.0
  C  C74  1  0.36736727  0.56784102  0.11575214  1.0
  C  C75  1  0.56052213  0.06872124  0.11498841  1.0
  C  C76  1  0.06022639  0.37168620  0.11161521  1.0
  C  C77  1  0.93788050  0.43207782  0.61550189  1.0
  C  C78  1  0.62713319  0.93187025  0.61540932  1.0
  C  C79  1  0.43319698  0.62643090  0.61163205  1.0
  C  C80  1  0.38122030  0.57578282  0.15470959  1.0
  C  C81  1  0.56738602  0.04403181  0.15366546  1.0
  C  C82  1  0.03541796  0.38660277  0.15035333  1.0
  C  C83  1  0.95871626  0.42496543  0.65451452  1.0
  C  C84  1  0.60853036  0.95700228  0.65397310  1.0
  C  C85  1  0.42327821  0.61139127  0.65038655  1.0
  C  C86  1  0.46634120  0.48703840  0.17496128  1.0
  C  C87  1  0.47443094  0.04636863  0.17307779  1.0
  C  C88  1  0.04463468  0.46895956  0.17057009  1.0
  C  C89  1  0.95444846  0.51428088  0.67445669  1.0
  C  C90  1  0.51860351  0.95308957  0.67331298  1.0
  C  C91  1  0.51512602  0.52964229  0.67080123  1.0
  C  C92  1  0.43835833  0.46948935  0.09607289  1.0
  C  C93  1  0.45831631  0.09722015  0.09478410  1.0
  C  C94  1  0.09632363  0.43912189  0.09214471  1.0
  C  C95  1  0.91096683  0.53008161  0.59544703  1.0
  C  C96  1  0.55503542  0.90138034  0.59523397  1.0
  C  C97  1  0.53697417  0.55975154  0.59235278  1.0
  C  C98  1  0.57565430  0.86151929  0.55514320  1.0
  C  C99  1  0.87464507  0.55327921  0.55473351  1.0
  C  C100  1  0.56259068  0.57767639  0.55254886  1.0
  C  C101  1  0.43826418  0.13620765  0.05450891  1.0
  C  C102  1  0.42592908  0.44541160  0.05540945  1.0
  C  C103  1  0.13968830  0.42152712  0.05234484  1.0
  C  C104  1  0.54217199  0.56126881  0.40620689  1.0
  C  C105  1  0.55385829  0.90177945  0.40454601  1.0
  C  C106  1  0.90718288  0.53456721  0.40299407  1.0
  C  C107  1  0.10352717  0.44098642  0.90584628  1.0
  C  C108  1  0.45191955  0.09883766  0.90438021  1.0
  C  C109  1  0.44422109  0.46343681  0.90335765  1.0
  C  C110  1  0.61808417  0.46289205  0.38797942  1.0
  C  C111  1  0.45060643  0.92419127  0.38694680  1.0
  C  C112  1  0.93104220  0.61030602  0.38389802  1.0
  C  C113  1  0.08091085  0.53952107  0.88749988  1.0
  C  C114  1  0.37048422  0.07734136  0.88678975  1.0
  C  C115  1  0.54213231  0.38581901  0.88416238  1.0
  C  C116  1  0.60514802  0.44866619  0.34957210  1.0
  C  C117  1  0.43456988  0.94939920  0.34839470  1.0
  C  C118  1  0.95441172  0.59950554  0.34521049  1.0
  C  C119  1  0.05347628  0.55389517  0.84908011  1.0
  C  C120  1  0.37977546  0.05183413  0.84830312  1.0
  C  C121  1  0.55427108  0.39617403  0.84538591  1.0
  C  C122  1  0.51576140  0.53300931  0.32879637  1.0
  C  C123  1  0.52209874  0.95243207  0.32690957  1.0
  C  C124  1  0.95376173  0.51250573  0.32487047  1.0
  C  C125  1  0.04848778  0.46952042  0.82841208  1.0
  C  C126  1  0.47119373  0.04735700  0.82693612  1.0
  C  C127  1  0.46789163  0.48464657  0.82507275  1.0
  C  C128  1  0.43962546  0.63147190  0.34715383  1.0
  C  C129  1  0.62519251  0.93093623  0.34471994  1.0
  C  C130  1  0.93047796  0.43616834  0.34408229  1.0
  C  C131  1  0.07148347  0.37070489  0.84685624  1.0
  C  C132  1  0.55377340  0.06726742  0.84482325  1.0
  C  C133  1  0.36975426  0.56261623  0.84434948  1.0
  C  C134  1  0.45286272  0.64526176  0.38553883  1.0
  C  C135  1  0.64064924  0.90590617  0.38318929  1.0
  C  C136  1  0.90767209  0.44714889  0.38287134  1.0
  C  C137  1  0.09853280  0.35687229  0.88525054  1.0
  C  C138  1  0.54398583  0.09279299  0.88319905  1.0
  C  C139  1  0.35825958  0.55195174  0.88319255  1.0
  C  C140  1  0.47821437  0.49753799  0.21609947  1.0
  C  C141  1  0.48566640  0.02053411  0.21395123  1.0
  C  C142  1  0.01879201  0.48192135  0.21154049  1.0
  C  C143  1  0.97518641  0.50471698  0.71569907  1.0
  C  C144  1  0.50319060  0.97963654  0.71407278  1.0
  C  C145  1  0.50220620  0.51623321  0.71175780  1.0
  N  N146  1  0.56177659  0.41077389  0.23490861  1.0
  N  N147  1  0.39566345  0.02299504  0.23265194  1.0
  N  N148  1  0.02614388  0.56368618  0.23013955  1.0
  N  N149  1  0.97132944  0.59182453  0.73433141  1.0
  N  N150  1  0.41567395  0.97694151  0.73271105  1.0
  N  N151  1  0.59091574  0.43375253  0.73037726  1.0
  N  N152  1  0.57355824  0.42169010  0.27155692  1.0
  N  N153  1  0.40697597  0.00069441  0.26937404  1.0
  N  N154  1  0.00477408  0.57382261  0.26688048  1.0
  N  N155  1  0.99375347  0.58116791  0.77102250  1.0
  N  N156  1  0.40452037  0.99919493  0.76939960  1.0
  N  N157  1  0.57971131  0.42326344  0.76711534  1.0
  N  N158  1  0.41460481  0.60380872  0.26956082  1.0
  N  N159  1  0.59863774  0.97235026  0.26696616  1.0
  N  N160  1  0.96583742  0.42230844  0.26482623  1.0
  N  N161  1  0.01547589  0.39953922  0.76955350  1.0
  N  N162  1  0.56648652  0.02970102  0.76694653  1.0
  N  N163  1  0.38980414  0.57538196  0.76496285  1.0
  N  N164  1  0.40270162  0.59287882  0.23303028  1.0
  N  N165  1  0.58733591  0.99462281  0.23048115  1.0
  N  N166  1  0.98767908  0.41197764  0.22816786  1.0
  N  N167  1  0.99299603  0.41018618  0.73298700  1.0
  N  N168  1  0.57775896  0.00724499  0.73051986  1.0
  N  N169  1  0.40138500  0.58625024  0.72832370  1.0
  Cl  Cl170  1  0.26104441  0.68464192  0.09424000  1.0
  Cl  Cl171  1  0.68133582  0.06145737  0.09448702  1.0
  Cl  Cl172  1  0.04164018  0.26979477  0.08994301  1.0
  Cl  Cl173  1  0.94908502  0.31475262  0.59435313  1.0
  Cl  Cl174  1  0.73940184  0.94158236  0.59490488  1.0
  Cl  Cl175  1  0.31238628  0.72719501  0.58964758  1.0
  O  O176  1  0.86241560  0.64072962  0.45892708  1.0
  O  O177  1  0.65051007  0.50589396  0.46303158  1.0
  O  O178  1  0.49731394  0.85527798  0.46288875  1.0
  O  O179  1  0.50627733  0.36017259  0.96026319  1.0
  O  O180  1  0.15668776  0.49559466  0.96278650  1.0
  O  O181  1  0.35021227  0.14469284  0.96305536  1.0
  O  O182  1  0.67475650  0.83751420  0.45818374  1.0
  O  O183  1  0.84859426  0.48405763  0.46025549  1.0
  O  O184  1  0.49482988  0.67497749  0.46066435  1.0
  O  O185  1  0.50708079  0.16692431  0.95702204  1.0
  O  O186  1  0.33417470  0.51459554  0.96016187  1.0
  O  O187  1  0.16910395  0.32686131  0.96036682  1.0
  O  O188  1  0.86091711  0.64309230  0.54103758  1.0
  O  O189  1  0.65628766  0.50376937  0.53807595  1.0
  O  O190  1  0.49546587  0.84920326  0.53893551  1.0
  O  O191  1  0.50048641  0.35403908  0.04249900  1.0
  O  O192  1  0.16031300  0.49521094  0.03795343  1.0
  O  O193  1  0.34350418  0.15183862  0.03920494  1.0
  O  O194  1  0.67057990  0.83672515  0.54009874  1.0
  O  O195  1  0.85360842  0.48410643  0.53676943  1.0
  O  O196  1  0.49513277  0.66782752  0.53596573  1.0
  O  O197  1  0.51005844  0.15695994  0.03836032  1.0
  O  O198  1  0.33784641  0.51579101  0.03665986  1.0
  O  O199  1  0.16133999  0.33199200  0.03563354  1.0
  O  O200  1  0.68062395  0.67169522  0.49947576  1.0
  O  O201  1  0.35177071  0.32804402  0.99950231  1.0
  O  O202  1  0.85689716  0.80835245  0.50140823  1.0
  O  O203  1  0.66462881  0.18609322  0.00130011  1.0
