# generated using pymatgen
data_Zn4H29C49N9O23
_symmetry_space_group_name_H-M   'P 1'
_cell_length_a   15.41285440
_cell_length_b   19.13886113
_cell_length_c   19.20461918
_cell_angle_alpha   94.88678483
_cell_angle_beta   102.82783295
_cell_angle_gamma   97.11596322
_symmetry_Int_Tables_number   1
_chemical_formula_structural   Zn4H29C49N9O23
_chemical_formula_sum   'Zn4 H29 C49 N9 O23'
_cell_volume   5443.82245032
_cell_formula_units_Z   1
loop_
 _symmetry_equiv_pos_site_id
 _symmetry_equiv_pos_as_xyz
  1  'x, y, z'
loop_
 _atom_site_type_symbol
 _atom_site_label
 _atom_site_symmetry_multiplicity
 _atom_site_fract_x
 _atom_site_fract_y
 _atom_site_fract_z
 _atom_site_occupancy
  Zn  Zn0  1  0.42425432  0.56078052  0.54374753  1.0
  Zn  Zn1  1  0.57905977  0.46609562  0.57096582  1.0
  Zn  Zn2  1  0.57732407  0.57032085  0.45149194  1.0
  Zn  Zn3  1  0.42782936  0.43361534  0.42328778  1.0
  H  H4  1  0.83049958  0.52182866  0.67168352  1.0
  H  H5  1  0.59914716  0.57436100  0.23651083  1.0
  H  H6  1  0.99012203  0.50206740  0.70978379  1.0
  H  H7  1  0.15711318  0.41998473  0.33374606  1.0
  H  H8  1  0.90327483  0.44053325  0.38441368  1.0
  H  H9  1  0.98819949  0.40447851  0.29699576  1.0
  H  H10  1  0.25703311  0.04519385  0.47615540  1.0
  H  H11  1  0.41053088  0.98511097  0.67863527  1.0
  H  H12  1  0.78043317  0.07780743  0.59597931  1.0
  H  H13  1  0.57360444  0.73474911  0.39480225  1.0
  H  H14  1  0.58914353  0.81819526  0.36327167  1.0
  H  H15  1  0.43191612  0.77237089  0.58639628  1.0
  H  H16  1  0.55565200  0.39043742  0.95358350  1.0
  H  H17  1  0.59539715  0.36153101  0.87756117  1.0
  H  H18  1  0.69815257  0.65826667  0.12461469  1.0
  H  H19  1  0.36317887  0.62676153  0.87267129  1.0
  H  H20  1  0.39195331  0.58369525  0.94866635  1.0
  H  H21  1  0.79218060  0.55448257  0.43177973  1.0
  H  H22  1  0.89161211  0.54042900  0.40643397  1.0
  H  H23  1  0.25358185  0.44168021  0.65157797  1.0
  H  H24  1  0.25937317  0.41325710  0.56710106  1.0
  H  H25  1  0.25091711  0.22760684  0.40717967  1.0
  H  H26  1  0.67422897  0.26144698  0.52265544  1.0
  H  H27  1  0.54905539  0.92158412  0.41989361  1.0
  H  H28  1  0.55169021  0.40962557  0.76429951  1.0
  H  H29  1  0.41665012  0.36457579  0.07790632  1.0
  H  H30  1  0.12490194  0.47391246  0.67924099  1.0
  H  H31  1  0.41277692  0.38239380  0.20809367  1.0
  H  H32  1  0.39417190  0.58052992  0.75730890  1.0
  C  C33  1  0.52677151  0.32474446  0.49287458  1.0
  C  C34  1  0.88272133  0.51622478  0.50691656  1.0
  C  C35  1  0.87140472  0.51583235  0.63263499  1.0
  C  C36  1  0.49922631  0.69535627  0.49728570  1.0
  C  C37  1  0.16165087  0.45112232  0.44448557  1.0
  C  C38  1  0.49594160  0.77252930  0.49815423  1.0
  C  C39  1  0.52995861  0.81458597  0.44918292  1.0
  C  C40  1  0.52530632  0.88792399  0.45692738  1.0
  C  C41  1  0.49034475  0.91929158  0.51052544  1.0
  C  C42  1  0.45443212  0.87759577  0.55832944  1.0
  C  C43  1  0.45819451  0.80509625  0.54993130  1.0
  C  C44  1  0.02365446  0.42435454  0.35219875  1.0
  C  C45  1  0.45346519  0.12580016  0.48011242  1.0
  C  C46  1  0.44951930  0.19861997  0.48133772  1.0
  C  C47  1  0.53824875  0.10216219  0.49754317  1.0
  C  C48  1  0.48126097  0.50155599  0.67971311  1.0
  C  C49  1  0.52965468  0.24723621  0.49627807  1.0
  C  C50  1  0.61283410  0.22334760  0.51148077  1.0
  C  C51  1  0.61773325  0.15130090  0.51300617  1.0
  C  C52  1  0.50442226  0.48037469  0.22970387  1.0
  C  C53  1  0.55792757  0.52923708  0.20117629  1.0
  C  C54  1  0.56006038  0.52071725  0.12840041  1.0
  C  C55  1  0.97615479  0.44564287  0.40146506  1.0
  C  C56  1  0.50628211  0.46107889  0.08349667  1.0
  C  C57  1  0.45599906  0.41052145  0.11335124  1.0
  C  C58  1  0.45369074  0.42044266  0.18518223  1.0
  C  C59  1  0.51504602  0.43938379  0.86424329  1.0
  C  C60  1  0.50171734  0.49093211  0.30691572  1.0
  C  C61  1  0.51689022  0.44494145  0.79212646  1.0
  C  C62  1  0.47103395  0.48853016  0.90008020  1.0
  C  C63  1  0.47423497  0.49583210  0.75556287  1.0
  C  C64  1  0.42726711  0.54207778  0.78813896  1.0
  C  C65  1  0.42548923  0.53929995  0.86033395  1.0
  C  C66  1  0.01857228  0.46929237  0.47475042  1.0
  C  C67  1  0.73936995  0.53859175  0.54414432  1.0
  C  C68  1  0.26176045  0.46795042  0.45788170  1.0
  C  C69  1  0.95876966  0.50412194  0.65334287  1.0
  C  C70  1  0.83205807  0.52389423  0.56019733  1.0
  C  C71  1  0.11748446  0.43037051  0.37292377  1.0
  C  C72  1  0.36888628  0.07312845  0.45462923  1.0
  C  C73  1  0.41674798  0.90422553  0.61834390  1.0
  C  C74  1  0.70919553  0.12940097  0.53208664  1.0
  C  C75  1  0.62520877  0.56916807  0.10162890  1.0
  C  C76  1  0.36135569  0.22694525  0.47290987  1.0
  C  C77  1  0.11237023  0.46376306  0.49797699  1.0
  C  C78  1  0.96888113  0.49228426  0.52633932  1.0
  C  C79  1  0.00912397  0.49245628  0.60078496  1.0
  C  C80  1  0.09797399  0.47711568  0.62216032  1.0
  C  C81  1  0.15042945  0.46387061  0.57417260  1.0
  N  N82  1  0.48449511  0.99241379  0.51445388  1.0
  N  N83  1  0.54888417  0.03015247  0.49879285  1.0
  N  N84  1  0.50132211  0.44764408  0.00980681  1.0
  N  N85  1  0.47171298  0.49520803  0.97167472  1.0
  N  N86  1  0.56462619  0.78650745  0.39602047  1.0
  N  N87  1  0.55491126  0.38936891  0.90010906  1.0
  N  N88  1  0.37950971  0.58244565  0.89433816  1.0
  N  N89  1  0.84889685  0.53102634  0.43874173  1.0
  N  N90  1  0.23608507  0.44811841  0.59867968  1.0
  O  O91  1  0.50050858  0.50807075  0.49571083  1.0
  O  O92  1  0.69335327  0.52894150  0.59187352  1.0
  O  O93  1  0.30155808  0.42261247  0.42876388  1.0
  O  O94  1  0.70532254  0.56040853  0.48307176  1.0
  O  O95  1  0.29818116  0.52770600  0.49309268  1.0
  O  O96  1  0.35148800  0.03366409  0.39855264  1.0
  O  O97  1  0.31143727  0.07887077  0.49846408  1.0
  O  O98  1  0.36965510  0.86650253  0.64829272  1.0
  O  O99  1  0.44056554  0.97523499  0.63968852  1.0
  O  O100  1  0.76982958  0.14861947  0.50346891  1.0
  O  O101  1  0.71874968  0.08889037  0.58726838  1.0
  O  O102  1  0.44112338  0.54761558  0.64618447  1.0
  O  O103  1  0.65617814  0.55563745  0.04955825  1.0
  O  O104  1  0.65254199  0.63247959  0.14498545  1.0
  O  O105  1  0.34226479  0.26317926  0.52107440  1.0
  O  O106  1  0.30573303  0.20641017  0.40724290  1.0
  O  O107  1  0.44575335  0.44658130  0.32716726  1.0
  O  O108  1  0.58812211  0.36722580  0.53760561  1.0
  O  O109  1  0.54671457  0.66748022  0.45788386  1.0
  O  O110  1  0.46386506  0.34048816  0.44439051  1.0
  O  O111  1  0.45566996  0.66181737  0.53628318  1.0
  O  O112  1  0.52808709  0.45950404  0.65451661  1.0
  O  O113  1  0.55466068  0.54295740  0.34641194  1.0
