# generated using pymatgen
data_ZnHC8NCl2(O2F)2
_symmetry_space_group_name_H-M   'P 1'
_cell_length_a   8.88379225
_cell_length_b   9.94823422
_cell_length_c   11.05388115
_cell_angle_alpha   89.72053936
_cell_angle_beta   88.08646076
_cell_angle_gamma   78.99080028
_symmetry_Int_Tables_number   1
_chemical_formula_structural   ZnHC8NCl2(O2F)2
_chemical_formula_sum   'Zn2 H2 C16 N2 Cl4 O8 F4'
_cell_volume   958.40582563
_cell_formula_units_Z   2
loop_
 _symmetry_equiv_pos_site_id
 _symmetry_equiv_pos_as_xyz
  1  'x, y, z'
loop_
 _atom_site_type_symbol
 _atom_site_label
 _atom_site_symmetry_multiplicity
 _atom_site_fract_x
 _atom_site_fract_y
 _atom_site_fract_z
 _atom_site_occupancy
  Zn  Zn0  1  0.48441655  0.64386353  0.49996600  1.0
  Zn  Zn1  1  0.51558427  0.35613254  0.50003614  1.0
  H  H2  1  0.03264302  0.34202621  0.49516252  1.0
  H  H3  1  0.96735817  0.65796267  0.50483061  1.0
  C  C4  1  0.49920829  0.49849725  0.26418554  1.0
  C  C5  1  0.62115120  0.53170343  0.06061748  1.0
  C  C6  1  0.50273523  0.50039976  0.87236345  1.0
  C  C7  1  0.49725716  0.49960465  0.12764422  1.0
  C  C8  1  0.40660267  0.08473680  0.57995305  1.0
  C  C9  1  0.59340577  0.91525503  0.42004536  1.0
  C  C10  1  0.40665156  0.94368864  0.57125006  1.0
  C  C11  1  0.59335928  0.05630826  0.42874918  1.0
  C  C12  1  0.50079059  0.50150294  0.73581842  1.0
  C  C13  1  0.79620966  0.45946620  0.49877632  1.0
  C  C14  1  0.20378488  0.54052790  0.50121781  1.0
  C  C15  1  0.96546660  0.44578090  0.49840564  1.0
  C  C16  1  0.03452915  0.55420706  0.50158669  1.0
  C  C17  1  0.37344127  0.46762616  0.06583398  1.0
  C  C18  1  0.62655780  0.53237912  0.93416723  1.0
  C  C19  1  0.37884084  0.46830301  0.93938748  1.0
  N  N20  1  0.49720963  0.86122148  0.49392396  1.0
  N  N21  1  0.50279837  0.13877853  0.50607441  1.0
  Cl  Cl22  1  0.21463528  0.43119506  0.14273213  1.0
  Cl  Cl23  1  0.78536227  0.56880618  0.85727275  1.0
  Cl  Cl24  1  0.28844335  0.18139512  0.68191909  1.0
  Cl  Cl25  1  0.71156502  0.81860284  0.31808109  1.0
  O  O26  1  0.48187888  0.61463331  0.31499643  1.0
  O  O27  1  0.51811339  0.38536598  0.68500947  1.0
  O  O28  1  0.51868843  0.38169391  0.31353742  1.0
  O  O29  1  0.48131409  0.61830518  0.68646286  1.0
  O  O30  1  0.71516143  0.57998491  0.50174187  1.0
  O  O31  1  0.28483633  0.42001015  0.49825129  1.0
  O  O32  1  0.74563184  0.34777660  0.49580971  1.0
  O  O33  1  0.25436702  0.65221235  0.50418889  1.0
  F  F34  1  0.25833581  0.43856834  0.87925715  1.0
  F  F35  1  0.74166630  0.56144406  0.12075120  1.0
  F  F36  1  0.31216381  0.88849402  0.64285560  1.0
  F  F37  1  0.68784929  0.11150284  0.35714360  1.0
