# generated using pymatgen
data_Pr2Cu3H24(C4O5)6
_symmetry_space_group_name_H-M   'P 1'
_cell_length_a   14.32013616
_cell_length_b   15.17722246
_cell_length_c   15.17729447
_cell_angle_alpha   119.99981026
_cell_angle_beta   89.99999928
_cell_angle_gamma   89.99992051
_symmetry_Int_Tables_number   1
_chemical_formula_structural   Pr2Cu3H24(C4O5)6
_chemical_formula_sum   'Pr4 Cu6 H48 C48 O60'
_cell_volume   2856.70417523
_cell_formula_units_Z   2
loop_
 _symmetry_equiv_pos_site_id
 _symmetry_equiv_pos_as_xyz
  1  'x, y, z'
loop_
 _atom_site_type_symbol
 _atom_site_label
 _atom_site_symmetry_multiplicity
 _atom_site_fract_x
 _atom_site_fract_y
 _atom_site_fract_z
 _atom_site_occupancy
  Pr  Pr0  1  0.24999922  0.66666667  0.33333333  1.0
  Pr  Pr1  1  0.25000017  0.33333333  0.66666667  1.0
  Pr  Pr2  1  0.75000100  0.33333333  0.66666667  1.0
  Pr  Pr3  1  0.74999936  0.66666667  0.33333333  1.0
  Cu  Cu4  1  0.00000033  0.49999970  0.50000005  1.0
  Cu  Cu5  1  0.99999996  0.99999916  0.49999946  1.0
  Cu  Cu6  1  0.00000033  0.50000088  0.00000060  1.0
  Cu  Cu7  1  0.50000009  0.99999910  0.50000000  1.0
  Cu  Cu8  1  0.49999977  0.49999992  0.49999983  1.0
  Cu  Cu9  1  0.49999977  0.49999940  0.99999961  1.0
  H  H10  1  0.84542198  0.20690416  0.84999209  1.0
  H  H11  1  0.75026360  0.29000882  0.91948797  1.0
  H  H12  1  0.84542235  0.64308799  0.79309351  1.0
  H  H13  1  0.75026405  0.62947869  0.70998837  1.0
  H  H14  1  0.84541993  0.15000822  0.35691185  1.0
  H  H15  1  0.75026306  0.08051188  0.37052274  1.0
  H  H16  1  0.84542224  0.79309545  0.15000835  1.0
  H  H17  1  0.75026469  0.70999058  0.08051179  1.0
  H  H18  1  0.84542117  0.35691114  0.20690465  1.0
  H  H19  1  0.75026424  0.37051995  0.29000988  1.0
  H  H20  1  0.84542010  0.84999271  0.64308858  1.0
  H  H21  1  0.75026244  0.91948855  0.62947777  1.0
  H  H22  1  0.65457801  0.35691208  0.15000782  1.0
  H  H23  1  0.74973631  0.37052075  0.08051190  1.0
  H  H24  1  0.65457904  0.84999355  0.20690458  1.0
  H  H25  1  0.74973591  0.91948921  0.29000969  1.0
  H  H26  1  0.65457978  0.79309579  0.64308870  1.0
  H  H27  1  0.74973746  0.70998846  0.62947784  1.0
  H  H28  1  0.65457850  0.64308843  0.84999127  1.0
  H  H29  1  0.74973752  0.62947931  0.91948786  1.0
  H  H30  1  0.65457886  0.15000668  0.79309527  1.0
  H  H31  1  0.74973583  0.08051019  0.70999007  1.0
  H  H32  1  0.65457952  0.20690482  0.35691192  1.0
  H  H33  1  0.74973707  0.29001132  0.37052268  1.0
  H  H34  1  0.15457895  0.79309634  0.15000790  1.0
  H  H35  1  0.24973732  0.70999167  0.08051201  1.0
  H  H36  1  0.15457787  0.35691185  0.20690648  1.0
  H  H37  1  0.24973618  0.37052049  0.29001162  1.0
  H  H38  1  0.15457960  0.84999162  0.64308814  1.0
  H  H39  1  0.24973717  0.91948795  0.62947724  1.0
  H  H40  1  0.15457799  0.20690438  0.84999163  1.0
  H  H41  1  0.24973554  0.29000992  0.91948820  1.0
  H  H42  1  0.15457906  0.64308869  0.79309533  1.0
  H  H43  1  0.24973599  0.62947989  0.70999011  1.0
  H  H44  1  0.15458013  0.15000816  0.35691215  1.0
  H  H45  1  0.24973709  0.08051128  0.37052220  1.0
  H  H46  1  0.34542222  0.64308672  0.84999140  1.0
  H  H47  1  0.25026461  0.62947805  0.91948732  1.0
  H  H48  1  0.34542119  0.15000629  0.79309541  1.0
  H  H49  1  0.25026362  0.08051063  0.70999030  1.0
  H  H50  1  0.34542045  0.20690405  0.35691129  1.0
  H  H51  1  0.25026277  0.29001175  0.37052290  1.0
  H  H52  1  0.34542103  0.35691273  0.15000872  1.0
  H  H53  1  0.25026271  0.37052090  0.08051288  1.0
  H  H54  1  0.34542137  0.84999382  0.20690472  1.0
  H  H55  1  0.25026370  0.91948965  0.29000992  1.0
  H  H56  1  0.34542071  0.79309568  0.64308807  1.0
  H  H57  1  0.25026246  0.70998852  0.62947731  1.0
  C  C58  1  0.35986464  0.87707500  0.35920371  1.0
  C  C59  1  0.70032005  0.14389875  0.73174001  1.0
  C  C60  1  0.35986354  0.48212866  0.12292472  1.0
  C  C61  1  0.70032112  0.58783950  0.85609979  1.0
  C  C62  1  0.35986342  0.64079652  0.51786772  1.0
  C  C63  1  0.70032066  0.26826167  0.41216013  1.0
  C  C64  1  0.35986520  0.12292480  0.64079715  1.0
  C  C65  1  0.70031952  0.85610178  0.26826056  1.0
  C  C66  1  0.35986631  0.51787236  0.87707463  1.0
  C  C67  1  0.70032055  0.41215961  0.14389926  1.0
  C  C68  1  0.35986503  0.35920280  0.48213086  1.0
  C  C69  1  0.70032031  0.73173886  0.58784044  1.0
  C  C70  1  0.14013586  0.51787231  0.64079636  1.0
  C  C71  1  0.79967994  0.41215850  0.26825991  1.0
  C  C72  1  0.14013318  0.35920296  0.87707555  1.0
  C  C73  1  0.79967970  0.73173941  0.14389988  1.0
  C  C74  1  0.14013545  0.12292792  0.48213104  1.0
  C  C75  1  0.79967891  0.85610143  0.58784036  1.0
  C  C76  1  0.14013448  0.48212948  0.35920395  1.0
  C  C77  1  0.79968051  0.58784044  0.73173906  1.0
  C  C78  1  0.14013646  0.64079779  0.12292400  1.0
  C  C79  1  0.79967935  0.26826029  0.85610061  1.0
  C  C80  1  0.14013629  0.87707009  0.51786698  1.0
  C  C81  1  0.79968014  0.14390024  0.41216012  1.0
  C  C82  1  0.64013558  0.12292483  0.64079627  1.0
  C  C83  1  0.29968018  0.85610109  0.26825998  1.0
  C  C84  1  0.64013529  0.51787250  0.87707527  1.0
  C  C85  1  0.29967841  0.41215996  0.14389944  1.0
  C  C86  1  0.64013611  0.35920332  0.48213226  1.0
  C  C87  1  0.29968027  0.73173949  0.58783986  1.0
  C  C88  1  0.64013502  0.87707608  0.35920360  1.0
  C  C89  1  0.29968001  0.14389844  0.73174019  1.0
  C  C90  1  0.64013392  0.48212682  0.12292536  1.0
  C  C91  1  0.29967968  0.58783985  0.85609996  1.0
  C  C92  1  0.64013520  0.64079741  0.51786988  1.0
  C  C93  1  0.29967922  0.26826098  0.41215955  1.0
  C  C94  1  0.85986437  0.48212715  0.35920286  1.0
  C  C95  1  0.20031959  0.58784134  0.73174008  1.0
  C  C96  1  0.85986635  0.64079698  0.12292596  1.0
  C  C97  1  0.20032052  0.26826043  0.85610011  1.0
  C  C98  1  0.85986408  0.87707126  0.51786894  1.0
  C  C99  1  0.20031992  0.14389907  0.41215963  1.0
  C  C100  1  0.85986575  0.51787102  0.64079604  1.0
  C  C101  1  0.20031972  0.41215940  0.26826093  1.0
  C  C102  1  0.85986586  0.35920167  0.87707523  1.0
  C  C103  1  0.20032088  0.73174021  0.14389938  1.0
  C  C104  1  0.85986394  0.12292899  0.48213149  1.0
  C  C105  1  0.20031939  0.85610025  0.58783986  1.0
  O  O106  1  0.36039192  0.81451901  0.39082134  1.0
  O  O107  1  0.40569655  0.95988661  0.39409426  1.0
  O  O108  1  0.36038861  0.57630417  0.18548201  1.0
  O  O109  1  0.40569624  0.43421042  0.04011700  1.0
  O  O110  1  0.36039207  0.60918043  0.42369966  1.0
  O  O111  1  0.40569821  0.60590579  0.56579168  1.0
  O  O112  1  0.36039239  0.18548250  0.60918030  1.0
  O  O113  1  0.40569584  0.04011377  0.60590657  1.0
  O  O114  1  0.36039151  0.42369723  0.81451810  1.0
  O  O115  1  0.40569545  0.56579062  0.95988383  1.0
  O  O116  1  0.36039293  0.39081872  0.57630121  1.0
  O  O117  1  0.40569837  0.39409356  0.43420840  1.0
  O  O118  1  0.13960870  0.42369807  0.60917879  1.0
  O  O119  1  0.09430386  0.56579315  0.60590654  1.0
  O  O120  1  0.13960732  0.39082137  0.81451593  1.0
  O  O121  1  0.09430538  0.39409301  0.95988173  1.0
  O  O122  1  0.13960748  0.18548192  0.57630062  1.0
  O  O123  1  0.09430075  0.04011476  0.43420865  1.0
  O  O124  1  0.13960649  0.57630164  0.39082000  1.0
  O  O125  1  0.09430325  0.43420778  0.39409457  1.0
  O  O126  1  0.13961065  0.60917730  0.18548209  1.0
  O  O127  1  0.09430313  0.60590771  0.04011633  1.0
  O  O128  1  0.13960771  0.81451921  0.42369969  1.0
  O  O129  1  0.09430147  0.95988513  0.56579170  1.0
  O  O130  1  0.63960831  0.18548083  0.60917865  1.0
  O  O131  1  0.59430368  0.04011295  0.60590649  1.0
  O  O132  1  0.63961023  0.42369557  0.81451646  1.0
  O  O133  1  0.59430399  0.56578903  0.95988222  1.0
  O  O134  1  0.63960816  0.39081913  0.57630108  1.0
  O  O135  1  0.59430132  0.39409405  0.43420831  1.0
  O  O136  1  0.63960784  0.81451810  0.39082121  1.0
  O  O137  1  0.59430439  0.95988606  0.39409341  1.0
  O  O138  1  0.63960802  0.57630327  0.18548189  1.0
  O  O139  1  0.59430339  0.43420922  0.04011616  1.0
  O  O140  1  0.63960660  0.60918112  0.42369878  1.0
  O  O141  1  0.59430186  0.60590628  0.56579159  1.0
  O  O142  1  0.86039083  0.57630204  0.39082043  1.0
  O  O143  1  0.90569568  0.43420697  0.39409269  1.0
  O  O144  1  0.86039221  0.60917913  0.18548406  1.0
  O  O145  1  0.90569485  0.60590748  0.04011824  1.0
  O  O146  1  0.86039205  0.81451688  0.42369861  1.0
  O  O147  1  0.90569808  0.95988404  0.56579058  1.0
  O  O148  1  0.86039374  0.42369754  0.60917999  1.0
  O  O149  1  0.90569628  0.56579102  0.60590466  1.0
  O  O150  1  0.86039097  0.39082160  0.81451865  1.0
  O  O151  1  0.90569571  0.39409420  0.95988518  1.0
  O  O152  1  0.86039252  0.18548129  0.57630030  1.0
  O  O153  1  0.90569807  0.04011471  0.43420829  1.0
  O  O154  1  0.74999968  0.23584585  0.76415335  1.0
  O  O155  1  0.75000016  0.52830813  0.76415402  1.0
  O  O156  1  0.74999968  0.23584645  0.47169246  1.0
  O  O157  1  0.74999929  0.76415459  0.23584717  1.0
  O  O158  1  0.75000020  0.47169231  0.23584650  1.0
  O  O159  1  0.74999998  0.76415399  0.52830806  1.0
  O  O160  1  0.25000055  0.76415464  0.23584662  1.0
  O  O161  1  0.24999937  0.47169247  0.23584749  1.0
  O  O162  1  0.24999985  0.76415338  0.52830751  1.0
  O  O163  1  0.25000024  0.23584563  0.76415358  1.0
  O  O164  1  0.25000003  0.52830753  0.76415349  1.0
  O  O165  1  0.25000024  0.23584623  0.47169269  1.0
