# generated using pymatgen
data_Zn2H14C33Br6N6O11
_symmetry_space_group_name_H-M   'P 1'
_cell_length_a   11.20518872
_cell_length_b   15.99997459
_cell_length_c   17.20179429
_cell_angle_alpha   96.01341265
_cell_angle_beta   90.40690537
_cell_angle_gamma   93.55251266
_symmetry_Int_Tables_number   1
_chemical_formula_structural   Zn2H14C33Br6N6O11
_chemical_formula_sum   'Zn2 H14 C33 Br6 N6 O11'
_cell_volume   3060.83423172
_cell_formula_units_Z   1
loop_
 _symmetry_equiv_pos_site_id
 _symmetry_equiv_pos_as_xyz
  1  'x, y, z'
loop_
 _atom_site_type_symbol
 _atom_site_label
 _atom_site_symmetry_multiplicity
 _atom_site_fract_x
 _atom_site_fract_y
 _atom_site_fract_z
 _atom_site_occupancy
  Zn  Zn0  1  0.51804580  0.58736539  0.49408204  1.0
  Zn  Zn1  1  0.50365944  0.40888112  0.49308756  1.0
  H  H2  1  0.88463164  0.38974200  0.44641253  1.0
  H  H3  1  0.60209524  0.57477322  0.10121926  1.0
  H  H4  1  0.65154047  0.58839716  0.89856570  1.0
  H  H5  1  0.87550600  0.62555166  0.58698008  1.0
  H  H6  1  0.63152752  0.31719611  0.38541839  1.0
  H  H7  1  0.30287833  0.38089185  0.31677702  1.0
  H  H8  1  0.32552128  0.37554900  0.10148109  1.0
  H  H9  1  0.37368533  0.71213084  0.56606750  1.0
  H  H10  1  0.34162544  0.15145387  0.61803263  1.0
  H  H11  1  0.36521487  0.30318076  0.58994345  1.0
  H  H12  1  0.60782228  0.09689361  0.44195429  1.0
  H  H13  1  0.64033070  0.89056467  0.41878488  1.0
  H  H14  1  0.11330221  0.55716756  0.47183833  1.0
  H  H15  1  0.62562461  0.57603061  0.24663343  1.0
  C  C16  1  0.49260144  0.52041292  0.64520719  1.0
  C  C17  1  0.48903976  0.47714527  0.25508023  1.0
  C  C18  1  0.40376899  0.41982960  0.21429584  1.0
  C  C19  1  0.27909314  0.49622893  0.48375352  1.0
  C  C20  1  0.39172738  0.41938965  0.13315820  1.0
  C  C21  1  0.55855847  0.22441922  0.46330151  1.0
  C  C22  1  0.55070611  0.13978372  0.47519187  1.0
  C  C23  1  0.47023622  0.11211571  0.53017065  1.0
  C  C24  1  0.40308229  0.17087696  0.57359153  1.0
  C  C25  1  0.41576736  0.25479225  0.55805453  1.0
  C  C26  1  0.41476430  0.84039746  0.54000813  1.0
  C  C27  1  0.37954466  0.49831418  0.76975506  1.0
  C  C28  1  0.43209729  0.75441351  0.53544534  1.0
  C  C29  1  0.49209958  0.89127980  0.49750269  1.0
  C  C30  1  0.59546948  0.76712065  0.45492488  1.0
  C  C31  1  0.50836165  0.48055728  0.34164915  1.0
  C  C32  1  0.58187676  0.85257881  0.45331656  1.0
  C  C33  1  0.74060328  0.49801834  0.50934742  1.0
  C  C34  1  0.93571222  0.43920016  0.48375746  1.0
  C  C35  1  0.87324920  0.49915406  0.52378872  1.0
  C  C36  1  0.06482185  0.43245656  0.48583638  1.0
  C  C37  1  0.14735147  0.49609703  0.47956293  1.0
  C  C38  1  0.37408270  0.49705355  0.85122952  1.0
  C  C39  1  0.48388335  0.52725214  0.73325351  1.0
  C  C40  1  0.92407170  0.56671054  0.58314249  1.0
  C  C41  1  0.64373163  0.25377349  0.40324873  1.0
  C  C42  1  0.31916943  0.36263045  0.25387577  1.0
  C  C43  1  0.47601305  0.52754925  0.89728313  1.0
  C  C44  1  0.57648519  0.56245783  0.86125141  1.0
  C  C45  1  0.58106233  0.56057378  0.78062497  1.0
  C  C46  1  0.54718135  0.53225559  0.13370007  1.0
  C  C47  1  0.56001375  0.53264724  0.21390940  1.0
  C  C48  1  0.46128610  0.47580818  0.09296057  1.0
  Br  Br49  1  0.22955595  0.46142178  0.89721828  1.0
  Br  Br50  1  0.24416713  0.46340650  0.70466691  1.0
  Br  Br51  1  0.28540703  0.88045228  0.59916709  1.0
  Br  Br52  1  0.72288798  0.71908857  0.39894742  1.0
  Br  Br53  1  0.09927346  0.31861015  0.49540146  1.0
  Br  Br54  1  0.72428185  0.60278389  0.73594307  1.0
  N  N55  1  0.49165286  0.53034552  0.97902107  1.0
  N  N56  1  0.43978686  0.47086633  0.01122401  1.0
  N  N57  1  0.49103613  0.28098534  0.50362964  1.0
  N  N58  1  0.46011816  0.02644670  0.54640995  1.0
  N  N59  1  0.48906854  0.97757657  0.48834019  1.0
  N  N60  1  0.52103552  0.71849799  0.49434143  1.0
  O  O61  1  0.48082353  0.58677099  0.61234687  1.0
  O  O62  1  0.72045266  0.20894746  0.37535774  1.0
  O  O63  1  0.26703323  0.29991601  0.21915579  1.0
  O  O64  1  0.51419277  0.44813314  0.61281991  1.0
  O  O65  1  0.33521304  0.56643117  0.47421309  1.0
  O  O66  1  0.32675874  0.42871532  0.49667687  1.0
  O  O67  1  0.53982939  0.55230737  0.37729947  1.0
  O  O68  1  0.49253116  0.41193087  0.37284061  1.0
  O  O69  1  0.69380437  0.56869301  0.51956203  1.0
  O  O70  1  0.68610185  0.42688538  0.48905098  1.0
  O  O71  1  0.00789195  0.55879126  0.62727825  1.0
