# generated using pymatgen
data_AlH11C20Cl2O9
_symmetry_space_group_name_H-M   'P 1'
_cell_length_a   6.90490454
_cell_length_b   25.40478871
_cell_length_c   28.68608066
_cell_angle_alpha   89.99317429
_cell_angle_beta   90.06921386
_cell_angle_gamma   89.99869175
_symmetry_Int_Tables_number   1
_chemical_formula_structural   AlH11C20Cl2O9
_chemical_formula_sum   'Al4 H44 C80 Cl8 O36'
_cell_volume   5032.04088745
_cell_formula_units_Z   4
loop_
 _symmetry_equiv_pos_site_id
 _symmetry_equiv_pos_as_xyz
  1  'x, y, z'
loop_
 _atom_site_type_symbol
 _atom_site_label
 _atom_site_symmetry_multiplicity
 _atom_site_fract_x
 _atom_site_fract_y
 _atom_site_fract_z
 _atom_site_occupancy
  Al  Al0  1  0.65458580  0.74777079  0.75051883  1.0
  Al  Al1  1  0.34687329  0.25141756  0.25035466  1.0
  Al  Al2  1  0.15458851  0.75129687  0.75001214  1.0
  Al  Al3  1  0.84685284  0.24802218  0.24999576  1.0
  H  H4  1  0.33780543  0.42473344  0.42798611  1.0
  H  H5  1  0.65407818  0.57486260  0.57309347  1.0
  H  H6  1  0.66817100  0.57621842  0.92985143  1.0
  H  H7  1  0.34842452  0.41970696  0.06964797  1.0
  H  H8  1  0.84009779  0.07546545  0.07204814  1.0
  H  H9  1  0.15737427  0.92433420  0.92747692  1.0
  H  H10  1  0.16005321  0.92469747  0.57283841  1.0
  H  H11  1  0.84360586  0.07463775  0.42739298  1.0
  H  H12  1  0.76453309  0.34555510  0.35175852  1.0
  H  H13  1  0.23135678  0.65328723  0.64802850  1.0
  H  H14  1  0.23907913  0.65070593  0.84916316  1.0
  H  H15  1  0.77043970  0.35129615  0.15143190  1.0
  H  H16  1  0.26596173  0.15310712  0.14877272  1.0
  H  H17  1  0.73339412  0.84554193  0.85256619  1.0
  H  H18  1  0.73500267  0.84645519  0.64905094  1.0
  H  H19  1  0.26762703  0.15344287  0.35210855  1.0
  H  H20  1  0.81850109  0.50983737  0.42575339  1.0
  H  H21  1  0.16983547  0.48879268  0.57507990  1.0
  H  H22  1  0.15111698  0.48284900  0.92193849  1.0
  H  H23  1  0.87195834  0.51654271  0.07811112  1.0
  H  H24  1  0.32396855  0.98912521  0.07488640  1.0
  H  H25  1  0.67184962  0.01039060  0.92531748  1.0
  H  H26  1  0.67697357  0.01063609  0.57508851  1.0
  H  H27  1  0.32717880  0.98903095  0.42562017  1.0
  H  H28  1  0.40871941  0.33381981  0.33502196  1.0
  H  H29  1  0.58712024  0.66611992  0.66581913  1.0
  H  H30  1  0.59451486  0.66613576  0.83596217  1.0
  H  H31  1  0.41494209  0.33095505  0.16429480  1.0
  H  H32  1  0.91052190  0.16666160  0.16475037  1.0
  H  H33  1  0.08902844  0.83298416  0.83478413  1.0
  H  H34  1  0.09074663  0.83355096  0.66563019  1.0
  H  H35  1  0.91180690  0.16547605  0.33430995  1.0
  H  H36  1  0.59052035  0.39256723  0.39989602  1.0
  H  H37  1  0.40235714  0.60608651  0.59985529  1.0
  H  H38  1  0.41465813  0.60327019  0.89737201  1.0
  H  H39  1  0.60041581  0.39901261  0.10308210  1.0
  H  H40  1  0.09266394  0.10645040  0.10028543  1.0
  H  H41  1  0.90526156  0.89283790  0.90066589  1.0
  H  H42  1  0.90781959  0.89340486  0.60078805  1.0
  H  H43  1  0.09566159  0.10636568  0.40031791  1.0
  H  H44  1  0.39198428  0.67902318  0.75022021  1.0
  H  H45  1  0.60932476  0.32022737  0.25023284  1.0
  H  H46  1  0.89163903  0.82004268  0.75060744  1.0
  H  H47  1  0.10925468  0.17922953  0.24929893  1.0
  C  C48  1  0.41160084  0.81265884  0.68715506  1.0
  C  C49  1  0.58999679  0.18697865  0.31352913  1.0
  C  C50  1  0.58992344  0.18709404  0.18667000  1.0
  C  C51  1  0.41111238  0.81176682  0.81398243  1.0
  C  C52  1  0.91349803  0.68621537  0.81327640  1.0
  C  C53  1  0.09162114  0.31275733  0.18704521  1.0
  C  C54  1  0.08869488  0.31227859  0.31372223  1.0
  C  C55  1  0.90995201  0.68723292  0.68662820  1.0
  C  C56  1  0.23722714  0.37177681  0.37465410  1.0
  C  C57  1  0.75721195  0.62789170  0.62610415  1.0
  C  C58  1  0.76695233  0.62771860  0.87512420  1.0
  C  C59  1  0.24501398  0.36976391  0.12495120  1.0
  C  C60  1  0.73905142  0.12818619  0.12545217  1.0
  C  C61  1  0.25961350  0.87120448  0.87449599  1.0
  C  C62  1  0.26168053  0.87185949  0.62616258  1.0
  C  C63  1  0.74132420  0.12757215  0.37420708  1.0
  C  C64  1  0.21176180  0.40715005  0.41130594  1.0
  C  C65  1  0.78088019  0.59234642  0.58951651  1.0
  C  C66  1  0.79348064  0.59253245  0.91192210  1.0
  C  C67  1  0.22162354  0.40477178  0.08790461  1.0
  C  C68  1  0.71387168  0.09273763  0.08883729  1.0
  C  C69  1  0.28389520  0.90677387  0.91106189  1.0
  C  C70  1  0.28646819  0.90730241  0.58952477  1.0
  C  C71  1  0.71705369  0.09220205  0.41091852  1.0
  C  C72  1  0.02760170  0.42108922  0.42712188  1.0
  C  C73  1  0.96414478  0.57797190  0.57341111  1.0
  C  C74  1  0.97824023  0.57723530  0.92628199  1.0
  C  C75  1  0.03874499  0.42173832  0.07361357  1.0
  C  C76  1  0.52985604  0.07836561  0.07313308  1.0
  C  C77  1  0.46744823  0.92104039  0.92715578  1.0
  C  C78  1  0.47026999  0.92155242  0.57367603  1.0
  C  C79  1  0.53346097  0.07814531  0.42704826  1.0
  C  C80  1  0.86359456  0.39883882  0.40488003  1.0
  C  C81  1  0.12936479  0.60004991  0.59526868  1.0
  C  C82  1  0.14157922  0.59804735  0.90292508  1.0
  C  C83  1  0.87354401  0.40259206  0.09737614  1.0
  C  C84  1  0.36564110  0.10031394  0.09543295  1.0
  C  C85  1  0.63227815  0.89890744  0.90528585  1.0
  C  C86  1  0.63473992  0.89951243  0.59590547  1.0
  C  C87  1  0.36868304  0.10028724  0.40506139  1.0
  C  C88  1  0.88940970  0.36339118  0.36859708  1.0
  C  C89  1  0.10548867  0.63564755  0.63147596  1.0
  C  C90  1  0.11480449  0.63366332  0.86677515  1.0
  C  C91  1  0.89666350  0.36693236  0.13358262  1.0
  C  C92  1  0.39112304  0.13567709  0.13180421  1.0
  C  C93  1  0.60779160  0.86326601  0.86910407  1.0
  C  C94  1  0.60966339  0.86405573  0.63222181  1.0
  C  C95  1  0.39320053  0.13573370  0.36873867  1.0
  C  C96  1  0.07432751  0.34931890  0.35270518  1.0
  C  C97  1  0.92155042  0.65010913  0.64767999  1.0
  C  C98  1  0.92927626  0.64895583  0.85208545  1.0
  C  C99  1  0.08031642  0.35001849  0.14817522  1.0
  C  C100  1  0.57587602  0.15016445  0.14760407  1.0
  C  C101  1  0.42355051  0.84887392  0.85292746  1.0
  C  C102  1  0.42513620  0.84967937  0.64814261  1.0
  C  C103  1  0.57745491  0.14992310  0.35252886  1.0
  C  C104  1  0.89559018  0.50483592  0.45858682  1.0
  C  C105  1  0.09303885  0.49382996  0.54221060  1.0
  C  C106  1  0.09018263  0.49057912  0.95627363  1.0
  C  C107  1  0.93237127  0.50876653  0.04374662  1.0
  C  C108  1  0.40014285  0.99419044  0.04197264  1.0
  C  C109  1  0.59577090  0.00532537  0.95823195  1.0
  C  C110  1  0.60043263  0.00550009  0.54219677  1.0
  C  C111  1  0.40383848  0.99417482  0.45850182  1.0
  C  C112  1  0.88248039  0.54398463  0.49239448  1.0
  C  C113  1  0.10606610  0.45468006  0.50840990  1.0
  C  C114  1  0.10155075  0.45189668  0.99058997  1.0
  C  C115  1  0.92129145  0.54745409  0.00947460  1.0
  C  C116  1  0.38747119  0.95490920  0.00826514  1.0
  C  C117  1  0.60831217  0.04462078  0.99191886  1.0
  C  C118  1  0.61358122  0.04457403  0.50830851  1.0
  C  C119  1  0.39092013  0.95508395  0.49237339  1.0
  C  C120  1  0.98096323  0.53915752  0.53525980  1.0
  C  C121  1  0.00844184  0.45961425  0.46544085  1.0
  C  C122  1  0.02261974  0.46033775  0.03522162  1.0
  C  C123  1  0.99856113  0.53882603  0.96473112  1.0
  C  C124  1  0.48482434  0.95983977  0.96531576  1.0
  C  C125  1  0.51138491  0.03965440  0.03491572  1.0
  C  C126  1  0.51580428  0.03954160  0.46537026  1.0
  C  C127  1  0.48842342  0.96013134  0.53534784  1.0
  Cl  Cl128  1  0.74756958  0.59951839  0.47896142  1.0
  Cl  Cl129  1  0.24021673  0.39904002  0.52190106  1.0
  Cl  Cl130  1  0.20927355  0.39252353  0.97602288  1.0
  Cl  Cl131  1  0.81553830  0.60703352  0.02408559  1.0
  Cl  Cl132  1  0.25436701  0.89914673  0.02184910  1.0
  Cl  Cl133  1  0.74083825  0.10045095  0.97821453  1.0
  Cl  Cl134  1  0.74810489  0.10018980  0.52164379  1.0
  Cl  Cl135  1  0.25703498  0.89938396  0.47894828  1.0
  O  O136  1  0.24023025  0.79939731  0.79819245  1.0
  O  O137  1  0.76158741  0.20000402  0.20171128  1.0
  O  O138  1  0.76073424  0.19908837  0.29758106  1.0
  O  O139  1  0.24013652  0.80004646  0.70241560  1.0
  O  O140  1  0.73928707  0.69962054  0.70246716  1.0
  O  O141  1  0.26010467  0.30014957  0.29812635  1.0
  O  O142  1  0.26250645  0.29954387  0.20230297  1.0
  O  O143  1  0.74151567  0.69891906  0.79831898  1.0
  O  O144  1  0.56927255  0.79534283  0.70418075  1.0
  O  O145  1  0.43165881  0.20477604  0.29722523  1.0
  O  O146  1  0.43241053  0.20403996  0.20396137  1.0
  O  O147  1  0.56938893  0.79421391  0.79753452  1.0
  O  O148  1  0.07055938  0.70366642  0.79615552  1.0
  O  O149  1  0.93313689  0.29580145  0.20387089  1.0
  O  O150  1  0.93112119  0.29448357  0.29707301  1.0
  O  O151  1  0.06847524  0.70479098  0.70300256  1.0
  O  O152  1  0.40264878  0.71705904  0.74994861  1.0
  O  O153  1  0.59888834  0.28218523  0.25014228  1.0
  O  O154  1  0.90243692  0.78200587  0.75057734  1.0
  O  O155  1  0.09876244  0.21726082  0.25006637  1.0
  O  O156  1  0.42187346  0.35981557  0.36098371  1.0
  O  O157  1  0.57304682  0.64005133  0.63997749  1.0
  O  O158  1  0.58202276  0.64067638  0.86236561  1.0
  O  O159  1  0.42902673  0.35583465  0.13756471  1.0
  O  O160  1  0.92371454  0.14057675  0.13887228  1.0
  O  O161  1  0.07526802  0.85907805  0.86062795  1.0
  O  O162  1  0.07720309  0.85963986  0.63974687  1.0
  O  O163  1  0.92559681  0.13954341  0.36029196  1.0
  O  O164  1  0.68282154  0.41207346  0.41973308  1.0
  O  O165  1  0.30973333  0.58658579  0.58018481  1.0
  O  O166  1  0.32224049  0.58326110  0.91673866  1.0
  O  O167  1  0.69369148  0.41892841  0.08402934  1.0
  O  O168  1  0.18489278  0.08685790  0.08057493  1.0
  O  O169  1  0.81285883  0.91238631  0.92032233  1.0
  O  O170  1  0.81536791  0.91293616  0.58103617  1.0
  O  O171  1  0.18817567  0.08698199  0.42014335  1.0
