# generated using pymatgen
data_Zn2H28C31(NO5)2
_symmetry_space_group_name_H-M   'P 1'
_cell_length_a   9.73551666
_cell_length_b   11.04042681
_cell_length_c   13.80530604
_cell_angle_alpha   86.01473371
_cell_angle_beta   78.82576358
_cell_angle_gamma   88.50916058
_symmetry_Int_Tables_number   1
_chemical_formula_structural   Zn2H28C31(NO5)2
_chemical_formula_sum   'Zn2 H28 C31 N2 O10'
_cell_volume   1452.08341051
_cell_formula_units_Z   1
loop_
 _symmetry_equiv_pos_site_id
 _symmetry_equiv_pos_as_xyz
  1  'x, y, z'
loop_
 _atom_site_type_symbol
 _atom_site_label
 _atom_site_symmetry_multiplicity
 _atom_site_fract_x
 _atom_site_fract_y
 _atom_site_fract_z
 _atom_site_occupancy
  Zn  Zn0  1  0.36061559  0.49334857  0.50198978  1.0
  Zn  Zn1  1  0.64653023  0.49106346  0.49438097  1.0
  H  H2  1  0.17451065  0.51671448  0.34627023  1.0
  H  H3  1  0.17274768  0.90202950  0.47233393  1.0
  H  H4  1  0.91396898  0.52047979  0.34692126  1.0
  H  H5  1  0.02700017  0.43633248  0.13938152  1.0
  H  H6  1  0.04841550  0.59377670  0.15084704  1.0
  H  H7  1  0.94681369  0.54574604  0.06738815  1.0
  H  H8  1  0.18662342  0.61502382  0.97646079  1.0
  H  H9  1  0.16131318  0.46101098  0.96110302  1.0
  H  H10  1  0.29418918  0.39801601  0.09365525  1.0
  H  H11  1  0.31352659  0.54966295  0.11835645  1.0
  H  H12  1  0.77282049  0.68905507  0.65095484  1.0
  H  H13  1  0.08125166  0.37413683  0.71867116  1.0
  H  H14  1  0.92714664  0.69299665  0.70370327  1.0
  H  H15  1  0.77968862  0.73581851  0.86776911  1.0
  H  H16  1  0.74627101  0.84635811  0.77452843  1.0
  H  H17  1  0.62510549  0.72716176  0.81735699  1.0
  H  H18  1  0.75182846  0.20566023  0.33182240  1.0
  H  H19  1  0.81131950  0.05344703  0.30799247  1.0
  H  H20  1  0.03593782  0.09537976  0.36221095  1.0
  H  H21  1  0.00957175  0.20197438  0.26425936  1.0
  H  H22  1  0.97572304  0.24549105  0.38877251  1.0
  H  H23  1  0.07739308  0.53418968  0.72764929  1.0
  H  H24  1  0.82345873  0.37377489  0.71955993  1.0
  H  H25  1  0.66203644  0.51816773  0.95325678  1.0
  H  H26  1  0.72162821  0.86742562  0.47747161  1.0
  H  H27  1  0.18574256  0.12507988  0.59353415  1.0
  H  H28  1  0.18977825  0.12994049  0.46384644  1.0
  H  H29  1  0.16523199  0.89736069  0.60270873  1.0
  C  C30  1  0.49087136  0.72608349  0.50879515  1.0
  C  C31  1  0.21833518  0.93863462  0.53089363  1.0
  C  C32  1  0.90920515  0.48342472  0.58261415  1.0
  C  C33  1  0.45702720  0.46755431  0.69033915  1.0
  C  C34  1  0.95407605  0.50865577  0.41551163  1.0
  C  C35  1  0.09767041  0.50615432  0.41510290  1.0
  C  C36  1  0.05272393  0.47917016  0.58179645  1.0
  C  C37  1  0.03772735  0.46009218  0.69218908  1.0
  C  C38  1  0.87216985  0.46247463  0.69671176  1.0
  C  C39  1  0.51345169  0.25947414  0.48624123  1.0
  C  C40  1  0.55810167  0.52381923  0.30424248  1.0
  C  C41  1  0.44253195  0.47184395  0.79590663  1.0
  C  C42  1  0.57619366  0.52963845  0.19792097  1.0
  C  C43  1  0.56733659  0.51472719  0.01067278  1.0
  C  C44  1  0.44082133  0.49719807  0.98394128  1.0
  C  C45  1  0.43984800  0.48340705  0.88348659  1.0
  C  C46  1  0.57735663  0.52533898  0.10953940  1.0
  C  C47  1  0.30451282  0.49119576  0.05845941  1.0
  C  C48  1  0.17307130  0.52502189  0.01656789  1.0
  C  C49  1  0.04173709  0.52526285  0.09773755  1.0
  C  C50  1  0.81403796  0.67256786  0.71984983  1.0
  C  C51  1  0.73669703  0.74988009  0.79983727  1.0
  C  C52  1  0.37713508  0.93597745  0.51301420  1.0
  C  C53  1  0.81889191  0.13073266  0.35338356  1.0
  C  C54  1  0.96896762  0.17059747  0.34160346  1.0
  C  C55  1  0.49575809  0.86114312  0.50417788  1.0
  C  C56  1  0.62486000  0.92092451  0.48605052  1.0
  C  C57  1  0.63564708  0.04759780  0.47605989  1.0
  C  C58  1  0.51417831  0.12415921  0.48806157  1.0
  C  C59  1  0.38735581  0.06217582  0.50674591  1.0
  C  C60  1  0.22994077  0.08156835  0.52497752  1.0
  N  N61  1  0.85641947  0.49657911  0.50037347  1.0
  N  N62  1  0.14977945  0.48986001  0.49947597  1.0
  O  O63  1  0.37772263  0.67896710  0.49695698  1.0
  O  O64  1  0.76996195  0.09230094  0.45627070  1.0
  O  O65  1  0.60114047  0.66781123  0.52292412  1.0
  O  O66  1  0.34838026  0.49314711  0.65370555  1.0
  O  O67  1  0.57840891  0.44049287  0.64305395  1.0
  O  O68  1  0.39291643  0.30993359  0.50889085  1.0
  O  O69  1  0.62916041  0.31566681  0.46375159  1.0
  O  O70  1  0.43320430  0.50204251  0.35022783  1.0
  O  O71  1  0.66457476  0.53882992  0.34302308  1.0
  O  O72  1  0.79225656  0.54712549  0.75495092  1.0
