# generated using pymatgen
data_Zn4H6C60I9O13F15
_symmetry_space_group_name_H-M   'P 1'
_cell_length_a   17.78888664
_cell_length_b   17.83407388
_cell_length_c   17.80861768
_cell_angle_alpha   64.69086628
_cell_angle_beta   69.55107892
_cell_angle_gamma   87.46098987
_symmetry_Int_Tables_number   1
_chemical_formula_structural   Zn4H6C60I9O13F15
_chemical_formula_sum   'Zn4 H6 C60 I9 O13 F15'
_cell_volume   4748.65639680
_cell_formula_units_Z   1
loop_
 _symmetry_equiv_pos_site_id
 _symmetry_equiv_pos_as_xyz
  1  'x, y, z'
loop_
 _atom_site_type_symbol
 _atom_site_label
 _atom_site_symmetry_multiplicity
 _atom_site_fract_x
 _atom_site_fract_y
 _atom_site_fract_z
 _atom_site_occupancy
  Zn  Zn0  1  0.56980444  0.43663191  0.56140414  1.0
  Zn  Zn1  1  0.41159303  0.52995551  0.57662352  1.0
  Zn  Zn2  1  0.46680994  0.43707838  0.45171968  1.0
  Zn  Zn3  1  0.56878116  0.61062699  0.39305169  1.0
  H  H4  1  0.07182971  0.24147491  0.67312393  1.0
  H  H5  1  0.29678723  0.92836201  0.41463739  1.0
  H  H6  1  0.51247292  0.53143920  0.79026039  1.0
  H  H7  1  0.57905290  0.59383196  0.81314309  1.0
  H  H8  1  0.46190563  0.38471512  0.17507639  1.0
  H  H9  1  0.86328143  0.39362124  0.58997286  1.0
  C  C10  1  0.45827727  0.71159687  0.46227653  1.0
  C  C11  1  0.92851021  0.40674456  0.56673424  1.0
  C  C12  1  0.97095239  0.34693471  0.60698237  1.0
  C  C13  1  0.54443199  0.29365388  0.53504370  1.0
  C  C14  1  0.05503383  0.36508774  0.58777090  1.0
  C  C15  1  0.09134447  0.44992238  0.52748480  1.0
  C  C16  1  0.10027598  0.30561429  0.62955649  1.0
  C  C17  1  0.17895297  0.32850110  0.61569327  1.0
  C  C18  1  0.16598027  0.47134829  0.52952674  1.0
  C  C19  1  0.55179187  0.20320054  0.55913558  1.0
  C  C20  1  0.43569610  0.79475557  0.45924560  1.0
  C  C21  1  0.82295839  0.67235897  0.40947592  1.0
  C  C22  1  0.58686328  0.06939600  0.64879325  1.0
  C  C23  1  0.58444413  0.15405846  0.62390478  1.0
  C  C24  1  0.52118176  0.16192168  0.52253046  1.0
  C  C25  1  0.46330219  0.43959297  0.72646190  1.0
  C  C26  1  0.51202885  0.07419130  0.55421966  1.0
  C  C27  1  0.55109922  0.02766973  0.61550537  1.0
  C  C28  1  0.46886302  0.03052053  0.52622845  1.0
  C  C29  1  0.48222049  0.94730543  0.53917546  1.0
  C  C30  1  0.51965084  0.90318729  0.60204856  1.0
  C  C31  1  0.55043352  0.94073430  0.64017575  1.0
  C  C32  1  0.84340233  0.52793101  0.45505887  1.0
  C  C33  1  0.40307027  0.06156615  0.49800289  1.0
  C  C34  1  0.36086439  0.02021161  0.47245827  1.0
  C  C35  1  0.38443480  0.94387686  0.46841189  1.0
  C  C36  1  0.44841054  0.90875592  0.49937976  1.0
  C  C37  1  0.54720312  0.55749040  0.26722876  1.0
  C  C38  1  0.34561953  0.90237794  0.43742281  1.0
  C  C39  1  0.36929802  0.82815836  0.43699160  1.0
  C  C40  1  0.47554395  0.83800130  0.48587247  1.0
  C  C41  1  0.56193212  0.57502741  0.17260862  1.0
  C  C42  1  0.45224830  0.41603200  0.82146319  1.0
  C  C43  1  0.92184672  0.54666898  0.45120331  1.0
  C  C44  1  0.64736453  0.64772941  0.01555896  1.0
  C  C45  1  0.63083833  0.62906572  0.10394317  1.0
  C  C46  1  0.51297774  0.53633285  0.14932367  1.0
  C  C47  1  0.53665739  0.54244787  0.06161166  1.0
  C  C48  1  0.60119667  0.60664967  0.99048662  1.0
  C  C49  1  0.29718920  0.44243533  0.54980757  1.0
  C  C50  1  0.50173464  0.48520129  0.04085679  1.0
  C  C51  1  0.51456463  0.50469052  0.95142651  1.0
  C  C52  1  0.56842783  0.57696779  0.88264798  1.0
  C  C53  1  0.61317058  0.62384861  0.90019512  1.0
  C  C54  1  0.95689189  0.63284990  0.40520815  1.0
  C  C55  1  0.46285764  0.40448544  0.10797407  1.0
  C  C56  1  0.43072375  0.34776322  0.09065603  1.0
  C  C57  1  0.43493032  0.36825238  0.00199717  1.0
  C  C58  1  0.47755699  0.44820513  0.93154875  1.0
  C  C59  1  0.40259690  0.31528527  0.97698979  1.0
  C  C60  1  0.41262370  0.33763866  0.88921575  1.0
  C  C61  1  0.70587137  0.57031100  0.45091366  1.0
  C  C62  1  0.48308599  0.47025578  0.84351675  1.0
  C  C63  1  0.79241330  0.58977822  0.43720565  1.0
  C  C64  1  0.21200091  0.41335777  0.56758770  1.0
  C  C65  1  0.96777177  0.48589469  0.49518597  1.0
  C  C66  1  0.90333556  0.69400141  0.39141752  1.0
  C  C67  1  0.05080241  0.50758923  0.47334413  1.0
  C  C68  1  0.08977235  0.58516045  0.39534088  1.0
  C  C69  1  0.04428112  0.64917725  0.36868794  1.0
  I  I70  1  0.10067166  0.76497962  0.25953437  1.0
  I  I71  1  0.26034911  0.07091040  0.44324373  1.0
  I  I72  1  0.69562432  0.72213256  0.78581455  1.0
  I  I73  1  0.37822816  0.23241491  0.20417618  1.0
  I  I74  1  0.39156306  0.49118661  0.24139157  1.0
  I  I75  1  0.24754865  0.23739953  0.67153525  1.0
  I  I76  1  0.90634025  0.22928891  0.70397095  1.0
  I  I77  1  0.80844481  0.41225183  0.46172150  1.0
  I  I78  1  0.20896808  0.58904272  0.30986353  1.0
  O  O79  1  0.50523327  0.50663005  0.49455568  1.0
  O  O80  1  0.30868920  0.47219555  0.59866867  1.0
  O  O81  1  0.68238508  0.61180900  0.38662449  1.0
  O  O82  1  0.34964006  0.43442316  0.48445753  1.0
  O  O83  1  0.66391134  0.51377338  0.52788332  1.0
  O  O84  1  0.50987441  0.39833197  0.69044639  1.0
  O  O85  1  0.55822698  0.61850138  0.28284204  1.0
  O  O86  1  0.40542923  0.65060444  0.52336220  1.0
  O  O87  1  0.48553549  0.32093124  0.51052952  1.0
  O  O88  1  0.52563650  0.70992696  0.40688471  1.0
  O  O89  1  0.59466663  0.33517514  0.54395677  1.0
  O  O90  1  0.42644436  0.49925842  0.69062496  1.0
  O  O91  1  0.52730240  0.48070911  0.32349355  1.0
  F  F92  1  0.57869038  0.89190040  0.70403119  1.0
  F  F93  1  0.38117100  0.28362870  0.86972781  1.0
  F  F94  1  0.71196571  0.70489926  0.95475183  1.0
  F  F95  1  0.68259094  0.66518790  0.12248849  1.0
  F  F96  1  0.36010827  0.23988792  0.03824324  1.0
  F  F97  1  0.92746221  0.77553933  0.36249994  1.0
  F  F98  1  0.77396281  0.73303963  0.39866286  1.0
  F  F99  1  0.54504955  0.81097795  0.49669754  1.0
  F  F100  1  0.32999637  0.78684655  0.41027462  1.0
  F  F101  1  0.62367424  0.02743051  0.70681527  1.0
  F  F102  1  0.61500646  0.18840578  0.66282290  1.0
  F  F103  1  0.50540745  0.20913925  0.44851202  1.0
  F  F104  1  0.51657538  0.81928367  0.63603029  1.0
  F  F105  1  0.37456794  0.12975166  0.50745174  1.0
  F  F106  1  0.19484968  0.55329685  0.49450627  1.0
