# generated using pymatgen
data_Zn6H72C92I12N24O5
_symmetry_space_group_name_H-M   'P 1'
_cell_length_a   14.83803217
_cell_length_b   19.06244150
_cell_length_c   30.47401906
_cell_angle_alpha   100.40114787
_cell_angle_beta   89.99923518
_cell_angle_gamma   112.91339149
_symmetry_Int_Tables_number   1
_chemical_formula_structural   Zn6H72C92I12N24O5
_chemical_formula_sum   'Zn12 H144 C184 I24 N48 O10'
_cell_volume   7785.42670715
_cell_formula_units_Z   2
loop_
 _symmetry_equiv_pos_site_id
 _symmetry_equiv_pos_as_xyz
  1  'x, y, z'
loop_
 _atom_site_type_symbol
 _atom_site_label
 _atom_site_symmetry_multiplicity
 _atom_site_fract_x
 _atom_site_fract_y
 _atom_site_fract_z
 _atom_site_occupancy
  Zn  Zn0  1  0.25573250  0.21690055  0.17275004  1.0
  Zn  Zn1  1  0.96121554  0.21679447  0.67269908  1.0
  Zn  Zn2  1  0.30418887  0.81461232  0.00724630  1.0
  Zn  Zn3  1  0.51046090  0.81464653  0.50708781  1.0
  Zn  Zn4  1  0.57535314  0.41505735  0.34599264  1.0
  Zn  Zn5  1  0.83945033  0.41503786  0.84599097  1.0
  Zn  Zn6  1  0.31335319  0.91683580  0.71592517  1.0
  Zn  Zn7  1  0.60352235  0.91693775  0.21600395  1.0
  Zn  Zn8  1  0.26264584  0.31876296  0.88483129  1.0
  Zn  Zn9  1  0.05611630  0.31861273  0.38481126  1.0
  Zn  Zn10  1  0.98739027  0.72032116  0.54360592  1.0
  Zn  Zn11  1  0.73287050  0.72021533  0.04353692  1.0
  H  H12  1  0.07067794  0.10083122  0.11431052  1.0
  H  H13  1  0.03015548  0.10066670  0.61425732  1.0
  H  H14  1  0.89054038  0.07533300  0.10761105  1.0
  H  H15  1  0.18488239  0.07526251  0.60756179  1.0
  H  H16  1  0.95181514  0.27451828  0.21379305  1.0
  H  H17  1  0.32275977  0.27453029  0.71372039  1.0
  H  H18  1  0.12941070  0.29269755  0.21569390  1.0
  H  H19  1  0.16330478  0.29260784  0.71560464  1.0
  H  H20  1  0.31529509  0.93012429  0.09108759  1.0
  H  H21  1  0.61467105  0.93003709  0.59090816  1.0
  H  H22  1  0.44579962  0.04203270  0.14201363  1.0
  H  H23  1  0.59605464  0.04181326  0.64193850  1.0
  H  H24  1  0.66182143  0.98131501  0.06764775  1.0
  H  H25  1  0.31937314  0.98127513  0.56757256  1.0
  H  H26  1  0.52351480  0.87580838  0.01816179  1.0
  H  H27  1  0.35205913  0.87574477  0.51804202  1.0
  H  H28  1  0.75426126  0.41013661  0.30666713  1.0
  H  H29  1  0.65556016  0.40994832  0.80666984  1.0
  H  H30  1  0.80484350  0.32697887  0.24713602  1.0
  H  H31  1  0.52199860  0.32683211  0.74705608  1.0
  H  H32  1  0.50054681  0.16794248  0.22312217  1.0
  H  H33  1  0.66760412  0.16806169  0.72300363  1.0
  H  H34  1  0.46335684  0.25439869  0.28693036  1.0
  H  H35  1  0.79109575  0.25450963  0.78686975  1.0
  H  H36  1  0.61719039  0.33819953  0.41401112  1.0
  H  H37  1  0.72049735  0.33794143  0.91396064  1.0
  H  H38  1  0.76033082  0.34947962  0.46359292  1.0
  H  H39  1  0.58871773  0.34936537  0.96357176  1.0
  H  H40  1  0.93024089  0.56412422  0.42187022  1.0
  H  H41  1  0.63410276  0.56420988  0.92197580  1.0
  H  H42  1  0.78003673  0.54403706  0.37349839  1.0
  H  H43  1  0.76408945  0.54398270  0.87358950  1.0
  H  H44  1  0.08097354  0.37945072  0.66681062  1.0
  H  H45  1  0.29835832  0.37953151  0.16681931  1.0
  H  H46  1  0.10572873  0.46817365  0.61220037  1.0
  H  H47  1  0.36231296  0.46821707  0.11217091  1.0
  H  H48  1  0.86466464  0.28540085  0.52795932  1.0
  H  H49  1  0.42068306  0.28543242  0.02801150  1.0
  H  H50  1  0.85383505  0.20136488  0.58466711  1.0
  H  H51  1  0.34747509  0.20144329  0.08473759  1.0
  H  H52  1  0.34144817  0.71827927  0.43708298  1.0
  H  H53  1  0.37694110  0.71836662  0.93722541  1.0
  H  H54  1  0.17639373  0.60617385  0.43295449  1.0
  H  H55  1  0.42986433  0.60628134  0.93303089  1.0
  H  H56  1  0.23711751  0.60718052  0.57144846  1.0
  H  H57  1  0.36994944  0.60700285  0.07148920  1.0
  H  H58  1  0.39884663  0.71920883  0.57013573  1.0
  H  H59  1  0.32020286  0.71901319  0.07022762  1.0
  H  H60  1  0.43993132  0.84237749  0.67379278  1.0
  H  H61  1  0.40263344  0.84255944  0.17375337  1.0
  H  H62  1  0.61708335  0.85993434  0.67756355  1.0
  H  H63  1  0.24297817  0.86009100  0.17751449  1.0
  H  H64  1  0.67849457  0.06697026  0.77791938  1.0
  H  H65  1  0.38838242  0.06695594  0.27801608  1.0
  H  H66  1  0.49871473  0.04220724  0.76923545  1.0
  H  H67  1  0.54346148  0.04223432  0.26935642  1.0
  H  H68  1  0.10321431  0.87992517  0.60315252  1.0
  H  H69  1  0.77684325  0.87981130  0.10298051  1.0
  H  H70  1  0.06789076  0.96710156  0.66715709  1.0
  H  H71  1  0.89948722  0.96702638  0.16694826  1.0
  H  H72  1  0.76287900  0.80751701  0.64510722  1.0
  H  H73  1  0.04469525  0.80735577  0.14499374  1.0
  H  H74  1  0.81155613  0.72544972  0.58455828  1.0
  H  H75  1  0.91380258  0.72521837  0.08447785  1.0
  H  H76  1  0.04373838  0.25084892  0.87776958  1.0
  H  H77  1  0.20689061  0.25051944  0.37775333  1.0
  H  H78  1  0.90524444  0.14619299  0.82752188  1.0
  H  H79  1  0.24070035  0.14593029  0.32740167  1.0
  H  H80  1  0.12151513  0.09833592  0.74677215  1.0
  H  H81  1  0.97653029  0.09817683  0.24669748  1.0
  H  H82  1  0.25192750  0.20901551  0.79879862  1.0
  H  H83  1  0.95692424  0.20887285  0.29878109  1.0
  H  H84  1  0.78291028  0.59471071  0.51693908  1.0
  H  H85  1  0.81180680  0.59468979  0.01693063  1.0
  H  H86  1  0.63469265  0.57327536  0.46689035  1.0
  H  H87  1  0.93873796  0.57339623  0.96691758  1.0
  H  H88  1  0.80704773  0.78404395  0.42228769  1.0
  H  H89  1  0.97707870  0.78412721  0.92232257  1.0
  H  H90  1  0.94936039  0.79600024  0.47295151  1.0
  H  H91  1  0.84664613  0.79599289  0.97296717  1.0
  H  H92  1  0.16079636  0.41910278  0.32352888  1.0
  H  H93  1  0.25835992  0.41916126  0.82365209  1.0
  H  H94  1  0.32132701  0.53255649  0.32209042  1.0
  H  H95  1  0.21119363  0.53252013  0.82214942  1.0
  H  H96  1  0.39167486  0.52413933  0.45787694  1.0
  H  H97  1  0.13225712  0.52414392  0.95791153  1.0
  H  H98  1  0.22992203  0.41213085  0.45404524  1.0
  H  H99  1  0.18199154  0.41216841  0.95413472  1.0
  H  H100  1  0.71717990  0.92754933  0.30067126  1.0
  H  H101  1  0.21067749  0.92765901  0.80074315  1.0
  H  H102  1  0.70554740  0.84258028  0.35696330  1.0
  H  H103  1  0.13732976  0.84268691  0.85704193  1.0
  H  H104  1  0.43203190  0.67862941  0.28594186  1.0
  H  H105  1  0.24630415  0.67851601  0.78585029  1.0
  H  H106  1  0.45444657  0.76847379  0.23257595  1.0
  H  H107  1  0.31369757  0.76833964  0.73248090  1.0
  H  H108  1  0.36678400  0.27009279  0.56384072  1.0
  H  H109  1  0.90339215  0.27021625  0.06385452  1.0
  H  H110  1  0.24457347  0.29109665  0.51655728  1.0
  H  H111  1  0.04665084  0.29125363  0.01660219  1.0
  H  H112  1  0.20609471  0.29181392  0.57195984  1.0
  H  H113  1  0.08578112  0.29191637  0.07199570  1.0
  H  H114  1  0.20592741  0.40789048  0.54046547  1.0
  H  H115  1  0.20210455  0.40803918  0.04053868  1.0
  H  H116  1  0.24395818  0.42259717  0.62498043  1.0
  H  H117  1  0.17871366  0.42264526  0.12504704  1.0
  H  H118  1  0.30130640  0.50978831  0.60453738  1.0
  H  H119  1  0.20862097  0.50988503  0.10464043  1.0
  H  H120  1  0.46409094  0.37239582  0.62702853  1.0
  H  H121  1  0.90834589  0.37244791  0.12707032  1.0
  H  H122  1  0.33853963  0.34262482  0.63882385  1.0
  H  H123  1  0.00406377  0.34261856  0.13886384  1.0
  H  H124  1  0.37935427  0.48549757  0.68702797  1.0
  H  H125  1  0.10617825  0.48552623  0.18712817  1.0
  H  H126  1  0.42954222  0.60171000  0.63277040  1.0
  H  H127  1  0.17222969  0.60163932  0.13278808  1.0
  H  H128  1  0.68733164  0.60482697  0.68837677  1.0
  H  H129  1  0.91768220  0.60492483  0.18846085  1.0
  H  H130  1  0.63139086  0.55815108  0.63348493  1.0
  H  H131  1  0.92685063  0.55821156  0.13356851  1.0
  H  H132  1  0.53844897  0.52529199  0.72145471  1.0
  H  H133  1  0.98680750  0.52527521  0.22152576  1.0
  H  H134  1  0.54471807  0.45619324  0.67587395  1.0
  H  H135  1  0.91151949  0.45623077  0.17589892  1.0
  H  H136  1  0.44749776  0.62796689  0.73510069  1.0
  H  H137  1  0.18076916  0.62800188  0.23511134  1.0
  H  H138  1  0.51843921  0.73212241  0.69176083  1.0
  H  H139  1  0.21380220  0.73211479  0.19171198  1.0
  H  H140  1  0.30010183  0.53142289  0.75099455  1.0
  H  H141  1  0.23151709  0.53142620  0.25088874  1.0
  H  H142  1  0.11716401  0.48057944  0.75061547  1.0
  H  H143  1  0.36361286  0.48057580  0.25047537  1.0
  H  H144  1  0.02335744  0.52605902  0.70370999  1.0
  H  H145  1  0.50284366  0.52611955  0.20350421  1.0
  H  H146  1  0.11122525  0.61980707  0.65471445  1.0
  H  H147  1  0.50864889  0.61987067  0.15455818  1.0
  H  H148  1  0.29254584  0.66931414  0.65485132  1.0
  H  H149  1  0.37690767  0.66944225  0.15480148  1.0
  H  H150  1  0.52412558  0.54562882  0.51610505  1.0
  H  H151  1  0.02166950  0.54584279  0.01622762  1.0
  H  H152  1  0.49872514  0.45445005  0.47840702  1.0
  H  H153  1  0.95587026  0.45465446  0.97852131  1.0
  H  H154  1  0.58942951  0.48689236  0.52469859  1.0
  H  H155  1  0.89761214  0.48705824  0.02480784  1.0
  C  C156  1  0.04098083  0.13864302  0.13495199  1.0
  C  C157  1  0.09766976  0.13850489  0.63489491  1.0
  C  C158  1  0.94162801  0.12464385  0.13147784  1.0
  C  C159  1  0.18302963  0.12453547  0.63144021  1.0
  C  C160  1  0.90782194  0.17400802  0.15992237  1.0
  C  C161  1  0.26620867  0.17392910  0.65988705  1.0
  C  C162  1  0.97602674  0.23607247  0.19055799  1.0
  C  C163  1  0.26008829  0.23601116  0.69050160  1.0
  C  C164  1  0.07382169  0.24632029  0.19172285  1.0
  C  C165  1  0.17252365  0.24623615  0.69164253  1.0
  C  C166  1  0.80231501  0.16047295  0.16012481  1.0
  C  C167  1  0.35816435  0.16042322  0.66005671  1.0
  C  C168  1  0.64230315  0.08619423  0.13832574  1.0
  C  C169  1  0.44385120  0.08611829  0.63824436  1.0
  C  C170  1  0.68396272  0.19119811  0.19489626  1.0
  C  C171  1  0.50728058  0.19115330  0.69478880  1.0
  C  C172  1  0.39320741  0.94450965  0.08698500  1.0
  C  C173  1  0.55110958  0.94439243  0.58685152  1.0
  C  C174  1  0.46567660  0.00578247  0.11527414  1.0
  C  C175  1  0.53992319  0.00562291  0.61517913  1.0
  C  C176  1  0.56442103  0.02084663  0.10852077  1.0
  C  C177  1  0.45630289  0.02074317  0.60842810  1.0
  C  C178  1  0.58631198  0.97301483  0.07345200  1.0
  C  C179  1  0.38657369  0.97295682  0.57335001  1.0
  C  C180  1  0.50936885  0.91382369  0.04605701  1.0
  C  C181  1  0.40425792  0.91374195  0.54593792  1.0
  C  C182  1  0.70057620  0.35549183  0.28779102  1.0
  C  C183  1  0.65472001  0.35538095  0.78775507  1.0
  C  C184  1  0.72829198  0.30999557  0.25434342  1.0
  C  C185  1  0.58160900  0.30989934  0.75426089  1.0
  C  C186  1  0.65611191  0.24119104  0.23041892  1.0
  C  C187  1  0.58512447  0.24117202  0.73030945  1.0
  C  C188  1  0.55874990  0.22037963  0.24156422  1.0
  C  C189  1  0.66173910  0.22044161  0.74145449  1.0
  C  C190  1  0.53767129  0.26816055  0.27652926  1.0
  C  C191  1  0.73050927  0.26821700  0.77645602  1.0
  C  C192  1  0.68833686  0.38692945  0.41670589  1.0
  C  C193  1  0.69819344  0.38671317  0.91666701  1.0
  C  C194  1  0.76695887  0.39353176  0.44410998  1.0
  C  C195  1  0.62623538  0.39340685  0.94407997  1.0
  C  C196  1  0.85602838  0.45757393  0.44597163  1.0
  C  C197  1  0.60144868  0.45754576  0.94599002  1.0
  C  C198  1  0.86209389  0.51335214  0.42060662  1.0
  C  C199  1  0.65128730  0.51334781  0.92067712  1.0
  C  C200  1  0.77982556  0.50260798  0.39408883  1.0
  C  C201  1  0.72275001  0.50253574  0.89414294  1.0
  C  C202  1  0.94105646  0.46644213  0.47507185  1.0
  C  C203  1  0.52536740  0.46647787  0.97511768  1.0
  C  C204  1  0.00115952  0.43294929  0.53244824  1.0
  C  C205  1  0.43179719  0.43297664  0.03249154  1.0
  C  C206  1  0.09966495  0.53320446  0.50195243  1.0
  C  C207  1  0.43359556  0.53324494  0.00200901  1.0
  C  C208  1  0.03678945  0.36020889  0.63494387  1.0
  C  C209  1  0.32330084  0.36027928  0.13496166  1.0
  C  C210  1  0.04943094  0.40948118  0.60496580  1.0
  C  C211  1  0.35990311  0.40952070  0.10496164  1.0
  C  C212  1  0.98753345  0.38268563  0.56566124  1.0
  C  C213  1  0.39508232  0.38271639  0.06568821  1.0
  C  C214  1  0.91401173  0.30759516  0.55822033  1.0
  C  C215  1  0.39348797  0.30763141  0.05825031  1.0
  C  C216  1  0.90782016  0.26118585  0.58927072  1.0
  C  C217  1  0.35327974  0.26124764  0.08931355  1.0
  C  C218  1  0.31490857  0.69099769  0.46576448  1.0
  C  C219  1  0.37619385  0.69105777  0.96588536  1.0
  C  C220  1  0.22449731  0.62931269  0.46366043  1.0
  C  C221  1  0.40490969  0.62937569  0.96375205  1.0
  C  C222  1  0.19582341  0.59770021  0.50187027  1.0
  C  C223  1  0.40191815  0.59770931  0.00193717  1.0
  C  C224  1  0.25861116  0.62985556  0.54104996  1.0
  C  C225  1  0.37116256  0.62974618  0.04111425  1.0
  C  C226  1  0.34715863  0.69193198  0.54056002  1.0
  C  C227  1  0.34468369  0.69180718  0.04065804  1.0
  C  C228  1  0.49544272  0.89097002  0.69652749  1.0
  C  C229  1  0.39564868  0.89112096  0.19651890  1.0
  C  C230  1  0.59298770  0.90063208  0.69888814  1.0
  C  C231  1  0.30774672  0.90074425  0.19886230  1.0
  C  C232  1  0.66084777  0.96449222  0.72850898  1.0
  C  C233  1  0.30368653  0.96453498  0.22851916  1.0
  C  C234  1  0.62744106  0.01649188  0.75474143  1.0
  C  C235  1  0.38902992  0.01652759  0.25480490  1.0
  C  C236  1  0.52848349  0.00295932  0.75017679  1.0
  C  C237  1  0.47447711  0.00302386  0.25025244  1.0
  C  C238  1  0.76597916  0.97707423  0.72944297  1.0
  C  C239  1  0.21108678  0.97704139  0.22940913  1.0
  C  C240  1  0.88457036  0.94498192  0.69579749  1.0
  C  C241  1  0.06047636  0.94486925  0.19566197  1.0
  C  C242  1  0.92560567  0.04932791  0.75265401  1.0
  C  C243  1  0.12354389  0.04917545  0.25257527  1.0
  C  C244  1  0.02913757  0.86680442  0.61372006  1.0
  C  C245  1  0.83781975  0.86670324  0.11354840  1.0
  C  C246  1  0.00903038  0.91490122  0.64884851  1.0
  C  C247  1  0.90608746  0.91481482  0.14863787  1.0
  C  C248  1  0.91193397  0.89449049  0.66039986  1.0
  C  C249  1  0.98270994  0.89437907  0.16021990  1.0
  C  C250  1  0.83898640  0.82555010  0.63699355  1.0
  C  C251  1  0.98665269  0.82539974  0.13685258  1.0
  C  C252  1  0.86581959  0.78006516  0.60317215  1.0
  C  C253  1  0.91426246  0.77987433  0.10305252  1.0
  C  C254  1  0.05771324  0.21596700  0.84820808  1.0
  C  C255  1  0.15806018  0.21571342  0.34816354  1.0
  C  C256  1  0.98094582  0.15733638  0.82044837  1.0
  C  C257  1  0.17615998  0.15711927  0.32036133  1.0
  C  C258  1  0.00313411  0.11369985  0.78327188  1.0
  C  C259  1  0.11030042  0.11349964  0.28318250  1.0
  C  C260  1  0.10176723  0.13183099  0.77505898  1.0
  C  C261  1  0.02980708  0.13163829  0.27499268  1.0
  C  C262  1  0.17400690  0.19229837  0.80386021  1.0
  C  C263  1  0.01809139  0.19211211  0.30381887  1.0
  C  C264  1  0.78424160  0.63490948  0.49527609  1.0
  C  C265  1  0.85067240  0.63490614  0.99526770  1.0
  C  C266  1  0.70310224  0.62339198  0.46784413  1.0
  C  C267  1  0.92036891  0.62346511  0.96786984  1.0
  C  C268  1  0.70982237  0.67791999  0.44151653  1.0
  C  C269  1  0.96814179  0.67799070  0.94153888  1.0
  C  C270  1  0.79952717  0.74103583  0.44268788  1.0
  C  C271  1  0.94157605  0.74110034  0.94271187  1.0
  C  C272  1  0.87751750  0.74824151  0.47080412  1.0
  C  C273  1  0.87073946  0.74824826  0.97081221  1.0
  C  C274  1  0.62347650  0.66870770  0.41321414  1.0
  C  C275  1  0.04522676  0.66873123  0.91322630  1.0
  C  C276  1  0.46329955  0.60236119  0.38916756  1.0
  C  C277  1  0.13897810  0.60234918  0.88918472  1.0
  C  C278  1  0.55773795  0.70294156  0.35781077  1.0
  C  C279  1  0.14516585  0.70292063  0.85781310  1.0
  C  C280  1  0.21462136  0.44463559  0.35238504  1.0
  C  C281  1  0.23001979  0.44468617  0.85248728  1.0
  C  C282  1  0.30240325  0.50718372  0.35176540  1.0
  C  C283  1  0.20471955  0.50717550  0.85183608  1.0
  C  C284  1  0.36808240  0.53723981  0.39002911  1.0
  C  C285  1  0.16905645  0.53722760  0.89007768  1.0
  C  C286  1  0.34266277  0.50311489  0.42756595  1.0
  C  C287  1  0.16030705  0.50312066  0.92761748  1.0
  C  C288  1  0.25273948  0.44092324  0.42567165  1.0
  C  C289  1  0.18804650  0.44093758  0.92575691  1.0
  C  C290  1  0.65594983  0.87152867  0.29880976  1.0
  C  C291  1  0.21572457  0.87157263  0.79883856  1.0
  C  C292  1  0.64945632  0.82458700  0.32953506  1.0
  C  C293  1  0.17526371  0.82462980  0.82956876  1.0
  C  C294  1  0.56797451  0.75404327  0.32535623  1.0
  C  C295  1  0.18602409  0.75402445  0.82534689  1.0
  C  C296  1  0.49605906  0.73323017  0.29026941  1.0
  C  C297  1  0.23695496  0.73313555  0.79021073  1.0
  C  C298  1  0.50828907  0.78308120  0.26065384  1.0
  C  C299  1  0.27456357  0.78298773  0.76059093  1.0
  C  C300  1  0.44172297  0.44551562  0.54247992  1.0
  C  C301  1  0.00396635  0.44569220  0.04257639  1.0
  C  C302  1  0.36385560  0.32761946  0.56800295  1.0
  C  C303  1  0.96385599  0.32774374  0.06804782  1.0
  C  C304  1  0.26394884  0.32254381  0.55141692  1.0
  C  C305  1  0.05869675  0.32267589  0.05146527  1.0
  C  C306  1  0.27259791  0.40586118  0.55474424  1.0
  C  C307  1  0.13340545  0.40600471  0.05481960  1.0
  C  C308  1  0.29945556  0.45124364  0.60295957  1.0
  C  C309  1  0.15189967  0.45132560  0.10304341  1.0
  C  C310  1  0.40004495  0.45500919  0.61865861  1.0
  C  C311  1  0.05506472  0.45507246  0.11874983  1.0
  C  C312  1  0.39299567  0.37178318  0.61653576  1.0
  C  C313  1  0.97885365  0.37184608  0.11658881  1.0
  C  C314  1  0.43796477  0.50834414  0.66488366  1.0
  C  C315  1  0.07046206  0.50838728  0.16497202  1.0
  C  C316  1  0.45888503  0.59426778  0.66399826  1.0
  C  C317  1  0.13549779  0.59427680  0.16404225  1.0
  C  C318  1  0.57078637  0.63520321  0.66618611  1.0
  C  C319  1  0.06457444  0.63522185  0.16620782  1.0
  C  C320  1  0.61702244  0.57797192  0.66805704  1.0
  C  C321  1  0.96108185  0.57802876  0.16812857  1.0
  C  C322  1  0.53624571  0.51149355  0.68470734  1.0
  C  C323  1  0.97530327  0.51152958  0.18477325  1.0
  C  C324  1  0.41911134  0.63571919  0.70340914  1.0
  C  C325  1  0.21681412  0.63577368  0.20340341  1.0
  C  C326  1  0.30820725  0.60207144  0.70200378  1.0
  C  C327  1  0.29405506  0.60212082  0.20193845  1.0
  C  C328  1  0.25814571  0.54921435  0.72906083  1.0
  C  C329  1  0.29125264  0.54922227  0.22895588  1.0
  C  C330  1  0.15592955  0.52134153  0.72929834  1.0
  C  C331  1  0.36557882  0.52132668  0.22915151  1.0
  C  C332  1  0.10283637  0.54665377  0.70262553  1.0
  C  C333  1  0.44393531  0.54666243  0.20244977  1.0
  C  C334  1  0.15204564  0.59902490  0.67528933  1.0
  C  C335  1  0.44707550  0.59907337  0.17514448  1.0
  C  C336  1  0.25400840  0.62611203  0.67483423  1.0
  C  C337  1  0.37223782  0.62619950  0.17474555  1.0
  C  C338  1  0.51884522  0.48594437  0.51320211  1.0
  C  C339  1  0.96726740  0.48614246  0.01331488  1.0
  I  I340  1  0.31467757  0.30398982  0.25007121  1.0
  I  I341  1  0.98935272  0.30388800  0.75004380  1.0
  I  I342  1  0.26780224  0.08736861  0.14220935  1.0
  I  I343  1  0.81914702  0.08746623  0.64227810  1.0
  I  I344  1  0.33517632  0.86139479  0.93339650  1.0
  I  I345  1  0.52611558  0.86143791  0.43324317  1.0
  I  I346  1  0.14667989  0.77655967  0.04838098  1.0
  I  I347  1  0.63011633  0.77677774  0.54822273  1.0
  I  I348  1  0.61263560  0.52807191  0.30571246  1.0
  I  I349  1  0.91514748  0.52814386  0.80576565  1.0
  I  I350  1  0.42490576  0.34114794  0.38445978  1.0
  I  I351  1  0.91604832  0.34117650  0.88441786  1.0
  I  I352  1  0.28982518  0.04343290  0.74349908  1.0
  I  I353  1  0.75351134  0.04357675  0.24372675  1.0
  I  I354  1  0.24554736  0.82264235  0.64107524  1.0
  I  I355  1  0.57702501  0.82294061  0.14107799  1.0
  I  I356  1  0.41951778  0.35409031  0.84240622  1.0
  I  I357  1  0.93442781  0.35385970  0.34245318  1.0
  I  I358  1  0.23462682  0.27255882  0.95901647  1.0
  I  I359  1  0.03851200  0.27255736  0.45904967  1.0
  I  I360  1  0.13838426  0.78957422  0.50403168  1.0
  I  I361  1  0.65133910  0.78987308  0.00420947  1.0
  I  I362  1  0.94252529  0.60402509  0.58245892  1.0
  I  I363  1  0.66137968  0.60409915  0.08249537  1.0
  N  N364  1  0.10606781  0.19843367  0.16454360  1.0
  N  N365  1  0.09238719  0.19832037  0.66446461  1.0
  N  N366  1  0.73680963  0.09902902  0.13201761  1.0
  N  N367  1  0.36218380  0.09897009  0.63194299  1.0
  N  N368  1  0.61249789  0.12857287  0.17064889  1.0
  N  N369  1  0.51604078  0.12849459  0.67056462  1.0
  N  N370  1  0.78006903  0.21103371  0.18998556  1.0
  N  N371  1  0.43103269  0.21101489  0.68988258  1.0
  N  N372  1  0.41469979  0.89962881  0.05273619  1.0
  N  N373  1  0.48472110  0.89953464  0.55259773  1.0
  N  N374  1  0.60729209  0.33479336  0.29896288  1.0
  N  N375  1  0.72736316  0.33476524  0.79892822  1.0
  N  N376  1  0.69468220  0.44029433  0.39193131  1.0
  N  N377  1  0.74536489  0.44011972  0.89193574  1.0
  N  N378  1  0.92425208  0.41838147  0.50409767  1.0
  N  N379  1  0.49412745  0.41841167  0.00413948  1.0
  N  N380  1  0.08970508  0.49067312  0.53364307  1.0
  N  N381  1  0.40099451  0.49069464  0.03369135  1.0
  N  N382  1  0.02828870  0.52280344  0.47132862  1.0
  N  N383  1  0.49456528  0.52285461  0.97138516  1.0
  N  N384  1  0.96856293  0.28690571  0.62684561  1.0
  N  N385  1  0.31830519  0.28700569  0.12689176  1.0
  N  N386  1  0.37498265  0.72165099  0.50349761  1.0
  N  N387  1  0.34670520  0.72164230  0.00362789  1.0
  N  N388  1  0.46357441  0.94120634  0.72160454  1.0
  N  N389  1  0.47768804  0.94132841  0.22165301  1.0
  N  N390  1  0.78851735  0.92651562  0.69979117  1.0
  N  N391  1  0.13809773  0.92647922  0.19970868  1.0
  N  N392  1  0.95606893  0.00681768  0.72073632  1.0
  N  N393  1  0.05066198  0.00663032  0.22061590  1.0
  N  N394  1  0.83127122  0.03787748  0.75810721  1.0
  N  N395  1  0.20648413  0.03779748  0.25806596  1.0
  N  N396  1  0.95869487  0.80048245  0.59139420  1.0
  N  N397  1  0.84183303  0.80031636  0.09126806  1.0
  N  N398  1  0.15238279  0.23344970  0.83995032  1.0
  N  N399  1  0.08090528  0.23322621  0.33991860  1.0
  N  N400  1  0.86980761  0.69660202  0.49703382  1.0
  N  N401  1  0.82674768  0.69655057  0.99700656  1.0
  N  N402  1  0.53701807  0.61257549  0.41836181  1.0
  N  N403  1  0.07548640  0.61257967  0.91837863  1.0
  N  N404  1  0.46963000  0.64555378  0.35818250  1.0
  N  N405  1  0.17584670  0.64552237  0.85819113  1.0
  N  N406  1  0.63753669  0.71621066  0.38409072  1.0
  N  N407  1  0.07867000  0.71622157  0.88410205  1.0
  N  N408  1  0.18988386  0.41230186  0.38882620  1.0
  N  N409  1  0.22239770  0.41236173  0.88893632  1.0
  N  N410  1  0.58683544  0.85098945  0.26486242  1.0
  N  N411  1  0.26411579  0.85095958  0.76483654  1.0
  O  O412  1  0.47014780  0.48903336  0.58726399  1.0
  O  O413  1  0.01906826  0.48916198  0.08736591  1.0
  O  O414  1  0.35018365  0.44430052  0.52744404  1.0
  O  O415  1  0.09428663  0.44447558  0.02752958  1.0
  O  O416  1  0.43710181  0.36913810  0.54006402  1.0
  O  O417  1  0.93217226  0.36931445  0.04013448  1.0
  O  O418  1  0.61488764  0.70566957  0.66835525  1.0
  O  O419  1  0.09097137  0.70566965  0.16829583  1.0
  O  O420  1  0.45191485  0.71644686  0.70255822  1.0
  O  O421  1  0.26468444  0.71649892  0.20253051  1.0
