# generated using pymatgen
data_Zn3H34(C22O5)2
_symmetry_space_group_name_H-M   'P 1'
_cell_length_a   6.00244500
_cell_length_b   19.22455933
_cell_length_c   19.34052000
_cell_angle_alpha   76.70332866
_cell_angle_beta   81.53999749
_cell_angle_gamma   81.68794889
_symmetry_Int_Tables_number   1
_chemical_formula_structural   Zn3H34(C22O5)2
_chemical_formula_sum   'Zn3 H34 C44 O10'
_cell_volume   2134.06373983
_cell_formula_units_Z   1
loop_
 _symmetry_equiv_pos_site_id
 _symmetry_equiv_pos_as_xyz
  1  'x, y, z'
loop_
 _atom_site_type_symbol
 _atom_site_label
 _atom_site_symmetry_multiplicity
 _atom_site_fract_x
 _atom_site_fract_y
 _atom_site_fract_z
 _atom_site_occupancy
  Zn  Zn0  1  0.50000503  0.99999766  0.00000044  1.0
  Zn  Zn1  1  0.00749872  0.93811234  0.06551374  1.0
  Zn  Zn2  1  0.99250204  0.06188613  0.93448720  1.0
  H  H3  1  0.22548930  0.71434122  0.07245938  1.0
  H  H4  1  0.43788555  0.59410530  0.06417037  1.0
  H  H5  1  0.02662333  0.69653735  0.96075129  1.0
  H  H6  1  0.81033469  0.81632492  0.96594815  1.0
  H  H7  1  0.93384625  0.43585290  0.90934117  1.0
  H  H8  1  0.67545654  0.53413005  0.85864698  1.0
  H  H9  1  0.48060112  0.55468740  0.93160634  1.0
  H  H10  1  0.65908254  0.61889732  0.88264036  1.0
  H  H11  1  0.77935448  0.92899970  0.28660592  1.0
  H  H12  1  0.57731964  0.94741713  0.40453761  1.0
  H  H13  1  0.96248737  0.02297750  0.30747535  1.0
  H  H14  1  0.16289720  0.00237200  0.19060509  1.0
  H  H15  1  0.06310747  0.09163348  0.56341074  1.0
  H  H16  1  0.31997425  0.14315232  0.46658981  1.0
  H  H17  1  0.51968099  0.07069144  0.44725478  1.0
  H  H18  1  0.34356523  0.11848556  0.38227581  1.0
  H  H19  1  0.77452457  0.28565344  0.92754387  1.0
  H  H20  1  0.56211879  0.40588776  0.93583364  1.0
  H  H21  1  0.97337736  0.30346103  0.03925537  1.0
  H  H22  1  0.18965836  0.18367132  0.03405878  1.0
  H  H23  1  0.06617206  0.56414333  0.09066466  1.0
  H  H24  1  0.32455821  0.46586671  0.14135888  1.0
  H  H25  1  0.51940369  0.44530879  0.06840267  1.0
  H  H26  1  0.34093443  0.38109778  0.11736887  1.0
  H  H27  1  0.22063549  0.07099615  0.71339244  1.0
  H  H28  1  0.42265942  0.05258574  0.59545870  1.0
  H  H29  1  0.03750800  0.97702704  0.69251576  1.0
  H  H30  1  0.83710048  0.99762608  0.80938780  1.0
  H  H31  1  0.93688220  0.90837749  0.43658132  1.0
  H  H32  1  0.68002307  0.85686078  0.53340250  1.0
  H  H33  1  0.48030572  0.92931846  0.55273660  1.0
  H  H34  1  0.65643774  0.88152594  0.61771504  1.0
  H  H35  1  0.14664499  0.06394305  0.05481473  1.0
  H  H36  1  0.85337096  0.93605546  0.94518296  1.0
  C  C37  1  0.37505125  0.84508672  0.02014431  1.0
  C  C38  1  0.50355023  0.77281968  0.01859040  1.0
  C  C39  1  0.40028561  0.70982838  0.04739979  1.0
  C  C40  1  0.51953376  0.64296659  0.04296176  1.0
  C  C41  1  0.74552808  0.63737216  0.01142373  1.0
  C  C42  1  0.85031534  0.70042270  0.98470095  1.0
  C  C43  1  0.72979837  0.76739372  0.98756796  1.0
  C  C44  1  0.87275404  0.56633757  0.00522172  1.0
  C  C45  1  0.83044933  0.53016789  0.95363035  1.0
  C  C46  1  0.96030761  0.46427062  0.94974569  1.0
  C  C47  1  0.65278123  0.56099508  0.90391580  1.0
  C  C48  1  0.60525793  0.95524925  0.16025163  1.0
  C  C49  1  0.48478307  0.96535678  0.23111540  1.0
  C  C50  1  0.60057618  0.94996388  0.29173594  1.0
  C  C51  1  0.48732701  0.96040550  0.35736544  1.0
  C  C52  1  0.25614531  0.98642430  0.36396155  1.0
  C  C53  1  0.14156824  0.00209220  0.30298641  1.0
  C  C54  1  0.25391864  0.99133437  0.23736140  1.0
  C  C55  1  0.12963627  0.99464041  0.43415655  1.0
  C  C56  1  0.17075617  0.04666748  0.47014405  1.0
  C  C57  1  0.03856158  0.05057696  0.53536328  1.0
  C  C58  1  0.34721426  0.09746258  0.43998263  1.0
  C  C59  1  0.62494764  0.15490740  0.97986075  1.0
  C  C60  1  0.49644861  0.22717436  0.98141933  1.0
  C  C61  1  0.59971230  0.29016841  0.95260629  1.0
  C  C62  1  0.48047296  0.35702911  0.95704417  1.0
  C  C63  1  0.25448447  0.36262139  0.98858188  1.0
  C  C64  1  0.14969079  0.29957459  0.01530622  1.0
  C  C65  1  0.27020161  0.23260198  0.01243826  1.0
  C  C66  1  0.12725434  0.43365810  0.99478621  1.0
  C  C67  1  0.16955942  0.46983158  0.04637469  1.0
  C  C68  1  0.03971199  0.53572667  0.05026037  1.0
  C  C69  1  0.34723410  0.43900006  0.09609090  1.0
  C  C70  1  0.39474007  0.04474766  0.83974667  1.0
  C  C71  1  0.51521139  0.03464070  0.76888138  1.0
  C  C72  1  0.39941472  0.05003415  0.70826037  1.0
  C  C73  1  0.51265655  0.03959901  0.64262826  1.0
  C  C74  1  0.74384536  0.01358402  0.63602792  1.0
  C  C75  1  0.85842395  0.99791180  0.69700546  1.0
  C  C76  1  0.74607657  0.00866584  0.76263218  1.0
  C  C77  1  0.87035097  0.00537272  0.56583412  1.0
  C  C78  1  0.82922730  0.95334672  0.52984707  1.0
  C  C79  1  0.96142567  0.94943619  0.46462635  1.0
  C  C80  1  0.65277879  0.90254839  0.56000877  1.0
  O  O81  1  0.45405073  0.90008779  0.97987927  1.0
  O  O82  1  0.18750529  0.84629937  0.06225813  1.0
  O  O83  1  0.48927569  0.95498393  0.11084130  1.0
  O  O84  1  0.82426010  0.94736212  0.15470640  1.0
  O  O85  1  0.54594384  0.09990904  0.02012436  1.0
  O  O86  1  0.81248984  0.15369581  0.93774738  1.0
  O  O87  1  0.51073716  0.04500925  0.88915507  1.0
  O  O88  1  0.17573807  0.05263423  0.84529357  1.0
  O  O89  1  0.84553350  0.97010271  0.97595033  1.0
  O  O90  1  0.15447217  0.02989146  0.02405080  1.0
