# generated using pymatgen
data_Zn4H30C61(N8O)2
_symmetry_space_group_name_H-M   'P 1'
_cell_length_a   19.26028638
_cell_length_b   20.23412395
_cell_length_c   20.27363760
_cell_angle_alpha   107.65565699
_cell_angle_beta   108.09779070
_cell_angle_gamma   111.11731999
_symmetry_Int_Tables_number   1
_chemical_formula_structural   Zn4H30C61(N8O)2
_chemical_formula_sum   'Zn4 H30 C61 N16 O2'
_cell_volume   6190.15414252
_cell_formula_units_Z   1
loop_
 _symmetry_equiv_pos_site_id
 _symmetry_equiv_pos_as_xyz
  1  'x, y, z'
loop_
 _atom_site_type_symbol
 _atom_site_label
 _atom_site_symmetry_multiplicity
 _atom_site_fract_x
 _atom_site_fract_y
 _atom_site_fract_z
 _atom_site_occupancy
  Zn  Zn0  1  0.89314165  0.88900809  0.50767959  1.0
  Zn  Zn1  1  0.12674102  0.11503630  0.51642619  1.0
  Zn  Zn2  1  0.10913787  0.99916928  0.61475295  1.0
  Zn  Zn3  1  0.90574315  0.00596029  0.41079398  1.0
  H  H4  1  0.87887190  0.99826432  0.65088587  1.0
  H  H5  1  0.87226231  0.47453625  0.32159876  1.0
  H  H6  1  0.87398111  0.35285402  0.32207490  1.0
  H  H7  1  0.46777088  0.50731003  0.15326568  1.0
  H  H8  1  0.34066032  0.38995021  0.03304325  1.0
  H  H9  1  0.36527657  0.52569414  0.90554953  1.0
  H  H10  1  0.49232805  0.64310183  0.02577956  1.0
  H  H11  1  0.85343500  0.04143164  0.90981860  1.0
  H  H12  1  0.85841642  0.04857301  0.03571503  1.0
  H  H13  1  0.12984789  0.19348507  0.15242057  1.0
  H  H14  1  0.12478708  0.18614507  0.02643146  1.0
  H  H15  1  0.20042544  0.02800132  0.42481230  1.0
  H  H16  1  0.13801020  0.14321572  0.76660362  1.0
  H  H17  1  0.80260346  0.07613294  0.46766386  1.0
  H  H18  1  0.24266394  0.29619113  0.67271924  1.0
  H  H19  1  0.70288325  0.86483057  0.49880037  1.0
  H  H20  1  0.11770713  0.02725618  0.79655403  1.0
  H  H21  1  0.77988752  0.72408380  0.35181662  1.0
  H  H22  1  0.82371133  0.63717901  0.39063566  1.0
  H  H23  1  0.87226590  0.65184510  0.48738320  1.0
  H  H24  1  0.81286531  0.69946022  0.46644001  1.0
  H  H25  1  0.16115182  0.33611283  0.53055148  1.0
  H  H26  1  0.12127165  0.86271575  0.49134733  1.0
  H  H27  1  0.85298737  0.16336101  0.33042116  1.0
  H  H28  1  0.89727903  0.96510076  0.24999503  1.0
  H  H29  1  0.15580991  0.16188223  0.37723423  1.0
  H  H30  1  0.73214872  0.86688091  0.24153883  1.0
  H  H31  1  0.28660433  0.98328106  0.62283775  1.0
  H  H32  1  0.14617502  0.48245606  0.43310754  1.0
  H  H33  1  0.14438907  0.60443701  0.43338583  1.0
  C  C34  1  0.93843633  0.99953317  0.67483082  1.0
  C  C35  1  0.93438695  0.75259923  0.47169189  1.0
  C  C36  1  0.75708892  0.84364779  0.27891742  1.0
  C  C37  1  0.06855792  0.23506403  0.49772734  1.0
  C  C38  1  0.25665059  0.99805219  0.57899726  1.0
  C  C39  1  0.72079190  0.76545579  0.27050476  1.0
  C  C40  1  0.26918283  0.99854445  0.51398558  1.0
  C  C41  1  0.00164310  0.75348476  0.45652320  1.0
  C  C42  1  0.02045477  0.07114502  0.28509379  1.0
  C  C43  1  0.64775476  0.97684780  0.47434063  1.0
  C  C44  1  0.58178201  0.97493667  0.46985939  1.0
  C  C45  1  0.00510013  0.23615444  0.43986366  1.0
  C  C46  1  0.51165754  0.97395152  0.46912777  1.0
  C  C47  1  0.44867079  0.97421145  0.47234466  1.0
  C  C48  1  0.38408069  0.97804451  0.48154552  1.0
  C  C49  1  0.15866468  0.16827477  0.73146460  1.0
  C  C50  1  0.32810546  0.98538772  0.49421699  1.0
  C  C51  1  0.08527178  0.54920694  0.40897058  1.0
  C  C52  1  0.00839891  0.54948047  0.38155563  1.0
  C  C53  1  0.93220878  0.47615650  0.34621463  1.0
  C  C54  1  0.93314201  0.40805538  0.34642722  1.0
  C  C55  1  0.01044151  0.41030621  0.38171504  1.0
  C  C56  1  0.20541343  0.24977125  0.75167940  1.0
  C  C57  1  0.08625492  0.48100243  0.40898712  1.0
  C  C58  1  0.00736100  0.62211191  0.39723557  1.0
  C  C59  1  0.01148373  0.34625261  0.39557099  1.0
  C  C60  1  0.00986442  0.29515815  0.41658180  1.0
  C  C61  1  0.79078504  0.02374534  0.47668076  1.0
  C  C62  1  0.00741882  0.68529845  0.42227454  1.0
  C  C63  1  0.37398236  0.44556120  0.03170868  1.0
  C  C64  1  0.34616799  0.44845480  0.95993424  1.0
  C  C65  1  0.38790221  0.52205354  0.96001001  1.0
  C  C66  1  0.45885036  0.58748868  0.02706107  1.0
  C  C67  1  0.72057232  0.97335831  0.48069247  1.0
  C  C68  1  0.49112000  0.58232516  0.09704628  1.0
  C  C69  1  0.44516310  0.51108066  0.09885772  1.0
  C  C70  1  0.28500441  0.37842023  0.88788458  1.0
  C  C71  1  0.56982417  0.64585818  0.16119858  1.0
  C  C72  1  0.64087954  0.69999971  0.21201736  1.0
  C  C73  1  0.21327742  0.24724413  0.68427617  1.0
  C  C74  1  0.24358392  0.31797657  0.82434922  1.0
  C  C75  1  0.91669095  0.07876154  0.03354065  1.0
  C  C76  1  0.99488790  0.11731611  0.10186104  1.0
  C  C77  1  0.06943242  0.16021366  0.09909909  1.0
  C  C78  1  0.78176785  0.77098403  0.33580391  1.0
  C  C79  1  0.06657354  0.15601519  0.02870417  1.0
  C  C80  1  0.98910566  0.10897294  0.95829373  1.0
  C  C81  1  0.91384909  0.07473984  0.96312233  1.0
  C  C82  1  0.00011382  0.10661177  0.16865346  1.0
  C  C83  1  0.98840592  0.08863318  0.88470873  1.0
  C  C84  1  0.98914747  0.06107686  0.82244148  1.0
  C  C85  1  0.73948378  0.91510841  0.49206355  1.0
  C  C86  1  0.00842956  0.08920906  0.22225112  1.0
  C  C87  1  0.93387923  0.16085901  0.41047553  1.0
  C  C88  1  0.06042412  0.01378309  0.74918852  1.0
  C  C89  1  0.21211615  0.02033381  0.47716848  1.0
  C  C90  1  0.99480758  0.02752693  0.75384553  1.0
  C  C91  1  0.85638570  0.68184206  0.45283715  1.0
  C  C92  1  0.06029288  0.83551059  0.48942577  1.0
  C  C93  1  0.96239365  0.01082098  0.29260454  1.0
  C  C94  1  0.09469648  0.11143172  0.35732054  1.0
  N  N95  1  0.96828922  0.97157233  0.62773025  1.0
  N  N96  1  0.14144545  0.12111217  0.65867195  1.0
  N  N97  1  0.84612894  0.99705585  0.48440707  1.0
  N  N98  1  0.17610003  0.17063194  0.63033199  1.0
  N  N99  1  0.81381607  0.93026122  0.49387236  1.0
  N  N100  1  0.95346966  0.12115190  0.44803901  1.0
  N  N101  1  0.04384870  0.98034173  0.67383910  1.0
  N  N102  1  0.84810322  0.84641787  0.38017077  1.0
  N  N103  1  0.17051665  0.03270258  0.51764089  1.0
  N  N104  1  0.03140702  0.88040221  0.52252314  1.0
  N  N105  1  0.99836566  0.01586692  0.36397244  1.0
  N  N106  1  0.08022265  0.07775946  0.40296537  1.0
  N  N107  1  0.95364872  0.82873873  0.51138521  1.0
  N  N108  1  0.83215422  0.89039471  0.34416625  1.0
  N  N109  1  0.19830584  0.01894958  0.58048613  1.0
  N  N110  1  0.03903467  0.16756159  0.50338073  1.0
  O  O111  1  0.15191207  0.29137399  0.54244996  1.0
  O  O112  1  0.85443716  0.12685475  0.35245769  1.0
