# generated using pymatgen
data_AlH24C24(N2O)6
_symmetry_space_group_name_H-M   'P 1'
_cell_length_a   3.91848516
_cell_length_b   29.09653688
_cell_length_c   29.09491916
_cell_angle_alpha   59.99794364
_cell_angle_beta   89.99872971
_cell_angle_gamma   89.99893914
_symmetry_Int_Tables_number   1
_chemical_formula_structural   AlH24C24(N2O)6
_chemical_formula_sum   'Al2 H48 C48 N24 O12'
_cell_volume   2872.75305335
_cell_formula_units_Z   2
loop_
 _symmetry_equiv_pos_site_id
 _symmetry_equiv_pos_as_xyz
  1  'x, y, z'
loop_
 _atom_site_type_symbol
 _atom_site_label
 _atom_site_symmetry_multiplicity
 _atom_site_fract_x
 _atom_site_fract_y
 _atom_site_fract_z
 _atom_site_occupancy
  Al  Al0  1  0.99996420  0.49999766  0.99999633  1.0
  Al  Al1  1  0.00031975  0.16665219  0.66668822  1.0
  H  H2  1  0.80183348  0.29331963  0.56183825  1.0
  H  H3  1  0.76302304  0.35300742  0.50385380  1.0
  H  H4  1  0.19916426  0.14481778  0.56183668  1.0
  H  H5  1  0.23758067  0.14315370  0.50383321  1.0
  H  H6  1  0.17544959  0.24506245  0.37496132  1.0
  H  H7  1  0.96996214  0.20138101  0.43006683  1.0
  H  H8  1  0.82463492  0.38001152  0.37495650  1.0
  H  H9  1  0.03026907  0.36858657  0.43004760  1.0
  H  H10  1  0.17564471  0.42166560  0.29170633  1.0
  H  H11  1  0.97009569  0.46534517  0.23660920  1.0
  H  H12  1  0.82442780  0.28667029  0.29172670  1.0
  H  H13  1  0.02999856  0.29807749  0.23663278  1.0
  H  H14  1  0.80122678  0.37331786  0.10484781  1.0
  H  H15  1  0.76251746  0.31364722  0.16284427  1.0
  H  H16  1  0.19879509  0.52185124  0.10482654  1.0
  H  H17  1  0.23760751  0.52354313  0.16281402  1.0
  H  H18  1  0.80181168  0.14484067  0.79336013  1.0
  H  H19  1  0.76291557  0.14314536  0.85304123  1.0
  H  H20  1  0.19924099  0.29334072  0.64482544  1.0
  H  H21  1  0.23777080  0.35301602  0.64313890  1.0
  H  H22  1  0.17547327  0.37998905  0.74504398  1.0
  H  H23  1  0.97008714  0.36857239  0.70135294  1.0
  H  H24  1  0.82454421  0.24504180  0.88002784  1.0
  H  H25  1  0.03020189  0.20136454  0.86862194  1.0
  H  H26  1  0.17573272  0.28664436  0.92165322  1.0
  H  H27  1  0.97019467  0.29804884  0.96534232  1.0
  H  H28  1  0.82444901  0.42163029  0.78664841  1.0
  H  H29  1  0.02997837  0.46531837  0.79805347  1.0
  H  H30  1  0.80121540  0.52184142  0.87330409  1.0
  H  H31  1  0.76245395  0.52352762  0.81363184  1.0
  H  H32  1  0.19882810  0.37331631  0.02185007  1.0
  H  H33  1  0.23769044  0.31364287  0.02354364  1.0
  H  H34  1  0.80176622  0.06182509  0.64485126  1.0
  H  H35  1  0.76284097  0.00385298  0.64313692  1.0
  H  H36  1  0.19920548  0.06179662  0.79338500  1.0
  H  H37  1  0.23770694  0.00379612  0.85305183  1.0
  H  H38  1  0.17550880  0.87493169  0.88000002  1.0
  H  H39  1  0.97005353  0.93003409  0.86859078  1.0
  H  H40  1  0.82456372  0.87495264  0.74501813  1.0
  H  H41  1  0.03016474  0.93004562  0.70134238  1.0
  H  H42  1  0.17572541  0.79170382  0.78661759  1.0
  H  H43  1  0.97019525  0.73661029  0.79802609  1.0
  H  H44  1  0.82439137  0.79170826  0.92161267  1.0
  H  H45  1  0.02993145  0.73661299  0.96530623  1.0
  H  H46  1  0.80117664  0.60484112  0.02183717  1.0
  H  H47  1  0.76240861  0.66282539  0.02351711  1.0
  H  H48  1  0.19880491  0.60483707  0.87330282  1.0
  H  H49  1  0.23770071  0.66281747  0.81362715  1.0
  C  C50  1  0.49996826  0.58300601  0.95848825  1.0
  C  C51  1  0.49997725  0.45849509  0.08300689  1.0
  C  C52  1  0.49999501  0.45849744  0.95848812  1.0
  C  C53  1  0.50040368  0.20815485  0.58366854  1.0
  C  C54  1  0.50040889  0.20817168  0.70818056  1.0
  C  C55  1  0.50040501  0.08364262  0.70820424  1.0
  C  C56  1  0.50021177  0.23717246  0.52566307  1.0
  C  C57  1  0.65719247  0.28818705  0.49737422  1.0
  C  C58  1  0.65705153  0.31574084  0.44161589  1.0
  C  C59  1  0.50004217  0.29310259  0.41382654  1.0
  C  C60  1  0.34319162  0.24266524  0.44162009  1.0
  C  C61  1  0.34325602  0.21444496  0.49737723  1.0
  C  C62  1  0.50001352  0.32116610  0.35770864  1.0
  C  C63  1  0.50002544  0.34554028  0.30897076  1.0
  C  C64  1  0.50003252  0.37359193  0.25284770  1.0
  C  C65  1  0.34314703  0.42403222  0.22505064  1.0
  C  C66  1  0.34303669  0.45223930  0.16929034  1.0
  C  C67  1  0.49999562  0.42949888  0.14101355  1.0
  C  C68  1  0.65695512  0.37848261  0.16929996  1.0
  C  C69  1  0.65689444  0.35094203  0.22505868  1.0
  C  C70  1  0.50025763  0.23716643  0.73718895  1.0
  C  C71  1  0.65723157  0.21444676  0.78820329  1.0
  C  C72  1  0.65707790  0.24265294  0.81574997  1.0
  C  C73  1  0.50007726  0.29308223  0.79310126  1.0
  C  C74  1  0.34330175  0.31572631  0.74265782  1.0
  C  C75  1  0.34329720  0.28818201  0.71444795  1.0
  C  C76  1  0.50006903  0.32114817  0.82115595  1.0
  C  C77  1  0.50004589  0.34551322  0.84552244  1.0
  C  C78  1  0.50006828  0.37357564  0.87358347  1.0
  C  C79  1  0.34322005  0.35092431  0.92402659  1.0
  C  C80  1  0.34311486  0.37847378  0.95223368  1.0
  C  C81  1  0.50002887  0.42949164  0.92949084  1.0
  C  C82  1  0.65698432  0.45222523  0.87847146  1.0
  C  C83  1  0.65689555  0.42401620  0.85092636  1.0
  C  C84  1  0.50026840  0.02564074  0.73718861  1.0
  C  C85  1  0.65720641  0.99736190  0.71444911  1.0
  C  C86  1  0.65703144  0.94160703  0.74264368  1.0
  C  C87  1  0.50007884  0.91381232  0.79307887  1.0
  C  C88  1  0.34326290  0.94159513  0.81573740  1.0
  C  C89  1  0.34329236  0.99734869  0.78820600  1.0
  C  C90  1  0.50004682  0.85769286  0.82112898  1.0
  C  C91  1  0.50002996  0.80895906  0.84549364  1.0
  C  C92  1  0.50004132  0.75283376  0.87356161  1.0
  C  C93  1  0.34318247  0.72505000  0.85090871  1.0
  C  C94  1  0.34304328  0.66929069  0.87846192  1.0
  C  C95  1  0.49999514  0.64101106  0.92947966  1.0
  C  C96  1  0.65693562  0.66928806  0.95221631  1.0
  C  C97  1  0.65688600  0.72504701  0.92400189  1.0
  N  N98  1  0.81439332  0.31351065  0.52156147  1.0
  N  N99  1  0.18623722  0.16491987  0.52156668  1.0
  N  N100  1  0.20034081  0.21864201  0.41450145  1.0
  N  N101  1  0.79984045  0.36688451  0.41449865  1.0
  N  N102  1  0.20046658  0.44807129  0.25216256  1.0
  N  N103  1  0.79962403  0.29979399  0.25218582  1.0
  N  N104  1  0.81399560  0.35313921  0.14512177  1.0
  N  N105  1  0.18603619  0.50176693  0.14510093  1.0
  N  N106  1  0.81440104  0.16492820  0.81354267  1.0
  N  N107  1  0.18632559  0.31352144  0.66491516  1.0
  N  N108  1  0.20044182  0.36686733  0.71862755  1.0
  N  N109  1  0.79979189  0.21862733  0.86690267  1.0
  N  N110  1  0.20055127  0.29977314  0.94806363  1.0
  N  N111  1  0.79961074  0.44804432  0.79977325  1.0
  N  N112  1  0.81398023  0.50175086  0.85312548  1.0
  N  N113  1  0.18611114  0.35313103  0.00176199  1.0
  N  N114  1  0.81435610  0.02155082  0.66492995  1.0
  N  N115  1  0.18629571  0.02152676  0.81355463  1.0
  N  N116  1  0.20042793  0.91447021  0.86688337  1.0
  N  N117  1  0.79976036  0.91449597  0.71860800  1.0
  N  N118  1  0.20054234  0.75216265  0.79975243  1.0
  N  N119  1  0.79957606  0.75216699  0.94803120  1.0
  N  N120  1  0.81392819  0.64511241  0.00174098  1.0
  N  N121  1  0.18608488  0.64511038  0.85311538  1.0
  O  O122  1  0.26761022  0.44823508  0.99376847  1.0
  O  O123  1  0.26759464  0.55799359  0.94822489  1.0
  O  O124  1  0.26759635  0.49377153  0.05799013  1.0
  O  O125  1  0.73233362  0.49378369  0.94822038  1.0
  O  O126  1  0.73232418  0.44822749  0.05798756  1.0
  O  O127  1  0.73231483  0.55798936  0.99377667  1.0
  O  O128  1  0.26810161  0.10866372  0.71847781  1.0
  O  O129  1  0.26813052  0.17285739  0.60869511  1.0
  O  O130  1  0.26810645  0.21843669  0.67289018  1.0
  O  O131  1  0.73280436  0.10866396  0.67292903  1.0
  O  O132  1  0.73280854  0.17289482  0.71843769  1.0
  O  O133  1  0.73283074  0.21841339  0.60868322  1.0
