# generated using pymatgen
data_CoH24(C5N)8
_symmetry_space_group_name_H-M   'P 1'
_cell_length_a   9.29067509
_cell_length_b   19.11511493
_cell_length_c   19.11356166
_cell_angle_alpha   117.41036275
_cell_angle_beta   99.31961575
_cell_angle_gamma   99.33263960
_symmetry_Int_Tables_number   1
_chemical_formula_structural   CoH24(C5N)8
_chemical_formula_sum   'Co3 H72 C120 N24'
_cell_volume   2862.94074300
_cell_formula_units_Z   3
loop_
 _symmetry_equiv_pos_site_id
 _symmetry_equiv_pos_as_xyz
  1  'x, y, z'
loop_
 _atom_site_type_symbol
 _atom_site_label
 _atom_site_symmetry_multiplicity
 _atom_site_fract_x
 _atom_site_fract_y
 _atom_site_fract_z
 _atom_site_occupancy
  Co  Co0  1  0.00001167  0.00001141  0.49999597  1.0
  Co  Co1  1  0.99998572  0.50000306  0.99999464  1.0
  Co  Co2  1  0.50001987  0.49999938  0.50002066  1.0
  H  H3  1  0.74668791  0.23070327  0.65703773  1.0
  H  H4  1  0.56403348  0.14460597  0.50184560  1.0
  H  H5  1  0.43065364  0.11306015  0.76957696  1.0
  H  H6  1  0.24202491  0.21001016  0.81110698  1.0
  H  H7  1  0.61952131  0.01757446  0.58638911  1.0
  H  H8  1  0.84907226  0.01160366  0.66878336  1.0
  H  H9  1  0.60085136  0.94129185  0.79799267  1.0
  H  H10  1  0.36028229  0.94618918  0.72217936  1.0
  H  H11  1  0.17176786  0.31922665  0.73618381  1.0
  H  H12  1  0.18776664  0.44326848  0.86788510  1.0
  H  H13  1  0.86382844  0.31217997  0.91964846  1.0
  H  H14  1  0.83651079  0.18214343  0.79094792  1.0
  H  H15  1  0.25329047  0.76930498  0.34294502  1.0
  H  H16  1  0.43595673  0.85538783  0.49813899  1.0
  H  H17  1  0.56933384  0.88693586  0.23041743  1.0
  H  H18  1  0.75798502  0.78999039  0.18888434  1.0
  H  H19  1  0.38048623  0.98241304  0.41360834  1.0
  H  H20  1  0.15091704  0.98837430  0.33121470  1.0
  H  H21  1  0.39910068  0.05868431  0.20199193  1.0
  H  H22  1  0.63968706  0.05379244  0.27780278  1.0
  H  H23  1  0.82824950  0.68080137  0.26381363  1.0
  H  H24  1  0.81222807  0.55675873  0.13210194  1.0
  H  H25  1  0.13616937  0.68784781  0.08034042  1.0
  H  H26  1  0.16350112  0.81788364  0.20904952  1.0
  H  H27  1  0.51614590  0.42642065  0.76932832  1.0
  H  H28  1  0.41952771  0.35735720  0.85546055  1.0
  H  H29  1  0.31773749  0.65637037  0.88667271  1.0
  H  H30  1  0.03202892  0.60120807  0.78989791  1.0
  H  H31  1  0.60273592  0.56882761  0.98244952  1.0
  H  H32  1  0.83802851  0.65734232  0.98834863  1.0
  H  H33  1  0.65945485  0.85656245  0.05854038  1.0
  H  H34  1  0.41404404  0.77560705  0.05339409  1.0
  H  H35  1  0.85238114  0.41691089  0.68062967  1.0
  H  H36  1  0.74401916  0.42447517  0.55652834  1.0
  H  H37  1  0.55165452  0.60742538  0.68769714  1.0
  H  H38  1  0.65432636  0.60871350  0.81774767  1.0
  H  H39  1  0.48384269  0.57361023  0.23068137  1.0
  H  H40  1  0.58043279  0.64265294  0.14451914  1.0
  H  H41  1  0.68225328  0.34362891  0.11330209  1.0
  H  H42  1  0.96797346  0.39878846  0.21008484  1.0
  H  H43  1  0.39724290  0.43116197  0.01752100  1.0
  H  H44  1  0.16196473  0.34265862  0.01164637  1.0
  H  H45  1  0.34054242  0.14343916  0.94147359  1.0
  H  H46  1  0.58594238  0.22438481  0.94659601  1.0
  H  H47  1  0.14763392  0.58310195  0.31938063  1.0
  H  H48  1  0.25599907  0.57553324  0.44347522  1.0
  H  H49  1  0.44835721  0.39258107  0.31230214  1.0
  H  H50  1  0.34566744  0.39128896  0.18225283  1.0
  H  H51  1  0.09009332  0.34302944  0.57386104  1.0
  H  H52  1  0.06240833  0.49818034  0.64279621  1.0
  H  H53  1  0.66099764  0.23031648  0.34356905  1.0
  H  H54  1  0.43032400  0.18871367  0.39869617  1.0
  H  H55  1  0.03382506  0.41363649  0.43128098  1.0
  H  H56  1  0.18063330  0.33122582  0.34270877  1.0
  H  H57  1  0.80276835  0.20211421  0.14351948  1.0
  H  H58  1  0.63836176  0.27792682  0.22443910  1.0
  H  H59  1  0.43548454  0.26373271  0.58290775  1.0
  H  H60  1  0.32000604  0.13190272  0.57517735  1.0
  H  H61  1  0.94390312  0.08039704  0.39271129  1.0
  H  H62  1  0.04525051  0.20906804  0.39127765  1.0
  H  H63  1  0.90988840  0.65696033  0.42614804  1.0
  H  H64  1  0.93759911  0.50180861  0.35722940  1.0
  H  H65  1  0.33900487  0.76966431  0.65645105  1.0
  H  H66  1  0.56966741  0.81127731  0.60131046  1.0
  H  H67  1  0.96620515  0.58635574  0.56874218  1.0
  H  H68  1  0.81937610  0.66874964  0.65730766  1.0
  H  H69  1  0.19722130  0.79787242  0.85650981  1.0
  H  H70  1  0.36164891  0.72207168  0.77559079  1.0
  H  H71  1  0.56450228  0.73625525  0.41708970  1.0
  H  H72  1  0.67999611  0.86806760  0.42479623  1.0
  H  H73  1  0.05609975  0.91958695  0.60727025  1.0
  H  H74  1  0.95473505  0.79092537  0.60872164  1.0
  C  C75  1  0.12471416  0.86334835  0.39260553  1.0
  C  C76  1  0.75664456  0.17647382  0.60523807  1.0
  C  C77  1  0.66451169  0.13302123  0.52728947  1.0
  C  C78  1  0.72738563  0.06695026  0.48185647  1.0
  C  C79  1  0.66955654  0.01217535  0.39798844  1.0
  C  C80  1  0.73835072  0.95244633  0.35403018  1.0
  C  C81  1  0.32591674  0.10858186  0.73124700  1.0
  C  C82  1  0.23182092  0.15808465  0.75192306  1.0
  C  C83  1  0.11049544  0.12784298  0.67917732  1.0
  C  C84  1  0.00587324  0.83511245  0.32344178  1.0
  C  C85  1  0.46993455  0.98235709  0.64746135  1.0
  C  C86  1  0.61025391  0.00001749  0.63256635  1.0
  C  C87  1  0.73879221  0.99682747  0.67912023  1.0
  C  C88  1  0.60139784  0.95870537  0.75093699  1.0
  C  C89  1  0.46679082  0.96096975  0.70838687  1.0
  C  C90  1  0.99860494  0.75955250  0.24736656  1.0
  C  C91  1  0.89878510  0.68474673  0.22466569  1.0
  C  C92  1  0.88972186  0.61560807  0.15141564  1.0
  C  C93  1  0.92964259  0.31136104  0.87709966  1.0
  C  C94  1  0.91391548  0.23917558  0.80526367  1.0
  C  C95  1  0.87530529  0.13667046  0.60738518  1.0
  C  C96  1  0.24335980  0.82353773  0.39475081  1.0
  C  C97  1  0.33548599  0.86698029  0.47269696  1.0
  C  C98  1  0.27262244  0.93305671  0.51813547  1.0
  C  C99  1  0.33044310  0.98782653  0.60200411  1.0
  C  C100  1  0.26165703  0.04755876  0.64596114  1.0
  C  C101  1  0.67408119  0.89141984  0.26874432  1.0
  C  C102  1  0.76818732  0.84192358  0.24806704  1.0
  C  C103  1  0.88952122  0.87217348  0.32081217  1.0
  C  C104  1  0.99414590  0.16490920  0.67654832  1.0
  C  C105  1  0.53004878  0.01762793  0.35252692  1.0
  C  C106  1  0.38973997  0.99996377  0.36742559  1.0
  C  C107  1  0.26119265  0.00314706  0.32087111  1.0
  C  C108  1  0.39856418  0.04126497  0.24904577  1.0
  C  C109  1  0.53317962  0.03900569  0.29159528  1.0
  C  C110  1  0.00140902  0.24047047  0.75262844  1.0
  C  C111  1  0.10122170  0.31527720  0.77532808  1.0
  C  C112  1  0.11027796  0.38441495  0.84857507  1.0
  C  C113  1  0.07036892  0.68866418  0.12289043  1.0
  C  C114  1  0.08609805  0.76084752  0.19472827  1.0
  C  C115  1  0.26120246  0.52923862  0.13663528  1.0
  C  C116  1  0.58028226  0.42886272  0.82358839  1.0
  C  C117  1  0.53158177  0.39440181  0.86708147  1.0
  C  C118  1  0.66043164  0.41503673  0.93317906  1.0
  C  C119  1  0.65715491  0.38604957  0.98805354  1.0
  C  C120  1  0.78567916  0.40182070  0.04782368  1.0
  C  C121  1  0.21750691  0.62247411  0.89113386  1.0
  C  C122  1  0.07383691  0.59375186  0.84170080  1.0
  C  C123  1  0.98278391  0.55122632  0.87196852  1.0
  C  C124  1  0.17065678  0.48842206  0.16501968  1.0
  C  C125  1  0.48784859  0.66488776  0.01741121  1.0
  C  C126  1  0.61073042  0.63250122  0.99989542  1.0
  C  C127  1  0.74239076  0.68234693  0.00309017  1.0
  C  C128  1  0.64275881  0.79210367  0.04108730  1.0
  C  C129  1  0.50592154  0.74715967  0.03871641  1.0
  C  C130  1  0.23909488  0.48791770  0.24057791  1.0
  C  C131  1  0.21423688  0.54002603  0.31542217  1.0
  C  C132  1  0.27444697  0.53595318  0.38459260  1.0
  C  C133  1  0.61822158  0.56568012  0.68851941  1.0
  C  C134  1  0.67468363  0.56601083  0.76071067  1.0
  C  C135  1  0.73878397  0.47078069  0.86337012  1.0
  C  C136  1  0.41969999  0.57116013  0.17641518  1.0
  C  C137  1  0.46839026  0.60561057  0.13291475  1.0
  C  C138  1  0.33953869  0.58496920  0.06681594  1.0
  C  C139  1  0.34282750  0.61395022  0.01193289  1.0
  C  C140  1  0.21431429  0.59818528  0.95216520  1.0
  C  C141  1  0.78249155  0.37752719  0.10885196  1.0
  C  C142  1  0.92615021  0.40624505  0.15828196  1.0
  C  C143  1  0.01721120  0.44878233  0.12802587  1.0
  C  C144  1  0.82933808  0.51158769  0.83498511  1.0
  C  C145  1  0.51213845  0.33510629  0.98258012  1.0
  C  C146  1  0.38925465  0.36749090  0.00008979  1.0
  C  C147  1  0.25760248  0.31765296  0.99690483  1.0
  C  C148  1  0.35723448  0.20789764  0.95891872  1.0
  C  C149  1  0.49406965  0.25283910  0.96128104  1.0
  C  C150  1  0.76090312  0.51209118  0.75942444  1.0
  C  C151  1  0.78577853  0.45998829  0.68458446  1.0
  C  C152  1  0.72557778  0.46405981  0.61541525  1.0
  C  C153  1  0.38179356  0.43432930  0.31148232  1.0
  C  C154  1  0.32532139  0.43399804  0.23929045  1.0
  C  C155  1  0.73188754  0.60732278  0.47065981  1.0
  C  C156  1  0.15172355  0.39483792  0.57138132  1.0
  C  C157  1  0.13744073  0.47275277  0.60577968  1.0
  C  C158  1  0.24560709  0.51817553  0.58505374  1.0
  C  C159  1  0.27134976  0.60201054  0.61402288  1.0
  C  C160  1  0.38430053  0.64604543  0.59836856  1.0
  C  C161  1  0.59456194  0.26863949  0.37736018  1.0
  C  C162  1  0.47953578  0.24793068  0.40604704  1.0
  C  C163  1  0.43107171  0.32071255  0.44855934  1.0
  C  C164  1  0.68252456  0.67656782  0.51166810  1.0
  C  C165  1  0.82287622  0.35258339  0.33515559  1.0
  C  C166  1  0.97815260  0.36749273  0.36758205  1.0
  C  C167  1  0.05997961  0.32092978  0.31772709  1.0
  C  C168  1  0.85057136  0.24912764  0.20796327  1.0
  C  C169  1  0.75867350  0.29166614  0.25288583  1.0
  C  C170  1  0.75141960  0.75262143  0.51214189  1.0
  C  C171  1  0.67421114  0.77539840  0.46012937  1.0
  C  C172  1  0.73829819  0.84870473  0.46426561  1.0
  C  C173  1  0.05233214  0.12289724  0.43434421  1.0
  C  C174  1  0.10837222  0.19475492  0.43399605  1.0
  C  C175  1  0.26812710  0.39267265  0.52936274  1.0
  C  C176  1  0.84828179  0.60515266  0.42863572  1.0
  C  C177  1  0.86257200  0.52724110  0.39424777  1.0
  C  C178  1  0.75442021  0.48182130  0.41498105  1.0
  C  C179  1  0.72868098  0.39798518  0.38601007  1.0
  C  C180  1  0.61573571  0.35394981  0.40166011  1.0
  C  C181  1  0.40545581  0.73135023  0.62266421  1.0
  C  C182  1  0.52046879  0.75206327  0.59397062  1.0
  C  C183  1  0.56893953  0.67928201  0.55146076  1.0
  C  C184  1  0.31748033  0.32342759  0.48834587  1.0
  C  C185  1  0.17714741  0.64741552  0.66487185  1.0
  C  C186  1  0.02186907  0.63250008  0.63243928  1.0
  C  C187  1  0.94003477  0.67905605  0.68229057  1.0
  C  C188  1  0.14942770  0.75086209  0.79205867  1.0
  C  C189  1  0.24133910  0.70833026  0.74713917  1.0
  C  C190  1  0.24857050  0.24736574  0.48785556  1.0
  C  C191  1  0.32578042  0.22458417  0.53986012  1.0
  C  C192  1  0.26170157  0.15127294  0.53571409  1.0
  C  C193  1  0.94766679  0.87708941  0.56564038  1.0
  C  C194  1  0.89162119  0.80523420  0.56599711  1.0
  N  N195  1  0.14393800  0.93085738  0.46826716  1.0
  N  N196  1  0.87164771  0.94049447  0.38554361  1.0
  N  N197  1  0.73659807  0.97660672  0.73761276  1.0
  N  N198  1  0.97428508  0.61692215  0.10103562  1.0
  N  N199  1  0.85607771  0.06916013  0.53172478  1.0
  N  N200  1  0.12836615  0.05951807  0.61444465  1.0
  N  N201  1  0.26336750  0.02336197  0.26237490  1.0
  N  N202  1  0.02571898  0.38309851  0.89895265  1.0
  N  N203  1  0.21294502  0.53736146  0.06907406  1.0
  N  N204  1  0.93098300  0.44522565  0.05971514  1.0
  N  N205  1  0.76023093  0.76103027  0.02328251  1.0
  N  N206  1  0.35758195  0.48422854  0.38325512  1.0
  N  N207  1  0.78702248  0.46264879  0.93092400  1.0
  N  N208  1  0.06900853  0.55478713  0.94027863  1.0
  N  N209  1  0.23976686  0.23897304  0.97672596  1.0
  N  N210  1  0.64244310  0.51578214  0.61675334  1.0
  N  N211  1  0.67551254  0.53167241  0.46259697  1.0
  N  N212  1  0.48619124  0.61453710  0.55500619  1.0
  N  N213  1  0.99913932  0.26245174  0.23904535  1.0
  N  N214  1  0.87328334  0.89903764  0.51587097  1.0
  N  N215  1  0.32450993  0.46832513  0.53743905  1.0
  N  N216  1  0.51383894  0.38545815  0.44502126  1.0
  N  N217  1  0.00086210  0.73753576  0.76097475  1.0
  N  N218  1  0.12672158  0.10094590  0.48410812  1.0
