# generated using pymatgen
data_ZnH5C9O4
_symmetry_space_group_name_H-M   'P 1'
_cell_length_a   18.56517859
_cell_length_b   18.61406989
_cell_length_c   18.67260589
_cell_angle_alpha   109.40019147
_cell_angle_beta   109.47007291
_cell_angle_gamma   109.19848858
_symmetry_Int_Tables_number   1
_chemical_formula_structural   ZnH5C9O4
_chemical_formula_sum   'Zn6 H30 C54 O24'
_cell_volume   4988.34513567
_cell_formula_units_Z   6
loop_
 _symmetry_equiv_pos_site_id
 _symmetry_equiv_pos_as_xyz
  1  'x, y, z'
loop_
 _atom_site_type_symbol
 _atom_site_label
 _atom_site_symmetry_multiplicity
 _atom_site_fract_x
 _atom_site_fract_y
 _atom_site_fract_z
 _atom_site_occupancy
  Zn  Zn0  1  0.43697831  0.43456220  0.49995655  1.0
  Zn  Zn1  1  0.55427746  0.56453666  0.49803202  1.0
  Zn  Zn2  1  0.44060258  0.00943311  0.94025297  1.0
  Zn  Zn3  1  0.56312905  0.99883725  0.05769370  1.0
  Zn  Zn4  1  0.00082945  0.55990407  0.06404427  1.0
  Zn  Zn5  1  0.00072669  0.43887959  0.93519644  1.0
  H  H6  1  0.39690204  0.29855029  0.23829424  1.0
  H  H7  1  0.19461569  0.45946609  0.37526542  1.0
  H  H8  1  0.79690559  0.11024759  0.01406983  1.0
  H  H9  1  0.89421619  0.20955503  0.98192519  1.0
  H  H10  1  0.75358287  0.35283594  0.98901604  1.0
  H  H11  1  0.64798096  0.24523502  0.00686376  1.0
  H  H12  1  0.39498121  0.85777873  0.14690697  1.0
  H  H13  1  0.27068886  0.73870474  0.13567137  1.0
  H  H14  1  0.13676216  0.62130940  0.85517868  1.0
  H  H15  1  0.25323848  0.74908048  0.86792819  1.0
  H  H16  1  0.82925102  0.42418872  0.46184718  1.0
  H  H17  1  0.58936346  0.38004484  0.68932729  1.0
  H  H18  1  0.81487214  0.32080536  0.32581138  1.0
  H  H19  1  0.66936502  0.22143505  0.19302976  1.0
  H  H20  1  0.38021306  0.18125057  0.10943253  1.0
  H  H21  1  0.76367186  0.62743575  0.73045000  1.0
  H  H22  1  0.71402096  0.39275699  0.80918340  1.0
  H  H23  1  0.77431623  0.47349639  0.54326539  1.0
  H  H24  1  0.71518486  0.51743669  0.49341605  1.0
  H  H25  1  0.66047252  0.42910513  0.50609064  1.0
  H  H26  1  0.96260924  0.64852486  0.86468032  1.0
  H  H27  1  0.91357729  0.71168533  0.84233326  1.0
  H  H28  1  0.49833425  0.78461291  0.60254738  1.0
  H  H29  1  0.93405301  0.70282336  0.93848710  1.0
  H  H30  1  0.47549472  0.88927212  0.70630259  1.0
  H  H31  1  0.47576142  0.74767684  0.84755222  1.0
  H  H32  1  0.48380364  0.63532172  0.73551730  1.0
  H  H33  1  0.34536578  0.46933732  0.24301270  1.0
  H  H34  1  0.23951943  0.48734129  0.13521851  1.0
  H  H35  1  0.09744708  0.49215920  0.27606614  1.0
  C  C36  1  0.59783126  0.49410599  0.62779668  1.0
  C  C37  1  0.72396203  0.44512658  0.79297214  1.0
  C  C38  1  0.65456173  0.43736892  0.72575214  1.0
  C  C39  1  0.53151589  0.41363781  0.38842013  1.0
  C  C40  1  0.66953072  0.50324016  0.70299953  1.0
  C  C41  1  0.49101501  0.77590536  0.65509293  1.0
  C  C42  1  0.47894442  0.83436397  0.71307859  1.0
  C  C43  1  0.47442490  0.82438646  0.78285175  1.0
  C  C44  1  0.47787394  0.75358669  0.79206700  1.0
  C  C45  1  0.48385816  0.69218698  0.73094842  1.0
  C  C46  1  0.49259083  0.70429240  0.66343240  1.0
  C  C47  1  0.61076373  0.34073555  0.32536623  1.0
  C  C48  1  0.28911597  0.47145448  0.24777388  1.0
  C  C49  1  0.23161610  0.48320668  0.18920122  1.0
  C  C50  1  0.16375889  0.49271712  0.20079290  1.0
  C  C51  1  0.34493336  0.45941158  0.38058042  1.0
  C  C52  1  0.15066432  0.48495780  0.26812048  1.0
  C  C53  1  0.20494986  0.46709942  0.32349533  1.0
  C  C54  1  0.27583259  0.46300181  0.31492132  1.0
  C  C55  1  0.64970970  0.10924499  0.01998101  1.0
  C  C56  1  0.49832331  0.13535476  0.09923320  1.0
  C  C57  1  0.40134104  0.88439699  0.01443356  1.0
  C  C58  1  0.53423903  0.34757033  0.31811609  1.0
  C  C59  1  0.47238239  0.89080664  0.85257946  1.0
  C  C60  1  0.88936467  0.35257906  0.97238255  1.0
  C  C61  1  0.88124484  0.52213831  0.90742835  1.0
  C  C62  1  0.12386693  0.60162914  0.98867649  1.0
  C  C63  1  0.50236626  0.63861784  0.60136784  1.0
  C  C64  1  0.10579509  0.50846634  0.13796186  1.0
  C  C65  1  0.78670046  0.16231995  0.00654915  1.0
  C  C66  1  0.84106326  0.21778894  0.98900078  1.0
  C  C67  1  0.82876925  0.28622377  0.98269322  1.0
  C  C68  1  0.76084036  0.29796873  0.99194092  1.0
  C  C69  1  0.45385957  0.29179287  0.24130483  1.0
  C  C70  1  0.70343611  0.23947478  0.00354269  1.0
  C  C71  1  0.71665702  0.17196963  0.01188009  1.0
  C  C72  1  0.33729693  0.80672876  0.08357941  1.0
  C  C73  1  0.26880563  0.73993334  0.07714504  1.0
  C  C74  1  0.19698322  0.67275437  0.99470915  1.0
  C  C75  1  0.69511776  0.39322603  0.40414483  1.0
  C  C76  1  0.19255435  0.67434061  0.91890093  1.0
  C  C77  1  0.25783822  0.74469022  0.92591503  1.0
  C  C78  1  0.33106666  0.81028400  0.00809594  1.0
  C  C79  1  0.76551574  0.38400016  0.40177706  1.0
  C  C80  1  0.44426159  0.22604181  0.16852461  1.0
  C  C81  1  0.75731943  0.32462824  0.32533880  1.0
  C  C82  1  0.67624762  0.26963761  0.25094971  1.0
  C  C83  1  0.60084147  0.27420118  0.24914640  1.0
  C  C84  1  0.71173029  0.45655443  0.49082579  1.0
  C  C85  1  0.91292450  0.66701188  0.86866887  1.0
  C  C86  1  0.51548351  0.21517553  0.17258699  1.0
  C  C87  1  0.75334166  0.57724473  0.74966740  1.0
  C  C88  1  0.82314428  0.58752088  0.81919810  1.0
  C  C89  1  0.80733254  0.51946118  0.83954897  1.0
  O  O90  1  0.51876613  0.43343626  0.59630964  1.0
  O  O91  1  0.92118237  0.32922188  0.92276549  1.0
  O  O92  1  0.91206928  0.57562835  0.98845818  1.0
  O  O93  1  0.61901658  0.54594683  0.59871169  1.0
  O  O94  1  0.90762851  0.47015071  0.87853278  1.0
  O  O95  1  0.09943340  0.62483670  0.04432180  1.0
  O  O96  1  0.09080638  0.52270829  0.92777426  1.0
  O  O97  1  0.07459736  0.55741395  0.16553119  1.0
  O  O98  1  0.09142145  0.47227722  0.06002341  1.0
  O  O99  1  0.48193114  0.38379162  0.41656190  1.0
  O  O100  1  0.57497667  0.49501469  0.41159431  1.0
  O  O101  1  0.67290441  0.07603982  0.06828502  1.0
  O  O102  1  0.32403987  0.41021597  0.41344346  1.0
  O  O103  1  0.42310954  0.50785663  0.40071353  1.0
  O  O104  1  0.46241966  0.55998609  0.58416492  1.0
  O  O105  1  0.55132254  0.66557868  0.57003114  1.0
  O  O106  1  0.57153868  0.09293780  0.97747836  1.0
  O  O107  1  0.44103667  0.10909454  0.02046584  1.0
  O  O108  1  0.53886765  0.09553192  0.11907534  1.0
  O  O109  1  0.37664966  0.91397064  0.96414801  1.0
  O  O110  1  0.48139931  0.91219810  0.06979036  1.0
  O  O111  1  0.42700885  0.92740557  0.83163434  1.0
  O  O112  1  0.51714859  0.90668241  0.92983546  1.0
  O  O113  1  0.90581220  0.43064118  0.01492557  1.0
