# generated using pymatgen
data_AlH8C13O5F
_symmetry_space_group_name_H-M   'P 1'
_cell_length_a   6.64124950
_cell_length_b   11.13257182
_cell_length_c   17.66103165
_cell_angle_alpha   93.99446342
_cell_angle_beta   99.26586879
_cell_angle_gamma   106.97530966
_symmetry_Int_Tables_number   1
_chemical_formula_structural   AlH8C13O5F
_chemical_formula_sum   'Al2 H16 C26 O10 F2'
_cell_volume   1223.11693453
_cell_formula_units_Z   2
loop_
 _symmetry_equiv_pos_site_id
 _symmetry_equiv_pos_as_xyz
  1  'x, y, z'
loop_
 _atom_site_type_symbol
 _atom_site_label
 _atom_site_symmetry_multiplicity
 _atom_site_fract_x
 _atom_site_fract_y
 _atom_site_fract_z
 _atom_site_occupancy
  Al  Al0  1  0.00039448  0.49998795  0.50004507  1.0
  Al  Al1  1  0.50033908  0.49994576  0.49995086  1.0
  H  H2  1  0.35111930  0.64567499  0.56058514  1.0
  H  H3  1  0.64984746  0.35429730  0.43943659  1.0
  H  H4  1  0.76441855  0.12719610  0.52743340  1.0
  H  H5  1  0.23637677  0.87275570  0.47264018  1.0
  H  H6  1  0.18547324  0.56512817  0.73116385  1.0
  H  H7  1  0.26300517  0.57129936  0.87517868  1.0
  H  H8  1  0.51203023  0.41057529  0.73011546  1.0
  H  H9  1  0.48774467  0.58920984  0.26961167  1.0
  H  H10  1  0.81457981  0.43531214  0.26912869  1.0
  H  H11  1  0.73608761  0.42933119  0.12516179  1.0
  H  H12  1  0.38041117  0.35796587  0.84579134  1.0
  H  H13  1  0.55956788  0.30943413  0.91446796  1.0
  H  H14  1  0.53167710  0.46105774  0.93071290  1.0
  H  H15  1  0.46726267  0.53878574  0.06910922  1.0
  H  H16  1  0.43936419  0.69045279  0.08529047  1.0
  H  H17  1  0.61865143  0.64198877  0.15396883  1.0
  C  C18  1  0.79890049  0.49410285  0.63781189  1.0
  C  C19  1  0.86853893  0.72646286  0.50281526  1.0
  C  C20  1  0.20164722  0.50580813  0.36216618  1.0
  C  C21  1  0.13220168  0.27349310  0.49719696  1.0
  C  C22  1  0.93173460  0.86673713  0.50206355  1.0
  C  C23  1  0.06899874  0.13320833  0.49796841  1.0
  C  C24  1  0.80280833  0.94212864  0.51750966  1.0
  C  C25  1  0.19800175  0.05784570  0.48256342  1.0
  C  C26  1  0.86865578  0.07172853  0.51553827  1.0
  C  C27  1  0.13216097  0.92824302  0.48454617  1.0
  C  C28  1  0.84380191  0.48911388  0.72275728  1.0
  C  C29  1  0.05658655  0.53256910  0.76316810  1.0
  C  C30  1  0.09911250  0.53489666  0.84278429  1.0
  C  C31  1  0.93093147  0.49074999  0.88350526  1.0
  C  C32  1  0.71522192  0.44197494  0.84265473  1.0
  C  C33  1  0.67612688  0.44432205  0.76283048  1.0
  C  C34  1  0.97855841  0.49658138  0.96480069  1.0
  C  C35  1  0.02016415  0.50372365  0.03524773  1.0
  C  C36  1  0.06809803  0.50949093  0.11654035  1.0
  C  C37  1  0.28399114  0.55803633  0.15723885  1.0
  C  C38  1  0.32351184  0.55563529  0.23703985  1.0
  C  C39  1  0.15615560  0.51092605  0.27725671  1.0
  C  C40  1  0.94320612  0.46774860  0.23700962  1.0
  C  C41  1  0.90017934  0.46555081  0.15741963  1.0
  C  C42  1  0.53638285  0.38978934  0.88516295  1.0
  C  C43  1  0.46261886  0.61012226  0.11463135  1.0
  O  O44  1  0.96093818  0.52048296  0.60454404  1.0
  O  O45  1  0.68385213  0.67131707  0.51623379  1.0
  O  O46  1  0.39565099  0.52478430  0.39508378  1.0
  O  O47  1  0.99412175  0.32727969  0.51002291  1.0
  O  O48  1  0.03985795  0.47945296  0.39556334  1.0
  O  O49  1  0.31679186  0.32862438  0.48367517  1.0
  O  O50  1  0.60494760  0.47503593  0.60477707  1.0
  O  O51  1  0.00669851  0.67268550  0.49008560  1.0
  O  O52  1  0.29500394  0.55864792  0.53651653  1.0
  O  O53  1  0.70584214  0.44134723  0.46346182  1.0
  F  F54  1  0.60683424  0.89055692  0.53571044  1.0
  F  F55  1  0.39400066  0.10941797  0.46439102  1.0
