# generated using pymatgen
data_ZnH11C9Br(NO)2
_symmetry_space_group_name_H-M   'P 1'
_cell_length_a   10.23465238
_cell_length_b   17.78091698
_cell_length_c   17.77851013
_cell_angle_alpha   60.01108678
_cell_angle_beta   89.99994782
_cell_angle_gamma   89.99971943
_symmetry_Int_Tables_number   1
_chemical_formula_structural   ZnH11C9Br(NO)2
_chemical_formula_sum   'Zn6 H66 C54 Br6 N12 O12'
_cell_volume   2802.21693606
_cell_formula_units_Z   6
loop_
 _symmetry_equiv_pos_site_id
 _symmetry_equiv_pos_as_xyz
  1  'x, y, z'
loop_
 _atom_site_type_symbol
 _atom_site_label
 _atom_site_symmetry_multiplicity
 _atom_site_fract_x
 _atom_site_fract_y
 _atom_site_fract_z
 _atom_site_occupancy
  Zn  Zn0  1  0.86686747  0.46535481  0.07917827  1.0
  Zn  Zn1  1  0.70018729  0.54436974  0.53485448  1.0
  Zn  Zn2  1  0.53375442  0.07928135  0.45541307  1.0
  Zn  Zn3  1  0.36686648  0.53464792  0.92081892  1.0
  Zn  Zn4  1  0.20018701  0.45562965  0.46514559  1.0
  Zn  Zn5  1  0.03375954  0.92072187  0.54458180  1.0
  H  H6  1  0.98272417  0.54503626  0.93636194  1.0
  H  H7  1  0.81605053  0.48132414  0.45500723  1.0
  H  H8  1  0.64963580  0.93646072  0.51864962  1.0
  H  H9  1  0.48272355  0.45496153  0.06363541  1.0
  H  H10  1  0.31605808  0.51867097  0.54499492  1.0
  H  H11  1  0.14963297  0.06354535  0.48134377  1.0
  H  H12  1  0.94934494  0.64905786  0.97987616  1.0
  H  H13  1  0.78289106  0.62892116  0.35102741  1.0
  H  H14  1  0.61663510  0.97982321  0.37110230  1.0
  H  H15  1  0.44933354  0.35094264  0.02011929  1.0
  H  H16  1  0.28289580  0.37107276  0.64897536  1.0
  H  H17  1  0.11663338  0.02018167  0.62889226  1.0
  H  H18  1  0.78149653  0.65697375  0.95038052  1.0
  H  H19  1  0.61504667  0.60741303  0.34302690  1.0
  H  H20  1  0.44878291  0.95033779  0.39256180  1.0
  H  H21  1  0.28148711  0.34302927  0.04961601  1.0
  H  H22  1  0.11505415  0.39258341  0.65697525  1.0
  H  H23  1  0.94877976  0.04966401  0.60743356  1.0
  H  H24  1  0.76835133  0.59990545  0.83505837  1.0
  H  H25  1  0.60181291  0.43510895  0.39987992  1.0
  H  H26  1  0.43532506  0.83515268  0.56485788  1.0
  H  H27  1  0.26835297  0.40009827  0.16494006  1.0
  H  H28  1  0.10181412  0.56487845  0.60012957  1.0
  H  H29  1  0.93532413  0.16485241  0.43513584  1.0
  H  H30  1  0.80375639  0.89563021  0.66202979  1.0
  H  H31  1  0.63702534  0.55763909  0.10437805  1.0
  H  H32  1  0.47044580  0.66210280  0.44232797  1.0
  H  H33  1  0.30374855  0.10437079  0.33796436  1.0
  H  H34  1  0.13702030  0.44236637  0.89561677  1.0
  H  H35  1  0.97044223  0.33789828  0.55767562  1.0
  H  H36  1  0.10675458  0.65948280  0.84460573  1.0
  H  H37  1  0.94019445  0.50402290  0.34050126  1.0
  H  H38  1  0.77381825  0.84427420  0.49630506  1.0
  H  H39  1  0.60674772  0.34051627  0.15539174  1.0
  H  H40  1  0.44019811  0.49597503  0.65949885  1.0
  H  H41  1  0.27381362  0.15572690  0.50369468  1.0
  H  H42  1  0.73581304  0.78864328  0.81460891  1.0
  H  H43  1  0.56931783  0.60337445  0.21133626  1.0
  H  H44  1  0.40307015  0.81481352  0.39655537  1.0
  H  H45  1  0.23580355  0.21135925  0.18538732  1.0
  H  H46  1  0.06932116  0.39662604  0.78866277  1.0
  H  H47  1  0.90306586  0.18518779  0.60344645  1.0
  H  H48  1  0.15670122  0.77022104  0.69131716  1.0
  H  H49  1  0.98990037  0.46133798  0.22980858  1.0
  H  H50  1  0.82319036  0.69087175  0.53906157  1.0
  H  H51  1  0.65669505  0.22977657  0.30867820  1.0
  H  H52  1  0.48990056  0.53866368  0.77018908  1.0
  H  H53  1  0.32318547  0.30912852  0.46094081  1.0
  H  H54  1  0.93025369  0.49985897  0.83036108  1.0
  H  H55  1  0.76328334  0.33023049  0.50017390  1.0
  H  H56  1  0.59696214  0.83046975  0.66966210  1.0
  H  H57  1  0.43026131  0.50014484  0.16962992  1.0
  H  H58  1  0.26327600  0.66976611  0.49984047  1.0
  H  H59  1  0.09695669  0.16952480  0.33033145  1.0
  H  H60  1  0.77043211  0.45867383  0.83752475  1.0
  H  H61  1  0.60334153  0.29639893  0.54117779  1.0
  H  H62  1  0.43711298  0.83765349  0.70363227  1.0
  H  H63  1  0.27043939  0.54132598  0.16247564  1.0
  H  H64  1  0.10333104  0.70359107  0.45883378  1.0
  H  H65  1  0.93710741  0.16234056  0.29636585  1.0
  H  H66  1  0.87230477  0.41257455  0.93196218  1.0
  H  H67  1  0.70517963  0.34466827  0.58737086  1.0
  H  H68  1  0.53902717  0.93206609  0.65537995  1.0
  H  H69  1  0.37230204  0.58743141  0.06803227  1.0
  H  H70  1  0.20518720  0.65532851  0.41264008  1.0
  H  H71  1  0.03901572  0.06792672  0.34462462  1.0
  C  C72  1  0.91530942  0.71414514  0.84227298  1.0
  C  C73  1  0.74879940  0.55646008  0.28583864  1.0
  C  C74  1  0.58243320  0.84220998  0.44370439  1.0
  C  C75  1  0.41530324  0.28585678  0.15772234  1.0
  C  C76  1  0.24880537  0.44353526  0.71416343  1.0
  C  C77  1  0.08242749  0.15779307  0.55629223  1.0
  C  C78  1  0.66275351  0.50796717  0.94615945  1.0
  C  C79  1  0.49594692  0.45442701  0.49163421  1.0
  C  C80  1  0.32952130  0.94615011  0.54563943  1.0
  C  C81  1  0.16275455  0.49203561  0.05383782  1.0
  C  C82  1  0.99594333  0.54557397  0.50836829  1.0
  C  C83  1  0.82952031  0.05385404  0.45435876  1.0
  C  C84  1  0.88050337  0.64588737  0.93391847  1.0
  C  C85  1  0.71403109  0.57985180  0.35411635  1.0
  C  C86  1  0.54773111  0.93389977  0.42018204  1.0
  C  C87  1  0.38049774  0.35411207  0.06607811  1.0
  C  C88  1  0.21403835  0.42014106  0.64588698  1.0
  C  C89  1  0.04772908  0.06610404  0.57981422  1.0
  C  C90  1  0.79193514  0.53958907  0.89581847  1.0
  C  C91  1  0.62523036  0.43553825  0.46024854  1.0
  C  C92  1  0.45879995  0.89591326  0.56444826  1.0
  C  C93  1  0.29193441  0.46041392  0.10417807  1.0
  C  C94  1  0.12523265  0.56445490  0.53975863  1.0
  C  C95  1  0.95879563  0.10409110  0.43554807  1.0
  C  C96  1  0.86671915  0.84168664  0.70522126  1.0
  C  C97  1  0.70002602  0.54689383  0.15831100  1.0
  C  C98  1  0.53348145  0.70518087  0.45321898  1.0
  C  C99  1  0.36671385  0.15831349  0.29477442  1.0
  C  C100  1  0.20002585  0.45310947  0.84168599  1.0
  C  C101  1  0.03347752  0.29482040  0.54678249  1.0
  C  C102  1  0.03487018  0.70955332  0.80642678  1.0
  C  C103  1  0.86826039  0.51593922  0.29043991  1.0
  C  C104  1  0.70177201  0.80617921  0.48437845  1.0
  C  C105  1  0.53486270  0.29044665  0.19356859  1.0
  C  C106  1  0.36826505  0.48405766  0.70956133  1.0
  C  C107  1  0.20176508  0.19382343  0.51562000  1.0
  C  C108  1  0.83051879  0.78224860  0.79011461  1.0
  C  C109  1  0.66395723  0.57242523  0.21773655  1.0
  C  C110  1  0.49757662  0.79015687  0.42764329  1.0
  C  C111  1  0.33051312  0.21775230  0.20988014  1.0
  C  C112  1  0.16396030  0.42757430  0.78226291  1.0
  C  C113  1  0.99757021  0.20984541  0.57235687  1.0
  C  C114  1  0.06398676  0.77069656  0.72114777  1.0
  C  C115  1  0.89726397  0.49173240  0.22931606  1.0
  C  C116  1  0.73061554  0.72083235  0.50862199  1.0
  C  C117  1  0.56398064  0.22930460  0.27884530  1.0
  C  C118  1  0.39726540  0.50826893  0.77068238  1.0
  C  C119  1  0.23061086  0.27916889  0.49137939  1.0
  C  C120  1  0.84467001  0.47312808  0.87295038  1.0
  C  C121  1  0.67768093  0.34619221  0.52680193  1.0
  C  C122  1  0.51140167  0.87307033  0.65379580  1.0
  C  C123  1  0.34467161  0.52687409  0.12704654  1.0
  C  C124  1  0.17768061  0.65380207  0.47321252  1.0
  C  C125  1  0.01139655  0.12692778  0.34619939  1.0
  Br  Br126  1  0.89486217  0.31573071  0.12755824  1.0
  Br  Br127  1  0.72653535  0.44270845  0.68455672  1.0
  Br  Br128  1  0.56035592  0.12783241  0.55665441  1.0
  Br  Br129  1  0.39485804  0.68427063  0.87244694  1.0
  Br  Br130  1  0.22654030  0.55728762  0.31544275  1.0
  Br  Br131  1  0.06035281  0.87217006  0.44334026  1.0
  N  N132  1  0.88772822  0.55696318  0.94727397  1.0
  N  N133  1  0.72110925  0.50425347  0.44303132  1.0
  N  N134  1  0.55468678  0.94736459  0.49570860  1.0
  N  N135  1  0.38772673  0.44303818  0.05272221  1.0
  N  N136  1  0.22111406  0.49574196  0.55697241  1.0
  N  N137  1  0.05468400  0.05263920  0.50428541  1.0
  N  N138  1  0.98086475  0.83566206  0.67082851  1.0
  N  N139  1  0.81407598  0.50639905  0.16435211  1.0
  N  N140  1  0.64737503  0.67060142  0.49387786  1.0
  N  N141  1  0.48085739  0.16433574  0.32916715  1.0
  N  N142  1  0.31407450  0.49360386  0.83564558  1.0
  N  N143  1  0.14736892  0.32939880  0.50612520  1.0
  O  O144  1  0.66131574  0.48503941  0.02671758  1.0
  O  O145  1  0.49442863  0.51203289  0.51456497  1.0
  O  O146  1  0.32798603  0.02669078  0.48805502  1.0
  O  O147  1  0.16131484  0.51496338  0.97328138  1.0
  O  O148  1  0.99443855  0.48796616  0.48542893  1.0
  O  O149  1  0.82798465  0.97331402  0.51194284  1.0
  O  O150  1  0.56581426  0.50650731  0.90289690  1.0
  O  O151  1  0.39897068  0.40979655  0.49289148  1.0
  O  O152  1  0.23261147  0.90274657  0.59028080  1.0
  O  O153  1  0.06581521  0.49349385  0.09710292  1.0
  O  O154  1  0.89897941  0.59019439  0.50711328  1.0
  O  O155  1  0.73260823  0.09725661  0.40971961  1.0
