# generated using pymatgen
data_Al4H36C68S6O47
_symmetry_space_group_name_H-M   'P 1'
_cell_length_a   6.69539643
_cell_length_b   19.99914602
_cell_length_c   23.75043420
_cell_angle_alpha   90.10978533
_cell_angle_beta   92.77434349
_cell_angle_gamma   90.66898556
_symmetry_Int_Tables_number   1
_chemical_formula_structural   Al4H36C68S6O47
_chemical_formula_sum   'Al4 H36 C68 S6 O47'
_cell_volume   3176.28180680
_cell_formula_units_Z   1
loop_
 _symmetry_equiv_pos_site_id
 _symmetry_equiv_pos_as_xyz
  1  'x, y, z'
loop_
 _atom_site_type_symbol
 _atom_site_label
 _atom_site_symmetry_multiplicity
 _atom_site_fract_x
 _atom_site_fract_y
 _atom_site_fract_z
 _atom_site_occupancy
  Al  Al0  1  0.05529358  0.49985709  0.49819442  1.0
  Al  Al1  1  0.55584262  0.49827688  0.49989569  1.0
  Al  Al2  1  0.75490719  0.00284486  0.00614159  1.0
  Al  Al3  1  0.25479730  0.00263490  0.00224926  1.0
  H  H4  1  0.95643008  0.37354030  0.35439658  1.0
  H  H5  1  0.58765296  0.28274256  0.47389272  1.0
  H  H6  1  0.65149462  0.11562695  0.32718001  1.0
  H  H7  1  0.78884902  0.11890649  0.23518795  1.0
  H  H8  1  0.09916478  0.84089160  0.29724792  1.0
  H  H9  1  0.61192318  0.79144455  0.19884387  1.0
  H  H10  1  0.22402389  0.33764839  0.78004876  1.0
  H  H11  1  0.09692257  0.20319853  0.78486707  1.0
  H  H12  1  0.72806107  0.28112722  0.70879749  1.0
  H  H13  1  0.50739786  0.61396583  0.84149419  1.0
  H  H14  1  0.44628943  0.62084694  0.65733846  1.0
  H  H15  1  0.19780664  0.72453286  0.51259203  1.0
  H  H16  1  0.20841894  0.88664101  0.66019081  1.0
  H  H17  1  0.48584812  0.77253466  0.99087035  1.0
  H  H18  1  0.47803102  0.61774085  0.73861138  1.0
  H  H19  1  0.28479042  0.88642807  0.76073304  1.0
  H  H20  1  0.18342259  0.82937375  0.56896179  1.0
  H  H21  1  0.46968017  0.36359634  0.23892255  1.0
  H  H22  1  0.25933630  0.24156875  0.42574241  1.0
  H  H23  1  0.20340656  0.65124999  0.18039293  1.0
  H  H24  1  0.89001585  0.65988422  0.11773077  1.0
  H  H25  1  0.45276971  0.66521678  0.24186695  1.0
  H  H26  1  0.57858247  0.78536063  0.33922263  1.0
  H  H27  1  0.77983979  0.40303227  0.79669446  1.0
  H  H28  1  0.07100791  0.15629693  0.67515375  1.0
  H  H29  1  0.43959938  0.13163496  0.62852519  1.0
  H  H30  1  0.51391690  0.65907598  0.97728464  1.0
  H  H31  1  0.51638708  0.90515644  0.79919217  1.0
  H  H32  1  0.41549369  0.29914509  0.06556197  1.0
  H  H33  1  0.30048211  0.16451193  0.02105864  1.0
  H  H34  1  0.76844248  0.10360535  0.11527955  1.0
  H  H35  1  0.27295870  0.45785627  0.30929758  1.0
  H  H36  1  0.29210684  0.46770534  0.42923274  1.0
  H  H37  1  0.81996534  0.54563323  0.56084341  1.0
  H  H38  1  0.50568667  0.99070935  0.07714570  1.0
  H  H39  1  0.98207597  0.96024211  0.94007710  1.0
  C  C40  1  0.30531938  0.42406540  0.57754553  1.0
  C  C41  1  0.32565716  0.60303206  0.55039320  1.0
  C  C42  1  0.79769267  0.57135036  0.41813028  1.0
  C  C43  1  0.78848584  0.39610995  0.44926685  1.0
  C  C44  1  0.06068436  0.16335011  0.09579379  1.0
  C  C45  1  0.78769067  0.33183592  0.41829333  1.0
  C  C46  1  0.24865871  0.26524055  0.12065423  1.0
  C  C47  1  0.21107458  0.21089934  0.08468232  1.0
  C  C48  1  0.95030766  0.16980359  0.14492985  1.0
  C  C49  1  0.01392159  0.21624942  0.18803920  1.0
  C  C50  1  0.16252683  0.26539662  0.17423638  1.0
  C  C51  1  0.93795949  0.21529342  0.24438259  1.0
  C  C52  1  0.99396963  0.26577219  0.28447114  1.0
  C  C53  1  0.16054673  0.30987777  0.27180932  1.0
  C  C54  1  0.24006250  0.31012818  0.21799524  1.0
  C  C55  1  0.81662323  0.16121353  0.26309198  1.0
  C  C56  1  0.73735357  0.15923940  0.31506625  1.0
  C  C57  1  0.75661937  0.21518785  0.35169325  1.0
  C  C58  1  0.88467615  0.26954100  0.33563359  1.0
  C  C59  1  0.65099956  0.22163649  0.40228700  1.0
  C  C60  1  0.67081943  0.27786251  0.43592024  1.0
  C  C61  1  0.88740646  0.32791745  0.36886048  1.0
  C  C62  1  0.81046338  0.69778098  0.22398234  1.0
  C  C63  1  0.03179800  0.71970296  0.21217248  1.0
  C  C64  1  0.02512745  0.88308809  0.13124600  1.0
  C  C65  1  0.79204813  0.61692445  0.37084245  1.0
  C  C66  1  0.74406899  0.77240069  0.22193811  1.0
  C  C67  1  0.96561325  0.79491164  0.21052061  1.0
  C  C68  1  0.79578883  0.77882074  0.28772161  1.0
  C  C69  1  0.85977110  0.70141247  0.28966825  1.0
  C  C70  1  0.01563548  0.79998949  0.27622507  1.0
  C  C71  1  0.07898013  0.72511522  0.27786600  1.0
  C  C72  1  0.01134854  0.84214937  0.16870697  1.0
  C  C73  1  0.81395973  0.65458823  0.33149676  1.0
  C  C74  1  0.52097975  0.27526235  0.78682013  1.0
  C  C75  1  0.30630063  0.29508390  0.76474237  1.0
  C  C76  1  0.31787079  0.37374772  0.62096723  1.0
  C  C77  1  0.50230897  0.11852138  0.87727251  1.0
  C  C78  1  0.58694140  0.26424818  0.72547729  1.0
  C  C79  1  0.37281726  0.28592646  0.70208732  1.0
  C  C80  1  0.51732792  0.19002839  0.72843478  1.0
  C  C81  1  0.44993159  0.19921689  0.79098069  1.0
  C  C82  1  0.29891678  0.20935673  0.70542578  1.0
  C  C83  1  0.23543887  0.22072521  0.76717727  1.0
  C  C84  1  0.33761358  0.33215775  0.65806716  1.0
  C  C85  1  0.48575187  0.15573400  0.83700369  1.0
  C  C86  1  0.48083956  0.83718810  0.91785477  1.0
  C  C87  1  0.32419736  0.66706739  0.58289068  1.0
  C  C88  1  0.48572461  0.71707961  0.91285548  1.0
  C  C89  1  0.48170927  0.77476635  0.94486977  1.0
  C  C90  1  0.47108853  0.84234402  0.85943279  1.0
  C  C91  1  0.44853286  0.78374698  0.82538427  1.0
  C  C92  1  0.47229842  0.72046753  0.85303118  1.0
  C  C93  1  0.40186075  0.78449372  0.76505720  1.0
  C  C94  1  0.41772646  0.72450765  0.73334376  1.0
  C  C95  1  0.46518270  0.66394396  0.76237357  1.0
  C  C96  1  0.48310409  0.66138898  0.81992560  1.0
  C  C97  1  0.32287800  0.84238917  0.73667452  1.0
  C  C98  1  0.27325226  0.84220706  0.68004407  1.0
  C  C99  1  0.29702334  0.78411425  0.64655892  1.0
  C  C100  1  0.37071062  0.72464923  0.67318551  1.0
  C  C101  1  0.23911925  0.78338265  0.58838815  1.0
  C  C102  1  0.24786698  0.72555207  0.55697078  1.0
  C  C103  1  0.38726685  0.66698768  0.63925251  1.0
  C  C104  1  0.48691350  0.89994682  0.95207121  1.0
  C  C105  1  0.51023330  0.07500267  0.92534156  1.0
  C  C106  1  0.03107007  0.10600021  0.05796882  1.0
  C  C107  1  0.01369425  0.93085611  0.08588851  1.0
  S  S108  1  0.46844986  0.16140742  0.42322296  1.0
  S  S109  1  0.72365589  0.62688109  0.18618323  1.0
  S  S110  1  0.28733107  0.69063739  0.31477103  1.0
  S  S111  1  0.66852845  0.31700013  0.83957781  1.0
  S  S112  1  0.63964703  0.12092638  0.70055737  1.0
  S  S113  1  0.30569436  0.35194381  0.32552147  1.0
  O  O114  1  0.49218660  0.58217305  0.53432160  1.0
  O  O115  1  0.13218584  0.43608894  0.55594495  1.0
  O  O116  1  0.95145207  0.42979791  0.45150224  1.0
  O  O117  1  0.15676492  0.57375884  0.54254731  1.0
  O  O118  1  0.97188867  0.56338670  0.44055636  1.0
  O  O119  1  0.47034275  0.45196717  0.56608584  1.0
  O  O120  1  0.30068803  0.49049434  0.46542869  1.0
  O  O121  1  0.63414107  0.54436842  0.43161233  1.0
  O  O122  1  0.62573307  0.41381546  0.47032904  1.0
  O  O123  1  0.81236337  0.51001045  0.53300136  1.0
  O  O124  1  0.34549068  0.04743868  0.93759701  1.0
  O  O125  1  0.65426361  0.93019042  0.95949619  1.0
  O  O126  1  0.83758554  0.94047096  0.06475431  1.0
  O  O127  1  0.67914906  0.06800759  0.95150126  1.0
  O  O128  1  0.86465033  0.07307753  0.05642492  1.0
  O  O129  1  0.32133637  0.91818290  0.97121630  1.0
  O  O130  1  0.50870348  0.01137876  0.04019656  1.0
  O  O131  1  0.17906227  0.08944658  0.02849293  1.0
  O  O132  1  0.17538313  0.95895743  0.07166018  1.0
  O  O133  1  0.99665824  0.99157644  0.97132261  1.0
  O  O134  1  0.39623854  0.34790713  0.20382246  1.0
  O  O135  1  0.37009415  0.13197683  0.37365075  1.0
  O  O136  1  0.55127032  0.12007205  0.46767880  1.0
  O  O137  1  0.31131059  0.20827109  0.45328640  1.0
  O  O138  1  0.14100153  0.69374795  0.16963229  1.0
  O  O139  1  0.85834793  0.57326327  0.19920977  1.0
  O  O140  1  0.50926567  0.61610804  0.19054222  1.0
  O  O141  1  0.74556338  0.65176710  0.12266985  1.0
  O  O142  1  0.34815823  0.73324795  0.36168643  1.0
  O  O143  1  0.25597616  0.62000753  0.32071889  1.0
  O  O144  1  0.44711513  0.70409916  0.26875001  1.0
  O  O145  1  0.69508064  0.81148383  0.32739435  1.0
  O  O146  1  0.56513046  0.31650125  0.89088203  1.0
  O  O147  1  0.87254601  0.29516040  0.83668817  1.0
  O  O148  1  0.65687028  0.39315005  0.81590609  1.0
  O  O149  1  0.20006292  0.17459903  0.66271161  1.0
  O  O150  1  0.85444558  0.12971326  0.70706389  1.0
  O  O151  1  0.54775159  0.06089363  0.72057475  1.0
  O  O152  1  0.58745159  0.13218531  0.63518165  1.0
  O  O153  1  0.50048081  0.65439535  0.93648158  1.0
  O  O154  1  0.48366157  0.90637984  0.83873524  1.0
  O  O155  1  0.37468765  0.31379390  0.10271908  1.0
  O  O156  1  0.31967614  0.20985031  0.03779327  1.0
  O  O157  1  0.78741028  0.13009056  0.15077244  1.0
  O  O158  1  0.28865010  0.31962917  0.37885188  1.0
  O  O159  1  0.50493979  0.36577092  0.30596428  1.0
  O  O160  1  0.21214195  0.42596549  0.33488821  1.0
