# generated using pymatgen
data_AlC27N19O30
_symmetry_space_group_name_H-M   'P 1'
_cell_length_a   4.47633932
_cell_length_b   18.19315210
_cell_length_c   18.19989265
_cell_angle_alpha   60.16029813
_cell_angle_beta   86.20683223
_cell_angle_gamma   88.93560290
_symmetry_Int_Tables_number   1
_chemical_formula_structural   AlC27N19O30
_chemical_formula_sum   'Al1 C27 N19 O30'
_cell_volume   1282.67786505
_cell_formula_units_Z   1
loop_
 _symmetry_equiv_pos_site_id
 _symmetry_equiv_pos_as_xyz
  1  'x, y, z'
loop_
 _atom_site_type_symbol
 _atom_site_label
 _atom_site_symmetry_multiplicity
 _atom_site_fract_x
 _atom_site_fract_y
 _atom_site_fract_z
 _atom_site_occupancy
  Al  Al0  1  0.98552323  0.99993811  0.49924179  1.0
  C  C1  1  0.50715689  0.93602746  0.43464473  1.0
  C  C2  1  0.45490646  0.93493810  0.62750059  1.0
  C  C3  1  0.49470805  0.12904311  0.43544701  1.0
  C  C4  1  0.66713202  0.76493864  0.37220677  1.0
  C  C5  1  0.54003732  0.79761678  0.29340253  1.0
  C  C6  1  0.57510550  0.87402877  0.85789279  1.0
  C  C7  1  0.43210885  0.79413615  0.90627834  1.0
  C  C8  1  0.49714596  0.40683963  0.29553973  1.0
  C  C9  1  0.50207858  0.35954205  0.25370690  1.0
  C  C10  1  0.29860834  0.76130359  0.86059535  1.0
  C  C11  1  0.29580336  0.80746699  0.77215588  1.0
  C  C12  1  0.44314724  0.88586818  0.72447162  1.0
  C  C13  1  0.58699872  0.91718530  0.76936676  1.0
  C  C14  1  0.46211045  0.27170615  0.29941558  1.0
  C  C15  1  0.49734230  0.22562655  0.38695880  1.0
  C  C16  1  0.53243091  0.27317522  0.42734990  1.0
  C  C17  1  0.49212903  0.36066280  0.38456553  1.0
  C  C18  1  0.40054321  0.87667110  0.26256467  1.0
  C  C19  1  0.38450610  0.91893671  0.30902584  1.0
  C  C20  1  0.52021425  0.88760987  0.38579372  1.0
  C  C21  1  0.66479074  0.81016688  0.41574435  1.0
  C  C22  1  0.55886759  0.62338139  0.24997171  1.0
  C  C23  1  0.48520522  0.75569591  0.11996097  1.0
  C  C24  1  0.54796335  0.75086536  0.24539648  1.0
  C  C25  1  0.49498577  0.50067184  0.24817537  1.0
  C  C26  1  0.42061392  0.62124911  0.12388520  1.0
  C  C27  1  0.42383368  0.74780480  0.00081977  1.0
  N  N28  1  0.48804322  0.66677366  0.16460481  1.0
  N  N29  1  0.51677687  0.79730645  0.16194951  1.0
  N  N30  1  0.58392756  0.66703843  0.29016707  1.0
  N  N31  1  0.59397418  0.53975862  0.28807491  1.0
  N  N32  1  0.39344360  0.53714791  0.17021397  1.0
  N  N33  1  0.45172766  0.79566330  0.03685209  1.0
  N  N34  1  0.39137126  0.66347631  0.04049886  1.0
  N  N35  1  0.22127790  0.99935541  0.27768797  1.0
  N  N36  1  0.27057088  0.91939128  0.17779173  1.0
  N  N37  1  0.81648723  0.77590737  0.49607925  1.0
  N  N38  1  0.80315706  0.67921380  0.41313310  1.0
  N  N39  1  0.41290968  0.40247310  0.43577446  1.0
  N  N40  1  0.62308484  0.23179327  0.51650841  1.0
  N  N41  1  0.57555973  0.40076216  0.16036630  1.0
  N  N42  1  0.36921092  0.22871565  0.25283703  1.0
  N  N43  1  0.71465586  0.91651196  0.89969228  1.0
  N  N44  1  0.75418439  0.99862137  0.72014395  1.0
  N  N45  1  0.16006832  0.67463989  0.90568570  1.0
  N  N46  1  0.13369812  0.77357602  0.72667747  1.0
  O  O47  1  0.72509917  0.09460472  0.47509090  1.0
  O  O48  1  0.74516517  0.97574719  0.42862978  1.0
  O  O49  1  0.70115392  0.93014282  0.59205193  1.0
  O  O50  1  0.26216294  0.09362015  0.43059684  1.0
  O  O51  1  0.21955471  0.97412775  0.59498664  1.0
  O  O52  1  0.25918133  0.93026829  0.47483009  1.0
  O  O53  1  0.31943767  0.05063939  0.29585551  1.0
  O  O54  1  0.99652510  0.00757600  0.23854805  1.0
  O  O55  1  0.03587872  0.88875531  0.17225783  1.0
  O  O56  1  0.41018759  0.98161952  0.12233668  1.0
  O  O57  1  0.70097015  0.79121178  0.55014861  1.0
  O  O58  1  0.04983279  0.73666882  0.50126038  1.0
  O  O59  1  0.04606827  0.67256962  0.38131072  1.0
  O  O60  1  0.65851125  0.62404998  0.47504008  1.0
  O  O61  1  0.17082875  0.43902149  0.42038875  1.0
  O  O62  1  0.58255878  0.39410146  0.48953074  1.0
  O  O63  1  0.89421846  0.21854283  0.52099215  1.0
  O  O64  1  0.43625122  0.21628263  0.57470892  1.0
  O  O65  1  0.81740606  0.43961500  0.13635524  1.0
  O  O66  1  0.40075518  0.38971920  0.11747828  1.0
  O  O67  1  0.09761121  0.21371074  0.26262916  1.0
  O  O68  1  0.55538483  0.21402962  0.20969114  1.0
  O  O69  1  0.94700891  0.88538789  0.93487990  1.0
  O  O70  1  0.58541846  0.97884721  0.89382733  1.0
  O  O71  1  0.65294406  0.05062702  0.65249937  1.0
  O  O72  1  0.98441309  0.00690233  0.74931873  1.0
  O  O73  1  0.92079100  0.66590314  0.94676210  1.0
  O  O74  1  0.30008107  0.62085581  0.89675045  1.0
  O  O75  1  0.24097319  0.79100657  0.65577102  1.0
  O  O76  1  0.90034778  0.73260159  0.76274636  1.0
