# generated using pymatgen
data_ZnH30C34I4NO14
_symmetry_space_group_name_H-M   'P 1'
_cell_length_a   16.13936775
_cell_length_b   18.47134566
_cell_length_c   19.43824670
_cell_angle_alpha   89.73655557
_cell_angle_beta   91.54601381
_cell_angle_gamma   89.80542806
_symmetry_Int_Tables_number   1
_chemical_formula_structural   ZnH30C34I4NO14
_chemical_formula_sum   'Zn2 H60 C68 I8 N2 O28'
_cell_volume   5792.64266508
_cell_formula_units_Z   2
loop_
 _symmetry_equiv_pos_site_id
 _symmetry_equiv_pos_as_xyz
  1  'x, y, z'
loop_
 _atom_site_type_symbol
 _atom_site_label
 _atom_site_symmetry_multiplicity
 _atom_site_fract_x
 _atom_site_fract_y
 _atom_site_fract_z
 _atom_site_occupancy
  Zn  Zn0  1  0.49494909  0.42235951  0.50624536  1.0
  Zn  Zn1  1  0.49710587  0.58264155  0.50025405  1.0
  H  H2  1  0.37282164  0.65699875  0.73181731  1.0
  H  H3  1  0.39714267  0.62192950  0.64810029  1.0
  H  H4  1  0.42430490  0.71267894  0.67041374  1.0
  H  H5  1  0.71035019  0.48847626  0.33999600  1.0
  H  H6  1  0.74916136  0.57870362  0.34900396  1.0
  H  H7  1  0.74405863  0.53726921  0.26516310  1.0
  H  H8  1  0.29682544  0.48341962  0.23501196  1.0
  H  H9  1  0.33184898  0.51909773  0.31706832  1.0
  H  H10  1  0.27027302  0.43867787  0.31384521  1.0
  H  H11  1  0.36672893  0.38452430  0.67977944  1.0
  H  H12  1  0.37510391  0.34458437  0.76499536  1.0
  H  H13  1  0.40473689  0.29381766  0.69086044  1.0
  H  H14  1  0.61391061  0.68401087  0.78667902  1.0
  H  H15  1  0.66118539  0.63508193  0.85788779  1.0
  H  H16  1  0.60807675  0.71888621  0.87271377  1.0
  H  H17  1  0.67699544  0.67738792  0.13652908  1.0
  H  H18  1  0.61432877  0.67266233  0.21154830  1.0
  H  H19  1  0.56816675  0.65890306  0.12713232  1.0
  H  H20  1  0.39531800  0.32541742  0.20639928  1.0
  H  H21  1  0.47189177  0.31856515  0.14098719  1.0
  H  H22  1  0.36370228  0.31857386  0.11717334  1.0
  H  H23  1  0.64024750  0.35030782  0.86040996  1.0
  H  H24  1  0.57969255  0.30800172  0.79203357  1.0
  H  H25  1  0.56946210  0.27863109  0.87964012  1.0
  H  H26  1  0.76525747  0.49359804  0.00107551  1.0
  H  H27  1  0.73748103  0.55169618  0.92955316  1.0
  H  H28  1  0.79314578  0.46916362  0.91515419  1.0
  H  H29  1  0.33220832  0.62639242  0.01059656  1.0
  H  H30  1  0.41911657  0.66140634  0.05881827  1.0
  H  H31  1  0.32646456  0.63729406  0.10242388  1.0
  H  H32  1  0.68149371  0.35106105  0.01932469  1.0
  H  H33  1  0.61934769  0.34112151  0.09427128  1.0
  H  H34  1  0.72949455  0.35221605  0.10393974  1.0
  H  H35  1  0.30900224  0.48111613  0.97576669  1.0
  H  H36  1  0.35615375  0.44644622  0.89978476  1.0
  H  H37  1  0.28086103  0.51818078  0.89244205  1.0
  H  H38  1  0.67123486  0.36056631  0.65573095  1.0
  H  H39  1  0.70148562  0.30252165  0.58759715  1.0
  H  H40  1  0.66239411  0.26397353  0.66603687  1.0
  H  H41  1  0.29861580  0.75805799  0.40526886  1.0
  H  H42  1  0.29838196  0.67712661  0.45862192  1.0
  H  H43  1  0.29190042  0.66962194  0.36691700  1.0
  H  H44  1  0.30260844  0.32614940  0.35988377  1.0
  H  H45  1  0.30257867  0.33143875  0.45178170  1.0
  H  H46  1  0.31218017  0.24423795  0.41003773  1.0
  H  H47  1  0.70485773  0.75061973  0.58861630  1.0
  H  H48  1  0.70365387  0.66946215  0.53643480  1.0
  H  H49  1  0.70602301  0.66226823  0.62826927  1.0
  H  H50  1  0.64119766  0.06712853  0.58097342  1.0
  H  H51  1  0.70442344  0.14628352  0.57167374  1.0
  H  H52  1  0.68270869  0.11171408  0.65580013  1.0
  H  H53  1  0.42208293  0.77631664  0.31312499  1.0
  H  H54  1  0.49366070  0.85078770  0.31484875  1.0
  H  H55  1  0.38570831  0.86690797  0.29520274  1.0
  H  H56  1  0.51795789  0.18754193  0.31580748  1.0
  H  H57  1  0.42522597  0.14027738  0.29004015  1.0
  H  H58  1  0.42078625  0.23502691  0.31139520  1.0
  H  H59  1  0.62315505  0.86271469  0.69418294  1.0
  H  H60  1  0.58304365  0.77358472  0.67676924  1.0
  H  H61  1  0.51483359  0.85081214  0.67411512  1.0
  C  C62  1  0.50748131  0.49604992  0.37408936  1.0
  C  C63  1  0.48752773  0.50213184  0.63326975  1.0
  C  C64  1  0.49386979  0.50365624  0.71070343  1.0
  C  C65  1  0.51469763  0.49495929  0.29709504  1.0
  C  C66  1  0.60308179  0.47919871  0.96946055  1.0
  C  C67  1  0.46305925  0.52742947  0.03900950  1.0
  C  C68  1  0.60056988  0.47383265  0.04161592  1.0
  C  C69  1  0.46360296  0.52792161  0.96692605  1.0
  C  C70  1  0.53116078  0.49840994  0.07686795  1.0
  C  C71  1  0.53376110  0.50492632  0.93178895  1.0
  C  C72  1  0.54539457  0.27453270  0.55227988  1.0
  C  C73  1  0.45342467  0.73343911  0.44963671  1.0
  C  C74  1  0.46150474  0.27329938  0.45205312  1.0
  C  C75  1  0.54991176  0.73190995  0.54154088  1.0
  C  C76  1  0.55261962  0.19836670  0.55224624  1.0
  C  C77  1  0.45730828  0.80939932  0.44478017  1.0
  C  C78  1  0.47189420  0.19826071  0.44487631  1.0
  C  C79  1  0.55027966  0.80801052  0.54475244  1.0
  C  C80  1  0.51547752  0.16030283  0.49734494  1.0
  C  C81  1  0.50485916  0.84689247  0.49433771  1.0
  C  C82  1  0.45196137  0.04302087  0.53206660  1.0
  C  C83  1  0.56841380  0.96414602  0.45757230  1.0
  C  C84  1  0.57105253  0.04008347  0.45794897  1.0
  C  C85  1  0.44851088  0.96708062  0.53064523  1.0
  C  C86  1  0.50708947  0.92726505  0.49395141  1.0
  C  C87  1  0.51370189  0.07989740  0.49599679  1.0
  C  C88  1  0.33552186  0.50776647  0.49449514  1.0
  C  C89  1  0.65599862  0.50195954  0.50851433  1.0
  C  C90  1  0.95438992  0.43018240  0.50073200  1.0
  C  C91  1  0.03562865  0.56341274  0.48084635  1.0
  C  C92  1  0.04086156  0.43191253  0.49872936  1.0
  C  C93  1  0.94915950  0.56153815  0.48192274  1.0
  C  C94  1  0.90718631  0.49509813  0.49356077  1.0
  C  C95  1  0.08298711  0.49875012  0.48982460  1.0
  C  C96  1  0.82039447  0.49447145  0.49888694  1.0
  C  C97  1  0.17022561  0.50130054  0.49030719  1.0
  C  C98  1  0.24561790  0.50536663  0.49186963  1.0
  C  C99  1  0.74546184  0.49744320  0.50453139  1.0
  C  C100  1  0.50428736  0.56968827  0.74709085  1.0
  C  C101  1  0.57865169  0.53323180  0.26616825  1.0
  C  C102  1  0.45677535  0.45738167  0.25617712  1.0
  C  C103  1  0.49777126  0.43832924  0.74935629  1.0
  C  C104  1  0.52260144  0.56927447  0.81821244  1.0
  C  C105  1  0.58410226  0.53403751  0.19417631  1.0
  C  C106  1  0.46480982  0.45496331  0.18447877  1.0
  C  C107  1  0.51576191  0.43882793  0.82054218  1.0
  C  C108  1  0.52797332  0.50426081  0.85553600  1.0
  C  C109  1  0.52792931  0.49446542  0.15278725  1.0
  C  C110  1  0.41806550  0.65733734  0.69032812  1.0
  C  C111  1  0.71399497  0.54203783  0.31511981  1.0
  C  C112  1  0.31824979  0.46946230  0.28772533  1.0
  C  C113  1  0.40286478  0.34791121  0.71385743  1.0
  C  C114  1  0.60828890  0.66964357  0.84140901  1.0
  C  C115  1  0.62424051  0.65041031  0.15993703  1.0
  C  C116  1  0.41040458  0.34043997  0.15335500  1.0
  C  C117  1  0.58047307  0.32531768  0.84608639  1.0
  C  C118  1  0.74598101  0.49504765  0.94641061  1.0
  C  C119  1  0.36682777  0.62331053  0.05994867  1.0
  C  C120  1  0.67425880  0.36770941  0.07315567  1.0
  C  C121  1  0.33153644  0.49531020  0.92444416  1.0
  C  C122  1  0.65792195  0.30938960  0.62961712  1.0
  C  C123  1  0.31792031  0.70104759  0.40989382  1.0
  C  C124  1  0.32732577  0.30218882  0.40775916  1.0
  C  C125  1  0.68322573  0.69443826  0.58423516  1.0
  C  C126  1  0.65772975  0.11982905  0.60333828  1.0
  C  C127  1  0.42995094  0.83389071  0.32547358  1.0
  C  C128  1  0.45087007  0.18289958  0.32320855  1.0
  C  C129  1  0.57782072  0.83142042  0.66389829  1.0
  I  I130  1  0.11330893  0.33791899  0.51006006  1.0
  I  I131  1  0.87692134  0.65518943  0.46680318  1.0
  I  I132  1  0.88887258  0.33333333  0.51334781  1.0
  I  I133  1  0.09986485  0.66069072  0.46717385  1.0
  I  I134  1  0.36515698  0.10434987  0.58604575  1.0
  I  I135  1  0.65545910  0.90232823  0.40426031  1.0
  I  I136  1  0.66122787  0.09753106  0.40395098  1.0
  I  I137  1  0.35644472  0.90960323  0.58250543  1.0
  N  N138  1  0.49945019  0.30950531  0.50366984  1.0
  N  N139  1  0.50033801  0.69650553  0.49620613  1.0
  O  O140  1  0.52903008  0.43895685  0.40639838  1.0
  O  O141  1  0.51321851  0.55796082  0.60185090  1.0
  O  O142  1  0.46005350  0.44527829  0.60388785  1.0
  O  O143  1  0.48044411  0.55437262  0.39962927  1.0
  O  O144  1  0.37141554  0.44912651  0.47892553  1.0
  O  O145  1  0.62404818  0.56192264  0.48927151  1.0
  O  O146  1  0.62002250  0.44568830  0.53026371  1.0
  O  O147  1  0.36808143  0.56779699  0.51190556  1.0
  O  O148  1  0.49857754  0.63719349  0.71724772  1.0
  O  O149  1  0.63253625  0.57340434  0.30675166  1.0
  O  O150  1  0.39042667  0.42346282  0.28648505  1.0
  O  O151  1  0.48741065  0.37123566  0.72016484  1.0
  O  O152  1  0.53135587  0.63371451  0.85342251  1.0
  O  O153  1  0.64495551  0.57480352  0.16376815  1.0
  O  O154  1  0.40834046  0.41749779  0.14378680  1.0
  O  O155  1  0.51381553  0.37540144  0.85832217  1.0
  O  O156  1  0.67098099  0.45470084  0.93416543  1.0
  O  O157  1  0.39579262  0.55113376  0.07468694  1.0
  O  O158  1  0.66718142  0.44495298  0.07879360  1.0
  O  O159  1  0.39421409  0.55045399  0.92919381  1.0
  O  O160  1  0.57484373  0.31770477  0.60222586  1.0
  O  O161  1  0.40689149  0.69362529  0.40515706  1.0
  O  O162  1  0.41604387  0.31304966  0.40630649  1.0
  O  O163  1  0.59388871  0.69039500  0.58658381  1.0
  O  O164  1  0.58613714  0.16570027  0.61016114  1.0
  O  O165  1  0.41188499  0.84826886  0.39668717  1.0
  O  O166  1  0.43530811  0.15912162  0.39269007  1.0
  O  O167  1  0.59692254  0.84532338  0.59263521  1.0
