# generated using pymatgen
data_ZnH10C20N3(ClO2)2
_symmetry_space_group_name_H-M   'P 1'
_cell_length_a   15.90704565
_cell_length_b   17.30287646
_cell_length_c   18.10073123
_cell_angle_alpha   90.21565552
_cell_angle_beta   92.44845679
_cell_angle_gamma   95.74005491
_symmetry_Int_Tables_number   1
_chemical_formula_structural   ZnH10C20N3(ClO2)2
_chemical_formula_sum   'Zn2 H20 C40 N6 Cl4 O8'
_cell_volume   4952.33503189
_cell_formula_units_Z   2
loop_
 _symmetry_equiv_pos_site_id
 _symmetry_equiv_pos_as_xyz
  1  'x, y, z'
loop_
 _atom_site_type_symbol
 _atom_site_label
 _atom_site_symmetry_multiplicity
 _atom_site_fract_x
 _atom_site_fract_y
 _atom_site_fract_z
 _atom_site_occupancy
  Zn  Zn0  1  0.41178352  0.49601744  0.49668652  1.0
  Zn  Zn1  1  0.58821280  0.50399262  0.50329188  1.0
  H  H2  1  0.71621328  0.42562506  0.42518475  1.0
  H  H3  1  0.87539123  0.42682529  0.42704319  1.0
  H  H4  1  0.88865697  0.60037806  0.60012421  1.0
  H  H5  1  0.72835320  0.59150700  0.59144322  1.0
  H  H6  1  0.11133483  0.39965465  0.39986513  1.0
  H  H7  1  0.12460144  0.57320974  0.57294178  1.0
  H  H8  1  0.28377673  0.57441460  0.57479737  1.0
  H  H9  1  0.27163732  0.40850771  0.40855763  1.0
  H  H10  1  0.62133202  0.25904734  0.50472865  1.0
  H  H11  1  0.61429055  0.11308421  0.50475592  1.0
  H  H12  1  0.34295925  0.09985500  0.49389830  1.0
  H  H13  1  0.35047096  0.24634898  0.49381999  1.0
  H  H14  1  0.65701965  0.90015684  0.50618773  1.0
  H  H15  1  0.38568980  0.88692938  0.49533018  1.0
  H  H16  1  0.37864342  0.74096739  0.49535616  1.0
  H  H17  1  0.64950479  0.75366281  0.50621344  1.0
  H  H18  1  0.36399922  0.49445753  0.87280573  1.0
  H  H19  1  0.63600589  0.50505806  0.88296447  1.0
  H  H20  1  0.36397936  0.49469300  0.11702768  1.0
  H  H21  1  0.63599587  0.50530340  0.12716251  1.0
  C  C22  1  0.49104673  0.34786037  0.49855625  1.0
  C  C23  1  0.50010506  0.49946531  0.35443919  1.0
  C  C24  1  0.50892480  0.65214731  0.50143503  1.0
  C  C25  1  0.49994351  0.50046185  0.64553651  1.0
  C  C26  1  0.75737892  0.46307374  0.46290008  1.0
  C  C27  1  0.84466972  0.46391832  0.46393131  1.0
  C  C28  1  0.89299360  0.51419104  0.51406250  1.0
  C  C29  1  0.85188252  0.56123124  0.56093181  1.0
  C  C30  1  0.76396913  0.55664174  0.55621745  1.0
  C  C31  1  0.14811134  0.43880321  0.43905541  1.0
  C  C32  1  0.10700291  0.48584458  0.48592537  1.0
  C  C33  1  0.15532528  0.53611497  0.53605484  1.0
  C  C34  1  0.24261728  0.53695897  0.53708557  1.0
  C  C35  1  0.23602412  0.44338690  0.44377360  1.0
  C  C36  1  0.48630624  0.26088434  0.49876036  1.0
  C  C37  1  0.56083982  0.22335477  0.50205052  1.0
  C  C38  1  0.55716450  0.14297832  0.50220524  1.0
  C  C39  1  0.47790279  0.09848459  0.49905606  1.0
  C  C40  1  0.40337706  0.13579664  0.49604015  1.0
  C  C41  1  0.40758755  0.21643762  0.49589515  1.0
  C  C42  1  0.59659978  0.86421346  0.50404636  1.0
  C  C43  1  0.52207323  0.90152376  0.50103152  1.0
  C  C44  1  0.44281069  0.85703410  0.49788453  1.0
  C  C45  1  0.43913430  0.77665938  0.49803369  1.0
  C  C46  1  0.51366655  0.73912920  0.50129065  1.0
  C  C47  1  0.59239123  0.78357304  0.50416381  1.0
  C  C48  1  0.49994763  0.50020266  0.72929775  1.0
  C  C49  1  0.42412433  0.49706262  0.76876837  1.0
  C  C50  1  0.42390688  0.49696923  0.84569997  1.0
  C  C51  1  0.50002426  0.49998299  0.88817538  1.0
  C  C52  1  0.57608327  0.50291387  0.85138082  1.0
  C  C53  1  0.57577828  0.50294018  0.77441732  1.0
  C  C54  1  0.50003337  0.49990569  0.96629060  1.0
  C  C55  1  0.49995254  0.49982792  0.03367723  1.0
  C  C56  1  0.49996892  0.49978955  0.11179725  1.0
  C  C57  1  0.42390897  0.49685577  0.14860060  1.0
  C  C58  1  0.42422992  0.49686725  0.22556480  1.0
  C  C59  1  0.50006474  0.49965007  0.27067748  1.0
  C  C60  1  0.57588214  0.50275816  0.23120268  1.0
  C  C61  1  0.57609099  0.50279403  0.15427169  1.0
  N  N62  1  0.71798146  0.50856860  0.50811416  1.0
  N  N63  1  0.98261154  0.52171011  0.52159151  1.0
  N  N64  1  0.01738095  0.47832317  0.47839511  1.0
  N  N65  1  0.28201443  0.49146122  0.49187533  1.0
  N  N66  1  0.46607974  0.01644040  0.49884048  1.0
  N  N67  1  0.53389904  0.98357029  0.50124721  1.0
  Cl  Cl68  1  0.32344214  0.49266456  0.72707572  1.0
  Cl  Cl69  1  0.67633538  0.50598967  0.74024202  1.0
  Cl  Cl70  1  0.32366737  0.49370684  0.25974677  1.0
  Cl  Cl71  1  0.67656629  0.50722821  0.27287904  1.0
  O  O72  1  0.42124636  0.37829726  0.49565687  1.0
  O  O73  1  0.56459028  0.38483557  0.50136213  1.0
  O  O74  1  0.57122181  0.50267480  0.38942788  1.0
  O  O75  1  0.42900755  0.49618521  0.38414566  1.0
  O  O76  1  0.57871039  0.62170828  0.50389188  1.0
  O  O77  1  0.43536398  0.61517471  0.49903513  1.0
  O  O78  1  0.42877950  0.49673483  0.61054235  1.0
  O  O79  1  0.57106145  0.50434478  0.61584470  1.0
