# generated using pymatgen
data_Zn4H24C30O13
_symmetry_space_group_name_H-M   'P 1'
_cell_length_a   17.93018171
_cell_length_b   18.23605883
_cell_length_c   18.25355556
_cell_angle_alpha   61.12342569
_cell_angle_beta   60.59464601
_cell_angle_gamma   60.55755977
_symmetry_Int_Tables_number   1
_chemical_formula_structural   Zn4H24C30O13
_chemical_formula_sum   'Zn8 H48 C60 O26'
_cell_volume   4292.31606224
_cell_formula_units_Z   2
loop_
 _symmetry_equiv_pos_site_id
 _symmetry_equiv_pos_as_xyz
  1  'x, y, z'
loop_
 _atom_site_type_symbol
 _atom_site_label
 _atom_site_symmetry_multiplicity
 _atom_site_fract_x
 _atom_site_fract_y
 _atom_site_fract_z
 _atom_site_occupancy
  Zn  Zn0  1  0.04817259  0.04957833  0.85886861  1.0
  Zn  Zn1  1  0.05096902  0.05405635  0.02985893  1.0
  Zn  Zn2  1  0.05195610  0.87845359  0.03007245  1.0
  Zn  Zn3  1  0.87261139  0.04974866  0.03322421  1.0
  Zn  Zn4  1  0.46201689  0.46648432  0.61659231  1.0
  Zn  Zn5  1  0.45914363  0.46673442  0.44344593  1.0
  Zn  Zn6  1  0.63950768  0.46312222  0.44472760  1.0
  Zn  Zn7  1  0.46365392  0.63817934  0.44685641  1.0
  H  H8  1  0.31964783  0.09989255  0.81659533  1.0
  H  H9  1  0.49241837  0.19044203  0.64298359  1.0
  H  H10  1  0.46804795  0.10433308  0.74461769  1.0
  H  H11  1  0.46983550  0.20186293  0.74335645  1.0
  H  H12  1  0.19346623  0.41606026  0.65319826  1.0
  H  H13  1  0.02059879  0.32628989  0.82658427  1.0
  H  H14  1  0.04339913  0.31267639  0.72728606  1.0
  H  H15  1  0.04517205  0.41121402  0.72386674  1.0
  H  H16  1  0.09331103  0.77353529  0.82174815  1.0
  H  H17  1  0.18414378  0.68054112  0.65084518  1.0
  H  H18  1  0.09583041  0.69259195  0.75244435  1.0
  H  H19  1  0.19409512  0.59518162  0.75158034  1.0
  H  H20  1  0.41787995  0.74102043  0.65557700  1.0
  H  H21  1  0.32745835  0.83269426  0.82738175  1.0
  H  H22  1  0.31534070  0.91924656  0.72771045  1.0
  H  H23  1  0.41486930  0.82309966  0.72472070  1.0
  H  H24  1  0.76905888  0.31514273  0.82868202  1.0
  H  H25  1  0.68095058  0.48947877  0.65649549  1.0
  H  H26  1  0.69228190  0.46194549  0.75910186  1.0
  H  H27  1  0.59225719  0.46558120  0.75663147  1.0
  H  H28  1  0.73783207  0.20156557  0.65159121  1.0
  H  H29  1  0.82443874  0.02738453  0.82468128  1.0
  H  H30  1  0.91388194  0.05045257  0.72492435  1.0
  H  H31  1  0.81392243  0.05464876  0.72177038  1.0
  H  H32  1  0.32316089  0.78217976  0.07618275  1.0
  H  H33  1  0.49295842  0.68887120  0.17345584  1.0
  H  H34  1  0.47018895  0.69896307  0.08396779  1.0
  H  H35  1  0.46958822  0.60219229  0.17950686  1.0
  H  H36  1  0.19180591  0.74426683  0.39688251  1.0
  H  H37  1  0.02181451  0.83751420  0.30041586  1.0
  H  H38  1  0.04546884  0.92463297  0.29302709  1.0
  H  H39  1  0.04513326  0.82837669  0.38914217  1.0
  H  H40  1  0.77633006  0.09736217  0.29930279  1.0
  H  H41  1  0.68843211  0.19158638  0.46772040  1.0
  H  H42  1  0.69572701  0.10353483  0.44473704  1.0
  H  H43  1  0.59649268  0.19994875  0.44855805  1.0
  H  H44  1  0.73114175  0.41875110  0.17635897  1.0
  H  H45  1  0.82197062  0.32224888  0.00801906  1.0
  H  H46  1  0.91095865  0.31909707  0.02755724  1.0
  H  H47  1  0.80919080  0.41289100  0.03090069  1.0
  H  H48  1  0.77275407  0.83661859  0.08120736  1.0
  H  H49  1  0.68128804  0.66286144  0.17350225  1.0
  H  H50  1  0.69282928  0.76299262  0.08581608  1.0
  H  H51  1  0.59394528  0.76498161  0.18229139  1.0
  H  H52  1  0.74790528  0.67203350  0.39659253  1.0
  H  H53  1  0.84035928  0.84475303  0.30468164  1.0
  H  H54  1  0.92720676  0.74259355  0.29555913  1.0
  H  H55  1  0.82837090  0.74456486  0.39207741  1.0
  C  C56  1  0.14313626  0.14783353  0.84934732  1.0
  C  C57  1  0.20012783  0.20665016  0.79033947  1.0
  C  C58  1  0.29249403  0.16980690  0.78039860  1.0
  C  C59  1  0.35094601  0.21954419  0.72511800  1.0
  C  C60  1  0.45060484  0.17661697  0.71362679  1.0
  C  C61  1  0.31280314  0.30949612  0.67992177  1.0
  C  C62  1  0.22051669  0.34617512  0.68951763  1.0
  C  C63  1  0.16210508  0.29642064  0.74474389  1.0
  C  C64  1  0.06253274  0.33906797  0.75599095  1.0
  C  C65  1  0.36890127  0.36918433  0.62235199  1.0
  C  C66  1  0.14466659  0.86838295  0.85097408  1.0
  C  C67  1  0.20397565  0.81038316  0.79319436  1.0
  C  C68  1  0.16511236  0.76555279  0.78507296  1.0
  C  C69  1  0.21509038  0.71179321  0.73075737  1.0
  C  C70  1  0.16971320  0.66759710  0.72113664  1.0
  C  C71  1  0.30735579  0.70384502  0.68438902  1.0
  C  C72  1  0.34619273  0.74872130  0.69257795  1.0
  C  C73  1  0.29629011  0.80222343  0.74708262  1.0
  C  C74  1  0.34106649  0.84674822  0.75701748  1.0
  C  C75  1  0.36683357  0.64642274  0.62614530  1.0
  C  C76  1  0.86242291  0.14284746  0.85456357  1.0
  C  C77  1  0.80490164  0.20083817  0.79618217  1.0
  C  C78  1  0.76140890  0.29073561  0.78954957  1.0
  C  C79  1  0.70952542  0.35019201  0.73373804  1.0
  C  C80  1  0.66646364  0.44697229  0.72625511  1.0
  C  C81  1  0.70192549  0.31581598  0.68420468  1.0
  C  C82  1  0.74531361  0.22587158  0.69092812  1.0
  C  C83  1  0.79693889  0.16642516  0.74691559  1.0
  C  C84  1  0.83962004  0.06954246  0.75479075  1.0
  C  C85  1  0.64543472  0.37342900  0.62493874  1.0
  C  C86  1  0.14718301  0.87497909  0.12323266  1.0
  C  C87  1  0.20264577  0.81751674  0.18353548  1.0
  C  C88  1  0.29490036  0.77322979  0.14705504  1.0
  C  C89  1  0.35175819  0.71857854  0.19844234  1.0
  C  C90  1  0.45142456  0.67472891  0.15643700  1.0
  C  C91  1  0.31217430  0.70868819  0.28957654  1.0
  C  C92  1  0.22007088  0.75331039  0.32597883  1.0
  C  C93  1  0.16318477  0.80809739  0.27457833  1.0
  C  C94  1  0.06359466  0.85207983  0.31671384  1.0
  C  C95  1  0.36717075  0.64928555  0.35027928  1.0
  C  C96  1  0.86626907  0.14654520  0.12574098  1.0
  C  C97  1  0.80781091  0.20579149  0.18234725  1.0
  C  C98  1  0.76601071  0.16832172  0.27287133  1.0
  C  C99  1  0.71220692  0.21886165  0.33043726  1.0
  C  C100  1  0.67094896  0.17599601  0.42808749  1.0
  C  C101  1  0.70054306  0.31009723  0.29354758  1.0
  C  C102  1  0.74192537  0.34767387  0.20297869  1.0
  C  C103  1  0.79588996  0.29709140  0.14545249  1.0
  C  C104  1  0.83672990  0.34031776  0.04778260  1.0
  C  C105  1  0.64303480  0.36932931  0.35024394  1.0
  C  C106  1  0.86904474  0.86903072  0.12840197  1.0
  C  C107  1  0.81263867  0.80976793  0.18751542  1.0
  C  C108  1  0.76655438  0.80012473  0.15094042  1.0
  C  C109  1  0.71378063  0.74477222  0.20068330  1.0
  C  C110  1  0.66798973  0.73350165  0.15817405  1.0
  C  C111  1  0.70772640  0.69918104  0.29037278  1.0
  C  C112  1  0.75412465  0.70847258  0.32684221  1.0
  C  C113  1  0.80709740  0.76369379  0.27704511  1.0
  C  C114  1  0.85321329  0.77429315  0.31975671  1.0
  C  C115  1  0.64930618  0.64180161  0.34976385  1.0
  O  O116  1  0.00549568  0.00828859  0.98831970  1.0
  O  O117  1  0.14242342  0.10761972  0.92945856  1.0
  O  O118  1  0.10049468  0.14217347  0.81416585  1.0
  O  O119  1  0.36744343  0.41286722  0.54309066  1.0
  O  O120  1  0.41283688  0.37245463  0.65797485  1.0
  O  O121  1  0.10210183  0.83241882  0.93146073  1.0
  O  O122  1  0.14102879  0.94948423  0.81459033  1.0
  O  O123  1  0.41337212  0.68152011  0.54731060  1.0
  O  O124  1  0.36712913  0.56644752  0.66020249  1.0
  O  O125  1  0.82562786  0.14140882  0.93529113  1.0
  O  O126  1  0.94459341  0.10010608  0.81798528  1.0
  O  O127  1  0.68284980  0.37231916  0.54501913  1.0
  O  O128  1  0.56354906  0.41822006  0.65972836  1.0
  O  O129  1  0.14767856  0.83825948  0.07845643  1.0
  O  O130  1  0.10450654  0.95605628  0.12082011  1.0
  O  O131  1  0.36891489  0.68441951  0.39506902  1.0
  O  O132  1  0.40702928  0.56802541  0.35297220  1.0
  O  O133  1  0.82980153  0.10126169  0.12607693  1.0
  O  O134  1  0.94816695  0.14574138  0.08219386  1.0
  O  O135  1  0.68209655  0.40994218  0.35327944  1.0
  O  O136  1  0.55967766  0.37469663  0.39019858  1.0
  O  O137  1  0.83073557  0.94778161  0.08461608  1.0
  O  O138  1  0.95156262  0.83565274  0.12563658  1.0
  O  O139  1  0.68634095  0.56191237  0.39245617  1.0
  O  O140  1  0.56630317  0.67834541  0.35352882  1.0
  O  O141  1  0.50670869  0.50836437  0.48699295  1.0
