# generated using pymatgen
data_ZnH19C23N4O9
_symmetry_space_group_name_H-M   'P 1'
_cell_length_a   10.87936600
_cell_length_b   14.69054418
_cell_length_c   16.04189077
_cell_angle_alpha   90.56991015
_cell_angle_beta   90.94277901
_cell_angle_gamma   91.66383161
_symmetry_Int_Tables_number   1
_chemical_formula_structural   ZnH19C23N4O9
_chemical_formula_sum   'Zn2 H38 C46 N8 O18'
_cell_volume   2562.30876914
_cell_formula_units_Z   2
loop_
 _symmetry_equiv_pos_site_id
 _symmetry_equiv_pos_as_xyz
  1  'x, y, z'
loop_
 _atom_site_type_symbol
 _atom_site_label
 _atom_site_symmetry_multiplicity
 _atom_site_fract_x
 _atom_site_fract_y
 _atom_site_fract_z
 _atom_site_occupancy
  Zn  Zn0  1  0.50128302  0.59595865  0.50777384  1.0
  Zn  Zn1  1  0.49649472  0.40037347  0.49531535  1.0
  H  H2  1  0.30285582  0.57948196  0.05250279  1.0
  H  H3  1  0.68022654  0.43080316  0.95135735  1.0
  H  H4  1  0.29967565  0.08123237  0.52303682  1.0
  H  H5  1  0.68640417  0.91486725  0.47624423  1.0
  H  H6  1  0.26894285  0.16714925  0.20497481  1.0
  H  H7  1  0.67613648  0.79498388  0.78305758  1.0
  H  H8  1  0.28284463  0.83046582  0.54580780  1.0
  H  H9  1  0.08969089  0.88505546  0.56503064  1.0
  H  H10  1  0.13146208  0.98916387  0.51657854  1.0
  H  H11  1  0.16926726  0.97303517  0.62393677  1.0
  H  H12  1  0.70587562  0.16580951  0.45697399  1.0
  H  H13  1  0.89861589  0.11056671  0.44078241  1.0
  H  H14  1  0.82495458  0.01801476  0.38467088  1.0
  H  H15  1  0.85451898  0.00973232  0.49390076  1.0
  H  H16  1  0.30043506  0.37913477  0.18546120  1.0
  H  H17  1  0.48374801  0.30558103  0.15824803  1.0
  H  H18  1  0.44956294  0.22340875  0.23555497  1.0
  H  H19  1  0.48404963  0.33818704  0.26658995  1.0
  H  H20  1  0.66299549  0.60497661  0.80382235  1.0
  H  H21  1  0.72533473  0.66782171  0.93416472  1.0
  H  H22  1  0.82030971  0.75072148  0.88418525  1.0
  H  H23  1  0.86609315  0.63570929  0.88745519  1.0
  H  H24  1  0.18106563  0.51193833  0.34373065  1.0
  H  H25  1  0.14951292  0.55919579  0.20408649  1.0
  H  H26  1  0.02377070  0.48437469  0.23156508  1.0
  H  H27  1  0.14510050  0.44381086  0.17015980  1.0
  H  H28  1  0.83437154  0.47171637  0.65020303  1.0
  H  H29  1  0.97064816  0.50042970  0.78157755  1.0
  H  H30  1  0.86072708  0.40736430  0.77832795  1.0
  H  H31  1  0.82568748  0.50939729  0.83095219  1.0
  H  H32  1  0.04637452  0.30207115  0.53475110  1.0
  H  H33  1  0.92997809  0.68663299  0.46178474  1.0
  H  H34  1  0.17197060  0.06791456  0.36200221  1.0
  H  H35  1  0.78328561  0.91089096  0.63574059  1.0
  H  H36  1  0.93767292  0.34700251  0.35560837  1.0
  H  H37  1  0.05588925  0.63916787  0.64191271  1.0
  H  H38  1  0.33778131  0.54888153  0.83444448  1.0
  H  H39  1  0.64510963  0.46235897  0.16938820  1.0
  C  C40  1  0.52568389  0.48182178  0.66253270  1.0
  C  C41  1  0.46961368  0.52575306  0.34140899  1.0
  C  C42  1  0.86997700  0.50020273  0.48711244  1.0
  C  C43  1  0.12686293  0.48809561  0.50932487  1.0
  C  C44  1  0.93277044  0.55856647  0.54471985  1.0
  C  C45  1  0.06371466  0.42920422  0.45182638  1.0
  C  C46  1  0.38521700  0.54712547  0.03037904  1.0
  C  C47  1  0.59798805  0.46324508  0.97353192  1.0
  C  C48  1  0.47535417  0.51887126  0.08763499  1.0
  C  C49  1  0.50791061  0.49162760  0.91627118  1.0
  C  C50  1  0.58274793  0.47657923  0.05850659  1.0
  C  C51  1  0.40045751  0.53371055  0.94533608  1.0
  C  C52  1  0.46464498  0.52871165  0.17483300  1.0
  C  C53  1  0.52055793  0.48176047  0.82915841  1.0
  C  C54  1  0.52407992  0.48048723  0.75312014  1.0
  C  C55  1  0.46607819  0.52835522  0.25094495  1.0
  C  C56  1  0.38017468  0.94794638  0.52057975  1.0
  C  C57  1  0.60592601  0.04818471  0.47848335  1.0
  C  C58  1  0.49475808  0.90521198  0.50610097  1.0
  C  C59  1  0.49131556  0.09097392  0.49281946  1.0
  C  C60  1  0.60330142  0.95298567  0.48502401  1.0
  C  C61  1  0.38267194  0.04313888  0.51375355  1.0
  C  C62  1  0.26429386  0.48739321  0.51576159  1.0
  C  C63  1  0.73222573  0.49941387  0.48329559  1.0
  C  C64  1  0.50044683  0.81017238  0.51487536  1.0
  C  C65  1  0.48828527  0.18614516  0.48509822  1.0
  C  C66  1  0.23540333  0.30441634  0.28051442  1.0
  C  C67  1  0.77751408  0.67499341  0.72697214  1.0
  C  C68  1  0.18365115  0.37609395  0.32607566  1.0
  C  C69  1  0.82365993  0.60494899  0.67647715  1.0
  C  C70  1  0.12312377  0.35665367  0.40165884  1.0
  C  C71  1  0.87258635  0.62815060  0.59763855  1.0
  C  C72  1  0.11363178  0.26631817  0.43078914  1.0
  C  C73  1  0.87335289  0.71900478  0.56959380  1.0
  C  C74  1  0.15536574  0.19465875  0.38190764  1.0
  C  C75  1  0.82862532  0.78817484  0.61999093  1.0
  C  C76  1  0.21335948  0.21492130  0.30716733  1.0
  C  C77  1  0.77987265  0.76431587  0.69682960  1.0
  C  C78  1  0.93566636  0.43693277  0.44025937  1.0
  C  C79  1  0.06108421  0.55141098  0.55600315  1.0
  C  C80  1  0.16126513  0.93889044  0.56239538  1.0
  C  C81  1  0.82757731  0.05650760  0.44413310  1.0
  C  C82  1  0.43871973  0.29485196  0.21822230  1.0
  C  C83  1  0.78592197  0.67967802  0.88104875  1.0
  C  C84  1  0.12431493  0.48940104  0.22244509  1.0
  C  C85  1  0.87154950  0.48179276  0.77629852  1.0
  N  N86  1  0.49219352  0.26478211  0.47680673  1.0
  N  N87  1  0.50236004  0.73174805  0.52398304  1.0
  N  N88  1  0.27571657  0.89851172  0.53806295  1.0
  N  N89  1  0.71057068  0.09722081  0.46123502  1.0
  N  N90  1  0.30654174  0.31471334  0.20759144  1.0
  N  N91  1  0.71427488  0.66421357  0.80344325  1.0
  N  N92  1  0.19599138  0.46626300  0.29706369  1.0
  N  N93  1  0.81441202  0.51302961  0.69909363  1.0
  O  O94  1  0.53046007  0.56091086  0.63074863  1.0
  O  O95  1  0.48171506  0.44716423  0.37292392  1.0
  O  O96  1  0.51909122  0.40531167  0.62540702  1.0
  O  O97  1  0.46290957  0.60129365  0.37961574  1.0
  O  O98  1  0.31901488  0.56484541  0.51855184  1.0
  O  O99  1  0.68036701  0.42143547  0.49085604  1.0
  O  O100  1  0.31411378  0.41019783  0.51414109  1.0
  O  O101  1  0.68012549  0.57535474  0.47723450  1.0
  O  O102  1  0.24961371  0.14198366  0.25994610  1.0
  O  O103  1  0.72370469  0.83078230  0.74157854  1.0
  O  O104  1  0.06073922  0.24472569  0.50549288  1.0
  O  O105  1  0.91763769  0.74300076  0.49309709  1.0
  O  O106  1  0.13869546  0.10544888  0.40649663  1.0
  O  O107  1  0.82617486  0.87701304  0.59280255  1.0
  O  O108  1  0.87436908  0.38379380  0.38190177  1.0
  O  O109  1  0.12079739  0.60423997  0.61511989  1.0
  O  O110  1  0.31116639  0.56162006  0.89140737  1.0
  O  O111  1  0.67180943  0.44854337  0.11258080  1.0
