# generated using pymatgen
data_AlH7C14O5F
_symmetry_space_group_name_H-M   'P 1'
_cell_length_a   6.70168478
_cell_length_b   11.07876001
_cell_length_c   17.59545413
_cell_angle_alpha   92.84723065
_cell_angle_beta   96.69584289
_cell_angle_gamma   107.09576434
_symmetry_Int_Tables_number   1
_chemical_formula_structural   AlH7C14O5F
_chemical_formula_sum   'Al2 H14 C28 O10 F2'
_cell_volume   1235.29892055
_cell_formula_units_Z   2
loop_
 _symmetry_equiv_pos_site_id
 _symmetry_equiv_pos_as_xyz
  1  'x, y, z'
loop_
 _atom_site_type_symbol
 _atom_site_label
 _atom_site_symmetry_multiplicity
 _atom_site_fract_x
 _atom_site_fract_y
 _atom_site_fract_z
 _atom_site_occupancy
  Al  Al0  1  0.00482541  0.50178241  0.50323666  1.0
  Al  Al1  1  0.50550411  0.50217601  0.50291051  1.0
  H  H2  1  0.34396774  0.63877611  0.56930284  1.0
  H  H3  1  0.66274404  0.34974789  0.45755646  1.0
  H  H4  1  0.86684916  0.51835460  0.28573946  1.0
  H  H5  1  0.77483465  0.52008103  0.14474999  1.0
  H  H6  1  0.39151027  0.49280220  0.11335763  1.0
  H  H7  1  0.61192235  0.51054674  0.89204411  1.0
  H  H8  1  0.13985138  0.48311290  0.72157198  1.0
  H  H9  1  0.22824056  0.48061343  0.86263311  1.0
  H  H10  1  0.54375780  0.75660471  0.40029973  1.0
  H  H11  1  0.32710595  0.86710134  0.32635223  1.0
  H  H12  1  0.79730082  0.22589082  0.39671065  1.0
  H  H13  1  0.45593853  0.10284855  0.32373619  1.0
  H  H14  1  0.35190016  0.12385069  0.55220558  1.0
  H  H15  1  0.23420356  0.88704097  0.54761809  1.0
  C  C16  1  0.86667818  0.72733704  0.49309673  1.0
  C  C17  1  0.79346731  0.50291693  0.64152425  1.0
  C  C18  1  0.13729454  0.27397486  0.49913644  1.0
  C  C19  1  0.21660733  0.50142303  0.36464634  1.0
  C  C20  1  0.17736611  0.50647820  0.27973641  1.0
  C  C21  1  0.98017379  0.51412277  0.24694449  1.0
  C  C22  1  0.92902380  0.51469436  0.16842605  1.0
  C  C23  1  0.07578954  0.50643227  0.11847644  1.0
  C  C24  1  0.27488719  0.49984053  0.15017056  1.0
  C  C25  1  0.32155325  0.50029571  0.22905679  1.0
  C  C26  1  0.02385652  0.50292447  0.03798178  1.0
  C  C27  1  0.97772891  0.49861461  0.96848742  1.0
  C  C28  1  0.92729998  0.49562189  0.88795024  1.0
  C  C29  1  0.72948365  0.50342780  0.85566333  1.0
  C  C30  1  0.68528195  0.50412786  0.77673958  1.0
  C  C31  1  0.83041582  0.49748845  0.72652014  1.0
  C  C32  1  0.02598823  0.48825492  0.75993811  1.0
  C  C33  1  0.07500617  0.48695440  0.83849812  1.0
  C  C34  1  0.93106311  0.86655796  0.48516680  1.0
  C  C35  1  0.79482733  0.92771254  0.44496388  1.0
  C  C36  1  0.13089319  0.93648698  0.52001925  1.0
  C  C37  1  0.59801974  0.85937536  0.40118707  1.0
  C  C38  1  0.47745395  0.92146284  0.35952317  1.0
  C  C39  1  0.06557492  0.13271706  0.48823197  1.0
  C  C40  1  0.19758207  0.06924947  0.52216397  1.0
  C  C41  1  0.86561470  0.06383817  0.44548903  1.0
  C  C42  1  0.73926490  0.12392027  0.40011061  1.0
  C  C43  1  0.54935988  0.05456526  0.35838717  1.0
  O  O44  1  0.00808097  0.67238592  0.48945394  1.0
  O  O45  1  0.60813293  0.49218432  0.60952799  1.0
  O  O46  1  0.33140269  0.32915109  0.49538400  1.0
  O  O47  1  0.05370975  0.48253188  0.39872799  1.0
  O  O48  1  0.00117204  0.32908036  0.51241467  1.0
  O  O49  1  0.40307332  0.51462312  0.39638903  1.0
  O  O50  1  0.67875847  0.67405375  0.50573150  1.0
  O  O51  1  0.95691398  0.51926764  0.60780996  1.0
  O  O52  1  0.29421409  0.56031843  0.53639323  1.0
  O  O53  1  0.71475734  0.44091516  0.46993143  1.0
  F  F54  1  0.51440801  0.49114728  0.25582123  1.0
  F  F55  1  0.49361447  0.51475189  0.74956586  1.0
