# generated using pymatgen
data_K3H25PtC44S3N4O9
_symmetry_space_group_name_H-M   'P 1'
_cell_length_a   7.79955201
_cell_length_b   22.87963273
_cell_length_c   33.18184097
_cell_angle_alpha   90.00073040
_cell_angle_beta   90.00062854
_cell_angle_gamma   96.03312493
_symmetry_Int_Tables_number   1
_chemical_formula_structural   K3H25PtC44S3N4O9
_chemical_formula_sum   'K12 H100 Pt4 C176 S12 N16 O36'
_cell_volume   5888.53241982
_cell_formula_units_Z   4
loop_
 _symmetry_equiv_pos_site_id
 _symmetry_equiv_pos_as_xyz
  1  'x, y, z'
loop_
 _atom_site_type_symbol
 _atom_site_label
 _atom_site_symmetry_multiplicity
 _atom_site_fract_x
 _atom_site_fract_y
 _atom_site_fract_z
 _atom_site_occupancy
  K  K0  1  0.80746482  0.79385457  0.75548611  1.0
  K  K1  1  0.69261803  0.20616382  0.25552438  1.0
  K  K2  1  0.19258812  0.20615785  0.24450386  1.0
  K  K3  1  0.30745172  0.79383318  0.74448909  1.0
  K  K4  1  0.55101111  0.78386310  0.62296476  1.0
  K  K5  1  0.94881780  0.21613455  0.12297816  1.0
  K  K6  1  0.44890843  0.21612933  0.37703485  1.0
  K  K7  1  0.05105959  0.78386631  0.87700578  1.0
  K  K8  1  0.53717876  0.68246922  0.83180503  1.0
  K  K9  1  0.96287272  0.31752837  0.33180670  1.0
  K  K10  1  0.46280784  0.31751650  0.16818795  1.0
  K  K11  1  0.03715930  0.68247486  0.66819502  1.0
  H  H12  1  0.80477719  0.09959090  0.78316115  1.0
  H  H13  1  0.69523112  0.90041104  0.28317328  1.0
  H  H14  1  0.19524102  0.90040531  0.21683696  1.0
  H  H15  1  0.30476131  0.09960061  0.71683477  1.0
  H  H16  1  0.89501385  0.17968931  0.84076993  1.0
  H  H17  1  0.60496535  0.82032134  0.34077992  1.0
  H  H18  1  0.10497787  0.82031223  0.15922787  1.0
  H  H19  1  0.39503734  0.17968238  0.65922451  1.0
  H  H20  1  0.31097574  0.38205680  0.84151958  1.0
  H  H21  1  0.18901246  0.61793895  0.34151866  1.0
  H  H22  1  0.68901513  0.61794210  0.15848064  1.0
  H  H23  1  0.81097841  0.38205599  0.65848034  1.0
  H  H24  1  0.40469476  0.46244117  0.78462930  1.0
  H  H25  1  0.09532586  0.53755600  0.28462864  1.0
  H  H26  1  0.59531961  0.53755505  0.21537032  1.0
  H  H27  1  0.90467768  0.46244640  0.71536705  1.0
  H  H28  1  0.26250173  0.47926664  0.62717469  1.0
  H  H29  1  0.23751974  0.52073214  0.12717184  1.0
  H  H30  1  0.73750793  0.52073487  0.37282793  1.0
  H  H31  1  0.76249519  0.47926980  0.87282867  1.0
  H  H32  1  0.16884197  0.39978336  0.56974462  1.0
  H  H33  1  0.33113856  0.60022002  0.06974391  1.0
  H  H34  1  0.83115345  0.60022169  0.43025770  1.0
  H  H35  1  0.66886840  0.39978501  0.93025720  1.0
  H  H36  1  0.03421731  0.16518449  0.56920156  1.0
  H  H37  1  0.46580235  0.83481705  0.06920717  1.0
  H  H38  1  0.96577982  0.83482187  0.43079655  1.0
  H  H39  1  0.53422255  0.16518795  0.93079515  1.0
  H  H40  1  0.94268817  0.08546901  0.62662986  1.0
  H  H41  1  0.55731549  0.91452929  0.12663664  1.0
  H  H42  1  0.05730754  0.91453297  0.37336704  1.0
  H  H43  1  0.44268577  0.08547399  0.87336840  1.0
  H  H44  1  0.19778889  0.19601736  0.86023217  1.0
  H  H45  1  0.30219760  0.80398230  0.36024131  1.0
  H  H46  1  0.80222106  0.80397711  0.13976986  1.0
  H  H47  1  0.69778643  0.19602321  0.63976553  1.0
  H  H48  1  0.19207461  0.19453796  0.93460446  1.0
  H  H49  1  0.30791542  0.80546586  0.43461152  1.0
  H  H50  1  0.80794260  0.80545914  0.06539877  1.0
  H  H51  1  0.69208898  0.19453917  0.56539412  1.0
  H  H52  1  0.09675773  0.27940091  0.97268879  1.0
  H  H53  1  0.40324971  0.72060762  0.47269776  1.0
  H  H54  1  0.90325265  0.72059884  0.02731052  1.0
  H  H55  1  0.59677689  0.27939870  0.52730486  1.0
  H  H56  1  0.00639995  0.36539456  0.93499313  1.0
  H  H57  1  0.49359324  0.63461102  0.43500279  1.0
  H  H58  1  0.99359377  0.63460126  0.06500376  1.0
  H  H59  1  0.50642667  0.36539838  0.56499682  1.0
  H  H60  1  0.00788662  0.36574296  0.86055242  1.0
  H  H61  1  0.49208636  0.63425454  0.36056267  1.0
  H  H62  1  0.99210995  0.63424978  0.13944267  1.0
  H  H63  1  0.50790664  0.36575492  0.63943634  1.0
  H  H64  1  0.16159686  0.51286282  0.75030441  1.0
  H  H65  1  0.33843175  0.48713627  0.25030182  1.0
  H  H66  1  0.83839529  0.48714400  0.24969671  1.0
  H  H67  1  0.66157150  0.51286525  0.74970412  1.0
  H  H68  1  0.27061884  0.61875562  0.75139055  1.0
  H  H69  1  0.22938505  0.38124618  0.25139519  1.0
  H  H70  1  0.72938256  0.38124810  0.24860635  1.0
  H  H71  1  0.77060026  0.61875933  0.74861406  1.0
  H  H72  1  0.64936311  0.58836570  0.66143326  1.0
  H  H73  1  0.85063444  0.41162452  0.16143637  1.0
  H  H74  1  0.35064869  0.41162261  0.33856876  1.0
  H  H75  1  0.14935629  0.58837790  0.83856776  1.0
  H  H76  1  0.54932077  0.48105595  0.66295488  1.0
  H  H77  1  0.95068213  0.51893475  0.16295497  1.0
  H  H78  1  0.45066982  0.51893416  0.33705136  1.0
  H  H79  1  0.04933978  0.48106498  0.83704796  1.0
  H  H80  1  0.90715619  0.34428459  0.55203473  1.0
  H  H81  1  0.59284720  0.65571570  0.05203631  1.0
  H  H82  1  0.09285320  0.65571208  0.44796820  1.0
  H  H83  1  0.40716374  0.34429372  0.94796872  1.0
  H  H84  1  0.88543150  0.33906869  0.47738150  1.0
  H  H85  1  0.61455143  0.66092981  0.97738255  1.0
  H  H86  1  0.11455809  0.66092626  0.52262113  1.0
  H  H87  1  0.38544684  0.33906820  0.02262218  1.0
  H  H88  1  0.25875590  0.21358712  0.47560387  1.0
  H  H89  1  0.24123959  0.78641182  0.97560786  1.0
  H  H90  1  0.74126045  0.78641526  0.52439755  1.0
  H  H91  1  0.75873861  0.21357963  0.02439085  1.0
  H  H92  1  0.28647862  0.22105532  0.55017907  1.0
  H  H93  1  0.21355012  0.77895725  0.05018325  1.0
  H  H94  1  0.71355339  0.77895186  0.44982235  1.0
  H  H95  1  0.78646680  0.22105084  0.94981697  1.0
  H  H96  1  0.04594942  0.04248818  0.74126533  1.0
  H  H97  1  0.45405479  0.95750417  0.24127741  1.0
  H  H98  1  0.95405611  0.95751246  0.25872374  1.0
  H  H99  1  0.54595060  0.04249602  0.75871617  1.0
  H  H100  1  0.92689283  0.93819191  0.73537981  1.0
  H  H101  1  0.57311734  0.06180289  0.23539843  1.0
  H  H102  1  0.07312395  0.06180782  0.26460805  1.0
  H  H103  1  0.42686570  0.93819955  0.76458792  1.0
  H  H104  1  0.51192897  0.98862848  0.66154303  1.0
  H  H105  1  0.98802530  0.01137458  0.16154479  1.0
  H  H106  1  0.48803200  0.01137312  0.33846441  1.0
  H  H107  1  0.01197668  0.98863090  0.83844909  1.0
  H  H108  1  0.63612311  0.09374053  0.66641151  1.0
  H  H109  1  0.86384736  0.90626041  0.16641206  1.0
  H  H110  1  0.36383814  0.90626195  0.33359082  1.0
  H  H111  1  0.13618081  0.09374283  0.83358634  1.0
  Pt  Pt112  1  0.10403974  0.28188831  0.70563521  1.0
  Pt  Pt113  1  0.39596072  0.71810948  0.20564083  1.0
  Pt  Pt114  1  0.89594885  0.71811148  0.29436349  1.0
  Pt  Pt115  1  0.60405777  0.28189553  0.79436300  1.0
  C  C116  1  0.94381921  0.16654458  0.74205872  1.0
  C  C117  1  0.55615757  0.83345702  0.24206689  1.0
  C  C118  1  0.05615785  0.83345523  0.25793879  1.0
  C  C119  1  0.44384839  0.16654890  0.75793604  1.0
  C  C120  1  0.87906597  0.14204620  0.77974420  1.0
  C  C121  1  0.62091909  0.85795572  0.27975546  1.0
  C  C122  1  0.12092903  0.85795358  0.22025270  1.0
  C  C123  1  0.37907633  0.14205329  0.72025078  1.0
  C  C124  1  0.92605645  0.18235374  0.80897187  1.0
  C  C125  1  0.57391308  0.81765144  0.30898326  1.0
  C  C126  1  0.07393357  0.81764649  0.19102563  1.0
  C  C127  1  0.42608234  0.18235361  0.69102117  1.0
  C  C128  1  0.02259892  0.23198529  0.78975530  1.0
  C  C129  1  0.47737512  0.76802175  0.28976397  1.0
  C  C130  1  0.97738711  0.76801450  0.21024371  1.0
  C  C131  1  0.52262600  0.23198505  0.71023895  1.0
  C  C132  1  0.10317656  0.28114245  0.81006823  1.0
  C  C133  1  0.39681452  0.71885881  0.31007205  1.0
  C  C134  1  0.89682770  0.71885423  0.18993198  1.0
  C  C135  1  0.60318290  0.28114844  0.68992846  1.0
  C  C136  1  0.18388195  0.33059054  0.79012572  1.0
  C  C137  1  0.31611119  0.66940812  0.29012860  1.0
  C  C138  1  0.81611504  0.66940748  0.20987480  1.0
  C  C139  1  0.68389035  0.33059604  0.70987192  1.0
  C  C140  1  0.27976712  0.37996986  0.80972021  1.0
  C  C141  1  0.22023448  0.62002830  0.30972150  1.0
  C  C142  1  0.72023045  0.62002991  0.19027940  1.0
  C  C143  1  0.77976892  0.37997366  0.69027871  1.0
  C  C144  1  0.32747301  0.42063437  0.78076756  1.0
  C  C145  1  0.17254043  0.57936494  0.28076717  1.0
  C  C146  1  0.67252783  0.57936364  0.21923416  1.0
  C  C147  1  0.82747194  0.42063701  0.71923304  1.0
  C  C148  1  0.26274446  0.39677676  0.74282524  1.0
  C  C149  1  0.23727635  0.60322307  0.24282492  1.0
  C  C150  1  0.73724869  0.60322126  0.25717588  1.0
  C  C151  1  0.76273331  0.39677844  0.75717620  1.0
  C  C152  1  0.27693321  0.42649417  0.70591062  1.0
  C  C153  1  0.22308221  0.57350227  0.20591030  1.0
  C  C154  1  0.72305581  0.57350693  0.29409140  1.0
  C  C155  1  0.77693884  0.42649877  0.79409081  1.0
  C  C156  1  0.22268918  0.40150803  0.66891671  1.0
  C  C157  1  0.27732284  0.59849118  0.16891796  1.0
  C  C158  1  0.77730880  0.59849306  0.33108411  1.0
  C  C159  1  0.72268825  0.40151077  0.83108225  1.0
  C  C160  1  0.22541384  0.43263935  0.63110099  1.0
  C  C161  1  0.27460043  0.56736039  0.13110105  1.0
  C  C162  1  0.77459226  0.56736304  0.36890134  1.0
  C  C163  1  0.72541108  0.43264287  0.86889946  1.0
  C  C164  1  0.17607722  0.39239579  0.60190466  1.0
  C  C165  1  0.32392026  0.60760383  0.10190400  1.0
  C  C166  1  0.82392902  0.60760704  0.39809767  1.0
  C  C167  1  0.67608313  0.39240209  0.89809622  1.0
  C  C168  1  0.13925331  0.33624056  0.62138098  1.0
  C  C169  1  0.36074507  0.66375902  0.12138211  1.0
  C  C170  1  0.86074881  0.66376141  0.37861984  1.0
  C  C171  1  0.63925505  0.33624470  0.87861810  1.0
  C  C172  1  0.10217565  0.28266538  0.60121877  1.0
  C  C173  1  0.39782009  0.71733290  0.10122167  1.0
  C  C174  1  0.89782746  0.71733570  0.39878205  1.0
  C  C175  1  0.60217946  0.28266906  0.89877975  1.0
  C  C176  1  0.06699565  0.22861584  0.62103746  1.0
  C  C177  1  0.43300627  0.77138284  0.12104364  1.0
  C  C178  1  0.93300248  0.77138569  0.37896306  1.0
  C  C179  1  0.56700083  0.22861867  0.87895989  1.0
  C  C180  1  0.02862627  0.17254914  0.60136616  1.0
  C  C181  1  0.47138785  0.82745044  0.10137414  1.0
  C  C182  1  0.97136730  0.82745415  0.39863224  1.0
  C  C183  1  0.52862580  0.17255150  0.89863060  1.0
  C  C184  1  0.98050839  0.13208452  0.63046083  1.0
  C  C185  1  0.51950018  0.86791253  0.13047071  1.0
  C  C186  1  0.01948092  0.86791747  0.36953728  1.0
  C  C187  1  0.48050820  0.13208898  0.86953523  1.0
  C  C188  1  0.98531797  0.16286595  0.66839105  1.0
  C  C189  1  0.51468806  0.83713364  0.16839734  1.0
  C  C190  1  0.01467119  0.83713559  0.33160826  1.0
  C  C191  1  0.48532445  0.16286874  0.83160559  1.0
  C  C192  1  0.92877587  0.13745281  0.70503591  1.0
  C  C193  1  0.57121090  0.86254537  0.20504407  1.0
  C  C194  1  0.07120148  0.86254787  0.29496189  1.0
  C  C195  1  0.42880830  0.13745788  0.79495825  1.0
  C  C196  1  0.10236309  0.28083609  0.85482705  1.0
  C  C197  1  0.39762497  0.71916522  0.35483359  1.0
  C  C198  1  0.89765569  0.71915792  0.14517196  1.0
  C  C199  1  0.60236946  0.28084467  0.64516874  1.0
  C  C200  1  0.15241844  0.23269281  0.87654752  1.0
  C  C201  1  0.34756493  0.76731071  0.37655435  1.0
  C  C202  1  0.84760432  0.76730559  0.12345300  1.0
  C  C203  1  0.65242237  0.23269700  0.62344767  1.0
  C  C204  1  0.14965352  0.23200994  0.91853313  1.0
  C  C205  1  0.35033722  0.76799443  0.41853967  1.0
  C  C206  1  0.85036825  0.76798935  0.08146829  1.0
  C  C207  1  0.64967045  0.23201280  0.58146205  1.0
  C  C208  1  0.09803237  0.27975275  0.93983347  1.0
  C  C209  1  0.40197261  0.72025291  0.43984154  1.0
  C  C210  1  0.90199096  0.72024741  0.06016674  1.0
  C  C211  1  0.59804503  0.27975342  0.56016079  1.0
  C  C212  1  0.04934628  0.32815350  0.91875402  1.0
  C  C213  1  0.45065614  0.67184734  0.41876209  1.0
  C  C214  1  0.95067207  0.67184316  0.08124559  1.0
  C  C215  1  0.54936121  0.32815812  0.58123903  1.0
  C  C216  1  0.05098513  0.32858551  0.87676510  1.0
  C  C217  1  0.44901463  0.67141315  0.37677376  1.0
  C  C218  1  0.94903223  0.67140807  0.12323391  1.0
  C  C219  1  0.55099460  0.32859496  0.62322797  1.0
  C  C220  1  0.34585954  0.48951077  0.70606287  1.0
  C  C221  1  0.15415674  0.51048831  0.20606093  1.0
  C  C222  1  0.65413816  0.51048944  0.29394066  1.0
  C  C223  1  0.84586019  0.48951186  0.79394110  1.0
  C  C224  1  0.26907224  0.52912553  0.73100400  1.0
  C  C225  1  0.23094651  0.47087362  0.23100311  1.0
  C  C226  1  0.73092176  0.47087513  0.26899742  1.0
  C  C227  1  0.76906671  0.52912700  0.76899891  1.0
  C  C228  1  0.32901463  0.58850287  0.73155946  1.0
  C  C229  1  0.17100515  0.41149541  0.23156091  1.0
  C  C230  1  0.67099091  0.41149776  0.26844106  1.0
  C  C231  1  0.82899611  0.58850392  0.76844413  1.0
  C  C232  1  0.46519588  0.60951928  0.70629832  1.0
  C  C233  1  0.03481686  0.39047278  0.20630134  1.0
  C  C234  1  0.53481848  0.39047695  0.29370370  1.0
  C  C235  1  0.96519964  0.60952607  0.79370098  1.0
  C  C236  1  0.54342300  0.57131971  0.68101515  1.0
  C  C237  1  0.95658713  0.42867485  0.18101838  1.0
  C  C238  1  0.45658824  0.42867475  0.31898627  1.0
  C  C239  1  0.04342923  0.57132752  0.81898575  1.0
  C  C240  1  0.48489186  0.51148121  0.68145541  1.0
  C  C241  1  0.01511443  0.48851430  0.18145623  1.0
  C  C242  1  0.51510670  0.48851372  0.31854812  1.0
  C  C243  1  0.98490064  0.51148807  0.81854609  1.0
  C  C244  1  0.09717288  0.28261356  0.55647411  1.0
  C  C245  1  0.40283115  0.71738907  0.05647763  1.0
  C  C246  1  0.90284405  0.71738662  0.44352641  1.0
  C  C247  1  0.59717068  0.28261597  0.94352349  1.0
  C  C248  1  0.98738691  0.31666020  0.53524842  1.0
  C  C249  1  0.51261344  0.68334107  0.03525185  1.0
  C  C250  1  0.01262275  0.68333735  0.46475239  1.0
  C  C251  1  0.48739209  0.31666353  0.96475198  1.0
  C  C252  1  0.97395840  0.31345804  0.49343395  1.0
  C  C253  1  0.52603165  0.68654033  0.99343741  1.0
  C  C254  1  0.02604343  0.68653908  0.50656626  1.0
  C  C255  1  0.47396249  0.31345680  0.00656642  1.0
  C  C256  1  0.07078732  0.27580778  0.47204925  1.0
  C  C257  1  0.42919517  0.72419110  0.97205317  1.0
  C  C258  1  0.92921636  0.72419110  0.52795187  1.0
  C  C259  1  0.57078261  0.27579903  0.02794825  1.0
  C  C260  1  0.18389228  0.24278552  0.49254992  1.0
  C  C261  1  0.31611152  0.75721683  0.99255444  1.0
  C  C262  1  0.81613660  0.75721991  0.50745240  1.0
  C  C263  1  0.68387238  0.24277637  0.00744698  1.0
  C  C264  1  0.19732678  0.24650174  0.53430713  1.0
  C  C265  1  0.30269315  0.75350569  0.03431192  1.0
  C  C266  1  0.80270581  0.75350325  0.46569338  1.0
  C  C267  1  0.69730910  0.24649671  0.96568980  1.0
  C  C268  1  0.85052043  0.07526806  0.70371614  1.0
  C  C269  1  0.64947553  0.92473095  0.20372264  1.0
  C  C270  1  0.14946404  0.92473481  0.29628347  1.0
  C  C271  1  0.35054382  0.07527274  0.79627577  1.0
  C  C272  1  0.92955962  0.03094971  0.72356666  1.0
  C  C273  1  0.57044110  0.96904531  0.22357757  1.0
  C  C274  1  0.07043937  0.96905050  0.27642692  1.0
  C  C275  1  0.42956273  0.03095797  0.77641511  1.0
  C  C276  1  0.86214751  0.97232714  0.72057751  1.0
  C  C277  1  0.63783012  0.02766830  0.22059147  1.0
  C  C278  1  0.13784364  0.02767264  0.27941487  1.0
  C  C279  1  0.36215348  0.97233590  0.77939458  1.0
  C  C280  1  0.71234374  0.95771345  0.69794439  1.0
  C  C281  1  0.78763069  0.04228328  0.19795525  1.0
  C  C282  1  0.28764001  0.04228722  0.30205643  1.0
  C  C283  1  0.21235263  0.95771607  0.80203412  1.0
  C  C284  1  0.63004089  0.00099000  0.67841314  1.0
  C  C285  1  0.86992495  0.99901075  0.17841874  1.0
  C  C286  1  0.36992150  0.99901203  0.32159220  1.0
  C  C287  1  0.13007645  0.00098901  0.82157394  1.0
  C  C288  1  0.70016641  0.05952783  0.68123732  1.0
  C  C289  1  0.79981696  0.94047118  0.18124042  1.0
  C  C290  1  0.29980624  0.94047418  0.31876681  1.0
  C  C291  1  0.20020025  0.05952987  0.81875768  1.0
  S  S292  1  0.53136681  0.68617304  0.70669866  1.0
  S  S293  1  0.96864625  0.31382293  0.20670272  1.0
  S  S294  1  0.46865524  0.31382317  0.29330065  1.0
  S  S295  1  0.03135587  0.68617903  0.79329810  1.0
  S  S296  1  0.05499083  0.27007762  0.41848165  1.0
  S  S297  1  0.44496617  0.72990570  0.91848355  1.0
  S  S298  1  0.94497926  0.72990065  0.58152067  1.0
  S  S299  1  0.55499851  0.27006774  0.08151606  1.0
  S  S300  1  0.62344056  0.88285200  0.69689940  1.0
  S  S301  1  0.87651403  0.11714694  0.19690723  1.0
  S  S302  1  0.37653522  0.11714780  0.30310021  1.0
  S  S303  1  0.12348040  0.88285503  0.80307491  1.0
  N  N304  1  0.02664516  0.22234230  0.74861047  1.0
  N  N305  1  0.47333709  0.77766035  0.24861952  1.0
  N  N306  1  0.97333389  0.77765970  0.25138854  1.0
  N  N307  1  0.52667542  0.22234599  0.75138461  1.0
  N  N308  1  0.18064261  0.34085525  0.74902527  1.0
  N  N309  1  0.31936585  0.65914517  0.24902806  1.0
  N  N310  1  0.81935111  0.65914453  0.25097585  1.0
  N  N311  1  0.68064680  0.34085765  0.75097396  1.0
  N  N312  1  0.16428025  0.34309052  0.66253578  1.0
  N  N313  1  0.33571805  0.65691078  0.16253769  1.0
  N  N314  1  0.83571702  0.65691233  0.33746564  1.0
  N  N315  1  0.66428350  0.34309338  0.83746282  1.0
  N  N316  1  0.04433321  0.22130079  0.66222559  1.0
  N  N317  1  0.45566293  0.77869787  0.16222978  1.0
  N  N318  1  0.95565566  0.77869988  0.33777312  1.0
  N  N319  1  0.54434431  0.22130408  0.83777164  1.0
  O  O320  1  0.53469115  0.70419516  0.74958153  1.0
  O  O321  1  0.96530583  0.29580831  0.24958633  1.0
  O  O322  1  0.46534101  0.29580455  0.25041747  1.0
  O  O323  1  0.03468604  0.70419367  0.75041478  1.0
  O  O324  1  0.39651947  0.71369346  0.68424054  1.0
  O  O325  1  0.10349793  0.28629638  0.18425247  1.0
  O  O326  1  0.60349191  0.28630145  0.31575937  1.0
  O  O327  1  0.89649166  0.71369857  0.81574835  1.0
  O  O328  1  0.70088004  0.69526058  0.68753422  1.0
  O  O329  1  0.79914539  0.30473277  0.18753324  1.0
  O  O330  1  0.29913874  0.30473739  0.31246268  1.0
  O  O331  1  0.20085488  0.69527139  0.81246607  1.0
  O  O332  1  0.86993903  0.26450673  0.40788621  1.0
  O  O333  1  0.63001212  0.73554229  0.90788163  1.0
  O  O334  1  0.13002406  0.73552521  0.59212365  1.0
  O  O335  1  0.36995338  0.26450899  0.09211617  1.0
  O  O336  1  0.14587083  0.32505030  0.40224964  1.0
  O  O337  1  0.35424678  0.67490074  0.90225806  1.0
  O  O338  1  0.85423710  0.67489827  0.59774033  1.0
  O  O339  1  0.64591868  0.32503145  0.09775271  1.0
  O  O340  1  0.14081525  0.21788065  0.40820423  1.0
  O  O341  1  0.35897123  0.78206450  0.90819943  1.0
  O  O342  1  0.85901292  0.78206313  0.59180744  1.0
  O  O343  1  0.64078874  0.21786269  0.09178873  1.0
  O  O344  1  0.46956861  0.87808229  0.67105402  1.0
  O  O345  1  0.03035069  0.12191537  0.17105076  1.0
  O  O346  1  0.53038951  0.12191843  0.32895222  1.0
  O  O347  1  0.96961227  0.87808447  0.82891962  1.0
  O  O348  1  0.58144880  0.86910343  0.73974260  1.0
  O  O349  1  0.91855804  0.13090026  0.23974734  1.0
  O  O350  1  0.41856642  0.13089543  0.26025882  1.0
  O  O351  1  0.08150444  0.86910203  0.76023148  1.0
  O  O352  1  0.75794899  0.84752315  0.68212417  1.0
  O  O353  1  0.74198488  0.15247333  0.18214251  1.0
  O  O354  1  0.24202138  0.15247975  0.31786791  1.0
  O  O355  1  0.25800143  0.84753525  0.81784957  1.0
