# generated using pymatgen
data_ZnH11C16(NO2)2
_symmetry_space_group_name_H-M   'P 1'
_cell_length_a   9.55939869
_cell_length_b   11.03973385
_cell_length_c   15.29675630
_cell_angle_alpha   90.35441517
_cell_angle_beta   89.96510026
_cell_angle_gamma   89.52240346
_symmetry_Int_Tables_number   1
_chemical_formula_structural   ZnH11C16(NO2)2
_chemical_formula_sum   'Zn2 H22 C32 N4 O8'
_cell_volume   1614.22858793
_cell_formula_units_Z   2
loop_
 _symmetry_equiv_pos_site_id
 _symmetry_equiv_pos_as_xyz
  1  'x, y, z'
loop_
 _atom_site_type_symbol
 _atom_site_label
 _atom_site_symmetry_multiplicity
 _atom_site_fract_x
 _atom_site_fract_y
 _atom_site_fract_z
 _atom_site_occupancy
  Zn  Zn0  1  0.63921918  0.49473596  0.49956929  1.0
  Zn  Zn1  1  0.35790892  0.49530278  0.50050000  1.0
  H  H2  1  0.72033666  0.55654747  0.22471926  1.0
  H  H3  1  0.30181012  0.43208141  0.77566538  1.0
  H  H4  1  0.29444683  0.44348921  0.22091594  1.0
  H  H5  1  0.73175941  0.53407563  0.77882441  1.0
  H  H6  1  0.17790020  0.39325061  0.08308096  1.0
  H  H7  1  0.85018295  0.58112066  0.91699978  1.0
  H  H8  1  0.26259025  0.10850710  0.48564376  1.0
  H  H9  1  0.71129328  0.88138654  0.51554699  1.0
  H  H10  1  0.26447422  0.88080034  0.49058196  1.0
  H  H11  1  0.70973454  0.10924224  0.50854908  1.0
  H  H12  1  0.13210200  0.61486224  0.39525832  1.0
  H  H13  1  0.86486979  0.37836460  0.60479404  1.0
  H  H14  1  0.13453298  0.37996778  0.60550724  1.0
  H  H15  1  0.86244267  0.60905946  0.39233048  1.0
  H  H16  1  0.17062781  0.34773764  0.84782315  1.0
  H  H17  1  0.95898145  0.28904983  0.90385066  1.0
  H  H18  1  0.98348614  0.37657501  0.99971807  1.0
  H  H19  1  0.07169728  0.23404517  0.98865788  1.0
  H  H20  1  0.85677463  0.63152456  0.15169242  1.0
  H  H21  1  0.06778919  0.68981882  0.09532698  1.0
  H  H22  1  0.95659299  0.74186321  0.00886077  1.0
  H  H23  1  0.04491798  0.59907585  0.00085245  1.0
  C  C24  1  0.48428613  0.25738926  0.49503699  1.0
  C  C25  1  0.48919567  0.73261486  0.50553881  1.0
  C  C26  1  0.26747832  0.41393642  0.95535988  1.0
  C  C27  1  0.75911340  0.56436642  0.04459674  1.0
  C  C28  1  0.36024472  0.05774176  0.49194280  1.0
  C  C29  1  0.61383775  0.93223873  0.50852308  1.0
  C  C30  1  0.36129065  0.93184063  0.49470942  1.0
  C  C31  1  0.61290645  0.05814777  0.50494780  1.0
  C  C32  1  0.48808057  0.86822429  0.50319120  1.0
  C  C33  1  0.48612458  0.12175208  0.49692949  1.0
  C  C34  1  0.07072887  0.56214442  0.44129446  1.0
  C  C35  1  0.92648901  0.42940035  0.55792550  1.0
  C  C36  1  0.07201227  0.43125054  0.55880131  1.0
  C  C37  1  0.92521875  0.55938690  0.43981505  1.0
  C  C38  1  0.51536474  0.48258528  0.67186287  1.0
  C  C39  1  0.50600059  0.50456603  0.32812714  1.0
  C  C40  1  0.62969512  0.53295403  0.18518718  1.0
  C  C41  1  0.39408831  0.45140460  0.81493464  1.0
  C  C42  1  0.50735974  0.50264493  0.23029778  1.0
  C  C43  1  0.51636003  0.48082531  0.76965587  1.0
  C  C44  1  0.38809196  0.46768003  0.18445233  1.0
  C  C45  1  0.63765534  0.51114303  0.81531695  1.0
  C  C46  1  0.38890177  0.46056007  0.09274450  1.0
  C  C47  1  0.63784030  0.51693380  0.90713429  1.0
  C  C48  1  0.51337911  0.49248813  0.04644857  1.0
  C  C49  1  0.51327268  0.48570800  0.95358305  1.0
  C  C50  1  0.63476362  0.53022515  0.09361835  1.0
  C  C51  1  0.39102170  0.45000993  0.90648340  1.0
  C  C52  1  0.26926973  0.42012863  0.04550082  1.0
  C  C53  1  0.75799329  0.55602409  0.95446722  1.0
  C  C54  1  0.03650236  0.31560164  0.95298211  1.0
  C  C55  1  0.99106729  0.66154208  0.04619065  1.0
  N  N56  1  0.85506703  0.49325405  0.49824741  1.0
  N  N57  1  0.14216806  0.49779902  0.50068016  1.0
  N  N58  1  0.15092958  0.37647468  0.90961533  1.0
  N  N59  1  0.87580238  0.60232199  0.08996032  1.0
  O  O60  1  0.60141717  0.31106099  0.48829225  1.0
  O  O61  1  0.37129638  0.67992474  0.49910325  1.0
  O  O62  1  0.60729919  0.67942786  0.51324820  1.0
  O  O63  1  0.36511478  0.30956726  0.50089762  1.0
  O  O64  1  0.63358299  0.47750857  0.63309732  1.0
  O  O65  1  0.38837197  0.49300967  0.36641072  1.0
  O  O66  1  0.62355383  0.51664212  0.36686591  1.0
  O  O67  1  0.39678305  0.48985815  0.63385248  1.0
