# generated using pymatgen
data_AlH17C18(NO3)3
_symmetry_space_group_name_H-M   'P 1'
_cell_length_a   6.74456549
_cell_length_b   18.99202117
_cell_length_c   20.42227536
_cell_angle_alpha   99.56273871
_cell_angle_beta   90.17164494
_cell_angle_gamma   93.68452759
_symmetry_Int_Tables_number   1
_chemical_formula_structural   AlH17C18(NO3)3
_chemical_formula_sum   'Al4 H68 C72 N12 O36'
_cell_volume   2574.01815754
_cell_formula_units_Z   4
loop_
 _symmetry_equiv_pos_site_id
 _symmetry_equiv_pos_as_xyz
  1  'x, y, z'
loop_
 _atom_site_type_symbol
 _atom_site_label
 _atom_site_symmetry_multiplicity
 _atom_site_fract_x
 _atom_site_fract_y
 _atom_site_fract_z
 _atom_site_occupancy
  Al  Al0  1  0.71390428  0.75355881  0.74893313  1.0
  Al  Al1  1  0.26278150  0.25446818  0.24665151  1.0
  Al  Al2  1  0.21290177  0.75157860  0.74626085  1.0
  Al  Al3  1  0.76142612  0.24937756  0.23926047  1.0
  H  H4  1  0.77720578  0.46910029  0.91559733  1.0
  H  H5  1  0.27450732  0.53031169  0.06599606  1.0
  H  H6  1  0.28090600  0.02561551  0.56834613  1.0
  H  H7  1  0.79804713  0.00994238  0.44285304  1.0
  H  H8  1  0.19607892  0.69312863  0.93651091  1.0
  H  H9  1  0.75518826  0.34125077  0.07911575  1.0
  H  H10  1  0.70649706  0.82752643  0.56489554  1.0
  H  H11  1  0.20118505  0.11532388  0.37865483  1.0
  H  H12  1  0.63661805  0.49955332  0.81687957  1.0
  H  H13  1  0.39704439  0.55920290  0.88057798  1.0
  H  H14  1  0.42952239  0.61549842  0.81785800  1.0
  H  H15  1  0.55631803  0.63829117  0.89370429  1.0
  H  H16  1  0.38851241  0.51679254  0.16152249  1.0
  H  H17  1  0.63639515  0.44749190  0.16850975  1.0
  H  H18  1  0.47706708  0.36884377  0.14797094  1.0
  H  H19  1  0.48936434  0.41340764  0.23016075  1.0
  H  H20  1  0.18532463  0.01358783  0.66650736  1.0
  H  H21  1  0.96028048  0.93271351  0.59170244  1.0
  H  H22  1  0.88925512  0.94269748  0.67720336  1.0
  H  H23  1  0.00953744  0.86566049  0.64141196  1.0
  H  H24  1  0.96786325  0.07989552  0.39833895  1.0
  H  H25  1  0.92124974  0.19804396  0.45648223  1.0
  H  H26  1  0.81860289  0.21965385  0.38312394  1.0
  H  H27  1  0.07111754  0.20313308  0.38434400  1.0
  H  H28  1  0.31132102  0.67707009  0.03037861  1.0
  H  H29  1  0.25210856  0.67865434  0.14242265  1.0
  H  H30  1  0.07203487  0.60545638  0.12422567  1.0
  H  H31  1  0.01685406  0.69077653  0.10654584  1.0
  H  H32  1  0.59977440  0.47146843  0.99006436  1.0
  H  H33  1  0.38967475  0.37088041  0.96262769  1.0
  H  H34  1  0.44604451  0.36236877  0.04569464  1.0
  H  H35  1  0.57999755  0.31485357  0.97840941  1.0
  H  H36  1  0.82260932  0.84275476  0.47029528  1.0
  H  H37  1  0.80349460  0.83977478  0.35969708  1.0
  H  H38  1  0.66209313  0.91591840  0.36718732  1.0
  H  H39  1  0.54629261  0.83225270  0.38011209  1.0
  H  H40  1  0.10075238  0.98788251  0.48405016  1.0
  H  H41  1  0.91102408  0.08156169  0.53809696  1.0
  H  H42  1  0.06968661  0.14485336  0.50499551  1.0
  H  H43  1  0.16073898  0.10246398  0.56815557  1.0
  H  H44  1  0.90704289  0.77123919  0.95346141  1.0
  H  H45  1  0.34205892  0.22983800  0.04487743  1.0
  H  H46  1  0.41365018  0.75896322  0.54023121  1.0
  H  H47  1  0.41281117  0.23626632  0.43754298  1.0
  H  H48  1  0.18720060  0.95361687  0.73633936  1.0
  H  H49  1  0.90798929  0.07427294  0.29140508  1.0
  H  H50  1  0.26995729  0.53290248  0.76565912  1.0
  H  H51  1  0.91029933  0.47050583  0.25362158  1.0
  H  H52  1  0.72757301  0.89895955  0.14117649  1.0
  H  H53  1  0.82785774  0.77658907  0.08568549  1.0
  H  H54  1  0.00120521  0.82833861  0.14428923  1.0
  H  H55  1  0.03647982  0.82563315  0.05793658  1.0
  H  H56  1  0.45948647  0.04867656  0.90708281  1.0
  H  H57  1  0.65616801  0.10562990  0.00312087  1.0
  H  H58  1  0.63441786  0.01009913  0.99646287  1.0
  H  H59  1  0.48955213  0.06466316  0.05483234  1.0
  H  H60  1  0.61191544  0.61575740  0.36401587  1.0
  H  H61  1  0.76627676  0.71556037  0.44450859  1.0
  H  H62  1  0.92497603  0.64341420  0.42190522  1.0
  H  H63  1  0.79834478  0.65266877  0.49847028  1.0
  H  H64  1  0.59806107  0.39990150  0.64635710  1.0
  H  H65  1  0.68673843  0.29594912  0.54737475  1.0
  H  H66  1  0.87947097  0.34944137  0.59550913  1.0
  H  H67  1  0.80940161  0.36980785  0.51739611  1.0
  H  H68  1  0.46562106  0.78714592  0.83140006  1.0
  H  H69  1  0.48744161  0.21674495  0.16001296  1.0
  H  H70  1  0.95060245  0.71231900  0.66536405  1.0
  H  H71  1  0.00598440  0.30123376  0.32026564  1.0
  C  C72  1  0.44509303  0.64766331  0.66131920  1.0
  C  C73  1  0.53597146  0.35314706  0.33283820  1.0
  C  C74  1  0.97801565  0.85122708  0.83898265  1.0
  C  C75  1  0.00389897  0.14571807  0.16400574  1.0
  C  C76  1  0.47226303  0.83788372  0.67030919  1.0
  C  C77  1  0.50620378  0.16438040  0.31872150  1.0
  C  C78  1  0.96327020  0.67026150  0.82529385  1.0
  C  C79  1  0.02582317  0.33756952  0.16666277  1.0
  C  C80  1  0.86215124  0.52047068  0.92331607  1.0
  C  C81  1  0.15529334  0.48964988  0.06982334  1.0
  C  C82  1  0.36695843  0.97890837  0.56388406  1.0
  C  C83  1  0.66254108  0.03317324  0.43022669  1.0
  C  C84  1  0.83514471  0.56512804  0.87676138  1.0
  C  C85  1  0.18031530  0.44525304  0.11756742  1.0
  C  C86  1  0.34947371  0.94006143  0.61566480  1.0
  C  C87  1  0.68183069  0.08650141  0.39059173  1.0
  C  C88  1  0.96391174  0.62681701  0.87994841  1.0
  C  C89  1  0.03255259  0.38869158  0.11863420  1.0
  C  C90  1  0.47627381  0.88430170  0.61697049  1.0
  C  C91  1  0.50975048  0.11507139  0.36914418  1.0
  C  C92  1  0.09462493  0.64535617  0.93415039  1.0
  C  C93  1  0.86822437  0.38372804  0.07537148  1.0
  C  C94  1  0.60651207  0.87024897  0.56374847  1.0
  C  C95  1  0.33128053  0.09383183  0.39663871  1.0
  C  C96  1  0.09934216  0.60610197  0.98673012  1.0
  C  C97  1  0.83512059  0.43223531  0.03262192  1.0
  C  C98  1  0.61183166  0.90572491  0.50814690  1.0
  C  C99  1  0.31365125  0.04736499  0.44298644  1.0
  C  C100  1  0.98492681  0.53871895  0.98029152  1.0
  C  C101  1  0.98945342  0.48722247  0.02786956  1.0
  C  C102  1  0.48766557  0.96384259  0.50835581  1.0
  C  C103  1  0.48467184  0.01285747  0.45877907  1.0
  C  C104  1  0.01382319  0.90751915  0.90026099  1.0
  C  C105  1  0.01199181  0.07697028  0.11673842  1.0
  C  C106  1  0.45264283  0.58207785  0.60716944  1.0
  C  C107  1  0.56090257  0.41586360  0.38932814  1.0
  C  C108  1  0.89639365  0.95133134  0.08358855  1.0
  C  C109  1  0.23348387  0.00877721  0.95323024  1.0
  C  C110  1  0.57972451  0.54583140  0.42591198  1.0
  C  C111  1  0.54216195  0.45698711  0.57633407  1.0
  C  C112  1  0.91748017  0.01293062  0.13267998  1.0
  C  C113  1  0.17030432  0.96036417  0.89660978  1.0
  C  C114  1  0.61229332  0.48646104  0.37652584  1.0
  C  C115  1  0.47821669  0.51387833  0.62472589  1.0
  C  C116  1  0.11399269  0.07664676  0.05804272  1.0
  C  C117  1  0.92041027  0.90158641  0.96036515  1.0
  C  C118  1  0.51967269  0.40564530  0.45391901  1.0
  C  C119  1  0.46990911  0.59244547  0.54141745  1.0
  C  C120  1  0.11191222  0.01211073  0.01096992  1.0
  C  C121  1  0.97551280  0.95342885  0.01816165  1.0
  C  C122  1  0.53219902  0.46523939  0.50732805  1.0
  C  C123  1  0.52319736  0.53490281  0.49165773  1.0
  C  C124  1  0.50433915  0.59257250  0.85621061  1.0
  C  C125  1  0.49194188  0.42175454  0.17845105  1.0
  C  C126  1  0.00213340  0.92307392  0.64143906  1.0
  C  C127  1  0.92492647  0.18703384  0.40189127  1.0
  C  C128  1  0.13573778  0.65354044  0.10680235  1.0
  C  C129  1  0.51174293  0.36543201  0.99666947  1.0
  C  C130  1  0.68440888  0.86723468  0.38777865  1.0
  C  C131  1  0.06404369  0.09379024  0.52323040  1.0
  C  C132  1  0.73781597  0.85087325  0.95967291  1.0
  C  C133  1  0.16961748  0.14686749  0.03472487  1.0
  C  C134  1  0.38746371  0.65745773  0.52231354  1.0
  C  C135  1  0.41706169  0.33702532  0.46612414  1.0
  C  C136  1  0.25641542  0.96971874  0.83146564  1.0
  C  C137  1  0.85632810  0.01153282  0.20255322  1.0
  C  C138  1  0.42545079  0.49826548  0.69071805  1.0
  C  C139  1  0.71046517  0.50152694  0.31474356  1.0
  C  C140  1  0.92289764  0.82637951  0.09635815  1.0
  C  C141  1  0.55296871  0.05905039  0.00514669  1.0
  C  C142  1  0.78540228  0.65888024  0.44633425  1.0
  C  C143  1  0.75246784  0.35084278  0.56198958  1.0
  N  N144  1  0.67658686  0.55270521  0.83013757  1.0
  N  N145  1  0.33365042  0.46637032  0.16427256  1.0
  N  N146  1  0.19783103  0.95967519  0.66305214  1.0
  N  N147  1  0.87581095  0.11025948  0.37604521  1.0
  N  N148  1  0.22567230  0.63460323  0.04151632  1.0
  N  N149  1  0.65688203  0.42495390  0.99649841  1.0
  N  N150  1  0.74661987  0.88336968  0.45795488  1.0
  N  N151  1  0.12184049  0.03701584  0.47026102  1.0
  N  N152  1  0.80353669  0.88832124  0.09751113  1.0
  N  N153  1  0.39804194  0.05536262  0.95354779  1.0
  N  N154  1  0.61251394  0.61548566  0.41409411  1.0
  N  N155  1  0.61152045  0.39862445  0.59602905  1.0
  O  O156  1  0.30171349  0.82375191  0.69354428  1.0
  O  O157  1  0.66882093  0.17678187  0.29019374  1.0
  O  O158  1  0.80050182  0.69429995  0.81045280  1.0
  O  O159  1  0.18897115  0.31785816  0.18687746  1.0
  O  O160  1  0.61421720  0.66841457  0.68789764  1.0
  O  O161  1  0.35911757  0.33553743  0.31134355  1.0
  O  O162  1  0.13405510  0.81999570  0.81895584  1.0
  O  O163  1  0.83596110  0.17213848  0.17447666  1.0
  O  O164  1  0.63622378  0.81485966  0.68547859  1.0
  O  O165  1  0.34167521  0.19128354  0.30892324  1.0
  O  O166  1  0.13115777  0.67985627  0.79826749  1.0
  O  O167  1  0.85232151  0.31643507  0.18398615  1.0
  O  O168  1  0.80504008  0.83593119  0.81390302  1.0
  O  O169  1  0.17052362  0.17336761  0.18722547  1.0
  O  O170  1  0.28419240  0.67801204  0.67393980  1.0
  O  O171  1  0.69072226  0.32332511  0.31153094  1.0
  O  O172  1  0.46476896  0.75848434  0.78722412  1.0
  O  O173  1  0.50710266  0.24768879  0.20297731  1.0
  O  O174  1  0.95970375  0.74759147  0.70577629  1.0
  O  O175  1  0.01099902  0.26059981  0.28455008  1.0
  O  O176  1  0.56901726  0.87006952  0.96006533  1.0
  O  O177  1  0.76538939  0.77951622  0.95402673  1.0
  O  O178  1  0.06208198  0.17059697  0.99659772  1.0
  O  O179  1  0.33582559  0.18480005  0.06269131  1.0
  O  O180  1  0.23455469  0.65649011  0.48984124  1.0
  O  O181  1  0.48845553  0.71923741  0.55029900  1.0
  O  O182  1  0.26797467  0.33286774  0.49959289  1.0
  O  O183  1  0.50194946  0.27837610  0.43383119  1.0
  O  O184  1  0.42750285  0.99445205  0.82340496  1.0
  O  O185  1  0.12229168  0.95260395  0.78301250  1.0
  O  O186  1  0.72929597  0.96855546  0.21989666  1.0
  O  O187  1  0.96220391  0.06152084  0.24479349  1.0
  O  O188  1  0.48070895  0.44772042  0.71618611  1.0
  O  O189  1  0.29163480  0.54260275  0.72049876  1.0
  O  O190  1  0.67712280  0.55223520  0.28645770  1.0
  O  O191  1  0.85428573  0.45683275  0.29439526  1.0
