# generated using pymatgen
data_AlH12C24(ClO2)3
_symmetry_space_group_name_H-M   'P 1'
_cell_length_a   3.96667102
_cell_length_b   28.55219023
_cell_length_c   28.55348982
_cell_angle_alpha   60.00404600
_cell_angle_beta   89.99265790
_cell_angle_gamma   89.99737040
_symmetry_Int_Tables_number   1
_chemical_formula_structural   AlH12C24(ClO2)3
_chemical_formula_sum   'Al2 H24 C48 Cl6 O12'
_cell_volume   2800.74223250
_cell_formula_units_Z   2
loop_
 _symmetry_equiv_pos_site_id
 _symmetry_equiv_pos_as_xyz
  1  'x, y, z'
loop_
 _atom_site_type_symbol
 _atom_site_label
 _atom_site_symmetry_multiplicity
 _atom_site_fract_x
 _atom_site_fract_y
 _atom_site_fract_z
 _atom_site_occupancy
  Al  Al0  1  0.98470754  0.49999753  0.00000066  1.0
  Al  Al1  1  0.98478444  0.16667249  0.66665877  1.0
  H  H2  1  0.66328063  0.30014057  0.51601533  1.0
  H  H3  1  0.67178354  0.34950567  0.41588051  1.0
  H  H4  1  0.36883861  0.20273025  0.41887925  1.0
  H  H5  1  0.36889001  0.46393831  0.24779897  1.0
  H  H6  1  0.67156880  0.31715582  0.25077867  1.0
  H  H7  1  0.66299189  0.36652467  0.15064399  1.0
  H  H8  1  0.50168518  0.27895021  0.33440700  1.0
  H  H9  1  0.50151038  0.38771104  0.33226523  1.0
  H  H10  1  0.66322383  0.18385874  0.80009970  1.0
  H  H11  1  0.67169285  0.23462914  0.84948181  1.0
  H  H12  1  0.36862046  0.37840454  0.70274327  1.0
  H  H13  1  0.36900665  0.28824819  0.96392973  1.0
  H  H14  1  0.67148991  0.43204614  0.81716125  1.0
  H  H15  1  0.66301341  0.48281472  0.86654669  1.0
  H  H16  1  0.50135822  0.38664378  0.77896788  1.0
  H  H17  1  0.50154676  0.28001581  0.88769671  1.0
  H  H18  1  0.66322639  0.01602981  0.68384940  1.0
  H  H19  1  0.67173803  0.91588367  0.73462395  1.0
  H  H20  1  0.36872607  0.91888234  0.87839553  1.0
  H  H21  1  0.36893641  0.74780513  0.78826264  1.0
  H  H22  1  0.67156832  0.75078599  0.93204714  1.0
  H  H23  1  0.66305369  0.65063954  0.98280870  1.0
  H  H24  1  0.50164972  0.83442275  0.88663581  1.0
  H  H25  1  0.50153515  0.83226501  0.78002849  1.0
  C  C26  1  0.48652436  0.58264454  0.95069385  1.0
  C  C27  1  0.48640854  0.46664501  0.08264859  1.0
  C  C28  1  0.48651827  0.45069270  0.96665720  1.0
  C  C29  1  0.48656268  0.20002760  0.58401901  1.0
  C  C30  1  0.48642522  0.21596244  0.70001522  1.0
  C  C31  1  0.48648974  0.08402649  0.71595593  1.0
  C  C32  1  0.49413836  0.22517845  0.52411140  1.0
  C  C33  1  0.59162260  0.27978892  0.49382803  1.0
  C  C34  1  0.59539037  0.30718491  0.43786530  1.0
  C  C35  1  0.51184039  0.28014401  0.40949112  1.0
  C  C36  1  0.42651274  0.22506346  0.43964246  1.0
  C  C37  1  0.41097902  0.19810266  0.49593422  1.0
  C  C38  1  0.51259801  0.30636805  0.35073121  1.0
  C  C39  1  0.51255551  0.36029615  0.31593801  1.0
  C  C40  1  0.42649138  0.44160367  0.22703209  1.0
  C  C41  1  0.51174758  0.38652019  0.25717811  1.0
  C  C42  1  0.59524196  0.35948163  0.22879785  1.0
  C  C43  1  0.59142151  0.38687776  0.17283761  1.0
  C  C44  1  0.49396898  0.44149058  0.14255851  1.0
  C  C45  1  0.41091085  0.46856699  0.17074217  1.0
  C  C46  1  0.49402119  0.25072795  0.72516131  1.0
  C  C47  1  0.59150096  0.22639569  0.77976654  1.0
  C  C48  1  0.59526868  0.25496288  0.80716817  1.0
  C  C49  1  0.51169170  0.31037822  0.78012964  1.0
  C  C50  1  0.42629953  0.33530621  0.72505887  1.0
  C  C51  1  0.41078144  0.30597830  0.69808949  1.0
  C  C52  1  0.51240554  0.34290267  0.80637161  1.0
  C  C53  1  0.51256580  0.32375735  0.86029361  1.0
  C  C54  1  0.42658796  0.33134935  0.94160964  1.0
  C  C55  1  0.51178469  0.35628804  0.88652871  1.0
  C  C56  1  0.59527223  0.41170614  0.85948815  1.0
  C  C57  1  0.59148197  0.44026957  0.88689307  1.0
  C  C58  1  0.49408112  0.41593000  0.94150697  1.0
  C  C59  1  0.41106239  0.36067029  0.96858652  1.0
  C  C60  1  0.49406764  0.02411689  0.75072013  1.0
  C  C61  1  0.59154659  0.99383501  0.72638701  1.0
  C  C62  1  0.59531780  0.93786792  0.75496016  1.0
  C  C63  1  0.51177361  0.90949932  0.81037066  1.0
  C  C64  1  0.42639453  0.93965048  0.83530090  1.0
  C  C65  1  0.41084557  0.99594780  0.80596674  1.0
  C  C66  1  0.51256349  0.85073810  0.84290073  1.0
  C  C67  1  0.51259952  0.81594168  0.82376421  1.0
  C  C68  1  0.42657622  0.72703596  0.83135562  1.0
  C  C69  1  0.51178099  0.75717912  0.85629834  1.0
  C  C70  1  0.59531897  0.72880010  0.91170518  1.0
  C  C71  1  0.59151709  0.67283202  0.94026908  1.0
  C  C72  1  0.49406240  0.64255662  0.91593036  1.0
  C  C73  1  0.41102859  0.67073832  0.86067909  1.0
  Cl  Cl74  1  0.30404492  0.13032985  0.52891785  1.0
  Cl  Cl75  1  0.30402333  0.53634085  0.13776255  1.0
  Cl  Cl76  1  0.30380450  0.34076174  0.63032506  1.0
  Cl  Cl77  1  0.30421082  0.32588474  0.03635895  1.0
  Cl  Cl78  1  0.30386159  0.02893928  0.84075132  1.0
  Cl  Cl79  1  0.30409323  0.63774922  0.82589633  1.0
  O  O80  1  0.24793340  0.44423814  0.99914577  1.0
  O  O81  1  0.24793461  0.55661415  0.94423962  1.0
  O  O82  1  0.24786461  0.49913846  0.05662158  1.0
  O  O83  1  0.71887367  0.48622912  0.95231767  1.0
  O  O84  1  0.71879559  0.45231190  0.06144728  1.0
  O  O85  1  0.71880971  0.56144737  0.98623442  1.0
  O  O86  1  0.24790353  0.11005865  0.72241653  1.0
  O  O87  1  0.24801385  0.16752954  0.61005115  1.0
  O  O88  1  0.24790726  0.22242270  0.66752168  1.0
  O  O89  1  0.71884841  0.10522118  0.68042084  1.0
  O  O90  1  0.71877436  0.18042770  0.71435053  1.0
  O  O91  1  0.71890538  0.21436060  0.60521688  1.0
