# generated using pymatgen
data_Zn4H8C30Cl4O13
_symmetry_space_group_name_H-M   'P 1'
_cell_length_a   18.50091835
_cell_length_b   18.50097445
_cell_length_c   18.96893871
_cell_angle_alpha   60.80410422
_cell_angle_beta   60.82522949
_cell_angle_gamma   90.00356340
_symmetry_Int_Tables_number   1
_chemical_formula_structural   Zn4H8C30Cl4O13
_chemical_formula_sum   'Zn8 H16 C60 Cl8 O26'
_cell_volume   4701.74495565
_cell_formula_units_Z   2
loop_
 _symmetry_equiv_pos_site_id
 _symmetry_equiv_pos_as_xyz
  1  'x, y, z'
loop_
 _atom_site_type_symbol
 _atom_site_label
 _atom_site_symmetry_multiplicity
 _atom_site_fract_x
 _atom_site_fract_y
 _atom_site_fract_z
 _atom_site_occupancy
  Zn  Zn0  1  0.87045118  0.45865912  0.08259069  1.0
  Zn  Zn1  1  0.62769091  0.03603693  0.92787240  1.0
  Zn  Zn2  1  0.03605731  0.62766786  0.92786306  1.0
  Zn  Zn3  1  0.44446787  0.03607896  0.92786356  1.0
  Zn  Zn4  1  0.03609156  0.44443730  0.92787085  1.0
  Zn  Zn5  1  0.45873311  0.87038152  0.08256693  1.0
  Zn  Zn6  1  0.04705176  0.45869856  0.08256499  1.0
  Zn  Zn7  1  0.45874986  0.04695734  0.08258914  1.0
  H  H8  1  0.72495886  0.62968748  0.14005805  1.0
  H  H9  1  0.23013509  0.72504907  0.13997681  1.0
  H  H10  1  0.13508290  0.23014012  0.14005767  1.0
  H  H11  1  0.62982737  0.13503343  0.13997003  1.0
  H  H12  1  0.13497369  0.62988637  0.13997720  1.0
  H  H13  1  0.62980041  0.72485806  0.14005734  1.0
  H  H14  1  0.72499426  0.23020197  0.13997062  1.0
  H  H15  1  0.23025378  0.13498187  0.14005776  1.0
  H  H16  1  0.93190932  0.83666094  0.65159790  1.0
  H  H17  1  0.51175414  0.93198020  0.65156003  1.0
  H  H18  1  0.41653691  0.51185582  0.65161764  1.0
  H  H19  1  0.83653324  0.41664126  0.65153134  1.0
  H  H20  1  0.41646074  0.83668903  0.65155952  1.0
  H  H21  1  0.83652760  0.93184502  0.65161715  1.0
  H  H22  1  0.93182929  0.51193504  0.65153041  1.0
  H  H23  1  0.51174087  0.41649265  0.65159714  1.0
  C  C24  1  0.12549914  0.62548502  0.74897786  1.0
  C  C25  1  0.22254917  0.72259204  0.55483918  1.0
  C  C26  1  0.32172550  0.21374534  0.98574659  1.0
  C  C27  1  0.73393826  0.68032587  0.07183862  1.0
  C  C28  1  0.24773323  0.73404851  0.07175411  1.0
  C  C29  1  0.19429830  0.24775854  0.07182928  1.0
  C  C30  1  0.68045214  0.19426552  0.07174042  1.0
  C  C31  1  0.19419691  0.68051167  0.07175394  1.0
  C  C32  1  0.68041041  0.73387110  0.07182934  1.0
  C  C33  1  0.73399294  0.24780690  0.07174002  1.0
  C  C34  1  0.24783428  0.19422174  0.07183917  1.0
  C  C35  1  0.72256811  0.22260582  0.55484413  1.0
  C  C36  1  0.81633799  0.31616180  0.36753560  1.0
  C  C37  1  0.31630296  0.81612787  0.36753722  1.0
  C  C38  1  0.67805834  0.17808462  0.64388188  1.0
  C  C39  1  0.17802958  0.67805911  0.64388711  1.0
  C  C40  1  0.86880612  0.36860317  0.26258808  1.0
  C  C41  1  0.36880755  0.86860754  0.26258709  1.0
  C  C42  1  0.62553821  0.12552413  0.74897821  1.0
  C  C43  1  0.85914807  0.36603750  0.99636237  1.0
  C  C44  1  0.63759865  0.85907807  0.99640130  1.0
  C  C45  1  0.14442049  0.63768208  0.99635704  1.0
  C  C46  1  0.36600471  0.14441415  0.99644491  1.0
  C  C47  1  0.14451930  0.36599802  0.99639985  1.0
  C  C48  1  0.36595884  0.85922331  0.99635630  1.0
  C  C49  1  0.85913803  0.63754740  0.99644689  1.0
  C  C50  1  0.63760116  0.14448850  0.99636133  1.0
  C  C51  1  0.87174256  0.76532650  0.80536104  1.0
  C  C52  1  0.42932502  0.87176513  0.80532781  1.0
  C  C53  1  0.32296729  0.42936538  0.80537928  1.0
  C  C54  1  0.76528130  0.32301847  0.80528680  1.0
  C  C55  1  0.32290771  0.76534880  0.80532654  1.0
  C  C56  1  0.76525614  0.87165419  0.80537809  1.0
  C  C57  1  0.87169454  0.42943156  0.80528678  1.0
  C  C58  1  0.42931280  0.32289624  0.80536060  1.0
  C  C59  1  0.77173961  0.27169634  0.45658464  1.0
  C  C60  1  0.88404461  0.83064395  0.71888562  1.0
  C  C61  1  0.45046923  0.88411101  0.71884768  1.0
  C  C62  1  0.39708992  0.45052702  0.71889567  1.0
  C  C63  1  0.83056323  0.39720488  0.71881003  1.0
  C  C64  1  0.39704287  0.83068513  0.71884705  1.0
  C  C65  1  0.83057745  0.88401448  0.71889488  1.0
  C  C66  1  0.88398511  0.45062621  0.71881018  1.0
  C  C67  1  0.27171635  0.77167865  0.45658516  1.0
  C  C68  1  0.45047033  0.39706889  0.71888544  1.0
  C  C69  1  0.75614324  0.81186559  0.89536719  1.0
  C  C70  1  0.29271537  0.75621229  0.89531879  1.0
  C  C71  1  0.34850137  0.29271562  0.89536628  1.0
  C  C72  1  0.81191525  0.34856521  0.89527586  1.0
  C  C73  1  0.34846923  0.81196585  0.89531908  1.0
  C  C74  1  0.81191636  0.75613142  0.89536708  1.0
  C  C75  1  0.75615873  0.29280904  0.89527595  1.0
  C  C76  1  0.29276653  0.34848807  0.89536714  1.0
  C  C77  1  0.80050685  0.69252636  0.98574668  1.0
  C  C78  1  0.32166476  0.80059500  0.98567067  1.0
  C  C79  1  0.21381714  0.32169043  0.98573858  1.0
  C  C80  1  0.69260057  0.21381306  0.98565178  1.0
  C  C81  1  0.21373394  0.69266342  0.98567091  1.0
  C  C82  1  0.69256813  0.80044290  0.98573907  1.0
  C  C83  1  0.80053424  0.32174787  0.98565131  1.0
  Cl  Cl84  1  0.92599091  0.69051376  0.79875687  1.0
  Cl  Cl85  1  0.51073399  0.92599216  0.79876619  1.0
  Cl  Cl86  1  0.27533907  0.51078887  0.79880374  1.0
  Cl  Cl87  1  0.69047357  0.27532280  0.79869983  1.0
  Cl  Cl88  1  0.27524030  0.69050429  0.79876370  1.0
  Cl  Cl89  1  0.69041081  0.92586184  0.79880082  1.0
  Cl  Cl90  1  0.92597968  0.51082692  0.79869722  1.0
  Cl  Cl91  1  0.51073000  0.27525262  0.79875609  1.0
  O  O92  1  0.99870069  0.49865494  0.00264102  1.0
  O  O93  1  0.54340105  0.10545835  0.78916543  1.0
  O  O94  1  0.10546915  0.54334340  0.78914374  1.0
  O  O95  1  0.66751371  0.10538847  0.78914338  1.0
  O  O96  1  0.82707684  0.38879863  0.22202801  1.0
  O  O97  1  0.38902127  0.82688928  0.22202507  1.0
  O  O98  1  0.95108624  0.38895058  0.22202375  1.0
  O  O99  1  0.38917091  0.95089592  0.22202686  1.0
  O  O100  1  0.49870255  0.99865671  0.00264105  1.0
  O  O101  1  0.93881539  0.36909277  0.95404729  1.0
  O  O102  1  0.67686992  0.93875602  0.95407526  1.0
  O  O103  1  0.10706958  0.67696927  0.95403224  1.0
  O  O104  1  0.36905504  0.10709709  0.95409461  1.0
  O  O105  1  0.10716880  0.36905368  0.95407121  1.0
  O  O106  1  0.36899936  0.93889952  0.95402821  1.0
  O  O107  1  0.93880753  0.67684810  0.95409518  1.0
  O  O108  1  0.67685955  0.10713788  0.95404732  1.0
  O  O109  1  0.12475812  0.55559178  0.05374240  1.0
  O  O110  1  0.39070054  0.12472306  0.05384210  1.0
  O  O111  1  0.82142661  0.39071977  0.05374797  1.0
  O  O112  1  0.55551785  0.82137107  0.05374455  1.0
  O  O113  1  0.82143268  0.55545583  0.05384363  1.0
  O  O114  1  0.55553119  0.12482397  0.05374777  1.0
  O  O115  1  0.12488266  0.39073500  0.05374173  1.0
  O  O116  1  0.39065975  0.82149987  0.05374704  1.0
  O  O117  1  0.10537826  0.66743426  0.78916607  1.0
