# generated using pymatgen
data_AgH17C10S(NO2)2
_symmetry_space_group_name_H-M   'P 1'
_cell_length_a   9.92877569
_cell_length_b   17.50328206
_cell_length_c   17.50672620
_cell_angle_alpha   116.48939844
_cell_angle_beta   100.90692388
_cell_angle_gamma   100.88790832
_symmetry_Int_Tables_number   1
_chemical_formula_structural   AgH17C10S(NO2)2
_chemical_formula_sum   'Ag6 H102 C60 S6 N12 O24'
_cell_volume   2541.27673970
_cell_formula_units_Z   6
loop_
 _symmetry_equiv_pos_site_id
 _symmetry_equiv_pos_as_xyz
  1  'x, y, z'
loop_
 _atom_site_type_symbol
 _atom_site_label
 _atom_site_symmetry_multiplicity
 _atom_site_fract_x
 _atom_site_fract_y
 _atom_site_fract_z
 _atom_site_occupancy
  Ag  Ag0  1  0.04159535  0.67008556  0.24552842  1.0
  Ag  Ag1  1  0.79602850  0.75454728  0.42473770  1.0
  Ag  Ag2  1  0.37168167  0.57518274  0.32981695  1.0
  Ag  Ag3  1  0.95840831  0.32991601  0.75447165  1.0
  Ag  Ag4  1  0.20397512  0.24545831  0.57526531  1.0
  Ag  Ag5  1  0.62831996  0.42481480  0.67017882  1.0
  H  H6  1  0.05274562  0.34839948  0.17423031  1.0
  H  H7  1  0.87853413  0.82571391  0.17433913  1.0
  H  H8  1  0.70374299  0.82568985  0.65152405  1.0
  H  H9  1  0.94725669  0.65159940  0.82576728  1.0
  H  H10  1  0.12146001  0.17428295  0.82565897  1.0
  H  H11  1  0.29625625  0.17431105  0.34847697  1.0
  H  H12  1  0.22877753  0.39543964  0.17639149  1.0
  H  H13  1  0.05244131  0.82360297  0.21929775  1.0
  H  H14  1  0.83285576  0.78091781  0.60455251  1.0
  H  H15  1  0.77122409  0.60455992  0.82360519  1.0
  H  H16  1  0.94755250  0.17639323  0.78070003  1.0
  H  H17  1  0.16714244  0.21908308  0.39544726  1.0
  H  H18  1  0.15126509  0.31870499  0.00987744  1.0
  H  H19  1  0.14137946  0.99011488  0.30880002  1.0
  H  H20  1  0.83233405  0.69119791  0.68143774  1.0
  H  H21  1  0.84873653  0.68129456  0.99012037  1.0
  H  H22  1  0.85861843  0.00988131  0.69119647  1.0
  H  H23  1  0.16766586  0.30880231  0.31856019  1.0
  H  H24  1  0.10962647  0.23925678  0.04517035  1.0
  H  H25  1  0.06438574  0.95470890  0.19405546  1.0
  H  H26  1  0.87008275  0.80591833  0.76077468  1.0
  H  H27  1  0.89037376  0.76074411  0.95482734  1.0
  H  H28  1  0.93561285  0.04528662  0.80594081  1.0
  H  H29  1  0.12991787  0.19408122  0.23922531  1.0
  H  H30  1  0.85318041  0.23857093  0.01618194  1.0
  H  H31  1  0.83700140  0.98385123  0.22234214  1.0
  H  H32  1  0.61431281  0.77764987  0.76145527  1.0
  H  H33  1  0.14682088  0.76142795  0.98381611  1.0
  H  H34  1  0.16299853  0.01614698  0.77765547  1.0
  H  H35  1  0.38568678  0.22234969  0.23854405  1.0
  H  H36  1  0.90371371  0.21411807  0.91813766  1.0
  H  H37  1  0.98560015  0.08188148  0.29582893  1.0
  H  H38  1  0.68939215  0.70415596  0.78611673  1.0
  H  H39  1  0.09628722  0.78588216  0.08185981  1.0
  H  H40  1  0.01439910  0.91811539  0.70416629  1.0
  H  H41  1  0.31060912  0.29584493  0.21388278  1.0
  H  H42  1  0.76842937  0.32655531  0.94847669  1.0
  H  H43  1  0.82009759  0.05167930  0.37801468  1.0
  H  H44  1  0.44178699  0.62193342  0.67368330  1.0
  H  H45  1  0.23156852  0.67344290  0.05152184  1.0
  H  H46  1  0.17990471  0.94832160  0.62198381  1.0
  H  H47  1  0.55821772  0.37806613  0.32631712  1.0
  H  H48  1  0.94574457  0.37125071  0.95192436  1.0
  H  H49  1  0.99393688  0.04817753  0.41922885  1.0
  H  H50  1  0.57452537  0.58073383  0.62909756  1.0
  H  H51  1  0.05425296  0.62874884  0.04807417  1.0
  H  H52  1  0.00606440  0.95182135  0.58076691  1.0
  H  H53  1  0.42547696  0.41926505  0.37090289  1.0
  H  H54  1  0.88836140  0.48267448  0.08158634  1.0
  H  H55  1  0.80685786  0.91861050  0.40121385  1.0
  H  H56  1  0.40555304  0.59868967  0.51742732  1.0
  H  H57  1  0.11163886  0.51732440  0.91841103  1.0
  H  H58  1  0.19314477  0.08139106  0.59878668  1.0
  H  H59  1  0.59444828  0.40130719  0.48257211  1.0
  H  H60  1  0.84063584  0.40244994  0.11458408  1.0
  H  H61  1  0.72608102  0.88553988  0.28801927  1.0
  H  H62  1  0.43778486  0.71189804  0.59745437  1.0
  H  H63  1  0.15936305  0.59755028  0.88541546  1.0
  H  H64  1  0.27391754  0.11445967  0.71198050  1.0
  H  H65  1  0.56220928  0.28809882  0.40254431  1.0
  H  H66  1  0.14067293  0.48157660  0.10970215  1.0
  H  H67  1  0.03094893  0.89029547  0.37200372  1.0
  H  H68  1  0.65901428  0.62806073  0.51857370  1.0
  H  H69  1  0.85932664  0.51842497  0.89029806  1.0
  H  H70  1  0.96905096  0.10970677  0.62799568  1.0
  H  H71  1  0.34098771  0.37193950  0.48142788  1.0
  H  H72  1  0.96020708  0.55466560  0.33955323  1.0
  H  H73  1  0.62051571  0.66042981  0.21527796  1.0
  H  H74  1  0.40517069  0.78471464  0.44512825  1.0
  H  H75  1  0.03979560  0.44533193  0.66044722  1.0
  H  H76  1  0.37948356  0.33957108  0.78472877  1.0
  H  H77  1  0.59483231  0.21528559  0.55487059  1.0
  H  H78  1  0.91825305  0.44545016  0.25061121  1.0
  H  H79  1  0.66744736  0.74947283  0.19507511  1.0
  H  H80  1  0.47209149  0.80487878  0.55435585  1.0
  H  H81  1  0.08175202  0.55454805  0.74938922  1.0
  H  H82  1  0.33254543  0.25052739  0.80493121  1.0
  H  H83  1  0.52791492  0.19512211  0.44564535  1.0
  H  H84  1  0.82589174  0.39901610  0.41792991  1.0
  H  H85  1  0.40785877  0.58214703  0.98120139  1.0
  H  H86  1  0.42613144  0.01867055  0.60063690  1.0
  H  H87  1  0.17411123  0.60098614  0.58206982  1.0
  H  H88  1  0.59214014  0.41785319  0.01880215  1.0
  H  H89  1  0.57386983  0.98133035  0.39936205  1.0
  H  H90  1  0.82203110  0.46167956  0.36054547  1.0
  H  H91  1  0.46115483  0.63927987  0.10117467  1.0
  H  H92  1  0.35969016  0.89868240  0.53788938  1.0
  H  H93  1  0.17797256  0.53832402  0.63945664  1.0
  H  H94  1  0.53884303  0.36072236  0.89882794  1.0
  H  H95  1  0.64030668  0.10131782  0.46211109  1.0
  H  H96  1  0.22131401  0.45957663  0.49055691  1.0
  H  H97  1  0.73084257  0.50973323  0.96920204  1.0
  H  H98  1  0.76169930  0.03095400  0.54094489  1.0
  H  H99  1  0.77868865  0.54042292  0.50944330  1.0
  H  H100  1  0.26915428  0.49026901  0.03080333  1.0
  H  H101  1  0.23829826  0.96904354  0.45905388  1.0
  H  H102  1  0.06231742  0.39456068  0.49370348  1.0
  H  H103  1  0.56866646  0.50662723  0.90109411  1.0
  H  H104  1  0.66733321  0.09897307  0.60572595  1.0
  H  H105  1  0.93768488  0.60544223  0.50629876  1.0
  H  H106  1  0.43133039  0.49337501  0.09891011  1.0
  H  H107  1  0.33266060  0.90102313  0.39427240  1.0
  C  C108  1  0.11371574  0.37294184  0.13879826  1.0
  C  C109  1  0.97494268  0.86119845  0.23430805  1.0
  C  C110  1  0.74036524  0.76577808  0.62708423  1.0
  C  C111  1  0.88628622  0.62705838  0.86119988  1.0
  C  C112  1  0.02505384  0.13879908  0.76569003  1.0
  C  C113  1  0.25963366  0.23422215  0.37291589  1.0
  C  C114  1  0.08145797  0.29619167  0.04266411  1.0
  C  C115  1  0.03877503  0.95732164  0.25352775  1.0
  C  C116  1  0.78498397  0.74647835  0.70391922  1.0
  C  C117  1  0.91854297  0.70380856  0.95733337  1.0
  C  C118  1  0.96122355  0.04267590  0.74646999  1.0
  C  C119  1  0.21501458  0.25352120  0.29607998  1.0
  C  C120  1  0.92336753  0.26735651  0.98736570  1.0
  C  C121  1  0.93602135  0.01266662  0.27990883  1.0
  C  C122  1  0.65576758  0.72006372  0.73280215  1.0
  C  C123  1  0.07663307  0.73264304  0.01263201  1.0
  C  C124  1  0.06397790  0.98733226  0.72008957  1.0
  C  C125  1  0.34423337  0.27993650  0.26719760  1.0
  C  C126  1  0.88274613  0.34725942  0.98674198  1.0
  C  C127  1  0.89611637  0.01336782  0.36046513  1.0
  C  C128  1  0.53539774  0.63949249  0.65296469  1.0
  C  C129  1  0.11725175  0.65273879  0.01325541  1.0
  C  C130  1  0.10388424  0.98663174  0.63953315  1.0
  C  C131  1  0.46460732  0.36050773  0.34703778  1.0
  C  C132  1  0.91261016  0.42424023  0.08238042  1.0
  C  C133  1  0.83030648  0.91774230  0.34196772  1.0
  C  C134  1  0.48815785  0.65797148  0.57580582  1.0
  C  C135  1  0.08738976  0.57576000  0.91761809  1.0
  C  C136  1  0.16969377  0.08225860  0.65803170  1.0
  C  C137  1  0.51184209  0.34202672  0.42419349  1.0
  C  C138  1  0.07004691  0.45149160  0.13713715  1.0
  C  C139  1  0.93288991  0.86288393  0.31449846  1.0
  C  C140  1  0.61830678  0.68552160  0.54853999  1.0
  C  C141  1  0.92995198  0.54850862  0.86286181  1.0
  C  C142  1  0.06710932  0.13711696  0.68550198  1.0
  C  C143  1  0.38169178  0.31447795  0.45145978  1.0
  C  C144  1  0.00903356  0.50370195  0.30375183  1.0
  C  C145  1  0.70511592  0.69627953  0.20012599  1.0
  C  C146  1  0.50482997  0.79983238  0.49616780  1.0
  C  C147  1  0.99096773  0.49629693  0.69624622  1.0
  C  C148  1  0.29488231  0.30372136  0.79987835  1.0
  C  C149  1  0.49516893  0.20016582  0.50383140  1.0
  C  C150  1  0.09638046  0.48035312  0.36732832  1.0
  C  C151  1  0.72891564  0.63277865  0.11322930  1.0
  C  C152  1  0.61555621  0.88676990  0.51962613  1.0
  C  C153  1  0.90361535  0.51964710  0.63267089  1.0
  C  C154  1  0.27107302  0.36722157  0.88677373  1.0
  C  C155  1  0.38445193  0.11322831  0.48037291  1.0
  C  C156  1  0.88158984  0.46038904  0.41904841  1.0
  C  C157  1  0.46241253  0.58090730  0.04138705  1.0
  C  C158  1  0.42077271  0.95850312  0.53932960  1.0
  C  C159  1  0.11841383  0.53961252  0.58095280  1.0
  C  C160  1  0.53758774  0.41909359  0.95861693  1.0
  C  C161  1  0.57922346  0.04149576  0.46066848  1.0
  C  C162  1  0.11246893  0.45707147  0.49518664  1.0
  C  C163  1  0.61736019  0.50503890  0.96205297  1.0
  C  C164  1  0.65527900  0.03806126  0.54322893  1.0
  C  C165  1  0.88753233  0.54293144  0.50481492  1.0
  C  C166  1  0.38263665  0.49496334  0.03795069  1.0
  C  C167  1  0.34471990  0.96193695  0.45676742  1.0
  S  S168  1  0.11571752  0.54744411  0.25089514  1.0
  S  S169  1  0.86466711  0.74912542  0.29673017  1.0
  S  S170  1  0.56790611  0.70326336  0.45253371  1.0
  S  S171  1  0.88428478  0.45255679  0.74910220  1.0
  S  S172  1  0.13533416  0.25087749  0.70327254  1.0
  S  S173  1  0.43209416  0.29673552  0.54746538  1.0
  N  N174  1  0.02797776  0.45865712  0.41792696  1.0
  N  N175  1  0.60999991  0.58217554  0.04090757  1.0
  N  N176  1  0.56896888  0.95911866  0.54137779  1.0
  N  N177  1  0.97202862  0.54134579  0.58207343  1.0
  N  N178  1  0.39000003  0.41782468  0.95909665  1.0
  N  N179  1  0.43103004  0.04087753  0.45861880  1.0
  N  N180  1  0.36819847  0.74348438  0.25877557  1.0
  N  N181  1  0.10932533  0.74122276  0.48481533  1.0
  N  N182  1  0.62474296  0.51514435  0.25632667  1.0
  N  N183  1  0.63180348  0.25651786  0.74122520  1.0
  N  N184  1  0.89067221  0.25877881  0.51518696  1.0
  N  N185  1  0.37525801  0.48485386  0.74367333  1.0
  O  O186  1  0.22431521  0.48133052  0.37314381  1.0
  O  O187  1  0.85111070  0.62707403  0.10843915  1.0
  O  O188  1  0.74257064  0.89160423  0.51878094  1.0
  O  O189  1  0.77570008  0.51866970  0.62685574  1.0
  O  O190  1  0.14888956  0.37292888  0.89156516  1.0
  O  O191  1  0.25742141  0.10839666  0.48121874  1.0
  O  O192  1  0.25702620  0.77115901  0.26377429  1.0
  O  O193  1  0.99318755  0.73608314  0.50749030  1.0
  O  O194  1  0.48591510  0.49255508  0.22860511  1.0
  O  O195  1  0.74297125  0.22884256  0.73621542  1.0
  O  O196  1  0.00681170  0.26391775  0.49251357  1.0
  O  O197  1  0.51408492  0.50743708  0.77139494  1.0
  O  O198  1  0.49222860  0.80029685  0.29875728  1.0
  O  O199  1  0.19343536  0.70114174  0.50143275  1.0
  O  O200  1  0.69205383  0.49832130  0.19956054  1.0
  O  O201  1  0.50777269  0.19970605  0.70124941  1.0
  O  O202  1  0.80656455  0.29886050  0.49856837  1.0
  O  O203  1  0.30794778  0.50168026  0.80043988  1.0
  O  O204  1  0.35121118  0.66012241  0.21446591  1.0
  O  O205  1  0.13658199  0.78577979  0.44597694  1.0
  O  O206  1  0.69101478  0.55409529  0.33968133  1.0
  O  O207  1  0.64879148  0.33987916  0.78553749  1.0
  O  O208  1  0.86341143  0.21422178  0.55402434  1.0
  O  O209  1  0.30898650  0.44590560  0.66031875  1.0
