# generated using pymatgen
data_ZnH47C39NO7
_symmetry_space_group_name_H-M   'P 1'
_cell_length_a   13.81323997
_cell_length_b   14.98299766
_cell_length_c   15.20084237
_cell_angle_alpha   88.66673390
_cell_angle_beta   88.14922043
_cell_angle_gamma   68.31889133
_symmetry_Int_Tables_number   1
_chemical_formula_structural   ZnH47C39NO7
_chemical_formula_sum   'Zn2 H94 C78 N2 O14'
_cell_volume   2921.71328599
_cell_formula_units_Z   2
loop_
 _symmetry_equiv_pos_site_id
 _symmetry_equiv_pos_as_xyz
  1  'x, y, z'
loop_
 _atom_site_type_symbol
 _atom_site_label
 _atom_site_symmetry_multiplicity
 _atom_site_fract_x
 _atom_site_fract_y
 _atom_site_fract_z
 _atom_site_occupancy
  Zn  Zn0  1  0.40628899  0.49371059  0.48953463  1.0
  Zn  Zn1  1  0.60102679  0.50395816  0.48909544  1.0
  H  H2  1  0.20963603  0.11168728  0.63302821  1.0
  H  H3  1  0.75530871  0.89940545  0.69191808  1.0
  H  H4  1  0.16732735  0.98215015  0.56018214  1.0
  H  H5  1  0.81777111  0.03098158  0.63298633  1.0
  H  H6  1  0.48824177  0.62647331  0.03692429  1.0
  H  H7  1  0.62520453  0.37226924  0.93299726  1.0
  H  H8  1  0.70284552  0.60766267  0.59650189  1.0
  H  H9  1  0.30423666  0.35021550  0.53000212  1.0
  H  H10  1  0.79278504  0.42213588  0.38621733  1.0
  H  H11  1  0.20297995  0.64044508  0.46784036  1.0
  H  H12  1  0.97702714  0.41645645  0.39001285  1.0
  H  H13  1  0.01589259  0.65440813  0.46873999  1.0
  H  H14  1  0.89951448  0.53335591  0.74232198  1.0
  H  H15  1  0.02066567  0.52611451  0.69322535  1.0
  H  H16  1  0.94843552  0.62591303  0.75944233  1.0
  H  H17  1  0.92869355  0.67226926  0.60063314  1.0
  H  H18  1  0.80784288  0.68366489  0.65039103  1.0
  H  H19  1  0.10760350  0.34218437  0.68776973  1.0
  H  H20  1  0.98452794  0.38092767  0.63676854  1.0
  H  H21  1  0.05793708  0.25671532  0.64967729  1.0
  H  H22  1  0.07451843  0.30759493  0.49416861  1.0
  H  H23  1  0.19587945  0.26625247  0.54642203  1.0
  H  H24  1  0.48877339  0.08937038  0.42917560  1.0
  H  H25  1  0.51475984  0.18968023  0.38297707  1.0
  H  H26  1  0.29521349  0.19366822  0.42606017  1.0
  H  H27  1  0.32841896  0.28069014  0.36449641  1.0
  H  H28  1  0.41657455  0.15278867  0.24774367  1.0
  H  H29  1  0.28180926  0.17542033  0.26174505  1.0
  H  H30  1  0.37485437  0.07101874  0.30976138  1.0
  H  H31  1  0.56050736  0.89009153  0.44737006  1.0
  H  H32  1  0.55675681  0.78496683  0.39546059  1.0
  H  H33  1  0.74416643  0.78485799  0.49722221  1.0
  H  H34  1  0.74040489  0.69688866  0.42278124  1.0
  H  H35  1  0.70720455  0.82077868  0.29768601  1.0
  H  H36  1  0.82740018  0.79912147  0.34880765  1.0
  H  H37  1  0.71802176  0.90471735  0.37377388  1.0
  H  H38  1  0.88952537  0.23155519  0.47234050  1.0
  H  H39  1  0.76642784  0.24414707  0.43113561  1.0
  H  H40  1  0.94835395  0.05249387  0.46267353  1.0
  H  H41  1  0.82419070  0.06331539  0.42641217  1.0
  H  H42  1  0.84859606  0.15286485  0.28977704  1.0
  H  H43  1  0.94980080  0.03822610  0.29749235  1.0
  H  H44  1  0.97370676  0.14246503  0.32505387  1.0
  H  H45  1  0.15716245  0.77817554  0.37790587  1.0
  H  H46  1  0.29287754  0.75501011  0.37580733  1.0
  H  H47  1  0.11881768  0.95497405  0.36859074  1.0
  H  H48  1  0.25362247  0.93295114  0.36544754  1.0
  H  H49  1  0.27514142  0.84328709  0.22263355  1.0
  H  H50  1  0.18239138  0.96229228  0.21278726  1.0
  H  H51  1  0.13994204  0.86437342  0.22532062  1.0
  H  H52  1  0.34508049  0.30440839  0.73125617  1.0
  H  H53  1  0.44429326  0.18885255  0.74381415  1.0
  H  H54  1  0.21297192  0.23917199  0.79409287  1.0
  H  H55  1  0.31230793  0.12510463  0.80753474  1.0
  H  H56  1  0.40173453  0.19460190  0.91442055  1.0
  H  H57  1  0.27162068  0.21539641  0.94996201  1.0
  H  H58  1  0.30315778  0.30968359  0.90002446  1.0
  H  H59  1  0.50850766  0.82589845  0.77445247  1.0
  H  H60  1  0.62156052  0.83577129  0.82078325  1.0
  H  H61  1  0.60527166  0.65061415  0.75135244  1.0
  H  H62  1  0.71970715  0.65990095  0.79213636  1.0
  H  H63  1  0.63164657  0.70684749  0.94106018  1.0
  H  H64  1  0.62692950  0.59536865  0.90812581  1.0
  H  H65  1  0.51483999  0.70128668  0.89996293  1.0
  H  H66  1  0.62934436  0.71760332  0.24030953  1.0
  H  H67  1  0.67086415  0.59069703  0.25335179  1.0
  H  H68  1  0.66150965  0.64289345  0.14595279  1.0
  H  H69  1  0.46623404  0.72250440  0.16979110  1.0
  H  H70  1  0.47752467  0.66948019  0.27611404  1.0
  H  H71  1  0.82452412  0.34833998  0.71699982  1.0
  H  H72  1  0.73044144  0.46774023  0.71717940  1.0
  H  H73  1  0.77939570  0.40921474  0.81857669  1.0
  H  H74  1  0.69431074  0.28959128  0.79188445  1.0
  H  H75  1  0.64976876  0.34615048  0.68994350  1.0
  H  H76  1  0.67995042  0.30027563  0.27327360  1.0
  H  H77  1  0.65044292  0.19489517  0.29013980  1.0
  H  H78  1  0.67061694  0.23272288  0.18139151  1.0
  H  H79  1  0.49004076  0.34135611  0.30957278  1.0
  H  H80  1  0.47912448  0.27558479  0.21866548  1.0
  H  H81  1  0.34906107  0.75808601  0.81702646  1.0
  H  H82  1  0.42291930  0.71892813  0.71788796  1.0
  H  H83  1  0.28834024  0.79058709  0.71327069  1.0
  H  H84  1  0.31890364  0.61872371  0.68425346  1.0
  H  H85  1  0.24300010  0.65692184  0.78104176  1.0
  H  H86  1  0.33840698  0.33905876  0.15960192  1.0
  H  H87  1  0.28973440  0.39290713  0.05762958  1.0
  H  H88  1  0.33498567  0.26593246  0.07028718  1.0
  H  H89  1  0.46382356  0.32519207  0.98528008  1.0
  H  H90  1  0.51722365  0.25455404  0.07862529  1.0
  H  H91  1  0.18876341  0.56965316  0.86668415  1.0
  H  H92  1  0.23205366  0.50199761  0.96433282  1.0
  H  H93  1  0.13511903  0.61956384  0.97058017  1.0
  H  H94  1  0.30846316  0.61981352  0.01359406  1.0
  H  H95  1  0.26566506  0.68999998  0.91785303  1.0
  C  C96  1  0.51192377  0.49523788  0.31956591  1.0
  C  C97  1  0.49644914  0.49939288  0.65994726  1.0
  C  C98  1  0.42448894  0.68303613  0.49437583  1.0
  C  C99  1  0.58540900  0.31513179  0.50452304  1.0
  C  C100  1  0.38878942  0.78585187  0.52131511  1.0
  C  C101  1  0.61586159  0.21441799  0.54001444  1.0
  C  C102  1  0.24923900  0.93542078  0.56333996  1.0
  C  C103  1  0.73755272  0.07315845  0.61578570  1.0
  C  C104  1  0.28119442  0.84554602  0.52609483  1.0
  C  C105  1  0.71756707  0.16011132  0.57202869  1.0
  C  C106  1  0.46198663  0.82204295  0.55214372  1.0
  C  C107  1  0.53838147  0.17466168  0.55345230  1.0
  C  C108  1  0.43053912  0.91063392  0.59709433  1.0
  C  C109  1  0.55477433  0.09151503  0.60639310  1.0
  C  C110  1  0.32228190  0.97026773  0.59697068  1.0
  C  C111  1  0.65855056  0.03608606  0.63170310  1.0
  C  C112  1  0.50493788  0.95102623  0.62457954  1.0
  C  C113  1  0.47448656  0.05210146  0.61949937  1.0
  C  C114  1  0.36489353  0.10912623  0.62950083  1.0
  C  C115  1  0.60799660  0.89789549  0.65709720  1.0
  C  C116  1  0.29183909  0.06780677  0.62263256  1.0
  C  C117  1  0.67961967  0.94100000  0.66447238  1.0
  C  C118  1  0.49032391  0.56590260  0.07922297  1.0
  C  C119  1  0.56199408  0.42406477  0.89580887  1.0
  C  C120  1  0.50224139  0.57084250  0.16946426  1.0
  C  C121  1  0.57113311  0.42700095  0.80419820  1.0
  C  C122  1  0.50831588  0.49024914  0.22122708  1.0
  C  C123  1  0.48999900  0.49686961  0.75881500  1.0
  C  C124  1  0.50205053  0.40754386  0.18434230  1.0
  C  C125  1  0.40158361  0.56094608  0.80332950  1.0
  C  C126  1  0.48407642  0.40619630  0.09355092  1.0
  C  C127  1  0.39287825  0.55472882  0.89593791  1.0
  C  C128  1  0.48039999  0.48571424  0.04037429  1.0
  C  C129  1  0.47527751  0.48684271  0.94242097  1.0
  C  C130  1  0.86659565  0.56801472  0.56082048  1.0
  C  C131  1  0.13587363  0.41641788  0.52175493  1.0
  C  C132  1  0.76716864  0.56495827  0.55344923  1.0
  C  C133  1  0.23731799  0.41617677  0.51745476  1.0
  C  C134  1  0.81742468  0.46088085  0.43515387  1.0
  C  C135  1  0.18062893  0.57883224  0.48126735  1.0
  C  C136  1  0.91842294  0.45840493  0.43790328  1.0
  C  C137  1  0.07767443  0.58593002  0.48377856  1.0
  C  C138  1  0.94465734  0.51076485  0.50202690  1.0
  C  C139  1  0.05410003  0.50444721  0.50379788  1.0
  C  C140  1  0.88423048  0.63091308  0.62984989  1.0
  C  C141  1  0.94157735  0.57558617  0.71075458  1.0
  C  C142  1  0.11920650  0.32457675  0.54551972  1.0
  C  C143  1  0.06389354  0.32670755  0.63497257  1.0
  C  C144  1  0.45803671  0.16859295  0.42225284  1.0
  C  C145  1  0.35289628  0.20330202  0.37896949  1.0
  C  C146  1  0.35677396  0.14764920  0.29498278  1.0
  C  C147  1  0.59290027  0.81062992  0.44799820  1.0
  C  C148  1  0.71046483  0.77443384  0.43544737  1.0
  C  C149  1  0.74245112  0.82765817  0.35980843  1.0
  C  C150  1  0.83284834  0.19609287  0.46848039  1.0
  C  C151  1  0.88147186  0.09868197  0.42440268  1.0
  C  C152  1  0.91519644  0.10862236  0.32904480  1.0
  C  C153  1  0.21574609  0.80827824  0.39447552  1.0
  C  C154  1  0.19524902  0.90350517  0.34626843  1.0
  C  C155  1  0.19839987  0.89273391  0.24635080  1.0
  C  C156  1  0.36006573  0.22708393  0.73464154  1.0
  C  C157  1  0.29623907  0.20278038  0.80809476  1.0
  C  C158  1  0.31949079  0.23213171  0.89791333  1.0
  C  C159  1  0.59452368  0.79491754  0.77411847  1.0
  C  C160  1  0.63403613  0.68903470  0.79860273  1.0
  C  C161  1  0.60021689  0.67237228  0.89217800  1.0
  C  C162  1  0.51169125  0.65879885  0.20892320  1.0
  C  C163  1  0.62515821  0.65216261  0.21224754  1.0
  C  C164  1  0.66751708  0.35949318  0.75720639  1.0
  C  C165  1  0.75602499  0.39841660  0.75235387  1.0
  C  C166  1  0.52053897  0.31977240  0.24256848  1.0
  C  C167  1  0.63729021  0.25813440  0.24701611  1.0
  C  C168  1  0.32144959  0.64079750  0.75219083  1.0
  C  C169  1  0.34661329  0.73257591  0.75014052  1.0
  C  C170  1  0.45927229  0.32402537  0.05749907  1.0
  C  C171  1  0.34955354  0.33037871  0.08801030  1.0
  C  C172  1  0.29333710  0.61587345  0.94364045  1.0
  C  C173  1  0.20714675  0.57479117  0.93577022  1.0
  N  N174  1  0.74376548  0.51247151  0.49323523  1.0
  N  N175  1  0.25881576  0.49479933  0.49706861  1.0
  O  O176  1  0.42319272  0.52095340  0.35898433  1.0
  O  O177  1  0.55902885  0.53381757  0.62246399  1.0
  O  O178  1  0.59962557  0.47403641  0.35567513  1.0
  O  O179  1  0.43823546  0.46497251  0.62057012  1.0
  O  O180  1  0.36395120  0.63906796  0.51669749  1.0
  O  O181  1  0.64421787  0.36053270  0.52279987  1.0
  O  O182  1  0.51361032  0.64460900  0.45700345  1.0
  O  O183  1  0.50014251  0.35212129  0.46408521  1.0
  O  O184  1  0.44626581  0.20920092  0.50907211  1.0
  O  O185  1  0.56654045  0.77734613  0.53231747  1.0
  O  O186  1  0.80174063  0.18736681  0.55892797  1.0
  O  O187  1  0.20554192  0.81968136  0.48907506  1.0
  O  O188  1  0.33127003  0.20499543  0.64939206  1.0
  O  O189  1  0.63504562  0.80444140  0.68686804  1.0
