# generated using pymatgen
data_Zn4H28C63N16O5
_symmetry_space_group_name_H-M   'P 1'
_cell_length_a   18.51592967
_cell_length_b   19.50763209
_cell_length_c   20.52849131
_cell_angle_alpha   105.19732018
_cell_angle_beta   111.09523840
_cell_angle_gamma   108.88813084
_symmetry_Int_Tables_number   1
_chemical_formula_structural   Zn4H28C63N16O5
_chemical_formula_sum   'Zn4 H28 C63 N16 O5'
_cell_volume   5912.71065760
_cell_formula_units_Z   1
loop_
 _symmetry_equiv_pos_site_id
 _symmetry_equiv_pos_as_xyz
  1  'x, y, z'
loop_
 _atom_site_type_symbol
 _atom_site_label
 _atom_site_symmetry_multiplicity
 _atom_site_fract_x
 _atom_site_fract_y
 _atom_site_fract_z
 _atom_site_occupancy
  Zn  Zn0  1  0.89317261  0.90775877  0.50978913  1.0
  Zn  Zn1  1  0.11817547  0.11263257  0.50461497  1.0
  Zn  Zn2  1  0.11653634  0.01952769  0.61767966  1.0
  Zn  Zn3  1  0.89438587  0.99071866  0.39445357  1.0
  H  H4  1  0.87111245  0.89151362  0.65713980  1.0
  H  H5  1  0.11663663  0.61227124  0.68063736  1.0
  H  H6  1  0.84144379  0.49806974  0.51816806  1.0
  H  H7  1  0.12191106  0.25290356  0.62945954  1.0
  H  H8  1  0.45570816  0.52666970  0.12692664  1.0
  H  H9  1  0.91767334  0.84511934  0.88500338  1.0
  H  H10  1  0.18628094  0.04280288  0.13363297  1.0
  H  H11  1  0.18233561  0.03532534  0.01000769  1.0
  H  H12  1  0.22982301  0.18248410  0.78053644  1.0
  H  H13  1  0.67056529  0.95650982  0.32068926  1.0
  H  H14  1  0.28326651  0.29553413  0.63654342  1.0
  H  H15  1  0.17007553  0.00927310  0.39035092  1.0
  H  H16  1  0.73329926  0.92541219  0.53246448  1.0
  H  H17  1  0.84186595  0.11068619  0.48069555  1.0
  H  H18  1  0.13640902  0.08252607  0.77916286  1.0
  H  H19  1  0.71660737  0.73225929  0.36857080  1.0
  H  H20  1  0.75064438  0.36941908  0.47757040  1.0
  H  H21  1  0.35148660  0.39696371  0.06594972  1.0
  H  H22  1  0.37340287  0.50142684  0.82582821  1.0
  H  H23  1  0.50500735  0.67431923  0.95293756  1.0
  H  H24  1  0.84843177  0.78973031  0.94165166  1.0
  H  H25  1  0.14267000  0.86741198  0.67899492  1.0
  H  H26  1  0.89913570  0.93675065  0.23461706  1.0
  H  H27  1  0.15753444  0.13947945  0.36810444  1.0
  H  H28  1  0.88953383  0.74039567  0.47168289  1.0
  H  H29  1  0.79892306  0.84492937  0.23481799  1.0
  H  H30  1  0.17966837  0.89582451  0.54685277  1.0
  H  H31  1  0.10170097  0.48336543  0.68624860  1.0
  C  C32  1  0.93396441  0.93973143  0.67477469  1.0
  C  C33  1  0.95256432  0.78395019  0.52188109  1.0
  C  C34  1  0.79343820  0.82802771  0.27980606  1.0
  C  C35  1  0.05577146  0.20665657  0.58736769  1.0
  C  C36  1  0.17106385  0.93090194  0.51421976  1.0
  C  C37  1  0.72227284  0.76493754  0.27227935  1.0
  C  C38  1  0.19427745  0.93599645  0.45653033  1.0
  C  C39  1  0.01144798  0.77141441  0.57799911  1.0
  C  C40  1  0.03473113  0.02770121  0.27357510  1.0
  C  C41  1  0.58079274  0.91863827  0.41141333  1.0
  C  C42  1  0.50901682  0.90564209  0.40665469  1.0
  C  C43  1  0.97696195  0.21096005  0.56917125  1.0
  C  C44  1  0.43349936  0.89583036  0.40557528  1.0
  C  C45  1  0.36703214  0.89145662  0.40929472  1.0
  C  C46  1  0.30048272  0.89548830  0.41901430  1.0
  C  C47  1  0.23509495  0.19566554  0.73381791  1.0
  C  C48  1  0.24559284  0.90714903  0.43394773  1.0
  C  C49  1  0.05308858  0.55900140  0.64644745  1.0
  C  C50  1  0.98047326  0.56456177  0.59765957  1.0
  C  C51  1  0.89897326  0.49529475  0.55528590  1.0
  C  C52  1  0.88946916  0.42218700  0.55794930  1.0
  C  C53  1  0.96375948  0.41613881  0.60423022  1.0
  C  C54  1  0.27400913  0.27213007  0.73603465  1.0
  C  C55  1  0.04467540  0.48692955  0.64964951  1.0
  C  C56  1  0.99038232  0.63688081  0.59097756  1.0
  C  C57  1  0.96147725  0.34247657  0.60125045  1.0
  C  C58  1  0.96836695  0.28088163  0.59222400  1.0
  C  C59  1  0.70013656  0.95062194  0.37378990  1.0
  C  C60  1  0.00072961  0.69933602  0.58442657  1.0
  C  C61  1  0.38624561  0.46344803  0.00308559  1.0
  C  C62  1  0.37682853  0.46762058  0.93229632  1.0
  C  C63  1  0.42011647  0.54325971  0.93530222  1.0
  C  C64  1  0.47986956  0.61134366  0.00591019  1.0
  C  C65  1  0.66398893  0.93360455  0.42122526  1.0
  C  C66  1  0.49799514  0.60460164  0.07637909  1.0
  C  C67  1  0.44592084  0.53130771  0.07288126  1.0
  C  C68  1  0.33358566  0.40010797  0.86088636  1.0
  C  C69  1  0.57161213  0.66587894  0.14660188  1.0
  C  C70  1  0.64148904  0.71140955  0.20549208  1.0
  C  C71  1  0.26347893  0.25456720  0.66104645  1.0
  C  C72  1  0.30882697  0.34517792  0.79954313  1.0
  C  C73  1  0.97792293  0.89252458  0.00881880  1.0
  C  C74  1  0.05213349  0.95300993  0.08068328  1.0
  C  C75  1  0.12718312  0.99990125  0.07897659  1.0
  C  C76  1  0.75093631  0.76996714  0.34792248  1.0
  C  C77  1  0.12495912  0.99582312  0.00980127  1.0
  C  C78  1  0.04709877  0.94418397  0.93850691  1.0
  C  C79  1  0.97659771  0.88927148  0.93957015  1.0
  C  C80  1  0.04994072  0.97293749  0.15080725  1.0
  C  C81  1  0.03761323  0.95248630  0.86998669  1.0
  C  C82  1  0.02482907  0.96696149  0.81358162  1.0
  C  C83  1  0.73241089  0.93483491  0.48239234  1.0
  C  C84  1  0.04748098  0.00177639  0.21004598  1.0
  C  C85  1  0.91217620  0.13375481  0.51090608  1.0
  C  C86  1  0.06956906  0.03765644  0.73689031  1.0
  C  C87  1  0.16588828  0.98903542  0.43389552  1.0
  C  C88  1  0.01029816  0.98134953  0.74764218  1.0
  C  C89  1  0.80107642  0.35332599  0.50950337  1.0
  C  C90  1  0.33812575  0.38911510  0.00604974  1.0
  C  C91  1  0.89896103  0.83376709  0.00276809  1.0
  C  C92  1  0.08228218  0.84908311  0.62788893  1.0
  C  C93  1  0.95939600  0.99004003  0.27893393  1.0
  C  C94  1  0.09157917  0.09384725  0.34653877  1.0
  N  N95  1  0.94838584  0.96830988  0.62545147  1.0
  N  N96  1  0.20329471  0.13819089  0.66353768  1.0
  N  N97  1  0.78204618  0.96030994  0.40438505  1.0
  N  N98  1  0.22062359  0.17467961  0.61772505  1.0
  N  N99  1  0.80216957  0.95074520  0.47146987  1.0
  N  N100  1  0.95070045  0.08875376  0.49472163  1.0
  N  N101  1  0.03276689  0.02870734  0.66307900  1.0
  N  N102  1  0.83155811  0.83138882  0.39554967  1.0
  N  N103  1  0.13093492  0.01414749  0.47624318  1.0
  N  N104  1  0.06537129  0.90229620  0.60351975  1.0
  N  N105  1  0.97104050  0.02972039  0.34905610  1.0
  N  N106  1  0.05383052  0.09480127  0.39170176  1.0
  N  N107  1  0.98558072  0.86247268  0.53795978  1.0
  N  N108  1  0.85857954  0.86856144  0.35417060  1.0
  N  N109  1  0.13423652  0.97892598  0.52561372  1.0
  N  N110  1  0.03887977  0.13355046  0.54166697  1.0
  O  O111  1  0.78061673  0.28442192  0.50237067  1.0
  O  O112  1  0.28714715  0.32331599  0.95066253  1.0
  O  O113  1  0.41157424  0.55423288  0.87025751  1.0
  O  O114  1  0.52419206  0.68236381  0.00665410  1.0
  O  O115  1  0.88613866  0.82980834  0.05649874  1.0
