# generated using pymatgen
data_Zn2H19C33N2ClO9
_symmetry_space_group_name_H-M   'P 1'
_cell_length_a   9.71462028
_cell_length_b   11.04288261
_cell_length_c   17.70962503
_cell_angle_alpha   90.84979096
_cell_angle_beta   89.53784404
_cell_angle_gamma   89.98898430
_symmetry_Int_Tables_number   1
_chemical_formula_structural   Zn2H19C33N2ClO9
_chemical_formula_sum   'Zn2 H19 C33 N2 Cl1 O9'
_cell_volume   1899.57188172
_cell_formula_units_Z   1
loop_
 _symmetry_equiv_pos_site_id
 _symmetry_equiv_pos_as_xyz
  1  'x, y, z'
loop_
 _atom_site_type_symbol
 _atom_site_label
 _atom_site_symmetry_multiplicity
 _atom_site_fract_x
 _atom_site_fract_y
 _atom_site_fract_z
 _atom_site_occupancy
  Zn  Zn0  1  0.63942707  0.51613941  0.49951608  1.0
  Zn  Zn1  1  0.35553351  0.51485875  0.49927095  1.0
  H  H2  1  0.70541552  0.37631172  0.12278923  1.0
  H  H3  1  0.28462675  0.90186913  0.53100554  1.0
  H  H4  1  0.79708592  0.90702186  0.42654913  1.0
  H  H5  1  0.83776190  0.12117763  0.53680686  1.0
  H  H6  1  0.80724456  0.13474706  0.43773734  1.0
  H  H7  1  0.12944480  0.61711732  0.39977872  1.0
  H  H8  1  0.86917442  0.61922900  0.40031900  1.0
  H  H9  1  0.86556062  0.44581856  0.67092746  1.0
  H  H10  1  0.86244078  0.30733590  0.61725612  1.0
  H  H11  1  0.12779930  0.44058073  0.66989240  1.0
  H  H12  1  0.71000575  0.42175194  0.26150506  1.0
  H  H13  1  0.12435633  0.30342789  0.61559183  1.0
  H  H14  1  0.27465650  0.48671495  0.26113972  1.0
  H  H15  1  0.26799356  0.44294530  0.12232601  1.0
  H  H16  1  0.62739621  0.28009190  0.85297170  1.0
  H  H17  1  0.63214993  0.33507128  0.71744638  1.0
  H  H18  1  0.33984873  0.57013022  0.89803933  1.0
  H  H19  1  0.28406409  0.12714211  0.52998168  1.0
  H  H20  1  0.25428973  0.69118213  0.80560797  1.0
  C  C21  1  0.50061504  0.27957634  0.50686482  1.0
  C  C22  1  0.48673907  0.40873628  0.11302804  1.0
  C  C23  1  0.48513053  0.39724153  0.03323300  1.0
  C  C24  1  0.48493898  0.39995716  0.96431621  1.0
  C  C25  1  0.56604436  0.35592011  0.83338441  1.0
  C  C26  1  0.56925320  0.38741879  0.75744736  1.0
  C  C27  1  0.49223725  0.48482797  0.73097698  1.0
  C  C28  1  0.40882864  0.55095883  0.78263842  1.0
  C  C29  1  0.40385157  0.51789652  0.85841163  1.0
  C  C30  1  0.48406349  0.42184473  0.88563361  1.0
  C  C31  1  0.62308366  0.07766493  0.50469801  1.0
  C  C32  1  0.49364294  0.50876257  0.64754839  1.0
  C  C33  1  0.50233016  0.14505969  0.51229820  1.0
  C  C34  1  0.38057800  0.07777231  0.52276220  1.0
  C  C35  1  0.38053309  0.95133832  0.52275688  1.0
  C  C36  1  0.50191145  0.88383190  0.51039160  1.0
  C  C37  1  0.62242039  0.95129935  0.50271349  1.0
  C  C38  1  0.77413582  0.94458825  0.48289408  1.0
  C  C39  1  0.77631647  0.08719831  0.48923394  1.0
  C  C40  1  0.06822140  0.46547402  0.55132895  1.0
  C  C41  1  0.07020305  0.57315173  0.44414568  1.0
  C  C42  1  0.92652390  0.57424188  0.44448401  1.0
  C  C43  1  0.49847729  0.74925971  0.50305764  1.0
  C  C44  1  0.92475937  0.46686614  0.55172244  1.0
  C  C45  1  0.91327807  0.39558674  0.62362112  1.0
  C  C46  1  0.07720949  0.39322436  0.62285719  1.0
  C  C47  1  0.49671209  0.49056555  0.35193349  1.0
  C  C48  1  0.61119271  0.40039058  0.15326803  1.0
  C  C49  1  0.61392749  0.42607993  0.23029301  1.0
  C  C50  1  0.49310470  0.45936358  0.26928264  1.0
  C  C51  1  0.36831465  0.46302201  0.23005405  1.0
  C  C52  1  0.36461178  0.43823570  0.15300996  1.0
  C  C53  1  0.33208497  0.66150088  0.76206050  1.0
  N  N54  1  0.14424700  0.51713052  0.49826779  1.0
  N  N55  1  0.85056724  0.51939276  0.49891235  1.0
  Cl  Cl56  1  0.88675886  0.86828206  0.54668414  1.0
  O  O57  1  0.61593518  0.33341312  0.51551812  1.0
  O  O58  1  0.38582133  0.32981498  0.49307761  1.0
  O  O59  1  0.60896956  0.53292173  0.61724339  1.0
  O  O60  1  0.37924358  0.49408495  0.61445323  1.0
  O  O61  1  0.61332754  0.69710639  0.48901495  1.0
  O  O62  1  0.38246759  0.69716364  0.51002974  1.0
  O  O63  1  0.61302823  0.48508477  0.38459298  1.0
  O  O64  1  0.38287242  0.51996961  0.38364059  1.0
  O  O65  1  0.35089404  0.72026284  0.70498187  1.0
