# generated using pymatgen
data_Zn4H10C22Cl2O21
_symmetry_space_group_name_H-M   'P 1'
_cell_length_a   15.94556785
_cell_length_b   15.94478558
_cell_length_c   17.02501058
_cell_angle_alpha   117.43032500
_cell_angle_beta   117.86867480
_cell_angle_gamma   90.50849372
_symmetry_Int_Tables_number   1
_chemical_formula_structural   Zn4H10C22Cl2O21
_chemical_formula_sum   'Zn8 H20 C44 Cl4 O42'
_cell_volume   3254.72920487
_cell_formula_units_Z   2
loop_
 _symmetry_equiv_pos_site_id
 _symmetry_equiv_pos_as_xyz
  1  'x, y, z'
loop_
 _atom_site_type_symbol
 _atom_site_label
 _atom_site_symmetry_multiplicity
 _atom_site_fract_x
 _atom_site_fract_y
 _atom_site_fract_z
 _atom_site_occupancy
  Zn  Zn0  1  0.94550079  0.04362672  0.59115203  1.0
  Zn  Zn1  1  0.54746689  0.64561285  0.59114442  1.0
  Zn  Zn2  1  0.95504649  0.05852624  0.41580898  1.0
  Zn  Zn3  1  0.35727080  0.46072667  0.41580360  1.0
  Zn  Zn4  1  0.95978557  0.85632844  0.41090737  1.0
  Zn  Zn5  1  0.55449084  0.45100189  0.41079196  1.0
  Zn  Zn6  1  0.14716180  0.04555613  0.59241066  1.0
  Zn  Zn7  1  0.54686120  0.44526912  0.59244995  1.0
  H  H8  1  0.12396936  0.10552189  0.90506991  1.0
  H  H9  1  0.79967980  0.78098523  0.90515137  1.0
  H  H10  1  0.84532550  0.90049384  0.07704136  1.0
  H  H11  1  0.17644500  0.23173004  0.07703425  1.0
  H  H12  1  0.33161874  0.17475674  0.91074580  1.0
  H  H13  1  0.73602953  0.57905838  0.91081286  1.0
  H  H14  1  0.84378618  0.68154196  0.08131288  1.0
  H  H15  1  0.39965279  0.23750204  0.08126910  1.0
  H  H16  1  0.24570998  0.10395254  0.93563213  1.0
  H  H17  1  0.83175235  0.68980856  0.93574717  1.0
  H  H18  1  0.91982263  0.82543702  0.10817877  1.0
  H  H19  1  0.28260783  0.18831865  0.10807466  1.0
  H  H20  1  0.95839247  0.18872280  0.89371395  1.0
  H  H21  1  0.70508056  0.93524746  0.89374537  1.0
  H  H22  1  0.73367317  0.06059684  0.14347123  1.0
  H  H23  1  0.08289476  0.40969468  0.14351601  1.0
  H  H24  1  0.11755569  0.46690451  0.86542529  1.0
  H  H25  1  0.39866153  0.74789462  0.86556990  1.0
  H  H26  1  0.63400114  0.78864310  0.21061744  1.0
  H  H27  1  0.42177085  0.57663281  0.21048764  1.0
  C  C28  1  0.85337011  0.86699522  0.22552629  1.0
  C  C29  1  0.35840239  0.37211781  0.22544677  1.0
  C  C30  1  0.23628291  0.38162730  0.06260203  1.0
  C  C31  1  0.16153623  0.30724726  0.93830324  1.0
  C  C32  1  0.63116276  0.77674516  0.93841032  1.0
  C  C33  1  0.68105561  0.82630060  0.06270634  1.0
  C  C34  1  0.14095186  0.14689081  0.78201222  1.0
  C  C35  1  0.19881752  0.15261639  0.94730864  1.0
  C  C36  1  0.79478641  0.74840755  0.94739350  1.0
  C  C37  1  0.84332616  0.82635014  0.06377476  1.0
  C  C38  1  0.23728027  0.22042991  0.06369110  1.0
  C  C39  1  0.63520456  0.64107087  0.78207326  1.0
  C  C40  1  0.31511319  0.24501197  0.94281529  1.0
  C  C41  1  0.69784914  0.62764203  0.94286963  1.0
  C  C42  1  0.77051549  0.69082842  0.06471379  1.0
  C  C43  1  0.37375084  0.29415838  0.06464479  1.0
  C  C44  1  0.05118913  0.27467223  0.90774944  1.0
  C  C45  1  0.63316687  0.85650490  0.90779729  1.0
  C  C46  1  0.68204439  0.93643550  0.11368848  1.0
  C  C47  1  0.17714462  0.43156915  0.11360130  1.0
  C  C48  1  0.14635957  0.35644291  0.87338030  1.0
  C  C49  1  0.51706005  0.72702681  0.87350495  1.0
  C  C50  1  0.62132161  0.78099959  0.09192087  1.0
  C  C51  1  0.31075983  0.47058837  0.09179607  1.0
  C  C52  1  0.20275640  0.21645667  0.90100605  1.0
  C  C53  1  0.68462628  0.69821270  0.90108315  1.0
  C  C54  1  0.78424618  0.80366537  0.10644408  1.0
  C  C55  1  0.30265187  0.32217492  0.10635726  1.0
  C  C56  1  0.22209312  0.22152303  0.49765897  1.0
  C  C57  1  0.27615405  0.27556097  0.49771980  1.0
  C  C58  1  0.77199815  0.77059792  0.48857053  1.0
  C  C59  1  0.71791945  0.71644082  0.48847483  1.0
  C  C60  1  0.83839569  0.83691006  0.49227268  1.0
  C  C61  1  0.65527835  0.65367691  0.49209539  1.0
  C  C62  1  0.15848137  0.15695223  0.49822898  1.0
  C  C63  1  0.34128418  0.33977066  0.49829890  1.0
  C  C64  1  0.16167763  0.84162238  0.50313007  1.0
  C  C65  1  0.66164665  0.34156850  0.50329006  1.0
  C  C66  1  0.84343601  0.16099949  0.50653240  1.0
  C  C67  1  0.34547155  0.66304902  0.50639012  1.0
  C  C68  1  0.77954497  0.22477529  0.50673876  1.0
  C  C69  1  0.28191696  0.72715889  0.50657806  1.0
  C  C70  1  0.72591405  0.27822708  0.50493707  1.0
  C  C71  1  0.22667120  0.77899714  0.50474763  1.0
  Cl  Cl72  1  0.35331684  0.30705345  0.89595506  1.0
  Cl  Cl73  1  0.58894272  0.54257894  0.89599442  1.0
  Cl  Cl74  1  0.74535567  0.64336818  0.13055251  1.0
  Cl  Cl75  1  0.48702165  0.38517412  0.13047655  1.0
  O  O76  1  0.00170552  0.00060610  0.50308518  1.0
  O  O77  1  0.31413825  0.41724546  0.27064615  1.0
  O  O78  1  0.63381987  0.55116409  0.73810775  1.0
  O  O79  1  0.91207985  0.82735336  0.26905245  1.0
  O  O80  1  0.44156072  0.35692110  0.26895609  1.0
  O  O81  1  0.18692653  0.10431392  0.73808194  1.0
  O  O82  1  0.98952822  0.31504879  0.87860329  1.0
  O  O83  1  0.02850981  0.19844218  0.91640347  1.0
  O  O84  1  0.56359054  0.88892326  0.87852233  1.0
  O  O85  1  0.71807134  0.88788529  0.91653117  1.0
  O  O86  1  0.62681170  0.96609258  0.14409485  1.0
  O  O87  1  0.04731708  0.12960121  0.73896568  1.0
  O  O88  1  0.74379868  0.99526285  0.11341521  1.0
  O  O89  1  0.17786842  0.51720752  0.14403428  1.0
  O  O90  1  0.11810928  0.36951807  0.11336010  1.0
  O  O91  1  0.60947544  0.69168826  0.73903563  1.0
  O  O92  1  0.85341483  0.95645327  0.27069475  1.0
  O  O93  1  0.14245276  0.31477712  0.79064940  1.0
  O  O94  1  0.12766488  0.44355448  0.91238170  1.0
  O  O95  1  0.47598686  0.64824601  0.79074563  1.0
  O  O96  1  0.46896803  0.78470173  0.91256687  1.0
  O  O97  1  0.54648280  0.71289265  0.03272671  1.0
  O  O98  1  0.66963281  0.82580030  0.19746022  1.0
  O  O99  1  0.31964466  0.48626699  0.03258726  1.0
  O  O100  1  0.37148443  0.52781629  0.19732537  1.0
  O  O101  1  0.50244486  0.50132784  0.50304026  1.0
  O  O102  1  0.85634475  0.79905543  0.41955834  1.0
  O  O103  1  0.62050031  0.56302173  0.41939134  1.0
  O  O104  1  0.20092256  0.13742732  0.56964075  1.0
  O  O105  1  0.43222064  0.36873773  0.56968706  1.0
  O  O106  1  0.06912754  0.79755355  0.44658114  1.0
  O  O107  1  0.64904068  0.37746638  0.44661643  1.0
  O  O108  1  0.20375783  0.93394431  0.55830511  1.0
  O  O109  1  0.62457950  0.35472827  0.55855321  1.0
  O  O110  1  0.88651346  0.15608879  0.45825240  1.0
  O  O111  1  0.30210601  0.57170098  0.45810843  1.0
  O  O112  1  0.84976762  0.11652704  0.55409171  1.0
  O  O113  1  0.43750232  0.70426224  0.55395252  1.0
  O  O114  1  0.87168762  0.92587046  0.56828221  1.0
  O  O115  1  0.64226951  0.69635057  0.56806294  1.0
  O  O116  1  0.06693854  0.12629887  0.42670980  1.0
  O  O117  1  0.30038480  0.35983627  0.42680446  1.0
