# generated using pymatgen
data_Zn8H59C72N7O31
_symmetry_space_group_name_H-M   'P 1'
_cell_length_a   18.09869205
_cell_length_b   18.14459881
_cell_length_c   18.20276153
_cell_angle_alpha   90.22021408
_cell_angle_beta   119.69599971
_cell_angle_gamma   119.74266328
_symmetry_Int_Tables_number   1
_chemical_formula_structural   Zn8H59C72N7O31
_chemical_formula_sum   'Zn8 H59 C72 N7 O31'
_cell_volume   4254.47241493
_cell_formula_units_Z   1
loop_
 _symmetry_equiv_pos_site_id
 _symmetry_equiv_pos_as_xyz
  1  'x, y, z'
loop_
 _atom_site_type_symbol
 _atom_site_label
 _atom_site_symmetry_multiplicity
 _atom_site_fract_x
 _atom_site_fract_y
 _atom_site_fract_z
 _atom_site_occupancy
  Zn  Zn0  1  0.40801126  0.45446449  0.54025446  1.0
  Zn  Zn1  1  0.58680214  0.45649516  0.54405728  1.0
  Zn  Zn2  1  0.58761735  0.63500416  0.54415576  1.0
  Zn  Zn3  1  0.41540425  0.45632844  0.36904539  1.0
  Zn  Zn4  1  0.59232753  0.04947580  0.95751007  1.0
  Zn  Zn5  1  0.40966915  0.86966420  0.95649438  1.0
  Zn  Zn6  1  0.41077756  0.04451612  0.95512171  1.0
  Zn  Zn7  1  0.58873340  0.04311988  0.12851300  1.0
  H  H8  1  0.93597911  0.32927497  0.15698261  1.0
  H  H9  1  0.34747815  0.68875358  0.09008551  1.0
  H  H10  1  0.42866309  0.73951260  0.33903801  1.0
  H  H11  1  0.38672346  0.78861404  0.21522728  1.0
  H  H12  1  0.67045810  0.78073931  0.37542065  1.0
  H  H13  1  0.60692523  0.69721381  0.27392726  1.0
  H  H14  1  0.63171398  0.81137164  0.21178679  1.0
  H  H15  1  0.56410455  0.81863877  0.39511666  1.0
  H  H16  1  0.93104021  0.10754158  0.14797909  1.0
  H  H17  1  0.32895958  0.21471894  0.20945007  1.0
  H  H18  1  0.37571123  0.16357380  0.28635917  1.0
  H  H19  1  0.36152685  0.58282438  0.68890988  1.0
  H  H20  1  0.34414161  0.15603980  0.10745118  1.0
  H  H21  1  0.46207491  0.35258875  0.19699878  1.0
  H  H22  1  0.48681306  0.27816083  0.11563574  1.0
  H  H23  1  0.65704046  0.34044747  0.39754618  1.0
  H  H24  1  0.56899965  0.24977716  0.41103797  1.0
  H  H25  1  0.54219797  0.14356336  0.30937618  1.0
  H  H26  1  0.06533491  0.16912072  0.33919024  1.0
  H  H27  1  0.64990389  0.23365050  0.31693482  1.0
  H  H28  1  0.59677589  0.41130954  0.28292976  1.0
  H  H29  1  0.91552962  0.61792258  0.63013716  1.0
  H  H30  1  0.35564360  0.68492458  0.75927181  1.0
  H  H31  1  0.90376125  0.58296885  0.71612276  1.0
  H  H32  1  0.08105451  0.67708877  0.82360016  1.0
  H  H33  1  0.90614392  0.75014997  0.59371045  1.0
  H  H34  1  0.08558285  0.82449766  0.67947666  1.0
  H  H35  1  0.90243952  0.77687488  0.79286635  1.0
  H  H36  1  0.94010952  0.21617465  0.34640749  1.0
  H  H37  1  0.08981963  0.78653290  0.91501568  1.0
  H  H38  1  0.08187254  0.87365172  0.87726252  1.0
  H  H39  1  0.91371561  0.81935272  0.66906203  1.0
  H  H40  1  0.09516851  0.90436296  0.74561326  1.0
  H  H41  1  0.64093983  0.81543351  0.74106580  1.0
  H  H42  1  0.50593857  0.22259651  0.61816072  1.0
  H  H43  1  0.38191239  0.17627241  0.59642820  1.0
  H  H44  1  0.42024869  0.08813061  0.68280262  1.0
  H  H45  1  0.55506766  0.16299325  0.73418286  1.0
  H  H46  1  0.07000632  0.39094646  0.34809286  1.0
  H  H47  1  0.66998460  0.28558663  0.88514309  1.0
  H  H48  1  0.46630118  0.35335005  0.78006978  1.0
  H  H49  1  0.35736813  0.27444125  0.67370646  1.0
  H  H50  1  0.33841577  0.15048474  0.72324798  1.0
  H  H51  1  0.41324052  0.22914821  0.82996724  1.0
  H  H52  1  0.48139215  0.61403266  0.78479203  1.0
  H  H53  1  0.64612417  0.41868046  0.82172066  1.0
  H  H54  1  0.61186529  0.32998023  0.90672994  1.0
  H  H55  1  0.35807625  0.69159238  0.60169940  1.0
  H  H56  1  0.47210633  0.77538655  0.61061706  1.0
  H  H57  1  0.51926926  0.88343170  0.72507479  1.0
  H  H58  1  0.29050457  0.74302882  0.65777694  1.0
  H  H59  1  0.71978755  0.88524273  0.99677986  1.0
  H  H60  1  0.47863613  0.73058565  0.93905599  1.0
  H  H61  1  0.70774985  0.96908578  0.29478192  1.0
  H  H62  1  0.65629600  0.30433570  0.17164919  1.0
  H  H63  1  0.33676029  0.61407706  0.19338821  1.0
  H  H64  1  0.06075916  0.28179703  0.14959531  1.0
  H  H65  1  0.40879418  0.58314653  0.18059952  1.0
  H  H66  1  0.44810193  0.68408155  0.10440674  1.0
  C  C67  1  0.49480529  0.35281123  0.36052816  1.0
  C  C68  1  0.60941731  0.77122348  0.77379670  1.0
  C  C69  1  0.49358896  0.69618508  0.69940331  1.0
  C  C70  1  0.48911392  0.63840668  0.63322325  1.0
  C  C71  1  0.50537798  0.80160028  0.81024275  1.0
  C  C72  1  0.43479519  0.70081529  0.79710667  1.0
  C  C73  1  0.61895540  0.83115846  0.84608349  1.0
  C  C74  1  0.41029963  0.64124013  0.20043454  1.0
  C  C75  1  0.42210306  0.70041232  0.14117052  1.0
  C  C76  1  0.49204339  0.77004465  0.33002658  1.0
  C  C77  1  0.60373695  0.74676276  0.30480021  1.0
  C  C78  1  0.96373026  0.17123252  0.19334278  1.0
  C  C79  1  0.50138107  0.69802828  0.29853406  1.0
  C  C80  1  0.50148897  0.80112372  0.19794754  1.0
  C  C81  1  0.47068428  0.81874244  0.25932846  1.0
  C  C82  1  0.50280694  0.36521945  0.64359835  1.0
  C  C83  1  0.61099478  0.81847607  0.25798644  1.0
  C  C84  1  0.39037421  0.20356049  0.24400794  1.0
  C  C85  1  0.38897216  0.15223050  0.17395028  1.0
  C  C86  1  0.52364872  0.34402585  0.24186883  1.0
  C  C87  1  0.57999513  0.27626487  0.36059077  1.0
  C  C88  1  0.49763743  0.29420158  0.30320602  1.0
  C  C89  1  0.03520178  0.20398505  0.29823793  1.0
  C  C90  1  0.50236857  0.19760543  0.20132331  1.0
  C  C91  1  0.53678414  0.29144212  0.18830770  1.0
  C  C92  1  0.57283569  0.20965704  0.30009354  1.0
  C  C93  1  0.93860033  0.64242667  0.69813177  1.0
  C  C94  1  0.50582455  0.64104972  0.35994546  1.0
  C  C95  1  0.05922768  0.70076097  0.76571387  1.0
  C  C96  1  0.94003685  0.77746870  0.66492221  1.0
  C  C97  1  0.93592841  0.73942095  0.79555234  1.0
  C  C98  1  0.89705878  0.69849109  0.69782470  1.0
  C  C99  1  0.10019608  0.80055298  0.80073337  1.0
  C  C100  1  0.96790930  0.23132316  0.30343317  1.0
  C  C101  1  0.05974596  0.83235072  0.72052972  1.0
  C  C102  1  0.05709391  0.80435758  0.85483031  1.0
  C  C103  1  0.46523711  0.21277172  0.64999937  1.0
  C  C104  1  0.48532148  0.15961978  0.71497368  1.0
  C  C105  1  0.61430076  0.34907990  0.78898481  1.0
  C  C106  1  0.77839046  0.64125140  0.63827573  1.0
  C  C107  1  0.43124418  0.29021670  0.73156245  1.0
  C  C108  1  0.50240115  0.30516389  0.70198726  1.0
  C  C109  1  0.50032924  0.20019589  0.80009319  1.0
  C  C110  1  0.60585900  0.29349701  0.85350009  1.0
  C  C111  1  0.03753950  0.32723812  0.30296905  1.0
  C  C112  1  0.41396298  0.21386973  0.77210612  1.0
  C  C113  1  0.50040431  0.85874977  0.13683484  1.0
  C  C114  1  0.50155270  0.14022804  0.85835373  1.0
  C  C115  1  0.50537997  0.86225250  0.86942890  1.0
  C  C116  1  0.50242753  0.14151338  0.13871077  1.0
  C  C117  1  0.21863910  0.86110235  0.86399327  1.0
  C  C118  1  0.22038091  0.35806717  0.35576859  1.0
  C  C119  1  0.78117126  0.14126246  0.14151583  1.0
  C  C120  1  0.03344813  0.26711711  0.19292441  1.0
  C  C121  1  0.96612746  0.29450229  0.19805095  1.0
  C  C122  1  0.10568038  0.30009746  0.29742042  1.0
  C  C123  1  0.89570429  0.19868522  0.19900046  1.0
  C  C124  1  0.36267727  0.81063942  0.68133528  1.0
  C  C125  1  0.67260283  0.73622957  0.81207933  1.0
  C  C126  1  0.68779210  0.92508911  0.85674979  1.0
  C  C127  1  0.66790065  0.82150912  0.93994799  1.0
  C  C128  1  0.44509910  0.67614500  0.88025703  1.0
  C  C129  1  0.69975811  0.91423449  0.32413022  1.0
  C  C130  1  0.52035659  0.91258904  0.30547078  1.0
  C  C131  1  0.33919068  0.05663624  0.16322244  1.0
  C  C132  1  0.64608680  0.34119570  0.21125560  1.0
  C  C133  1  0.44196914  0.74335491  0.64945620  1.0
  C  C134  1  0.10809512  0.69192738  0.72530992  1.0
  C  C135  1  0.89798015  0.66844742  0.83156738  1.0
  C  C136  1  0.68664627  0.35404390  0.77104794  1.0
  C  C137  1  0.46131281  0.81492996  0.71629963  1.0
  C  C138  1  0.43954349  0.64088860  0.74167805  1.0
  N  N139  1  0.72427807  0.70916600  0.83713750  1.0
  N  N140  1  0.75038042  0.99721257  0.86612215  1.0
  N  N141  1  0.55739628  0.98501915  0.34676027  1.0
  N  N142  1  0.30013705  0.98005684  0.15340592  1.0
  N  N143  1  0.14588819  0.68458264  0.69181667  1.0
  N  N144  1  0.86725659  0.61048920  0.85886625  1.0
  N  N145  1  0.74575380  0.35631860  0.75987340  1.0
  O  O146  1  0.50057242  0.50318249  0.50056089  1.0
  O  O147  1  0.43330474  0.11580171  0.05506179  1.0
  O  O148  1  0.26390554  0.82269268  0.90019366  1.0
  O  O149  1  0.42844975  0.37133997  0.31856893  1.0
  O  O150  1  0.73518085  0.10148916  0.17876119  1.0
  O  O151  1  0.26223916  0.94500740  0.87685131  1.0
  O  O152  1  0.73734693  0.13510182  0.05886822  1.0
  O  O153  1  0.58425982  0.94318583  0.91208686  1.0
  O  O154  1  0.57185483  0.12649834  0.17496424  1.0
  O  O155  1  0.45024459  0.81903951  0.05330202  1.0
  O  O156  1  0.44662935  0.12336337  0.88855383  1.0
  O  O157  1  0.44459810  0.39218337  0.62507911  1.0
  O  O158  1  0.42293047  0.55408284  0.60536052  1.0
  O  O159  1  0.56117913  0.38278391  0.61713174  1.0
  O  O160  1  0.56313765  0.68295908  0.44397094  1.0
  O  O161  1  0.73255048  0.55732445  0.60590699  1.0
  O  O162  1  0.26732475  0.39209697  0.31818537  1.0
  O  O163  1  0.73590289  0.68310004  0.62621613  1.0
  O  O164  1  0.26258949  0.37016693  0.43970618  1.0
  O  O165  1  0.36131333  0.87702327  0.67782592  1.0
  O  O166  1  0.64884261  0.74993465  0.95096062  1.0
  O  O167  1  0.41282319  0.59953449  0.88140134  1.0
  O  O168  1  0.45311571  0.55663560  0.32261176  1.0
  O  O169  1  0.76154736  0.93108955  0.40351032  1.0
  O  O170  1  0.71899266  0.41557208  0.26664592  1.0
  O  O171  1  0.55929460  0.37983895  0.44490667  1.0
  O  O172  1  0.55190968  0.68137676  0.61153802  1.0
  O  O173  1  0.49913027  0.00056613  0.99733652  1.0
  O  O174  1  0.55114185  0.94261073  0.17456732  1.0
  O  O175  1  0.55834439  0.11218540  0.87325950  1.0
  O  O176  1  0.42304532  0.82583335  0.86688948  1.0
