# generated using pymatgen
data_Gd2Cu3H24(C4O5)6
_symmetry_space_group_name_H-M   'P 1'
_cell_length_a   12.66293087
_cell_length_b   12.66815558
_cell_length_c   16.36743200
_cell_angle_alpha   90.00093255
_cell_angle_beta   90.00079629
_cell_angle_gamma   119.98412444
_symmetry_Int_Tables_number   1
_chemical_formula_structural   Gd2Cu3H24(C4O5)6
_chemical_formula_sum   'Gd4 Cu6 H48 C48 O60'
_cell_volume   2274.19789990
_cell_formula_units_Z   2
loop_
 _symmetry_equiv_pos_site_id
 _symmetry_equiv_pos_as_xyz
  1  'x, y, z'
loop_
 _atom_site_type_symbol
 _atom_site_label
 _atom_site_symmetry_multiplicity
 _atom_site_fract_x
 _atom_site_fract_y
 _atom_site_fract_z
 _atom_site_occupancy
  Gd  Gd0  1  0.33337115  0.66666667  0.24998904  1.0
  Gd  Gd1  1  0.66666667  0.33327579  0.25001465  1.0
  Gd  Gd2  1  0.66666667  0.33327878  0.74997518  1.0
  Gd  Gd3  1  0.33333333  0.66666667  0.75004915  1.0
  Cu  Cu4  1  0.50002661  0.50001743  0.00001791  1.0
  Cu  Cu5  1  0.99999475  0.49997778  0.00001770  1.0
  Cu  Cu6  1  0.49997479  0.99999706  0.99999215  1.0
  Cu  Cu7  1  0.99999367  0.49997890  0.49999289  1.0
  Cu  Cu8  1  0.50000819  0.50002114  0.50001632  1.0
  Cu  Cu9  1  0.49997073  0.99998178  0.50000408  1.0
  H  H10  1  0.85345744  0.19933659  0.85787508  1.0
  H  H11  1  0.76948482  0.06342784  0.79765913  1.0
  H  H12  1  0.34587537  0.14657336  0.85785006  1.0
  H  H13  1  0.29400078  0.23066696  0.79763138  1.0
  H  H14  1  0.80070870  0.65417073  0.85783638  1.0
  H  H15  1  0.93667793  0.70590324  0.79762447  1.0
  H  H16  1  0.14652167  0.80097061  0.85790454  1.0
  H  H17  1  0.23064953  0.93665076  0.79752858  1.0
  H  H18  1  0.65429622  0.85348540  0.85791735  1.0
  H  H19  1  0.70595248  0.76930647  0.79760703  1.0
  H  H20  1  0.19922137  0.34569100  0.85788275  1.0
  H  H21  1  0.06335456  0.29407815  0.79758767  1.0
  H  H22  1  0.65407172  0.80061677  0.64214170  1.0
  H  H23  1  0.70597354  0.93654070  0.70236056  1.0
  H  H24  1  0.19943356  0.85348980  0.64212198  1.0
  H  H25  1  0.06339744  0.76948793  0.70227878  1.0
  H  H26  1  0.14653233  0.34590226  0.64213722  1.0
  H  H27  1  0.23068606  0.29409643  0.70232867  1.0
  H  H28  1  0.34577538  0.19927958  0.64205708  1.0
  H  H29  1  0.29400697  0.06349992  0.70237576  1.0
  H  H30  1  0.80077476  0.14648713  0.64207865  1.0
  H  H31  1  0.93662507  0.23064050  0.70238973  1.0
  H  H32  1  0.85347227  0.65421692  0.64208845  1.0
  H  H33  1  0.76931844  0.70588764  0.70238444  1.0
  H  H34  1  0.14649480  0.80064962  0.14208302  1.0
  H  H35  1  0.23046940  0.93651807  0.20233747  1.0
  H  H36  1  0.65419852  0.85347594  0.14213310  1.0
  H  H37  1  0.70602218  0.76939215  0.20240737  1.0
  H  H38  1  0.19932867  0.34579172  0.14212600  1.0
  H  H39  1  0.06342400  0.29408261  0.20238862  1.0
  H  H40  1  0.85346490  0.19933204  0.14209511  1.0
  H  H41  1  0.76948895  0.06343575  0.20232139  1.0
  H  H42  1  0.34585171  0.14654449  0.14211958  1.0
  H  H43  1  0.29400315  0.23064732  0.20235474  1.0
  H  H44  1  0.80061623  0.65409944  0.14213522  1.0
  H  H45  1  0.93659851  0.70594110  0.20235210  1.0
  H  H46  1  0.34574016  0.19922569  0.35790133  1.0
  H  H47  1  0.29402929  0.06342065  0.29758044  1.0
  H  H48  1  0.80079274  0.14648738  0.35788501  1.0
  H  H49  1  0.93664904  0.23063191  0.29759440  1.0
  H  H50  1  0.85348745  0.65422904  0.35790093  1.0
  H  H51  1  0.76928179  0.70587807  0.29762333  1.0
  H  H52  1  0.65419552  0.80075966  0.35791569  1.0
  H  H53  1  0.70596742  0.93657600  0.29762572  1.0
  H  H54  1  0.19924399  0.85345914  0.35788679  1.0
  H  H55  1  0.06334451  0.76934312  0.29761236  1.0
  H  H56  1  0.14656726  0.34583880  0.35787393  1.0
  H  H57  1  0.23076148  0.29411905  0.29764576  1.0
  C  C58  1  0.11830757  0.65901938  0.36638398  1.0
  C  C59  1  0.85183318  0.22656607  0.68212247  1.0
  C  C60  1  0.54069537  0.88173856  0.36640883  1.0
  C  C61  1  0.37473604  0.14819296  0.68212373  1.0
  C  C62  1  0.34106730  0.45932992  0.36639341  1.0
  C  C63  1  0.77336557  0.62518164  0.68213855  1.0
  C  C64  1  0.88168758  0.34092019  0.36640576  1.0
  C  C65  1  0.14816207  0.77340575  0.68212858  1.0
  C  C66  1  0.45928334  0.11828731  0.36640780  1.0
  C  C67  1  0.62520129  0.85182295  0.68217436  1.0
  C  C68  1  0.65899626  0.54070319  0.36639939  1.0
  C  C69  1  0.22667069  0.37485124  0.68215343  1.0
  C  C70  1  0.45927660  0.34097465  0.13359994  1.0
  C  C71  1  0.62524445  0.77339357  0.81788321  1.0
  C  C72  1  0.65899146  0.11825604  0.13359469  1.0
  C  C73  1  0.22657319  0.85193152  0.81783558  1.0
  C  C74  1  0.88173469  0.54067782  0.13362471  1.0
  C  C75  1  0.14814363  0.37476350  0.81784605  1.0
  C  C76  1  0.54075736  0.65903065  0.13360974  1.0
  C  C77  1  0.37478505  0.22667316  0.81784109  1.0
  C  C78  1  0.34097138  0.88172747  0.13358444  1.0
  C  C79  1  0.77339880  0.14812360  0.81784229  1.0
  C  C80  1  0.11829672  0.45928532  0.13360636  1.0
  C  C81  1  0.85188289  0.62517693  0.81782205  1.0
  C  C82  1  0.88166007  0.34091995  0.63358268  1.0
  C  C83  1  0.14813276  0.77337797  0.31785152  1.0
  C  C84  1  0.45925050  0.11827521  0.63358166  1.0
  C  C85  1  0.62523957  0.85186488  0.31786370  1.0
  C  C86  1  0.65898471  0.54072011  0.63360930  1.0
  C  C87  1  0.22670845  0.37484295  0.31785194  1.0
  C  C88  1  0.11830352  0.65902921  0.63360855  1.0
  C  C89  1  0.85185657  0.22657445  0.31785213  1.0
  C  C90  1  0.54065030  0.88169193  0.63362667  1.0
  C  C91  1  0.37473796  0.14815097  0.31784362  1.0
  C  C92  1  0.34103919  0.45934102  0.63362287  1.0
  C  C93  1  0.77335817  0.62518076  0.31785905  1.0
  C  C94  1  0.54075352  0.65906691  0.86644431  1.0
  C  C95  1  0.37478331  0.22663639  0.18214394  1.0
  C  C96  1  0.34096380  0.88177188  0.86640618  1.0
  C  C97  1  0.77341416  0.14813827  0.18213841  1.0
  C  C98  1  0.11826920  0.45925793  0.86641649  1.0
  C  C99  1  0.85182963  0.62517051  0.18216338  1.0
  C  C100  1  0.45929762  0.34101044  0.86638747  1.0
  C  C101  1  0.62524791  0.77338416  0.18215673  1.0
  C  C102  1  0.65897913  0.11824502  0.86638527  1.0
  C  C103  1  0.22654339  0.85182755  0.18212742  1.0
  C  C104  1  0.88173281  0.54065996  0.86638535  1.0
  C  C105  1  0.14819997  0.37480699  0.18215989  1.0
  O  O106  1  0.17677987  0.60503124  0.35096247  1.0
  O  O107  1  0.03581575  0.62992045  0.42024560  1.0
  O  O108  1  0.42824476  0.82321382  0.35094415  1.0
  O  O109  1  0.59406473  0.96418160  0.42028322  1.0
  O  O110  1  0.39494696  0.57173851  0.35097239  1.0
  O  O111  1  0.37012791  0.40592870  0.42027774  1.0
  O  O112  1  0.82319819  0.39490031  0.35099471  1.0
  O  O113  1  0.96418865  0.37002751  0.42025805  1.0
  O  O114  1  0.57173607  0.17680426  0.35096170  1.0
  O  O115  1  0.40589101  0.03584473  0.42028030  1.0
  O  O116  1  0.60509702  0.42829507  0.35097440  1.0
  O  O117  1  0.62995584  0.59411474  0.42028884  1.0
  O  O118  1  0.57173914  0.39496246  0.14901572  1.0
  O  O119  1  0.40590097  0.37009183  0.07974000  1.0
  O  O120  1  0.60506212  0.17679388  0.14901572  1.0
  O  O121  1  0.62988366  0.03578402  0.07973920  1.0
  O  O122  1  0.82326016  0.42826821  0.14905050  1.0
  O  O123  1  0.96420859  0.59409900  0.07974912  1.0
  O  O124  1  0.42829443  0.60506436  0.14901859  1.0
  O  O125  1  0.59417800  0.62992441  0.07977350  1.0
  O  O126  1  0.39491187  0.82320175  0.14900759  1.0
  O  O127  1  0.37006073  0.96419830  0.07973214  1.0
  O  O128  1  0.17679162  0.57170446  0.14901985  1.0
  O  O129  1  0.03580996  0.40584380  0.07974299  1.0
  O  O130  1  0.82316917  0.39490113  0.64898831  1.0
  O  O131  1  0.96416723  0.37002897  0.57973756  1.0
  O  O132  1  0.57170783  0.17680127  0.64902495  1.0
  O  O133  1  0.40585171  0.03579855  0.57973048  1.0
  O  O134  1  0.60508740  0.42831288  0.64903398  1.0
  O  O135  1  0.62992209  0.59412940  0.57973352  1.0
  O  O136  1  0.17674270  0.60501365  0.64904466  1.0
  O  O137  1  0.03581684  0.62993746  0.57973977  1.0
  O  O138  1  0.42819885  0.82320757  0.64909722  1.0
  O  O139  1  0.59402102  0.96410885  0.57974012  1.0
  O  O140  1  0.39494903  0.57174062  0.64908085  1.0
  O  O141  1  0.37008526  0.40595179  0.57972120  1.0
  O  O142  1  0.42828680  0.60510151  0.85104320  1.0
  O  O143  1  0.59415479  0.62995466  0.92029142  1.0
  O  O144  1  0.39484714  0.82318540  0.85100898  1.0
  O  O145  1  0.37007976  0.96426233  0.92025068  1.0
  O  O146  1  0.17677734  0.57167874  0.85101880  1.0
  O  O147  1  0.03579278  0.40582223  0.92028657  1.0
  O  O148  1  0.57175931  0.39499020  0.85096701  1.0
  O  O149  1  0.40590150  0.37011036  0.92024448  1.0
  O  O150  1  0.60505005  0.17678144  0.85096212  1.0
  O  O151  1  0.62988477  0.03577278  0.92024002  1.0
  O  O152  1  0.82325059  0.42825187  0.85094620  1.0
  O  O153  1  0.96417594  0.59407824  0.92028293  1.0
  O  O154  1  0.77875559  0.22098054  0.74994932  1.0
  O  O155  1  0.44227836  0.22123824  0.74995175  1.0
  O  O156  1  0.77892738  0.55763894  0.74994993  1.0
  O  O157  1  0.22098729  0.77878288  0.75006035  1.0
  O  O158  1  0.55769728  0.77894420  0.75006770  1.0
  O  O159  1  0.22122175  0.44234840  0.75003530  1.0
  O  O160  1  0.22114996  0.77891769  0.24999657  1.0
  O  O161  1  0.55771217  0.77886697  0.25001063  1.0
  O  O162  1  0.22122349  0.44236819  0.25000023  1.0
  O  O163  1  0.77878220  0.22101827  0.25002545  1.0
  O  O164  1  0.44230344  0.22118979  0.25001871  1.0
  O  O165  1  0.77889283  0.55763468  0.25003828  1.0
