# generated using pymatgen
data_Cd2H16C29N2(O3F2)3
_symmetry_space_group_name_H-M   'P 1'
_cell_length_a   7.59683144
_cell_length_b   15.92859724
_cell_length_c   27.89554586
_cell_angle_alpha   100.01597237
_cell_angle_beta   89.99997845
_cell_angle_gamma   89.99982968
_symmetry_Int_Tables_number   1
_chemical_formula_structural   Cd2H16C29N2(O3F2)3
_chemical_formula_sum   'Cd8 H64 C116 N8 O36 F24'
_cell_volume   3324.10688190
_cell_formula_units_Z   4
loop_
 _symmetry_equiv_pos_site_id
 _symmetry_equiv_pos_as_xyz
  1  'x, y, z'
loop_
 _atom_site_type_symbol
 _atom_site_label
 _atom_site_symmetry_multiplicity
 _atom_site_fract_x
 _atom_site_fract_y
 _atom_site_fract_z
 _atom_site_occupancy
  Cd  Cd0  1  0.47805019  0.78390405  0.91881335  1.0
  Cd  Cd1  1  0.95413266  0.84919393  0.95264899  1.0
  Cd  Cd2  1  0.97804617  0.21609469  0.58118638  1.0
  Cd  Cd3  1  0.45413192  0.15080549  0.54735117  1.0
  Cd  Cd4  1  0.52194846  0.21609546  0.08118651  1.0
  Cd  Cd5  1  0.04586994  0.15080622  0.04735094  1.0
  Cd  Cd6  1  0.02194721  0.78390418  0.41881235  1.0
  Cd  Cd7  1  0.54586541  0.84919466  0.45264733  1.0
  H  H8  1  0.28338092  0.79916063  0.76859819  1.0
  H  H9  1  0.78416475  0.80262374  0.69475142  1.0
  H  H10  1  0.63487492  0.77268776  0.76851594  1.0
  H  H11  1  0.96582286  0.96364071  0.71446362  1.0
  H  H12  1  0.79312214  0.05808219  0.67131052  1.0
  H  H13  1  0.06475175  0.79829600  0.57718952  1.0
  H  H14  1  0.33166629  0.71711302  0.00887384  1.0
  H  H15  1  0.21993588  0.58855008  0.03732703  1.0
  H  H16  1  0.34649905  0.44575626  0.89468374  1.0
  H  H17  1  0.45049989  0.58235957  0.87249076  1.0
  H  H18  1  0.22008233  0.47732819  0.06242946  1.0
  H  H19  1  0.11175203  0.34535230  0.08740680  1.0
  H  H20  1  0.07680834  0.22052447  0.94470772  1.0
  H  H21  1  0.17594797  0.34864598  0.91267974  1.0
  H  H22  1  0.05864252  0.94162170  0.04914283  1.0
  H  H23  1  0.21793406  0.91024786  0.01417786  1.0
  H  H24  1  0.78338075  0.20083840  0.73140194  1.0
  H  H25  1  0.28416206  0.19737976  0.80524987  1.0
  H  H26  1  0.13487609  0.22731723  0.73148516  1.0
  H  H27  1  0.46582515  0.03636252  0.78553798  1.0
  H  H28  1  0.29313582  0.94191747  0.82869112  1.0
  H  H29  1  0.56474605  0.20170527  0.92281265  1.0
  H  H30  1  0.83167184  0.28288808  0.49112729  1.0
  H  H31  1  0.71993803  0.41144863  0.46267281  1.0
  H  H32  1  0.84650210  0.55424459  0.60531621  1.0
  H  H33  1  0.95050113  0.41764049  0.62751054  1.0
  H  H34  1  0.72008250  0.52267498  0.43757010  1.0
  H  H35  1  0.61175141  0.65464976  0.41259194  1.0
  H  H36  1  0.57680478  0.77947615  0.55529188  1.0
  H  H37  1  0.67594649  0.65135449  0.58731947  1.0
  H  H38  1  0.55864295  0.05837853  0.45085681  1.0
  H  H39  1  0.71793556  0.08975150  0.48582204  1.0
  H  H40  1  0.71660983  0.20084334  0.23140247  1.0
  H  H41  1  0.21582995  0.19737514  0.30524982  1.0
  H  H42  1  0.36512505  0.22730601  0.23148372  1.0
  H  H43  1  0.03416789  0.03636327  0.28553668  1.0
  H  H44  1  0.20687387  0.94192114  0.32868758  1.0
  H  H45  1  0.93524822  0.20170351  0.42281142  1.0
  H  H46  1  0.66832051  0.28288777  0.99112579  1.0
  H  H47  1  0.78005619  0.41144879  0.96267278  1.0
  H  H48  1  0.65349828  0.55424325  0.10531577  1.0
  H  H49  1  0.54950007  0.41763931  0.12751012  1.0
  H  H50  1  0.77990448  0.52267196  0.93756940  1.0
  H  H51  1  0.88823740  0.65464657  0.91259157  1.0
  H  H52  1  0.92319821  0.77947313  0.05529125  1.0
  H  H53  1  0.82405726  0.65135099  0.08731916  1.0
  H  H54  1  0.94136271  0.05837526  0.95085678  1.0
  H  H55  1  0.78206854  0.08974783  0.98582092  1.0
  H  H56  1  0.21661921  0.79916238  0.26859697  1.0
  H  H57  1  0.71583791  0.80262103  0.19475048  1.0
  H  H58  1  0.86512388  0.77268356  0.26851519  1.0
  H  H59  1  0.53418929  0.96363700  0.21446224  1.0
  H  H60  1  0.70688521  0.05808269  0.17130989  1.0
  H  H61  1  0.43525786  0.79829743  0.07718825  1.0
  H  H62  1  0.16832023  0.71711143  0.50887294  1.0
  H  H63  1  0.28005667  0.58855280  0.53732868  1.0
  H  H64  1  0.15348602  0.44575366  0.39468640  1.0
  H  H65  1  0.04948830  0.58235647  0.37249087  1.0
  H  H66  1  0.27991352  0.47732517  0.56243127  1.0
  H  H67  1  0.38824987  0.34534976  0.58740865  1.0
  H  H68  1  0.42319650  0.22052401  0.44470841  1.0
  H  H69  1  0.32405347  0.34864630  0.41268160  1.0
  H  H70  1  0.44136623  0.94162480  0.54914164  1.0
  H  H71  1  0.28206704  0.91025120  0.51417886  1.0
  C  C72  1  0.76447763  0.75546448  0.85290458  1.0
  C  C73  1  0.87241077  0.77183360  0.81025124  1.0
  C  C74  1  0.05625732  0.77987134  0.80961011  1.0
  C  C75  1  0.14057798  0.79546092  0.76732571  1.0
  C  C76  1  0.04620705  0.80454761  0.72571044  1.0
  C  C77  1  0.86229864  0.79610857  0.72662077  1.0
  C  C78  1  0.77749357  0.77957536  0.76816999  1.0
  C  C79  1  0.16861995  0.77097526  0.85266477  1.0
  C  C80  1  0.13713575  0.81638074  0.67793081  1.0
  C  C81  1  0.32050547  0.86108318  0.68654545  1.0
  C  C82  1  0.16632981  0.72460469  0.64873459  1.0
  C  C83  1  0.02679354  0.87228267  0.64956910  1.0
  C  C84  1  0.94994000  0.94701242  0.67516860  1.0
  C  C85  1  0.85117417  0.00017491  0.65093391  1.0
  C  C86  1  0.82654113  0.98005328  0.60048693  1.0
  C  C87  1  0.90511625  0.90631901  0.57451062  1.0
  C  C88  1  0.00542946  0.85385310  0.59926226  1.0
  C  C89  1  0.72039589  0.03928796  0.57558381  1.0
  C  C90  1  0.87867376  0.87972062  0.52066903  1.0
  C  C91  1  0.33162503  0.65541241  0.98490901  1.0
  C  C92  1  0.27112700  0.58254977  0.00048824  1.0
  C  C93  1  0.27328014  0.50405000  0.96860804  1.0
  C  C94  1  0.33844549  0.50415649  0.92144423  1.0
  C  C95  1  0.39717501  0.58004176  0.90857232  1.0
  C  C96  1  0.20971308  0.42570298  0.98478868  1.0
  C  C97  1  0.18833375  0.42288768  0.03446160  1.0
  C  C98  1  0.12965556  0.34877076  0.04908791  1.0
  C  C99  1  0.11098423  0.27913409  0.96936229  1.0
  C  C100  1  0.16703238  0.35127906  0.95187536  1.0
  C  C101  1  0.26446959  0.24453650  0.64709718  1.0
  C  C102  1  0.37241199  0.22816403  0.68974839  1.0
  C  C103  1  0.55626103  0.22012421  0.69039007  1.0
  C  C104  1  0.64057515  0.20453770  0.73267619  1.0
  C  C105  1  0.54620686  0.19545497  0.77429150  1.0
  C  C106  1  0.36229595  0.20389673  0.77338141  1.0
  C  C107  1  0.27749741  0.22042305  0.73183008  1.0
  C  C108  1  0.66862498  0.22902267  0.64733562  1.0
  C  C109  1  0.63713425  0.18361979  0.82207164  1.0
  C  C110  1  0.82050163  0.13891516  0.81345605  1.0
  C  C111  1  0.66633822  0.27539643  0.85126649  1.0
  C  C112  1  0.52679366  0.12771866  0.85043273  1.0
  C  C113  1  0.44993950  0.05299019  0.82483295  1.0
  C  C114  1  0.35118220  0.99982530  0.84906669  1.0
  C  C115  1  0.32654469  0.01994696  0.89951403  1.0
  C  C116  1  0.40511536  0.09368112  0.92548997  1.0
  C  C117  1  0.50542677  0.14614890  0.90073892  1.0
  C  C118  1  0.22039616  0.96071244  0.92441647  1.0
  C  C119  1  0.37867264  0.12027891  0.97933150  1.0
  C  C120  1  0.83162819  0.34458910  0.51509137  1.0
  C  C121  1  0.77113170  0.41745205  0.49951117  1.0
  C  C122  1  0.77328365  0.49595223  0.53139134  1.0
  C  C123  1  0.83845026  0.49584437  0.57855536  1.0
  C  C124  1  0.89717497  0.41996030  0.59142918  1.0
  C  C125  1  0.70971612  0.57429807  0.51521131  1.0
  C  C126  1  0.68833750  0.57711553  0.46553725  1.0
  C  C127  1  0.62966018  0.65123126  0.45091046  1.0
  C  C128  1  0.61098370  0.72086775  0.53063779  1.0
  C  C129  1  0.66703097  0.64872205  0.54812356  1.0
  C  C130  1  0.23551838  0.24452993  0.14709658  1.0
  C  C131  1  0.12758788  0.22816336  0.18974874  1.0
  C  C132  1  0.94373343  0.22012498  0.19038945  1.0
  C  C133  1  0.85941540  0.20454115  0.23267477  1.0
  C  C134  1  0.95378106  0.19545382  0.27429033  1.0
  C  C135  1  0.13769475  0.20389286  0.27338072  1.0
  C  C136  1  0.22249850  0.22042161  0.23183106  1.0
  C  C137  1  0.83137080  0.22902362  0.14733503  1.0
  C  C138  1  0.86286158  0.18362133  0.32207074  1.0
  C  C139  1  0.67949186  0.13891952  0.31345509  1.0
  C  C140  1  0.83366358  0.27539802  0.35126667  1.0
  C  C141  1  0.97320116  0.12772067  0.35043222  1.0
  C  C142  1  0.05005206  0.05299155  0.32483135  1.0
  C  C143  1  0.14882316  0.99982906  0.34906424  1.0
  C  C144  1  0.17345883  0.01994941  0.39951109  1.0
  C  C145  1  0.09488767  0.09368241  0.42548908  1.0
  C  C146  1  0.99456656  0.14614833  0.40073852  1.0
  C  C147  1  0.27960802  0.96071473  0.42441315  1.0
  C  C148  1  0.12132620  0.12027953  0.47933054  1.0
  C  C149  1  0.66836967  0.34458838  0.01509063  1.0
  C  C150  1  0.72886638  0.41744974  0.99951091  1.0
  C  C151  1  0.72671720  0.49594824  0.03139063  1.0
  C  C152  1  0.66155184  0.49584238  0.07855521  1.0
  C  C153  1  0.60282232  0.41995903  0.09142803  1.0
  C  C154  1  0.79027899  0.57429398  0.01521022  1.0
  C  C155  1  0.81165568  0.57711246  0.96553654  1.0
  C  C156  1  0.87033519  0.65123002  0.95091100  1.0
  C  C157  1  0.88901837  0.72086415  0.03063674  1.0
  C  C158  1  0.83297022  0.64871853  0.04812324  1.0
  C  C159  1  0.73552379  0.75546621  0.35290372  1.0
  C  C160  1  0.62758666  0.77183357  0.31025129  1.0
  C  C161  1  0.44374157  0.77987084  0.30960864  1.0
  C  C162  1  0.35942218  0.79546245  0.26732374  1.0
  C  C163  1  0.45379705  0.80454582  0.22570849  1.0
  C  C164  1  0.63770533  0.79610661  0.22661955  1.0
  C  C165  1  0.72250519  0.77957264  0.26817012  1.0
  C  C166  1  0.33137762  0.77097365  0.35266321  1.0
  C  C167  1  0.36287888  0.81638100  0.17792835  1.0
  C  C168  1  0.17950623  0.86107989  0.18654338  1.0
  C  C169  1  0.33368675  0.72460435  0.14873315  1.0
  C  C170  1  0.47321288  0.87228277  0.14956769  1.0
  C  C171  1  0.55007362  0.94700996  0.17516770  1.0
  C  C172  1  0.64883488  0.00017421  0.15093390  1.0
  C  C173  1  0.67346844  0.98005255  0.10048655  1.0
  C  C174  1  0.59488987  0.90632031  0.07451044  1.0
  C  C175  1  0.49457846  0.85385380  0.09926126  1.0
  C  C176  1  0.77960775  0.03928707  0.07558268  1.0
  C  C177  1  0.62133259  0.87972252  0.02066819  1.0
  C  C178  1  0.16836651  0.65541105  0.48490928  1.0
  C  C179  1  0.22886431  0.58254810  0.50049019  1.0
  C  C180  1  0.22671500  0.50404856  0.46861009  1.0
  C  C181  1  0.16154049  0.50415451  0.42144660  1.0
  C  C182  1  0.10281578  0.58003922  0.40857284  1.0
  C  C183  1  0.29028121  0.42570336  0.48479018  1.0
  C  C184  1  0.31166510  0.42288526  0.53446418  1.0
  C  C185  1  0.37034505  0.34876889  0.54908983  1.0
  C  C186  1  0.38901890  0.27913304  0.46936292  1.0
  C  C187  1  0.33297163  0.35127938  0.45187757  1.0
  N  N188  1  0.39454208  0.65446803  0.93979241  1.0
  N  N189  1  0.09332882  0.27746773  0.01716541  1.0
  N  N190  1  0.89454386  0.34553403  0.56020837  1.0
  N  N191  1  0.59333295  0.72253372  0.48283363  1.0
  N  N192  1  0.60545130  0.34553403  0.06020771  1.0
  N  N193  1  0.90666851  0.72253114  0.98283260  1.0
  N  N194  1  0.10544557  0.65446549  0.43979257  1.0
  N  N195  1  0.40667360  0.27746579  0.51716695  1.0
  O  O196  1  0.74059772  0.81989280  0.88827193  1.0
  O  O197  1  0.68742731  0.68562562  0.85042430  1.0
  O  O198  1  0.09722180  0.75147067  0.89050877  1.0
  O  O199  1  0.33326092  0.78418311  0.84846027  1.0
  O  O200  1  0.79963535  0.09456214  0.55597684  1.0
  O  O201  1  0.55231267  0.03492789  0.57812481  1.0
  O  O202  1  0.76657165  0.92054635  0.49987493  1.0
  O  O203  1  0.96785721  0.81578680  0.50008385  1.0
  O  O204  1  0.11228348  0.89045043  0.02902663  1.0
  O  O205  1  0.24059671  0.18011139  0.61172764  1.0
  O  O206  1  0.18743857  0.31437738  0.64957588  1.0
  O  O207  1  0.59722807  0.24852737  0.60949057  1.0
  O  O208  1  0.83326340  0.21581586  0.65154236  1.0
  O  O209  1  0.29962672  0.90543624  0.94402323  1.0
  O  O210  1  0.05231423  0.96507339  0.92187343  1.0
  O  O211  1  0.26657142  0.07945102  0.00012549  1.0
  O  O212  1  0.46784776  0.18421260  0.99991845  1.0
  O  O213  1  0.61228225  0.10954972  0.47097371  1.0
  O  O214  1  0.25940356  0.18010416  0.11172948  1.0
  O  O215  1  0.31256081  0.31437262  0.14957580  1.0
  O  O216  1  0.90277290  0.24852693  0.10949091  1.0
  O  O217  1  0.66666667  0.21581578  0.15154168  1.0
  O  O218  1  0.20037910  0.90543736  0.44401944  1.0
  O  O219  1  0.44769125  0.96507288  0.42187232  1.0
  O  O220  1  0.23342832  0.07945252  0.50012380  1.0
  O  O221  1  0.03214144  0.18421399  0.49991614  1.0
  O  O222  1  0.88772043  0.10954653  0.97097298  1.0
  O  O223  1  0.75939668  0.81989321  0.38826986  1.0
  O  O224  1  0.81256797  0.68562404  0.35042454  1.0
  O  O225  1  0.40277321  0.75146959  0.39050797  1.0
  O  O226  1  0.16673525  0.78418174  0.34845840  1.0
  O  O227  1  0.70037193  0.09456455  0.05597748  1.0
  O  O228  1  0.94769100  0.03492802  0.07812304  1.0
  O  O229  1  0.73343118  0.92055040  0.99987385  1.0
  O  O230  1  0.53215747  0.81578628  0.00008315  1.0
  O  O231  1  0.38772562  0.89045425  0.52902445  1.0
  F  F232  1  0.23830207  0.67128419  0.67636786  1.0
  F  F233  1  0.00984758  0.68883164  0.63158844  1.0
  F  F234  1  0.27499883  0.72156893  0.60919359  1.0
  F  F235  1  0.38333688  0.88568641  0.64568568  1.0
  F  F236  1  0.30927291  0.93223046  0.72141513  1.0
  F  F237  1  0.44738221  0.80990626  0.70131425  1.0
  F  F238  1  0.73830360  0.32871810  0.82363260  1.0
  F  F239  1  0.50986102  0.31117291  0.86841657  1.0
  F  F240  1  0.77501639  0.27842948  0.89080541  1.0
  F  F241  1  0.88332261  0.11430993  0.85431669  1.0
  F  F242  1  0.80926298  0.06776791  0.77858852  1.0
  F  F243  1  0.94738464  0.19008871  0.79868798  1.0
  F  F244  1  0.76169395  0.32872171  0.32363443  1.0
  F  F245  1  0.99014580  0.31117171  0.36841575  1.0
  F  F246  1  0.72498534  0.27842931  0.39080580  1.0
  F  F247  1  0.61666308  0.11431310  0.35431347  1.0
  F  F248  1  0.69072705  0.06777288  0.27858583  1.0
  F  F249  1  0.55260986  0.19009454  0.29868790  1.0
  F  F250  1  0.26171742  0.67128140  0.17636583  1.0
  F  F251  1  0.49017054  0.68883299  0.13158787  1.0
  F  F252  1  0.22501780  0.72156748  0.10919205  1.0
  F  F253  1  0.11667472  0.88568384  0.14568333  1.0
  F  F254  1  0.19073567  0.93222905  0.22141074  1.0
  F  F255  1  0.05262980  0.80990315  0.20131077  1.0
