# generated using pymatgen
data_CdCuH22C26N4(ClO)2
_symmetry_space_group_name_H-M   'P 1'
_cell_length_a   7.14002237
_cell_length_b   14.42120561
_cell_length_c   15.51939416
_cell_angle_alpha   62.38522213
_cell_angle_beta   81.72572313
_cell_angle_gamma   89.97477568
_symmetry_Int_Tables_number   1
_chemical_formula_structural   CdCuH22C26N4(ClO)2
_chemical_formula_sum   'Cd2 Cu2 H44 C52 N8 Cl4 O4'
_cell_volume   1397.21300233
_cell_formula_units_Z   2
loop_
 _symmetry_equiv_pos_site_id
 _symmetry_equiv_pos_as_xyz
  1  'x, y, z'
loop_
 _atom_site_type_symbol
 _atom_site_label
 _atom_site_symmetry_multiplicity
 _atom_site_fract_x
 _atom_site_fract_y
 _atom_site_fract_z
 _atom_site_occupancy
  Cd  Cd0  1  0.75008827  0.05952023  0.99963960  1.0
  Cd  Cd1  1  0.24990352  0.94047841  0.00036317  1.0
  Cu  Cu2  1  0.50000387  0.49999895  0.50000046  1.0
  Cu  Cu3  1  0.99999697  0.99999786  0.49999968  1.0
  H  H4  1  0.53322461  0.31361949  0.33396566  1.0
  H  H5  1  0.96680346  0.64811991  0.66579804  1.0
  H  H6  1  0.46677872  0.68638073  0.66603504  1.0
  H  H7  1  0.03319694  0.35187952  0.33420190  1.0
  H  H8  1  0.46274183  0.12138447  0.39973251  1.0
  H  H9  1  0.03735478  0.52150677  0.60000883  1.0
  H  H10  1  0.53726150  0.87861575  0.60026754  1.0
  H  H11  1  0.96264421  0.47849267  0.39999055  1.0
  H  H12  1  0.35072586  0.00690544  0.57878666  1.0
  H  H13  1  0.14944062  0.58565293  0.42092616  1.0
  H  H14  1  0.64927626  0.99309634  0.42121345  1.0
  H  H15  1  0.85055523  0.41434414  0.57907316  1.0
  H  H16  1  0.30461792  0.08680083  0.69176827  1.0
  H  H17  1  0.19501238  0.77828482  0.30797134  1.0
  H  H18  1  0.69538279  0.91320095  0.30823064  1.0
  H  H19  1  0.80498357  0.22171303  0.69202763  1.0
  H  H20  1  0.30340675  0.22438222  0.72224625  1.0
  H  H21  1  0.19588846  0.94617634  0.27750078  1.0
  H  H22  1  0.69659255  0.77561957  0.27775339  1.0
  H  H23  1  0.80411053  0.05382309  0.72249861  1.0
  H  H24  1  0.23384112  0.34023324  0.76995742  1.0
  H  H25  1  0.26599535  0.10957566  0.22993526  1.0
  H  H26  1  0.76616090  0.65976777  0.23004238  1.0
  H  H27  1  0.73400233  0.89042455  0.77006452  1.0
  H  H28  1  0.32594949  0.47488334  0.69803216  1.0
  H  H29  1  0.17363018  0.17246131  0.30187036  1.0
  H  H30  1  0.67405252  0.52511766  0.30196829  1.0
  H  H31  1  0.82637000  0.82753655  0.69813220  1.0
  H  H32  1  0.66944538  0.52274948  0.69081406  1.0
  H  H33  1  0.83069736  0.21341919  0.30894793  1.0
  H  H34  1  0.33056070  0.47724996  0.30918293  1.0
  H  H35  1  0.16930356  0.78658417  0.69105093  1.0
  H  H36  1  0.94891296  0.47110478  0.78261398  1.0
  H  H37  1  0.55117949  0.25373865  0.21716484  1.0
  H  H38  1  0.05109312  0.52889465  0.21738301  1.0
  H  H39  1  0.44882122  0.74626313  0.78283471  1.0
  H  H40  1  0.95374430  0.28391618  0.91082570  1.0
  H  H41  1  0.54617432  0.19465481  0.08880704  1.0
  H  H42  1  0.04625915  0.71608482  0.08917208  1.0
  H  H43  1  0.45382303  0.80534305  0.91119506  1.0
  H  H44  1  0.42919752  0.20417293  0.86993545  1.0
  H  H45  1  0.07035145  0.07341375  0.12976130  1.0
  H  H46  1  0.57080460  0.79582885  0.13006530  1.0
  H  H47  1  0.92964611  0.92658569  0.87024075  1.0
  C  C48  1  0.45718337  0.31087004  0.47458643  1.0
  C  C49  1  0.04278991  0.78562781  0.52522984  1.0
  C  C50  1  0.54282137  0.68913019  0.52541417  1.0
  C  C51  1  0.95720626  0.21437161  0.47476780  1.0
  C  C52  1  0.48280999  0.26282120  0.41220599  1.0
  C  C53  1  0.01719546  0.67536264  0.58756619  1.0
  C  C54  1  0.51719487  0.73717981  0.58779298  1.0
  C  C55  1  0.98280080  0.32463757  0.41243368  1.0
  C  C56  1  0.44489550  0.15590916  0.44948614  1.0
  C  C57  1  0.05514833  0.60565676  0.55025865  1.0
  C  C58  1  0.55510783  0.84409105  0.55051456  1.0
  C  C59  1  0.94484894  0.39434031  0.44974058  1.0
  C  C60  1  0.38135008  0.09078292  0.55061502  1.0
  C  C61  1  0.11865281  0.64141359  0.44912148  1.0
  C  C62  1  0.61865052  0.90921807  0.44938552  1.0
  C  C63  1  0.88134194  0.35858584  0.55087818  1.0
  C  C64  1  0.35489642  0.13531538  0.61300654  1.0
  C  C65  1  0.14486835  0.74818804  0.38674134  1.0
  C  C66  1  0.64510559  0.86468562  0.38699391  1.0
  C  C67  1  0.85512446  0.25180745  0.61325886  1.0
  C  C68  1  0.39197184  0.24445570  0.57723390  1.0
  C  C69  1  0.10774265  0.82161340  0.42255531  1.0
  C  C70  1  0.60802877  0.75554530  0.42276599  1.0
  C  C71  1  0.89225079  0.17838681  0.57744281  1.0
  C  C72  1  0.36151924  0.28377341  0.64667271  1.0
  C  C73  1  0.13801127  0.93018038  0.35310753  1.0
  C  C74  1  0.63848006  0.71622837  0.35332693  1.0
  C  C75  1  0.86198479  0.06981827  0.64689109  1.0
  C  C76  1  0.35723130  0.39323731  0.72066054  1.0
  C  C77  1  0.14245136  0.11343275  0.27919105  1.0
  C  C78  1  0.64276799  0.60676448  0.27933910  1.0
  C  C79  1  0.85754610  0.88656589  0.72081071  1.0
  C  C80  1  0.52654085  0.36815223  0.77392865  1.0
  C  C81  1  0.97326520  0.14162541  0.22585268  1.0
  C  C82  1  0.47346280  0.63185034  0.22607037  1.0
  C  C83  1  0.02673389  0.85837481  0.77414700  1.0
  C  C84  1  0.67561456  0.44340079  0.74965260  1.0
  C  C85  1  0.82436651  0.19281738  0.25011512  1.0
  C  C86  1  0.32439030  0.55660021  0.25034573  1.0
  C  C87  1  0.17563127  0.80718361  0.74988561  1.0
  C  C88  1  0.83048019  0.41452558  0.79955912  1.0
  C  C89  1  0.66953049  0.21396782  0.20018931  1.0
  C  C90  1  0.16952599  0.58547465  0.20043881  1.0
  C  C91  1  0.33046991  0.78603160  0.79981063  1.0
  C  C92  1  0.83416134  0.31103811  0.87112212  1.0
  C  C93  1  0.66571857  0.18198450  0.12857290  1.0
  C  C94  1  0.16584058  0.68896212  0.12887673  1.0
  C  C95  1  0.33428040  0.81801493  0.87142907  1.0
  C  C96  1  0.54163522  0.26603074  0.84763121  1.0
  C  C97  1  0.95807775  0.11313338  0.15210659  1.0
  C  C98  1  0.45836560  0.73397183  0.15236864  1.0
  C  C99  1  0.04191971  0.88686526  0.84789581  1.0
  N  N100  1  0.39529405  0.37969985  0.63104441  1.0
  N  N101  1  0.10437656  0.01051185  0.36880791  1.0
  N  N102  1  0.60470646  0.62030037  0.36895518  1.0
  N  N103  1  0.89561949  0.98948679  0.63119265  1.0
  N  N104  1  0.69246518  0.23802018  0.89438688  1.0
  N  N105  1  0.80729403  0.13205403  0.10529914  1.0
  N  N106  1  0.30753825  0.76198082  0.10561347  1.0
  N  N107  1  0.19270484  0.86794460  0.89470253  1.0
  Cl  Cl108  1  0.90331290  0.88835964  0.11046317  1.0
  Cl  Cl109  1  0.59622406  0.99917605  0.88925810  1.0
  Cl  Cl110  1  0.09668629  0.11164136  0.88953746  1.0
  Cl  Cl111  1  0.40377209  0.00082337  0.11074212  1.0
  O  O112  1  0.49110752  0.41243620  0.43580666  1.0
  O  O113  1  0.00907890  0.84847351  0.56408488  1.0
  O  O114  1  0.50890005  0.58756401  0.56419312  1.0
  O  O115  1  0.99091988  0.15152435  0.43591519  1.0
