# generated using pymatgen
data_Zn4H8C24S4Br4N4O13
_symmetry_space_group_name_H-M   'P 1'
_cell_length_a   19.72166110
_cell_length_b   19.83067012
_cell_length_c   33.53133375
_cell_angle_alpha   78.26483677
_cell_angle_beta   78.57904185
_cell_angle_gamma   63.59068282
_symmetry_Int_Tables_number   1
_chemical_formula_structural   Zn4H8C24S4Br4N4O13
_chemical_formula_sum   'Zn16 H32 C96 S16 Br16 N16 O52'
_cell_volume   11413.00159790
_cell_formula_units_Z   4
loop_
 _symmetry_equiv_pos_site_id
 _symmetry_equiv_pos_as_xyz
  1  'x, y, z'
loop_
 _atom_site_type_symbol
 _atom_site_label
 _atom_site_symmetry_multiplicity
 _atom_site_fract_x
 _atom_site_fract_y
 _atom_site_fract_z
 _atom_site_occupancy
  Zn  Zn0  1  0.05534738  0.40141534  0.47835338  1.0
  Zn  Zn1  1  0.98595012  0.48370174  0.55965735  1.0
  Zn  Zn2  1  0.05777799  0.56220182  0.48380091  1.0
  Zn  Zn3  1  0.90147843  0.55259078  0.47880567  1.0
  Zn  Zn4  1  0.69418371  0.34849776  0.27182755  1.0
  Zn  Zn5  1  0.69120905  0.18898573  0.26626499  1.0
  Zn  Zn6  1  0.76807225  0.26391905  0.18997665  1.0
  Zn  Zn7  1  0.84683965  0.19835835  0.27235727  1.0
  Zn  Zn8  1  0.26479634  0.76538273  0.69053215  1.0
  Zn  Zn9  1  0.34905049  0.69813625  0.77088273  1.0
  Zn  Zn10  1  0.19421094  0.84818768  0.77214942  1.0
  Zn  Zn11  1  0.19154309  0.68847927  0.76646340  1.0
  Zn  Zn12  1  0.55796029  0.06194090  0.98397215  1.0
  Zn  Zn13  1  0.40387285  0.05207149  0.97707422  1.0
  Zn  Zn14  1  0.55546255  0.90115162  0.97851082  1.0
  Zn  Zn15  1  0.48291196  0.98492855  0.05999972  1.0
  H  H16  1  0.79748137  0.53387464  0.42197861  1.0
  H  H17  1  0.72379707  0.52823734  0.40486223  1.0
  H  H18  1  0.94550547  0.21153391  0.33412300  1.0
  H  H19  1  0.99487604  0.19387796  0.37468832  1.0
  H  H20  1  0.71461111  0.45411068  0.32812650  1.0
  H  H21  1  0.72155242  0.52712694  0.34463464  1.0
  H  H22  1  0.04052672  0.30329404  0.41579444  1.0
  H  H23  1  0.05629370  0.25266401  0.37630806  1.0
  H  H24  1  0.14630781  0.63575920  0.52168592  1.0
  H  H25  1  0.21543983  0.65633408  0.53341615  1.0
  H  H26  1  0.11466548  0.60301873  0.72851321  1.0
  H  H27  1  0.09183341  0.53560711  0.71688155  1.0
  H  H28  1  0.22271657  0.73346119  0.60975394  1.0
  H  H29  1  0.18786087  0.74533138  0.56448634  1.0
  H  H30  1  0.01589943  0.52770882  0.64033079  1.0
  H  H31  1  0.00259611  0.56375184  0.68514881  1.0
  H  H32  1  0.72273864  0.23322172  0.10946671  1.0
  H  H33  1  0.68745236  0.24530745  0.06433984  1.0
  H  H34  1  0.51558562  0.02798942  0.14081633  1.0
  H  H35  1  0.50398442  0.06248075  0.18593760  1.0
  H  H36  1  0.64609764  0.13501832  0.02179802  1.0
  H  H37  1  0.71475995  0.15644372  0.03340165  1.0
  H  H38  1  0.61588351  0.10256110  0.22856258  1.0
  H  H39  1  0.59368181  0.03468160  0.21703661  1.0
  H  H40  1  0.21519735  0.95329731  0.82816903  1.0
  H  H41  1  0.22184308  0.02602755  0.84522839  1.0
  H  H42  1  0.54114579  0.80187559  0.91591407  1.0
  H  H43  1  0.55737703  0.75172797  0.87614127  1.0
  H  H44  1  0.29857011  0.03310353  0.92169360  1.0
  H  H45  1  0.22465120  0.02623588  0.90562750  1.0
  H  H46  1  0.44595149  0.71030106  0.83413854  1.0
  H  H47  1  0.49581101  0.69285186  0.87450049  1.0
  C  C48  1  0.06125947  0.31684268  0.56191310  1.0
  C  C49  1  0.07041855  0.57017918  0.56961370  1.0
  C  C50  1  0.18308284  0.44137313  0.43914736  1.0
  C  C51  1  0.93589545  0.68356014  0.43882962  1.0
  C  C52  1  0.93055582  0.42967408  0.43035907  1.0
  C  C53  1  0.81795509  0.56036963  0.56214855  1.0
  C  C54  1  0.56643544  0.30911492  0.31133408  1.0
  C  C55  1  0.68127160  0.17863984  0.18037056  1.0
  C  C56  1  0.68958578  0.43159975  0.18778816  1.0
  C  C57  1  0.93476713  0.18772779  0.18965204  1.0
  C  C58  1  0.81857653  0.32204930  0.31957846  1.0
  C  C59  1  0.81270694  0.06737036  0.31168372  1.0
  C  C60  1  0.43260096  0.69085282  0.68765106  1.0
  C  C61  1  0.31951071  0.82131510  0.81923241  1.0
  C  C62  1  0.18708769  0.93228070  0.68836508  1.0
  C  C63  1  0.06645752  0.80873627  0.81140481  1.0
  C  C64  1  0.18064274  0.67853778  0.68063005  1.0
  C  C65  1  0.31497019  0.56699716  0.81089807  1.0
  C  C66  1  0.43690471  0.18386810  0.93865472  1.0
  C  C67  1  0.43217859  0.92898525  0.92954741  1.0
  C  C68  1  0.68309933  0.94126665  0.93919450  1.0
  C  C69  1  0.56029109  0.81746252  0.06230145  1.0
  C  C70  1  0.56878822  0.07078959  0.06998293  1.0
  C  C71  1  0.31592860  0.06087463  0.05970068  1.0
  C  C72  1  0.90225399  0.40245415  0.40229068  1.0
  C  C73  1  0.84687501  0.34927963  0.34763471  1.0
  C  C74  1  0.82883255  0.44753810  0.38879884  1.0
  C  C75  1  0.91941439  0.30327870  0.36198972  1.0
  C  C76  1  0.80239936  0.42212963  0.36108370  1.0
  C  C77  1  0.94749313  0.33032224  0.38807239  1.0
  C  C78  1  0.09798278  0.59797672  0.59769582  1.0
  C  C79  1  0.15237538  0.65149428  0.65252444  1.0
  C  C80  1  0.14216075  0.64055393  0.58205508  1.0
  C  C81  1  0.10930984  0.60777100  0.66814246  1.0
  C  C82  1  0.16749458  0.66845072  0.60905767  1.0
  C  C83  1  0.08102576  0.58284252  0.64112984  1.0
  C  C84  1  0.30507505  0.45497944  0.40052102  1.0
  C  C85  1  0.44420953  0.29579364  0.34973913  1.0
  C  C86  1  0.25794609  0.41746710  0.41407966  1.0
  C  C87  1  0.49131344  0.33333333  0.33616828  1.0
  C  C88  1  0.37626407  0.34015902  0.37311279  1.0
  C  C89  1  0.37289358  0.41081230  0.37699410  1.0
  C  C90  1  0.72571088  0.57619688  0.63002120  1.0
  C  C91  1  0.52472386  0.67420976  0.61975122  1.0
  C  C92  1  0.74350123  0.58460293  0.58758014  1.0
  C  C93  1  0.50700604  0.66571197  0.66220146  1.0
  C  C94  1  0.60442009  0.64117289  0.60799061  1.0
  C  C95  1  0.64599501  0.60839708  0.64179488  1.0
  C  C96  1  0.07632810  0.22453435  0.62990461  1.0
  C  C97  1  0.17300254  0.02447954  0.62033657  1.0
  C  C98  1  0.08564669  0.24242401  0.58744329  1.0
  C  C99  1  0.16370282  0.00658988  0.66278804  1.0
  C  C100  1  0.14152102  0.10388561  0.60829947  1.0
  C  C101  1  0.10849548  0.14512675  0.64190225  1.0
  C  C102  1  0.84242384  0.80181783  0.39663424  1.0
  C  C103  1  0.90709537  0.94819363  0.35288244  1.0
  C  C104  1  0.91037660  0.75813384  0.41348357  1.0
  C  C105  1  0.83899654  0.99198579  0.33617044  1.0
  C  C106  1  0.90868457  0.87863520  0.37471810  1.0
  C  C107  1  0.84140893  0.87085521  0.37432688  1.0
  C  C108  1  0.65279235  0.15135521  0.15244048  1.0
  C  C109  1  0.59742385  0.09792722  0.09792596  1.0
  C  C110  1  0.66748905  0.16819693  0.10895020  1.0
  C  C111  1  0.58114383  0.08267213  0.14140690  1.0
  C  C112  1  0.64186894  0.14023661  0.08209940  1.0
  C  C113  1  0.60992560  0.10746223  0.16825632  1.0
  C  C114  1  0.67384018  0.52460697  0.11987073  1.0
  C  C115  1  0.57616662  0.72439078  0.13016013  1.0
  C  C116  1  0.66525030  0.50612073  0.16229850  1.0
  C  C117  1  0.58495573  0.74288280  0.08773728  1.0
  C  C118  1  0.60871008  0.64487655  0.14188282  1.0
  C  C119  1  0.64158581  0.60410422  0.10810318  1.0
  C  C120  1  0.08266668  0.12314023  0.17747043  1.0
  C  C121  1  0.16803347  0.12607968  0.07184081  1.0
  C  C122  1  0.01017052  0.16245358  0.16512285  1.0
  C  C123  1  0.24051996  0.08692333  0.08419585  1.0
  C  C124  1  0.11043184  0.13969155  0.10580421  1.0
  C  C125  1  0.14021252  0.11024174  0.14350677  1.0
  C  C126  1  0.34769702  0.84829035  0.84745885  1.0
  C  C127  1  0.40337881  0.90140223  0.90194118  1.0
  C  C128  1  0.30314640  0.92102965  0.86106889  1.0
  C  C129  1  0.44838251  0.82916241  0.88787195  1.0
  C  C130  1  0.32974312  0.94643866  0.88870046  1.0
  C  C131  1  0.42020309  0.80218198  0.86182138  1.0
  C  C132  1  0.40857759  0.44840073  0.85291239  1.0
  C  C133  1  0.34321654  0.30261262  0.89692433  1.0
  C  C134  1  0.34078714  0.49209588  0.83591369  1.0
  C  C135  1  0.41122778  0.25878836  0.91370817  1.0
  C  C136  1  0.34233740  0.37160106  0.87460442  1.0
  C  C137  1  0.40969044  0.37920052  0.87500120  1.0
  C  C138  1  0.94415653  0.79550245  0.84979135  1.0
  C  C139  1  0.80504962  0.95484976  0.90047941  1.0
  C  C140  1  0.99127682  0.83301235  0.83617966  1.0
  C  C141  1  0.75793393  0.91732506  0.91409255  1.0
  C  C142  1  0.87283871  0.91063229  0.87695192  1.0
  C  C143  1  0.87619516  0.83994459  0.87313065  1.0
  S  S144  1  0.29670368  0.32795989  0.39793667  1.0
  S  S145  1  0.45229898  0.42313508  0.35199422  1.0
  S  S146  1  0.66254467  0.63186738  0.56202094  1.0
  S  S147  1  0.58787388  0.61733743  0.68776285  1.0
  S  S148  1  0.13380047  0.16198953  0.56221083  1.0
  S  S149  1  0.11652309  0.08707845  0.68801991  1.0
  S  S150  1  0.97317090  0.80154151  0.40198557  1.0
  S  S151  1  0.77693063  0.94781244  0.34703638  1.0
  S  S152  1  0.61760528  0.58625046  0.18782409  1.0
  S  S153  1  0.63312980  0.66280220  0.06218006  1.0
  S  S154  1  0.01245972  0.18353578  0.11187108  1.0
  S  S155  1  0.23821710  0.06687666  0.13746139  1.0
  S  S156  1  0.27823935  0.44843587  0.84702270  1.0
  S  S157  1  0.47407000  0.30210303  0.90230544  1.0
  S  S158  1  0.95227983  0.92287372  0.85193281  1.0
  S  S159  1  0.79664732  0.82779209  0.89800333  1.0
  Br  Br160  1  0.28628178  0.55224459  0.41009086  1.0
  Br  Br161  1  0.46252244  0.19898420  0.33975361  1.0
  Br  Br162  1  0.79418055  0.52832744  0.66943772  1.0
  Br  Br163  1  0.45622029  0.72221298  0.58039014  1.0
  Br  Br164  1  0.02846843  0.29234492  0.66908243  1.0
  Br  Br165  1  0.22114709  0.95649805  0.58119401  1.0
  Br  Br166  1  0.75920237  0.77761568  0.40097758  1.0
  Br  Br167  1  0.99038025  0.97250255  0.34833086  1.0
  Br  Br168  1  0.72188955  0.45709824  0.08049089  1.0
  Br  Br169  1  0.52866512  0.79174959  0.16958336  1.0
  Br  Br170  1  0.10737982  0.08892521  0.23141320  1.0
  Br  Br171  1  0.14338472  0.16019866  0.01785940  1.0
  Br  Br172  1  0.49190084  0.47252529  0.84861690  1.0
  Br  Br173  1  0.25979616  0.27862426  0.90141803  1.0
  Br  Br174  1  0.96255468  0.69859133  0.83993669  1.0
  Br  Br175  1  0.78624535  0.05212961  0.91000447  1.0
  N  N176  1  0.77973476  0.51885808  0.40009031  1.0
  N  N177  1  0.96829374  0.23156319  0.35104112  1.0
  N  N178  1  0.73064600  0.47152377  0.34972228  1.0
  N  N179  1  0.01919980  0.28088250  0.39942444  1.0
  N  N180  1  0.16145536  0.65969401  0.54046089  1.0
  N  N181  1  0.08984171  0.58883112  0.70971033  1.0
  N  N182  1  0.20900173  0.71002929  0.59005873  1.0
  N  N183  1  0.03883560  0.54189653  0.66012901  1.0
  N  N184  1  0.70887246  0.20983239  0.08981067  1.0
  N  N185  1  0.53934932  0.04143074  0.16053177  1.0
  N  N186  1  0.66097026  0.15932708  0.04048701  1.0
  N  N187  1  0.59105844  0.08814513  0.20986950  1.0
  N  N188  1  0.23125961  0.97035285  0.84990126  1.0
  N  N189  1  0.52004639  0.77967896  0.89927819  1.0
  N  N190  1  0.28039703  0.01760945  0.90020416  1.0
  N  N191  1  0.46884811  0.73042222  0.85092922  1.0
  O  O192  1  0.00065276  0.49945852  0.49964423  1.0
  O  O193  1  0.08041723  0.31566371  0.52313789  1.0
  O  O194  1  0.03802793  0.52496907  0.58475074  1.0
  O  O195  1  0.15607081  0.50515720  0.45250613  1.0
  O  O196  1  0.02352004  0.37525227  0.58036840  1.0
  O  O197  1  0.15212730  0.39476053  0.44523502  1.0
  O  O198  1  0.07924990  0.59148174  0.53064663  1.0
  O  O199  1  0.00345555  0.65688104  0.44878676  1.0
  O  O200  1  0.88973904  0.49672259  0.44088380  1.0
  O  O201  1  0.88958402  0.65251631  0.44865722  1.0
  O  O202  1  0.99529059  0.38603382  0.44379014  1.0
  O  O203  1  0.87718537  0.53140808  0.58059820  1.0
  O  O204  1  0.81591497  0.57123818  0.52330305  1.0
  O  O205  1  0.74915253  0.25087553  0.25004844  1.0
  O  O206  1  0.59462601  0.35821417  0.30230147  1.0
  O  O207  1  0.66202372  0.16756622  0.21941633  1.0
  O  O208  1  0.72153665  0.37290249  0.16932955  1.0
  O  O209  1  0.59656794  0.24242566  0.30120188  1.0
  O  O210  1  0.67581010  0.43329396  0.22668130  1.0
  O  O211  1  0.72487236  0.21292288  0.16516372  1.0
  O  O212  1  0.87754844  0.22466579  0.16926332  1.0
  O  O213  1  0.86321026  0.25891766  0.30535346  1.0
  O  O214  1  0.93276233  0.17089755  0.22845384  1.0
  O  O215  1  0.75025609  0.36159591  0.30983240  1.0
  O  O216  1  0.74889275  0.09050795  0.29775509  1.0
  O  O217  1  0.85463524  0.10284427  0.30665898  1.0
  O  O218  1  0.24940877  0.75048564  0.75052863  1.0
  O  O219  1  0.37343738  0.72821657  0.66926037  1.0
  O  O220  1  0.36416671  0.75842848  0.80476215  1.0
  O  O221  1  0.17486047  0.93371382  0.72725295  1.0
  O  O222  1  0.43461274  0.67250290  0.72647107  1.0
  O  O223  1  0.21680895  0.87375114  0.66982780  1.0
  O  O224  1  0.25114322  0.86106572  0.80959107  1.0
  O  O225  1  0.09468798  0.85780489  0.80252005  1.0
  O  O226  1  0.16171742  0.66713684  0.71969815  1.0
  O  O227  1  0.09656616  0.74212610  0.80116400  1.0
  O  O228  1  0.22397555  0.71306383  0.66543835  1.0
  O  O229  1  0.35804665  0.60147796  0.80454149  1.0
  O  O230  1  0.25027875  0.59054620  0.79784279  1.0
  O  O231  1  0.50098519  0.99912465  0.99993009  1.0
  O  O232  1  0.50423340  0.15703051  0.94894041  1.0
  O  O233  1  0.39269366  0.99719278  0.93862239  1.0
  O  O234  1  0.65213320  0.89464676  0.94532651  1.0
  O  O235  1  0.39084014  0.15251450  0.94778960  1.0
  O  O236  1  0.65611266  0.00507368  0.95251424  1.0
  O  O237  1  0.49588413  0.88480466  0.94393857  1.0
  O  O238  1  0.57955927  0.81608907  0.02353716  1.0
  O  O239  1  0.53377243  0.02788376  0.08516443  1.0
  O  O240  1  0.52241082  0.87597302  0.08067153  1.0
  O  O241  1  0.57931456  0.09065383  0.03095722  1.0
  O  O242  1  0.31781994  0.06937825  0.02088996  1.0
  O  O243  1  0.37321475  0.03137513  0.08015236  1.0
