# generated using pymatgen
data_Al3H22C45O14
_symmetry_space_group_name_H-M   'P 1'
_cell_length_a   12.17572017
_cell_length_b   12.20200110
_cell_length_c   26.94371872
_cell_angle_alpha   82.01988380
_cell_angle_beta   82.48307723
_cell_angle_gamma   65.28738428
_symmetry_Int_Tables_number   1
_chemical_formula_structural   Al3H22C45O14
_chemical_formula_sum   'Al6 H44 C90 O28'
_cell_volume   3589.35306349
_cell_formula_units_Z   2
loop_
 _symmetry_equiv_pos_site_id
 _symmetry_equiv_pos_as_xyz
  1  'x, y, z'
loop_
 _atom_site_type_symbol
 _atom_site_label
 _atom_site_symmetry_multiplicity
 _atom_site_fract_x
 _atom_site_fract_y
 _atom_site_fract_z
 _atom_site_occupancy
  Al  Al0  1  0.40991278  0.39279131  0.51322822  1.0
  Al  Al1  1  0.66015135  0.42505572  0.49414330  1.0
  Al  Al2  1  0.42790430  0.65048110  0.49840103  1.0
  Al  Al3  1  0.92071408  0.94685952  0.97733775  1.0
  Al  Al4  1  0.91582543  0.68382663  0.99680469  1.0
  Al  Al5  1  0.67727336  0.90163888  0.99334814  1.0
  H  H6  1  0.50623234  0.34421498  0.19707109  1.0
  H  H7  1  0.37217781  0.81021888  0.20957934  1.0
  H  H8  1  0.37010837  0.72819177  0.16041232  1.0
  H  H9  1  0.25749526  0.87660543  0.16616806  1.0
  H  H10  1  0.94967164  0.11415763  0.22023950  1.0
  H  H11  1  0.92603830  0.01749854  0.18295337  1.0
  H  H12  1  0.88308237  0.17285395  0.16173970  1.0
  H  H13  1  0.37010078  0.78278196  0.77405459  1.0
  H  H14  1  0.42960567  0.67968524  0.82740951  1.0
  H  H15  1  0.43006375  0.82626373  0.82078749  1.0
  H  H16  1  0.51065503  0.96297320  0.78343368  1.0
  H  H17  1  0.70491272  0.33802015  0.24451736  1.0
  H  H18  1  0.39625548  0.17811466  0.75484045  1.0
  H  H19  1  0.36743246  0.24230620  0.66350349  1.0
  H  H20  1  0.45136712  0.08888176  0.60179587  1.0
  H  H21  1  0.56341794  0.87155861  0.63051522  1.0
  H  H22  1  0.85717849  0.35333091  0.70824646  1.0
  H  H23  1  0.97452743  0.13708757  0.73546609  1.0
  H  H24  1  0.99718649  0.06853107  0.82705119  1.0
  H  H25  1  0.90258314  0.21620518  0.89023722  1.0
  H  H26  1  0.78301530  0.43433275  0.86303895  1.0
  H  H27  1  0.83157682  0.83458289  0.72138118  1.0
  H  H28  1  0.56662926  0.53338950  0.73674370  1.0
  H  H29  1  0.75428352  0.86963744  0.78163788  1.0
  H  H30  1  0.89241750  0.73783108  0.77596179  1.0
  H  H31  1  0.21187654  0.97911252  0.23920026  1.0
  H  H32  1  0.13934478  0.16986802  0.27958830  1.0
  H  H33  1  0.97781027  0.21191064  0.35072010  1.0
  H  H34  1  0.89329478  0.05927154  0.38161061  1.0
  H  H35  1  0.96811886  0.86685532  0.34208809  1.0
  H  H36  1  0.47384183  0.52230940  0.22692586  1.0
  H  H37  1  0.44924125  0.59730580  0.28188654  1.0
  H  H38  1  0.43203325  0.45912386  0.28624670  1.0
  H  H39  1  0.87784860  0.57166743  0.70166525  1.0
  H  H40  1  0.26992677  0.37586516  0.24151764  1.0
  H  H41  1  0.15352025  0.44492773  0.19920788  1.0
  H  H42  1  0.30149677  0.43620377  0.17985458  1.0
  H  H43  1  0.04497774  0.58002824  0.29661300  1.0
  H  H44  1  0.95127433  0.80579216  0.23691472  1.0
  H  H45  1  0.59353589  0.99547036  0.24356263  1.0
  H  H46  1  0.79269046  0.98870233  0.29059443  1.0
  H  H47  1  0.44404954  0.21715840  0.28507119  1.0
  H  H48  1  0.27392856  0.31304974  0.55426926  1.0
  H  H49  1  0.04422132  0.04414300  0.98903610  1.0
  C  C50  1  0.61247310  0.28652952  0.43391054  1.0
  C  C51  1  0.14625527  0.69635644  0.19805455  1.0
  C  C52  1  0.09855612  0.62546593  0.27450735  1.0
  C  C53  1  0.61254895  0.62300094  0.41805554  1.0
  C  C54  1  0.18472992  0.66759191  0.29777958  1.0
  C  C55  1  0.19908403  0.57033233  0.23140521  1.0
  C  C56  1  0.28593272  0.61420757  0.25355253  1.0
  C  C57  1  0.12146333  0.71182853  0.14716422  1.0
  C  C58  1  0.20884895  0.65141828  0.34861744  1.0
  C  C59  1  0.72864538  0.06716706  0.26935322  1.0
  C  C60  1  0.61810160  0.07177491  0.24423189  1.0
  C  C61  1  0.66055728  0.66638358  0.26885829  1.0
  C  C62  1  0.67425970  0.09812170  0.10127555  1.0
  C  C63  1  0.63278962  0.24049070  0.38581470  1.0
  C  C64  1  0.76410733  0.13892890  0.22172741  1.0
  C  C65  1  0.28336481  0.60616234  0.44001332  1.0
  C  C66  1  0.65255416  0.14295686  0.19545094  1.0
  C  C67  1  0.68000984  0.26188750  0.24378486  1.0
  C  C68  1  0.64526788  0.19084295  0.29270725  1.0
  C  C69  1  0.56966673  0.26607748  0.21863384  1.0
  C  C70  1  0.53498286  0.19453044  0.26623464  1.0
  C  C71  1  0.65944505  0.11966199  0.14510330  1.0
  C  C72  1  0.64947882  0.65882795  0.31918412  1.0
  C  C73  1  0.64047814  0.21610129  0.34275187  1.0
  C  C74  1  0.61319616  0.77311563  0.72754744  1.0
  C  C75  1  0.56458278  0.70109393  0.77197680  1.0
  C  C76  1  0.71064085  0.67253022  0.89106208  1.0
  C  C77  1  0.62795019  0.27595495  0.57537877  1.0
  C  C78  1  0.64745474  0.63560854  0.60221143  1.0
  C  C79  1  0.73896354  0.72227551  0.75189111  1.0
  C  C80  1  0.68885524  0.65159828  0.79746241  1.0
  C  C81  1  0.78807685  0.60896741  0.72195289  1.0
  C  C82  1  0.66505857  0.65767201  0.69632734  1.0
  C  C83  1  0.63784490  0.65019346  0.36529599  1.0
  C  C84  1  0.74088844  0.53693144  0.76595070  1.0
  C  C85  1  0.61583098  0.58787038  0.74170429  1.0
  C  C86  1  0.70097342  0.65913611  0.84792799  1.0
  C  C87  1  0.65466609  0.64909285  0.64560973  1.0
  C  C88  1  0.10746410  0.70319383  0.86479441  1.0
  C  C89  1  0.62352175  0.61040958  0.55571340  1.0
  C  C90  1  0.13714709  0.68511621  0.82037514  1.0
  C  C91  1  0.16619065  0.66725513  0.77157814  1.0
  C  C92  1  0.18920097  0.65310228  0.72633865  1.0
  C  C93  1  0.21586737  0.63784883  0.67724911  1.0
  C  C94  1  0.13328985  0.79470553  0.26434584  1.0
  C  C95  1  0.24216840  0.62386720  0.63234859  1.0
  C  C96  1  0.68548683  0.09896309  0.86103773  1.0
  C  C97  1  0.68174119  0.12484333  0.81550429  1.0
  C  C98  1  0.68010944  0.15062579  0.76572143  1.0
  C  C99  1  0.68011269  0.17096351  0.71964350  1.0
  C  C100  1  0.67446753  0.19712633  0.67000148  1.0
  C  C101  1  0.29145533  0.59931076  0.58159221  1.0
  C  C102  1  0.66370118  0.22398968  0.62480244  1.0
  C  C103  1  0.04931201  0.74240295  0.05576691  1.0
  C  C104  1  0.71985323  0.71516078  0.07358644  1.0
  C  C105  1  0.23422230  0.73912181  0.22074290  1.0
  C  C106  1  0.70874702  0.05179552  0.05299687  1.0
  C  C107  1  0.05307473  0.73612737  0.91421626  1.0
  C  C108  1  0.73384654  0.70134535  0.93683500  1.0
  C  C109  1  0.71044732  0.04923630  0.91171865  1.0
  C  C110  1  0.69315831  0.68710327  0.12613127  1.0
  C  C111  1  0.68068451  0.67840006  0.17223194  1.0
  C  C112  1  0.66922191  0.67102529  0.22254226  1.0
  C  C113  1  0.31231104  0.79208978  0.18778843  1.0
  C  C114  1  0.88744170  0.10930282  0.19542223  1.0
  C  C115  1  0.44219145  0.75004578  0.80001291  1.0
  C  C116  1  0.09768402  0.72262193  0.10362408  1.0
  C  C117  1  0.54515142  0.90122828  0.70898791  1.0
  C  C118  1  0.49696458  0.98952737  0.74357722  1.0
  C  C119  1  0.43254223  0.11111171  0.72742597  1.0
  C  C120  1  0.41591597  0.14702492  0.67642882  1.0
  C  C121  1  0.46367786  0.06051736  0.64165749  1.0
  C  C122  1  0.52746974  0.93852788  0.65786195  1.0
  C  C123  1  0.81140728  0.40879854  0.78389005  1.0
  C  C124  1  0.86685738  0.32384347  0.74822733  1.0
  C  C125  1  0.93317901  0.20212762  0.76357908  1.0
  C  C126  1  0.94592878  0.16366048  0.81468049  1.0
  C  C127  1  0.23318946  0.63739616  0.39218357  1.0
  C  C128  1  0.89185610  0.24729687  0.85046602  1.0
  C  C129  1  0.82461203  0.36914893  0.83506235  1.0
  C  C130  1  0.80792681  0.79504165  0.75822247  1.0
  C  C131  1  0.09373464  0.91019424  0.28700967  1.0
  C  C132  1  0.14230050  0.99597819  0.27043860  1.0
  C  C133  1  0.10091594  0.10388568  0.29323562  1.0
  C  C134  1  0.01077254  0.12763223  0.33297680  1.0
  C  C135  1  0.96318356  0.04173343  0.35039972  1.0
  C  C136  1  0.00472848  0.93408193  0.32777605  1.0
  C  C137  1  0.41704880  0.54415317  0.26242606  1.0
  C  C138  1  0.04695230  0.74990320  0.24244094  1.0
  C  C139  1  0.23302967  0.45041445  0.21207382  1.0
  O  O140  1  0.30878602  0.49948727  0.46015178  1.0
  O  O141  1  0.64299335  0.81326800  0.05314406  1.0
  O  O142  1  0.63074587  0.02636651  0.03408094  1.0
  O  O143  1  0.51647282  0.29521220  0.46071551  1.0
  O  O144  1  0.80712259  0.04274030  0.92669036  1.0
  O  O145  1  0.01876735  0.84558785  0.92194957  1.0
  O  O146  1  0.04029183  0.65133085  0.94548918  1.0
  O  O147  1  0.83677657  0.63518855  0.95458508  1.0
  O  O148  1  0.65270478  0.79500869  0.95650626  1.0
  O  O149  1  0.63362899  0.01088085  0.93678893  1.0
  O  O150  1  0.83725305  0.84272138  0.98961560  1.0
  O  O151  1  0.69689070  0.51053008  0.53806255  1.0
  O  O152  1  0.69364698  0.31956241  0.44511864  1.0
  O  O153  1  0.69174310  0.52788853  0.43925773  1.0
  O  O154  1  0.51041229  0.69229529  0.43801639  1.0
  O  O155  1  0.30306971  0.68894473  0.45788192  1.0
  O  O156  1  0.30684106  0.49898746  0.56759089  1.0
  O  O157  1  0.51949674  0.30134470  0.56779477  1.0
  O  O158  1  0.70767348  0.29689114  0.54366953  1.0
  O  O159  1  0.52718624  0.68645413  0.53540893  1.0
  O  O160  1  0.31987655  0.68191949  0.55561761  1.0
  O  O161  1  0.50002779  0.49094966  0.50172729  1.0
  O  O162  1  0.81410675  0.03499227  0.03345518  1.0
  O  O163  1  0.03133987  0.84150874  0.02924243  1.0
  O  O164  1  0.02347792  0.65663582  0.04444026  1.0
  O  O165  1  0.82032872  0.64394186  0.05312678  1.0
  O  O166  1  0.33124072  0.29919895  0.52494338  1.0
  O  O167  1  0.99584346  0.04370775  0.96340682  1.0
