# generated using pymatgen
data_AlH9(C5O2)3
_symmetry_space_group_name_H-M   'P 1'
_cell_length_a   13.00076017
_cell_length_b   13.00116866
_cell_length_c   27.74408080
_cell_angle_alpha   103.54994060
_cell_angle_beta   103.55050271
_cell_angle_gamma   89.99534767
_symmetry_Int_Tables_number   1
_chemical_formula_structural   AlH9(C5O2)3
_chemical_formula_sum   'Al8 H72 C120 O48'
_cell_volume   4424.55615321
_cell_formula_units_Z   8
loop_
 _symmetry_equiv_pos_site_id
 _symmetry_equiv_pos_as_xyz
  1  'x, y, z'
loop_
 _atom_site_type_symbol
 _atom_site_label
 _atom_site_symmetry_multiplicity
 _atom_site_fract_x
 _atom_site_fract_y
 _atom_site_fract_z
 _atom_site_occupancy
  Al  Al0  1  0.99999976  0.49999987  0.00000025  1.0
  Al  Al1  1  0.00000000  0.00000000  0.00000000  1.0
  Al  Al2  1  0.00000034  0.00000003  0.50000045  1.0
  Al  Al3  1  0.49999992  0.00000032  0.50000025  1.0
  Al  Al4  1  0.00656205  0.75656504  0.01311761  1.0
  Al  Al5  1  0.75655813  0.00655632  0.51310145  1.0
  Al  Al6  1  0.99343700  0.24343506  0.98688253  1.0
  Al  Al7  1  0.24344202  0.99344336  0.48689905  1.0
  H  H8  1  0.13302241  0.62519443  0.99864490  1.0
  H  H9  1  0.86555242  0.87339771  0.99862269  1.0
  H  H10  1  0.87344050  0.13302916  0.49861758  1.0
  H  H11  1  0.62524652  0.86560424  0.49864053  1.0
  H  H12  1  0.86697573  0.37480476  0.00135446  1.0
  H  H13  1  0.13444823  0.12660240  0.00137759  1.0
  H  H14  1  0.12655893  0.86697211  0.50138373  1.0
  H  H15  1  0.37475146  0.13439559  0.50135934  1.0
  H  H16  1  0.81142092  0.76494986  0.88184230  1.0
  H  H17  1  0.07049129  0.61684523  0.88182312  1.0
  H  H18  1  0.61685412  0.81143490  0.38183447  1.0
  H  H19  1  0.76498120  0.07039013  0.38181992  1.0
  H  H20  1  0.18857942  0.23505067  0.11815667  1.0
  H  H21  1  0.92950955  0.38315355  0.11817649  1.0
  H  H22  1  0.38314594  0.18856618  0.61816585  1.0
  H  H23  1  0.23501877  0.92961235  0.61818022  1.0
  H  H24  1  0.73152917  0.75235633  0.78894801  1.0
  H  H25  1  0.05743593  0.53662450  0.78888883  1.0
  H  H26  1  0.53657535  0.73160109  0.28892467  1.0
  H  H27  1  0.75229718  0.05735124  0.28889818  1.0
  H  H28  1  0.26847233  0.24764307  0.21105142  1.0
  H  H29  1  0.94256380  0.46337471  0.21111041  1.0
  H  H30  1  0.46342326  0.26840087  0.71107573  1.0
  H  H31  1  0.24770178  0.94265027  0.71110178  1.0
  H  H32  1  0.73240412  0.41197210  0.75917160  1.0
  H  H33  1  0.02678291  0.84723913  0.75915741  1.0
  H  H34  1  0.84716040  0.73246952  0.25914287  1.0
  H  H35  1  0.41192032  0.02671659  0.25915651  1.0
  H  H36  1  0.26759695  0.58802915  0.24082810  1.0
  H  H37  1  0.97321544  0.15275875  0.24084129  1.0
  H  H38  1  0.15283927  0.26753271  0.74085780  1.0
  H  H39  1  0.58807855  0.97328036  0.74084364  1.0
  H  H40  1  0.81334902  0.42549953  0.85147752  1.0
  H  H41  1  0.03818421  0.92594686  0.85143640  1.0
  H  H42  1  0.92596065  0.81332942  0.35143039  1.0
  H  H43  1  0.42550896  0.03808917  0.35146075  1.0
  H  H44  1  0.18665178  0.57449996  0.14852200  1.0
  H  H45  1  0.96181550  0.07405154  0.14856203  1.0
  H  H46  1  0.07403907  0.18667210  0.64857038  1.0
  H  H47  1  0.57449163  0.96190866  0.64853949  1.0
  H  H48  1  0.50598974  0.47623613  0.64681679  1.0
  H  H49  1  0.14082152  0.67058419  0.64684002  1.0
  H  H50  1  0.67052325  0.50607498  0.14682828  1.0
  H  H51  1  0.47622027  0.14080193  0.14684572  1.0
  H  H52  1  0.49401102  0.52376405  0.35318264  1.0
  H  H53  1  0.85918132  0.32942037  0.35316219  1.0
  H  H54  1  0.32948020  0.49392412  0.85317323  1.0
  H  H55  1  0.52377812  0.85919757  0.85315460  1.0
  H  H56  1  0.49114273  0.30135924  0.58358396  1.0
  H  H57  1  0.09246246  0.78223641  0.58358956  1.0
  H  H58  1  0.78220824  0.49116508  0.08358550  1.0
  H  H59  1  0.30140626  0.09253893  0.08363004  1.0
  H  H60  1  0.50885801  0.69864094  0.41641546  1.0
  H  H61  1  0.90754081  0.21776630  0.41641239  1.0
  H  H62  1  0.21779542  0.50883648  0.91641609  1.0
  H  H63  1  0.69859416  0.90746171  0.91636984  1.0
  H  H64  1  0.82828685  0.27889153  0.62869373  1.0
  H  H65  1  0.80041437  0.84985749  0.62870126  1.0
  H  H66  1  0.84977704  0.82828152  0.12867882  1.0
  H  H67  1  0.27880932  0.80044584  0.12869138  1.0
  H  H68  1  0.17171441  0.72110773  0.37130714  1.0
  H  H69  1  0.19958211  0.15013483  0.37129664  1.0
  H  H70  1  0.15021944  0.17171757  0.87131951  1.0
  H  H71  1  0.72118936  0.19955391  0.87130840  1.0
  H  H72  1  0.84360118  0.44985725  0.69408648  1.0
  H  H73  1  0.85051993  0.74425152  0.69411934  1.0
  H  H74  1  0.74414586  0.84364887  0.19407940  1.0
  H  H75  1  0.44984779  0.85047789  0.19411353  1.0
  H  H76  1  0.15639796  0.55014146  0.30591385  1.0
  H  H77  1  0.14947757  0.25574177  0.30587874  1.0
  H  H78  1  0.25585162  0.15635270  0.80591983  1.0
  H  H79  1  0.55015015  0.14952345  0.80588705  1.0
  C  C80  1  0.87322572  0.60281587  0.92611479  1.0
  C  C81  1  0.05292352  0.82330228  0.92612022  1.0
  C  C82  1  0.82329930  0.87317626  0.42611477  1.0
  C  C83  1  0.60281724  0.05287635  0.42610489  1.0
  C  C84  1  0.12677256  0.39718422  0.07388454  1.0
  C  C85  1  0.94707692  0.17669685  0.07387894  1.0
  C  C86  1  0.17670147  0.12682474  0.57388547  1.0
  C  C87  1  0.39718394  0.94712430  0.57389580  1.0
  C  C88  1  0.81698972  0.59571214  0.87182748  1.0
  C  C89  1  0.05487590  0.77610079  0.87182896  1.0
  C  C90  1  0.77611522  0.81691897  0.37183426  1.0
  C  C91  1  0.59572557  0.05487287  0.37182671  1.0
  C  C92  1  0.18300928  0.40428867  0.12817257  1.0
  C  C93  1  0.94512420  0.22389879  0.12817065  1.0
  C  C94  1  0.22388526  0.18308177  0.62816652  1.0
  C  C95  1  0.40427380  0.94512829  0.62817370  1.0
  C  C96  1  0.79314238  0.68820062  0.85456407  1.0
  C  C97  1  0.06147397  0.66633265  0.85454403  1.0
  C  C98  1  0.66634638  0.79306465  0.35456593  1.0
  C  C99  1  0.68821519  0.06146954  0.35454967  1.0
  C  C100  1  0.20685766  0.31179965  0.14543544  1.0
  C  C101  1  0.93852688  0.33366614  0.14545559  1.0
  C  C102  1  0.33365196  0.20693555  0.64543430  1.0
  C  C103  1  0.31178447  0.93853188  0.64545020  1.0
  C  C104  1  0.74989609  0.68139025  0.80309875  1.0
  C  C105  1  0.05323789  0.62171998  0.80307724  1.0
  C  C106  1  0.62169796  0.74983253  0.30309606  1.0
  C  C107  1  0.68136554  0.05323576  0.30308181  1.0
  C  C108  1  0.25010428  0.31861109  0.19690104  1.0
  C  C109  1  0.94676265  0.37827855  0.19692291  1.0
  C  C110  1  0.37830498  0.25016831  0.69690481  1.0
  C  C111  1  0.31863347  0.94676505  0.69691824  1.0
  C  C112  1  0.72936271  0.58194504  0.76804613  1.0
  C  C113  1  0.03870683  0.68612325  0.76803569  1.0
  C  C114  1  0.68609182  0.72930689  0.26804890  1.0
  C  C115  1  0.58190510  0.03874877  0.26804669  1.0
  C  C116  1  0.27063664  0.41805532  0.23195347  1.0
  C  C117  1  0.96129433  0.31387659  0.23196419  1.0
  C  C118  1  0.31390791  0.27069464  0.73195187  1.0
  C  C119  1  0.41809430  0.96125169  0.73195381  1.0
  C  C120  1  0.75079477  0.48946214  0.78575554  1.0
  C  C121  1  0.03497137  0.79629747  0.78574728  1.0
  C  C122  1  0.79626721  0.75078080  0.28574947  1.0
  C  C123  1  0.48943339  0.03497783  0.28574786  1.0
  C  C124  1  0.24920527  0.51053813  0.21424397  1.0
  C  C125  1  0.96502881  0.20370070  0.21425251  1.0
  C  C126  1  0.20373215  0.24922037  0.71425094  1.0
  C  C127  1  0.51056580  0.96502018  0.71425256  1.0
  C  C128  1  0.79471294  0.49636639  0.83726641  1.0
  C  C129  1  0.04260614  0.84088542  0.83725510  1.0
  C  C130  1  0.84088715  0.79466482  0.33725303  1.0
  C  C131  1  0.49636026  0.04255966  0.33725645  1.0
  C  C132  1  0.20528712  0.50363388  0.16273311  1.0
  C  C133  1  0.95739430  0.15911371  0.16274406  1.0
  C  C134  1  0.15911371  0.20533477  0.66274739  1.0
  C  C135  1  0.50363817  0.95743913  0.66274396  1.0
  C  C136  1  0.68067649  0.57731556  0.71318853  1.0
  C  C137  1  0.03253462  0.63590810  0.71318281  1.0
  C  C138  1  0.63589094  0.68069282  0.21319126  1.0
  C  C139  1  0.57730214  0.03251836  0.21318291  1.0
  C  C140  1  0.31932379  0.42268718  0.28681107  1.0
  C  C141  1  0.96746781  0.36408771  0.28681699  1.0
  C  C142  1  0.36410912  0.31930826  0.78680906  1.0
  C  C143  1  0.42269836  0.96748088  0.78681715  1.0
  C  C144  1  0.67506945  0.47334977  0.67493201  1.0
  C  C145  1  0.99986460  0.70162574  0.67494395  1.0
  C  C146  1  0.70160426  0.67510219  0.17494567  1.0
  C  C147  1  0.47334048  0.99981312  0.17493113  1.0
  C  C148  1  0.32493125  0.52665111  0.32506732  1.0
  C  C149  1  0.00013732  0.29837412  0.32505674  1.0
  C  C150  1  0.29839655  0.32489810  0.82505466  1.0
  C  C151  1  0.52665926  0.00018690  0.82506892  1.0
  C  C152  1  0.57619337  0.43220174  0.64298967  1.0
  C  C153  1  0.06679841  0.71079678  0.64299270  1.0
  C  C154  1  0.71078156  0.57623196  0.14299880  1.0
  C  C155  1  0.43221729  0.06675080  0.14298469  1.0
  C  C156  1  0.42380664  0.56779924  0.35700976  1.0
  C  C157  1  0.93320484  0.28920512  0.35700844  1.0
  C  C158  1  0.28922165  0.42377064  0.85700225  1.0
  C  C159  1  0.56778277  0.93325029  0.85701563  1.0
  C  C160  1  0.56791127  0.33511024  0.60772182  1.0
  C  C161  1  0.03979980  0.77262249  0.60772391  1.0
  C  C162  1  0.77259917  0.56794614  0.10773319  1.0
  C  C163  1  0.33511533  0.03979548  0.10772088  1.0
  C  C164  1  0.43209085  0.66489048  0.39227734  1.0
  C  C165  1  0.96020143  0.22737827  0.39227767  1.0
  C  C166  1  0.22740254  0.43205127  0.89226742  1.0
  C  C167  1  0.66488481  0.96020339  0.89227882  1.0
  C  C168  1  0.65871366  0.27924639  0.60284063  1.0
  C  C169  1  0.94411821  0.82359295  0.60283516  1.0
  C  C170  1  0.82357992  0.65873618  0.10284443  1.0
  C  C171  1  0.27925358  0.94411337  0.10282495  1.0
  C  C172  1  0.34128811  0.72075477  0.39715898  1.0
  C  C173  1  0.05588229  0.17640628  0.39716490  1.0
  C  C174  1  0.17642049  0.34126446  0.89715545  1.0
  C  C175  1  0.72074693  0.05588586  0.89717511  1.0
  C  C176  1  0.75812214  0.32212782  0.63354609  1.0
  C  C177  1  0.87542088  0.81143204  0.63354842  1.0
  C  C178  1  0.81139711  0.75814103  0.13354692  1.0
  C  C179  1  0.32214365  0.87541376  0.13353463  1.0
  C  C180  1  0.24187650  0.67787263  0.36645360  1.0
  C  C181  1  0.12457974  0.18856429  0.36645111  1.0
  C  C182  1  0.18860029  0.24186195  0.86645213  1.0
  C  C183  1  0.67785601  0.12458766  0.86646524  1.0
  C  C184  1  0.76612442  0.41779604  0.66993835  1.0
  C  C185  1  0.90381689  0.75219134  0.66995865  1.0
  C  C186  1  0.75214607  0.76616376  0.16994882  1.0
  C  C187  1  0.41778715  0.90378380  0.16994881  1.0
  C  C188  1  0.23387842  0.58220539  0.33006153  1.0
  C  C189  1  0.09618118  0.24780477  0.33003987  1.0
  C  C190  1  0.24785185  0.23383596  0.83005015  1.0
  C  C191  1  0.58221195  0.09621561  0.83005143  1.0
  C  C192  1  0.64982863  0.17439390  0.56563296  1.0
  C  C193  1  0.91580919  0.89127126  0.56563980  1.0
  C  C194  1  0.89121650  0.64982294  0.06563663  1.0
  C  C195  1  0.17435614  0.91580783  0.06564218  1.0
  C  C196  1  0.35017077  0.82560576  0.43436674  1.0
  C  C197  1  0.08418994  0.10872744  0.43436052  1.0
  C  C198  1  0.10878216  0.35017831  0.93436387  1.0
  C  C199  1  0.82564458  0.08419387  0.93435796  1.0
  O  O200  1  0.07101074  0.63013972  0.01266037  1.0
  O  O201  1  0.94158172  0.88250305  0.01263785  1.0
  O  O202  1  0.88251505  0.07103914  0.51264786  1.0
  O  O203  1  0.63014220  0.94163009  0.51264271  1.0
  O  O204  1  0.92898902  0.36986030  0.98733969  1.0
  O  O205  1  0.05841692  0.11749740  0.98736184  1.0
  O  O206  1  0.11748581  0.92896046  0.48735256  1.0
  O  O207  1  0.36985724  0.05836887  0.48735708  1.0
  O  O208  1  0.91059777  0.51824868  0.93674052  1.0
  O  O209  1  0.02618062  0.91846385  0.93673906  1.0
  O  O210  1  0.91846108  0.91056442  0.43673764  1.0
  O  O211  1  0.51826716  0.02606348  0.43672017  1.0
  O  O212  1  0.08940023  0.48175196  0.06326016  1.0
  O  O213  1  0.97382124  0.08153590  0.06326073  1.0
  O  O214  1  0.08153866  0.08943560  0.56326241  1.0
  O  O215  1  0.48173440  0.97393602  0.56328016  1.0
  O  O216  1  0.88346124  0.69304719  0.95787461  1.0
  O  O217  1  0.07449405  0.76484094  0.95790186  1.0
  O  O218  1  0.76481227  0.88341551  0.45789337  1.0
  O  O219  1  0.69304539  0.07444838  0.45788447  1.0
  O  O220  1  0.11653841  0.30695423  0.04212526  1.0
  O  O221  1  0.92550645  0.23515829  0.04209820  1.0
  O  O222  1  0.23518821  0.11658523  0.54210741  1.0
  O  O223  1  0.30695361  0.92555243  0.54211558  1.0
  O  O224  1  0.73473843  0.12667873  0.56342968  1.0
  O  O225  1  0.82868958  0.93678351  0.56343582  1.0
  O  O226  1  0.93670611  0.73473276  0.06341429  1.0
  O  O227  1  0.12664021  0.82870174  0.06346788  1.0
  O  O228  1  0.26526131  0.87332129  0.43657037  1.0
  O  O229  1  0.17131027  0.06321511  0.43656442  1.0
  O  O230  1  0.06329248  0.26526838  0.93658530  1.0
  O  O231  1  0.87335888  0.17129766  0.93653235  1.0
  O  O232  1  0.55767265  0.13914176  0.53826109  1.0
  O  O233  1  0.98061219  0.89919769  0.53828430  1.0
  O  O234  1  0.89915711  0.55764836  0.03829703  1.0
  O  O235  1  0.13906481  0.98055377  0.03827828  1.0
  O  O236  1  0.44232675  0.86085871  0.46173941  1.0
  O  O237  1  0.01938792  0.10080269  0.46171612  1.0
  O  O238  1  0.10084300  0.44235203  0.96170339  1.0
  O  O239  1  0.86093594  0.01944642  0.96172115  1.0
  O  O240  1  0.64336243  0.65583099  0.69919259  1.0
  O  O241  1  0.05584023  0.54340566  0.69918083  1.0
  O  O242  1  0.54334360  0.64342562  0.19917002  1.0
  O  O243  1  0.65580468  0.05576068  0.19918342  1.0
  O  O244  1  0.35664044  0.34416974  0.30080738  1.0
  O  O245  1  0.94415974  0.45659682  0.30081931  1.0
  O  O246  1  0.45665791  0.35657459  0.80083022  1.0
  O  O247  1  0.34419521  0.94423724  0.80081691  1.0
