# generated using pymatgen
data_Zn2H23C46N4O12F5
_symmetry_space_group_name_H-M   'P 1'
_cell_length_a   9.69115668
_cell_length_b   11.01839225
_cell_length_c   23.85018627
_cell_angle_alpha   89.50648844
_cell_angle_beta   90.65156840
_cell_angle_gamma   89.70456558
_symmetry_Int_Tables_number   1
_chemical_formula_structural   Zn2H23C46N4O12F5
_chemical_formula_sum   'Zn2 H23 C46 N4 O12 F5'
_cell_volume   2546.45162329
_cell_formula_units_Z   1
loop_
 _symmetry_equiv_pos_site_id
 _symmetry_equiv_pos_as_xyz
  1  'x, y, z'
loop_
 _atom_site_type_symbol
 _atom_site_label
 _atom_site_symmetry_multiplicity
 _atom_site_fract_x
 _atom_site_fract_y
 _atom_site_fract_z
 _atom_site_occupancy
  Zn  Zn0  1  0.36316290  0.49440935  0.49782186  1.0
  Zn  Zn1  1  0.64390527  0.49384655  0.50051762  1.0
  H  H2  1  0.71675053  0.49169680  0.67878907  1.0
  H  H3  1  0.27299809  0.50272331  0.68035499  1.0
  H  H4  1  0.68398296  0.86643385  0.55461457  1.0
  H  H5  1  0.28142225  0.90601575  0.40095236  1.0
  H  H6  1  0.17709169  0.90219138  0.46229911  1.0
  H  H7  1  0.29620876  0.13286325  0.40746813  1.0
  H  H8  1  0.19261728  0.12952689  0.46887345  1.0
  H  H9  1  0.87686784  0.41912448  0.58019275  1.0
  H  H10  1  0.13806915  0.41217493  0.57785541  1.0
  H  H11  1  0.13078359  0.68399450  0.39827604  1.0
  H  H12  1  0.12783142  0.53537899  0.36783260  1.0
  H  H13  1  0.86473044  0.54303606  0.36932457  1.0
  H  H14  1  0.54378713  0.79088426  0.05073181  1.0
  H  H15  1  0.54049186  0.79060734  0.94444356  1.0
  H  H16  1  0.30605650  0.57854027  0.21268147  1.0
  H  H17  1  0.30560906  0.57458932  0.31764648  1.0
  H  H18  1  0.70616817  0.40342085  0.31893908  1.0
  H  H19  1  0.72174938  0.48784841  0.78419930  1.0
  H  H20  1  0.61022063  0.24230497  0.61743185  1.0
  H  H21  1  0.61611323  0.10086675  0.65387436  1.0
  H  H22  1  0.76280409  0.19691364  0.65366311  1.0
  H  H23  1  0.79926694  0.02679518  0.58705753  1.0
  H  H24  1  0.78849466  0.16670276  0.54999949  1.0
  C  C25  1  0.51845573  0.25876547  0.50775907  1.0
  C  C26  1  0.47660254  0.26960711  0.97013293  1.0
  C  C27  1  0.47719102  0.26988752  0.02960203  1.0
  C  C28  1  0.49047924  0.37661350  0.05962624  1.0
  C  C29  1  0.50485520  0.48710258  0.02886362  1.0
  C  C30  1  0.51996286  0.59878155  0.05724933  1.0
  C  C31  1  0.53272553  0.70692893  0.02731767  1.0
  C  C32  1  0.53108900  0.70679809  0.96865773  1.0
  C  C33  1  0.48753091  0.37654597  0.12185463  1.0
  C  C34  1  0.52294190  0.60300650  0.11933425  1.0
  C  C35  1  0.39253416  0.53978973  0.23646581  1.0
  C  C36  1  0.50365162  0.48685082  0.38801009  1.0
  C  C37  1  0.39238315  0.53746973  0.29477833  1.0
  C  C38  1  0.50477786  0.48874315  0.32495531  1.0
  C  C39  1  0.61826950  0.44237398  0.29619385  1.0
  C  C40  1  0.61615539  0.44446999  0.23805724  1.0
  C  C41  1  0.50436575  0.49208972  0.20752245  1.0
  C  C42  1  0.62436599  0.49036117  0.76088105  1.0
  C  C43  1  0.62169449  0.49264682  0.70260455  1.0
  C  C44  1  0.49560397  0.49663872  0.67335035  1.0
  C  C45  1  0.37142384  0.49853488  0.70274465  1.0
  C  C46  1  0.37621486  0.49559826  0.76081362  1.0
  C  C47  1  0.49846319  0.72926960  0.49903652  1.0
  C  C48  1  0.50115515  0.49153713  0.79044176  1.0
  C  C49  1  0.40693628  0.06421279  0.48349644  1.0
  C  C50  1  0.51359272  0.12376414  0.51132393  1.0
  C  C51  1  0.61443907  0.04930807  0.53885638  1.0
  C  C52  1  0.60503453  0.92283385  0.53415987  1.0
  C  C53  1  0.49918519  0.86359585  0.50418745  1.0
  C  C54  1  0.39860565  0.93823967  0.47991465  1.0
  C  C55  1  0.26935072  0.94231165  0.44342520  1.0
  C  C56  1  0.27887195  0.08533196  0.44745222  1.0
  C  C57  1  0.93004728  0.54347165  0.45909774  1.0
  C  C58  1  0.49465415  0.49822877  0.61036693  1.0
  C  C59  1  0.93350718  0.45405784  0.54434080  1.0
  C  C60  1  0.07769208  0.44920863  0.54284656  1.0
  C  C61  1  0.07317067  0.53800054  0.45735546  1.0
  C  C62  1  0.08227395  0.59422912  0.39961251  1.0
  C  C63  1  0.91870140  0.59907488  0.40036407  1.0
  C  C64  1  0.51652875  0.60251385  0.87758508  1.0
  C  C65  1  0.48605339  0.37553672  0.87686994  1.0
  C  C66  1  0.48891068  0.37612560  0.93917247  1.0
  C  C67  1  0.50378016  0.48688682  0.96900110  1.0
  C  C68  1  0.51718883  0.59850027  0.93969391  1.0
  C  C69  1  0.72887309  0.10135648  0.57485923  1.0
  C  C70  1  0.67614642  0.16382585  0.62790135  1.0
  N  N71  1  0.50218836  0.48990008  0.85066367  1.0
  N  N72  1  0.50515489  0.49102497  0.14734347  1.0
  N  N73  1  0.85654239  0.50123979  0.50155975  1.0
  N  N74  1  0.15049849  0.49020761  0.49837908  1.0
  O  O75  1  0.40210658  0.31386441  0.50765169  1.0
  O  O76  1  0.47145645  0.28403287  0.84867207  1.0
  O  O77  1  0.47000015  0.28555424  0.15069467  1.0
  O  O78  1  0.53925877  0.69710153  0.14570190  1.0
  O  O79  1  0.63559297  0.30946681  0.50285866  1.0
  O  O80  1  0.38577635  0.48396811  0.41099451  1.0
  O  O81  1  0.62010628  0.48874975  0.41325125  1.0
  O  O82  1  0.38230635  0.67827479  0.49017281  1.0
  O  O83  1  0.61443446  0.67479260  0.50383127  1.0
  O  O84  1  0.37841278  0.50953216  0.58535109  1.0
  O  O85  1  0.61141434  0.48746893  0.58691693  1.0
  O  O86  1  0.52790302  0.69673355  0.85030382  1.0
  F  F87  1  0.46307374  0.16086420  0.94619826  1.0
  F  F88  1  0.25643550  0.49710427  0.79012672  1.0
  F  F89  1  0.46396299  0.16137822  0.05451140  1.0
  F  F90  1  0.86392500  0.71570067  0.39766267  1.0
  F  F91  1  0.72592997  0.39944238  0.20972247  1.0
