# generated using pymatgen
data_AlH10C14N2O5
_symmetry_space_group_name_H-M   'P 1'
_cell_length_a   6.65161548
_cell_length_b   11.08900984
_cell_length_c   17.72067185
_cell_angle_alpha   89.50024788
_cell_angle_beta   79.90657418
_cell_angle_gamma   73.12385170
_symmetry_Int_Tables_number   1
_chemical_formula_structural   AlH10C14N2O5
_chemical_formula_sum   'Al2 H20 C28 N4 O10'
_cell_volume   1230.19265565
_cell_formula_units_Z   2
loop_
 _symmetry_equiv_pos_site_id
 _symmetry_equiv_pos_as_xyz
  1  'x, y, z'
loop_
 _atom_site_type_symbol
 _atom_site_label
 _atom_site_symmetry_multiplicity
 _atom_site_fract_x
 _atom_site_fract_y
 _atom_site_fract_z
 _atom_site_occupancy
  Al  Al0  1  0.00317217  0.50562691  0.49714241  1.0
  Al  Al1  1  0.50169728  0.50868431  0.49703786  1.0
  H  H2  1  0.35134594  0.35298804  0.46308490  1.0
  H  H3  1  0.65820131  0.65692520  0.54347548  1.0
  H  H4  1  0.87241311  0.42746333  0.71906051  1.0
  H  H5  1  0.80597347  0.40430814  0.86148589  1.0
  H  H6  1  0.43575565  0.53408446  0.73541266  1.0
  H  H7  1  0.53129917  0.54977723  0.26239778  1.0
  H  H8  1  0.20342527  0.43535615  0.26805291  1.0
  H  H9  1  0.28489347  0.41299458  0.12437638  1.0
  H  H10  1  0.56714918  0.24184837  0.60976654  1.0
  H  H11  1  0.35565166  0.12607117  0.69164919  1.0
  H  H12  1  0.80202862  0.77326120  0.59886092  1.0
  H  H13  1  0.47469190  0.88952279  0.68608354  1.0
  H  H14  1  0.33504156  0.54085737  0.94574333  1.0
  H  H15  1  0.49184594  0.57565942  0.86547353  1.0
  H  H16  1  0.61412946  0.55211192  0.05226749  1.0
  H  H17  1  0.42672815  0.58953637  0.13545072  1.0
  H  H18  1  0.44595928  0.78870926  0.41465845  1.0
  H  H19  1  0.49344285  0.92962313  0.40272476  1.0
  H  H20  1  0.18619676  0.22827877  0.40369974  1.0
  H  H21  1  0.31049218  0.08796886  0.35555298  1.0
  C  C22  1  0.86188884  0.27989865  0.50464995  1.0
  C  C23  1  0.81369478  0.50233117  0.35798817  1.0
  C  C24  1  0.13613468  0.73455449  0.49206238  1.0
  C  C25  1  0.19537994  0.49985906  0.63581220  1.0
  C  C26  1  0.15652313  0.48390913  0.72020573  1.0
  C  C27  1  0.97769454  0.44719490  0.75478947  1.0
  C  C28  1  0.94075683  0.43543672  0.83359402  1.0
  C  C29  1  0.07478457  0.46450147  0.87970712  1.0
  C  C30  1  0.25721070  0.50077195  0.84428398  1.0
  C  C31  1  0.29675760  0.50754556  0.76420167  1.0
  C  C32  1  0.02917966  0.46237170  0.96047732  1.0
  C  C33  1  0.99963867  0.46588258  0.03078047  1.0
  C  C34  1  0.95444337  0.47334846  0.11174425  1.0
  C  C35  1  0.73738054  0.51312480  0.15060076  1.0
  C  C36  1  0.69549543  0.52136477  0.23106451  1.0
  C  C37  1  0.86226379  0.49405068  0.27252023  1.0
  C  C38  1  0.07618134  0.45613571  0.23441010  1.0
  C  C39  1  0.12030430  0.44460906  0.15496582  1.0
  C  C40  1  0.93028776  0.14013212  0.50463625  1.0
  C  C41  1  0.80284606  0.07472392  0.55228181  1.0
  C  C42  1  0.11963949  0.07554759  0.45630910  1.0
  C  C43  1  0.61681301  0.13920319  0.60534449  1.0
  C  C44  1  0.49835418  0.07416433  0.65162753  1.0
  C  C45  1  0.06419787  0.87447447  0.49750444  1.0
  C  C46  1  0.19253584  0.93999634  0.45503441  1.0
  C  C47  1  0.86916421  0.93949865  0.54784742  1.0
  C  C48  1  0.74715204  0.87568888  0.59810379  1.0
  C  C49  1  0.56491082  0.94123227  0.64824065  1.0
  N  N50  1  0.39227766  0.52580572  0.88857568  1.0
  N  N51  1  0.57449989  0.53864518  0.10899364  1.0
  N  N52  1  0.38287337  0.88185154  0.40583819  1.0
  N  N53  1  0.24783309  0.13373114  0.40770155  1.0
  O  O54  1  0.00235363  0.33492044  0.51149805  1.0
  O  O55  1  0.61898619  0.52377216  0.39048908  1.0
  O  O56  1  0.33069179  0.67962722  0.49750683  1.0
  O  O57  1  0.03467009  0.51764738  0.60247128  1.0
  O  O58  1  0.00263882  0.67656691  0.48227264  1.0
  O  O59  1  0.38428443  0.49647616  0.60365086  1.0
  O  O60  1  0.67231551  0.33658739  0.49547651  1.0
  O  O61  1  0.97273377  0.48489000  0.39228967  1.0
  O  O62  1  0.29874001  0.44461213  0.46519452  1.0
  O  O63  1  0.70857497  0.56744123  0.52926124  1.0
