# generated using pymatgen
data_AlH18C21(N3O2)3
_symmetry_space_group_name_H-M   'P 1'
_cell_length_a   3.92957342
_cell_length_b   27.97034004
_cell_length_c   27.97040356
_cell_angle_alpha   59.99995844
_cell_angle_beta   89.99947333
_cell_angle_gamma   90.00013309
_symmetry_Int_Tables_number   1
_chemical_formula_structural   AlH18C21(N3O2)3
_chemical_formula_sum   'Al2 H36 C42 N18 O12'
_cell_volume   2662.39406175
_cell_formula_units_Z   2
loop_
 _symmetry_equiv_pos_site_id
 _symmetry_equiv_pos_as_xyz
  1  'x, y, z'
loop_
 _atom_site_type_symbol
 _atom_site_label
 _atom_site_symmetry_multiplicity
 _atom_site_fract_x
 _atom_site_fract_y
 _atom_site_fract_z
 _atom_site_occupancy
  Al  Al0  1  0.01139524  0.49999906  0.00000153  1.0
  Al  Al1  1  0.07315574  0.16666596  0.66666801  1.0
  H  H2  1  0.84473679  0.29882976  0.51112333  1.0
  H  H3  1  0.82525507  0.34904150  0.40738795  1.0
  H  H4  1  0.28410048  0.45323444  0.25379519  1.0
  H  H5  1  0.82803862  0.31627228  0.26161423  1.0
  H  H6  1  0.84474416  0.19004587  0.79882919  1.0
  H  H7  1  0.82528820  0.24356820  0.84904134  1.0
  H  H8  1  0.28413730  0.29297189  0.95323291  1.0
  H  H9  1  0.82809758  0.42211677  0.81627568  1.0
  H  H10  1  0.84471589  0.01112184  0.69004886  1.0
  H  H11  1  0.82525353  0.90738714  0.74357256  1.0
  H  H12  1  0.28410800  0.75379277  0.79297367  1.0
  H  H13  1  0.82803555  0.76161109  0.92211606  1.0
  H  H14  1  0.23164687  0.13473103  0.56385440  1.0
  H  H15  1  0.23104062  0.13010947  0.50423111  1.0
  H  H16  1  0.23427531  0.23083725  0.36793910  1.0
  H  H17  1  0.01287753  0.18784509  0.42516205  1.0
  H  H18  1  0.12418519  0.51900420  0.10784275  1.0
  H  H19  1  0.03493934  0.51666553  0.16907699  1.0
  H  H20  1  0.90614410  0.37799002  0.11427157  1.0
  H  H21  1  0.02756273  0.32543254  0.17812025  1.0
  H  H22  1  0.23164068  0.30141787  0.63473453  1.0
  H  H23  1  0.23101785  0.36566197  0.63011612  1.0
  H  H24  1  0.23428009  0.40122032  0.73084661  1.0
  H  H25  1  0.01286299  0.38698801  0.68785768  1.0
  H  H26  1  0.12416669  0.37315435  0.01900164  1.0
  H  H27  1  0.03492763  0.31425866  0.01666146  1.0
  H  H28  1  0.90615808  0.50774209  0.87799102  1.0
  H  H29  1  0.02760382  0.49645107  0.82543540  1.0
  H  H30  1  0.23163584  0.06384881  0.80141919  1.0
  H  H31  1  0.23103012  0.00422406  0.86566459  1.0
  H  H32  1  0.23428559  0.86793315  0.90122775  1.0
  H  H33  1  0.01287061  0.92515389  0.88699809  1.0
  H  H34  1  0.12418099  0.60783978  0.87315660  1.0
  H  H35  1  0.03493456  0.66907444  0.81426113  1.0
  H  H36  1  0.90614692  0.61426999  0.00774027  1.0
  H  H37  1  0.02757405  0.67811768  0.99644933  1.0
  C  C38  1  0.51412886  0.58662976  0.95388007  1.0
  C  C39  1  0.51413108  0.45948941  0.08663252  1.0
  C  C40  1  0.51413274  0.45387704  0.95949306  1.0
  C  C41  1  0.57198655  0.20237349  0.58131708  1.0
  C  C42  1  0.57199533  0.21630996  0.70237598  1.0
  C  C43  1  0.57198365  0.08131248  0.71631325  1.0
  C  C44  1  0.55054879  0.22972737  0.52081900  1.0
  C  C45  1  0.71090099  0.28166890  0.48904744  1.0
  C  C46  1  0.70297348  0.30913892  0.43228915  1.0
  C  C47  1  0.54238679  0.28401744  0.40522879  1.0
  C  C48  1  0.39034851  0.23146275  0.43568755  1.0
  C  C49  1  0.38652404  0.20411938  0.49446209  1.0
  C  C50  1  0.39895576  0.43397832  0.23212734  1.0
  C  C51  1  0.55244429  0.38232612  0.26262461  1.0
  C  C52  1  0.69892395  0.35562260  0.23678923  1.0
  C  C53  1  0.70029264  0.38123006  0.17908969  1.0
  C  C54  1  0.52590623  0.43296539  0.14674007  1.0
  C  C55  1  0.36674826  0.45842725  0.17470195  1.0
  C  C56  1  0.55055468  0.24945286  0.72973003  1.0
  C  C57  1  0.71090897  0.22928341  0.78166937  1.0
  C  C58  1  0.70299648  0.25856959  0.80914025  1.0
  C  C59  1  0.54242303  0.31075373  0.78402091  1.0
  C  C60  1  0.39036520  0.33285004  0.73146661  1.0
  C  C61  1  0.38652321  0.30142021  0.70412290  1.0
  C  C62  1  0.39899805  0.33389621  0.93397922  1.0
  C  C63  1  0.55250006  0.35505077  0.88232749  1.0
  C  C64  1  0.69899562  0.40759301  0.85561970  1.0
  C  C65  1  0.70033104  0.43968030  0.88123448  1.0
  C  C66  1  0.52593618  0.42029662  0.93296756  1.0
  C  C67  1  0.36677261  0.36687049  0.95842779  1.0
  C  C68  1  0.55053701  0.02081704  0.74945529  1.0
  C  C69  1  0.71088344  0.98904578  0.72928456  1.0
  C  C70  1  0.70297531  0.93228660  0.75857364  1.0
  C  C71  1  0.54239105  0.90522499  0.81075751  1.0
  C  C72  1  0.39034096  0.93568378  0.83285349  1.0
  C  C73  1  0.38650489  0.99445615  0.80142431  1.0
  C  C74  1  0.39896626  0.73212366  0.83389859  1.0
  C  C75  1  0.55244555  0.76262150  0.85505137  1.0
  C  C76  1  0.69894041  0.73678782  0.90759247  1.0
  C  C77  1  0.70029274  0.67908703  0.93968217  1.0
  C  C78  1  0.52590780  0.64673631  0.92029880  1.0
  C  C79  1  0.36675003  0.67470019  0.86687302  1.0
  N  N80  1  0.52009130  0.30780986  0.34784509  1.0
  N  N81  1  0.55774556  0.35983988  0.32035551  1.0
  N  N82  1  0.52014527  0.34434562  0.80781059  1.0
  N  N83  1  0.55781918  0.31980590  0.85984236  1.0
  N  N84  1  0.52010717  0.84784265  0.84434829  1.0
  N  N85  1  0.55775818  0.82035282  0.81980805  1.0
  N  N86  1  0.22158117  0.15409824  0.52192166  1.0
  N  N87  1  0.24423408  0.20519369  0.40964314  1.0
  N  N88  1  0.20233988  0.50848544  0.14651819  1.0
  N  N89  1  0.84941120  0.35389584  0.15499479  1.0
  N  N90  1  0.22158568  0.32398231  0.65410322  1.0
  N  N91  1  0.24424374  0.38516172  0.70520125  1.0
  N  N92  1  0.20233307  0.34499860  0.00848311  1.0
  N  N93  1  0.84945031  0.49111326  0.85389796  1.0
  N  N94  1  0.22157006  0.02191509  0.82398450  1.0
  N  N95  1  0.24423664  0.90963652  0.88516739  1.0
  N  N96  1  0.20233575  0.64651419  0.84500069  1.0
  N  N97  1  0.84941134  0.65499150  0.99111234  1.0
  O  O98  1  0.27677240  0.44535852  0.99487153  1.0
  O  O99  1  0.27678002  0.55976829  0.94536201  1.0
  O  O100  1  0.27676552  0.49486946  0.05977031  1.0
  O  O101  1  0.74163650  0.49166361  0.94749308  1.0
  O  O102  1  0.74163492  0.44749046  0.06084781  1.0
  O  O103  1  0.74164064  0.56084566  0.99166368  1.0
  O  O104  1  0.34643241  0.11026737  0.72409939  1.0
  O  O105  1  0.34644937  0.16563287  0.61027031  1.0
  O  O106  1  0.34644796  0.22409848  0.66563436  1.0
  O  O107  1  0.81331399  0.10290611  0.68111888  1.0
  O  O108  1  0.81330579  0.18111555  0.71597685  1.0
  O  O109  1  0.81332256  0.21597537  0.60290863  1.0
