# generated using pymatgen
data_ZnH2C16I4(NO3)2
_symmetry_space_group_name_H-M   'P 1'
_cell_length_a   8.09239171
_cell_length_b   9.27657351
_cell_length_c   23.72346917
_cell_angle_alpha   89.99910767
_cell_angle_beta   89.99818639
_cell_angle_gamma   88.24279289
_symmetry_Int_Tables_number   1
_chemical_formula_structural   ZnH2C16I4(NO3)2
_chemical_formula_sum   'Zn2 H4 C32 I8 N4 O12'
_cell_volume   1780.07543005
_cell_formula_units_Z   2
loop_
 _symmetry_equiv_pos_site_id
 _symmetry_equiv_pos_as_xyz
  1  'x, y, z'
loop_
 _atom_site_type_symbol
 _atom_site_label
 _atom_site_symmetry_multiplicity
 _atom_site_fract_x
 _atom_site_fract_y
 _atom_site_fract_z
 _atom_site_occupancy
  Zn  Zn0  1  0.33853557  0.50854704  0.49999996  1.0
  Zn  Zn1  1  0.66143739  0.49141790  0.49999524  1.0
  H  H2  1  0.11543678  0.64896384  0.05347481  1.0
  H  H3  1  0.88455513  0.35105257  0.94652377  1.0
  H  H4  1  0.88455775  0.35102636  0.05346256  1.0
  H  H5  1  0.11543207  0.64896637  0.94652969  1.0
  C  C6  1  0.49402015  0.77906919  0.50001073  1.0
  C  C7  1  0.50594678  0.22088614  0.50001145  1.0
  C  C8  1  0.50000094  0.50003816  0.79114705  1.0
  C  C9  1  0.49998914  0.50001493  0.20884984  1.0
  C  C10  1  0.49998403  0.49999160  0.60961289  1.0
  C  C11  1  0.49999746  0.49998076  0.39037683  1.0
  C  C12  1  0.44472416  0.37907828  0.70281867  1.0
  C  C13  1  0.55528886  0.62093243  0.29718285  1.0
  C  C14  1  0.55526149  0.62096649  0.70280903  1.0
  C  C15  1  0.44470635  0.37908692  0.29718112  1.0
  C  C16  1  0.49999176  0.50001746  0.67340584  1.0
  C  C17  1  0.49999885  0.50000328  0.32658936  1.0
  C  C18  1  0.64256825  0.44113346  0.12164778  1.0
  C  C19  1  0.35745299  0.55890409  0.87835332  1.0
  C  C20  1  0.35744976  0.55891144  0.12164865  1.0
  C  C21  1  0.64255955  0.44117587  0.87834613  1.0
  C  C22  1  0.35909627  0.55537820  0.05925095  1.0
  C  C23  1  0.64098680  0.44481046  0.94074383  1.0
  C  C24  1  0.64097856  0.44479716  0.05924965  1.0
  C  C25  1  0.35910101  0.55537861  0.94075146  1.0
  C  C26  1  0.50005608  0.50012344  0.03005727  1.0
  C  C27  1  0.50006675  0.50012933  0.96994131  1.0
  C  C28  1  0.22185733  0.60766893  0.02960417  1.0
  C  C29  1  0.77818017  0.39243306  0.97039609  1.0
  C  C30  1  0.77817589  0.39241739  0.02959861  1.0
  C  C31  1  0.22185071  0.60767075  0.97040039  1.0
  C  C32  1  0.49970728  0.93459585  0.50003376  1.0
  C  C33  1  0.50027433  0.06536896  0.50003353  1.0
  C  C34  1  0.44280924  0.37963563  0.76202966  1.0
  C  C35  1  0.55721815  0.62040291  0.23797397  1.0
  C  C36  1  0.55717940  0.62042776  0.76201917  1.0
  C  C37  1  0.44275650  0.37961318  0.23796719  1.0
  I  I38  1  0.35582910  0.20531526  0.80863125  1.0
  I  I39  1  0.64424178  0.79470863  0.19137913  1.0
  I  I40  1  0.64415932  0.79476288  0.80860715  1.0
  I  I41  1  0.35571403  0.20532534  0.19137709  1.0
  I  I42  1  0.37286312  0.19726565  0.65703114  1.0
  I  I43  1  0.62721694  0.80272576  0.34297966  1.0
  I  I44  1  0.62713998  0.80276195  0.65700330  1.0
  I  I45  1  0.37284460  0.19724918  0.34297715  1.0
  N  N46  1  0.50000538  0.50002209  0.14844636  1.0
  N  N47  1  0.50001028  0.50005435  0.85154378  1.0
  N  N48  1  0.93178480  0.49731968  0.49999607  1.0
  N  N49  1  0.06819045  0.50265708  0.49999913  1.0
  O  O50  1  0.35068819  0.72662644  0.50000546  1.0
  O  O51  1  0.64927107  0.27334517  0.50000492  1.0
  O  O52  1  0.36719927  0.29019228  0.49999982  1.0
  O  O53  1  0.63276892  0.70976195  0.50000002  1.0
  O  O54  1  0.36019948  0.51590353  0.58564375  1.0
  O  O55  1  0.63977094  0.48406576  0.41435061  1.0
  O  O56  1  0.36022553  0.51591010  0.41435388  1.0
  O  O57  1  0.63977057  0.48407607  0.58564006  1.0
  O  O58  1  0.75832718  0.39085519  0.14946226  1.0
  O  O59  1  0.24162698  0.60912620  0.85053927  1.0
  O  O60  1  0.24163988  0.60913138  0.14946432  1.0
  O  O61  1  0.75834580  0.39088835  0.85053426  1.0
