# generated using pymatgen
data_AlH7C12NO5F
_symmetry_space_group_name_H-M   'P 1'
_cell_length_a   6.64964428
_cell_length_b   11.15251790
_cell_length_c   17.78987884
_cell_angle_alpha   89.92337950
_cell_angle_beta   79.70422718
_cell_angle_gamma   72.76865331
_symmetry_Int_Tables_number   1
_chemical_formula_structural   AlH7C12NO5F
_chemical_formula_sum   'Al2 H14 C24 N2 O10 F2'
_cell_volume   1237.92673271
_cell_formula_units_Z   2
loop_
 _symmetry_equiv_pos_site_id
 _symmetry_equiv_pos_as_xyz
  1  'x, y, z'
loop_
 _atom_site_type_symbol
 _atom_site_label
 _atom_site_symmetry_multiplicity
 _atom_site_fract_x
 _atom_site_fract_y
 _atom_site_fract_z
 _atom_site_occupancy
  Al  Al0  1  0.00604125  0.48701826  0.50019457  1.0
  Al  Al1  1  0.50456656  0.48979628  0.49928209  1.0
  H  H2  1  0.35396166  0.34077361  0.45063137  1.0
  H  H3  1  0.66312434  0.64105091  0.53890072  1.0
  H  H4  1  0.77856809  0.86427635  0.46332557  1.0
  H  H5  1  0.22582710  0.11377584  0.53776197  1.0
  H  H6  1  0.19721578  0.43839744  0.26673870  1.0
  H  H7  1  0.27509401  0.44416694  0.12420215  1.0
  H  H8  1  0.59466923  0.57155064  0.12580782  1.0
  H  H9  1  0.33570981  0.56492581  0.87882716  1.0
  H  H10  1  0.88126027  0.42189487  0.72852958  1.0
  H  H11  1  0.79890232  0.42552457  0.87131607  1.0
  H  H12  1  0.43993877  0.54955877  0.32891652  1.0
  H  H13  1  0.35469984  0.59126756  0.24305137  1.0
  H  H14  1  0.50747782  0.55334755  0.67384725  1.0
  H  H15  1  0.55625296  0.58523760  0.76420199  1.0
  C  C16  1  0.82582365  0.49140923  0.36059259  1.0
  C  C17  1  0.85683621  0.26263137  0.50556885  1.0
  C  C18  1  0.18213745  0.49100737  0.63861903  1.0
  C  C19  1  0.15068472  0.71531432  0.49421539  1.0
  C  C20  1  0.92714762  0.12226043  0.50326223  1.0
  C  C21  1  0.07753776  0.85565902  0.49768868  1.0
  C  C22  1  0.80520242  0.04851913  0.48261841  1.0
  C  C23  1  0.19911731  0.92939702  0.51866147  1.0
  C  C24  1  0.87722418  0.91838009  0.47983449  1.0
  C  C25  1  0.12714976  0.05949848  0.52141407  1.0
  C  C26  1  0.85625504  0.50071131  0.27690924  1.0
  C  C27  1  0.06696195  0.46921408  0.23488642  1.0
  C  C28  1  0.11105993  0.47257131  0.15608560  1.0
  C  C29  1  0.93777580  0.50931475  0.11607066  1.0
  C  C30  1  0.72715998  0.54275804  0.15690099  1.0
  C  C31  1  0.68049785  0.53870629  0.23731663  1.0
  C  C32  1  0.97830881  0.50810379  0.03505660  1.0
  C  C33  1  0.01682688  0.50366246  0.96522483  1.0
  C  C34  1  0.06149844  0.49829785  0.88414805  1.0
  C  C35  1  0.23585020  0.53339385  0.84572668  1.0
  C  C36  1  0.28688760  0.53032336  0.76493963  1.0
  C  C37  1  0.15084800  0.49143553  0.72257001  1.0
  C  C38  1  0.97805061  0.45418079  0.76256457  1.0
  C  C39  1  0.93116851  0.45650919  0.84149535  1.0
  N  N40  1  0.47211365  0.57544760  0.27437763  1.0
  N  N41  1  0.45781738  0.56708678  0.73146977  1.0
  O  O42  1  0.97875004  0.49545149  0.39400621  1.0
  O  O43  1  0.65757956  0.31899379  0.51355668  1.0
  O  O44  1  0.35555412  0.50932853  0.60250372  1.0
  O  O45  1  0.00542247  0.66088338  0.50136820  1.0
  O  O46  1  0.03512198  0.47534354  0.60562935  1.0
  O  O47  1  0.35096846  0.66096748  0.48430438  1.0
  O  O48  1  0.64760431  0.47739155  0.39508793  1.0
  O  O49  1  0.00448706  0.31500113  0.49923758  1.0
  O  O50  1  0.30095213  0.42958837  0.46617530  1.0
  O  O51  1  0.70925147  0.54986698  0.53273737  1.0
  F  F52  1  0.61184182  0.10316715  0.46250789  1.0
  F  F53  1  0.39212800  0.87486756  0.53905959  1.0
