# generated using pymatgen
data_AlH7C13O6F
_symmetry_space_group_name_H-M   'P 1'
_cell_length_a   6.61317031
_cell_length_b   11.05628718
_cell_length_c   15.22471836
_cell_angle_alpha   92.69550288
_cell_angle_beta   100.36666391
_cell_angle_gamma   106.19101623
_symmetry_Int_Tables_number   1
_chemical_formula_structural   AlH7C13O6F
_chemical_formula_sum   'Al2 H14 C26 O12 F2'
_cell_volume   1046.00295124
_cell_formula_units_Z   2
loop_
 _symmetry_equiv_pos_site_id
 _symmetry_equiv_pos_as_xyz
  1  'x, y, z'
loop_
 _atom_site_type_symbol
 _atom_site_label
 _atom_site_symmetry_multiplicity
 _atom_site_fract_x
 _atom_site_fract_y
 _atom_site_fract_z
 _atom_site_occupancy
  Al  Al0  1  0.00812701  0.50477835  0.51067485  1.0
  Al  Al1  1  0.50690803  0.50521439  0.50889749  1.0
  H  H2  1  0.34177395  0.57323315  0.62054232  1.0
  H  H3  1  0.66220211  0.36639621  0.43144778  1.0
  H  H4  1  0.70712842  0.58403842  0.95762608  1.0
  H  H5  1  0.33663995  0.46927956  0.06371981  1.0
  H  H6  1  0.83956906  0.55147586  0.25029390  1.0
  H  H7  1  0.73520810  0.54064663  0.08621216  1.0
  H  H8  1  0.12657116  0.41557418  0.77041026  1.0
  H  H9  1  0.21250772  0.41228773  0.93399071  1.0
  H  H10  1  0.52655508  0.75985158  0.38166927  1.0
  H  H11  1  0.30283048  0.86723379  0.28745101  1.0
  H  H12  1  0.79350840  0.22207883  0.36764095  1.0
  H  H13  1  0.43880535  0.10153882  0.27981997  1.0
  H  H14  1  0.44887767  0.21472112  0.55248374  1.0
  H  H15  1  0.22024109  0.78860672  0.55581761  1.0
  C  C16  1  0.85265986  0.73172641  0.50183488  1.0
  C  C17  1  0.82721195  0.49734503  0.67096142  1.0
  C  C18  1  0.14770927  0.27231413  0.49485589  1.0
  C  C19  1  0.18490134  0.51323677  0.35010410  1.0
  C  C20  1  0.86687477  0.49582615  0.77024513  1.0
  C  C21  1  0.13913101  0.51275599  0.25071904  1.0
  C  C22  1  0.75038253  0.53985241  0.82640884  1.0
  C  C23  1  0.80025684  0.54327161  0.91916038  1.0
  C  C24  1  0.27288834  0.48870790  0.19450448  1.0
  C  C25  1  0.22122716  0.48616643  0.10189036  1.0
  C  C26  1  0.94636906  0.53329489  0.20801802  1.0
  C  C27  1  0.88978982  0.52809402  0.11540181  1.0
  C  C28  1  0.03477876  0.45089103  0.81275358  1.0
  C  C29  1  0.08380218  0.45090842  0.90516549  1.0
  C  C30  1  0.96956144  0.49909385  0.96090082  1.0
  C  C31  1  0.02645648  0.50458484  0.05981710  1.0
  C  C32  1  0.92739446  0.86536077  0.48480856  1.0
  C  C33  1  0.78803871  0.92873036  0.43339412  1.0
  C  C34  1  0.14245568  0.93268675  0.52137212  1.0
  C  C35  1  0.58401853  0.86160641  0.38062019  1.0
  C  C36  1  0.45856573  0.92221001  0.32739307  1.0
  C  C37  1  0.07511523  0.13304736  0.48078456  1.0
  C  C38  1  0.21606894  0.06788866  0.52000953  1.0
  C  C39  1  0.86334368  0.06303914  0.43061851  1.0
  C  C40  1  0.73273363  0.12155007  0.37367888  1.0
  C  C41  1  0.53400411  0.05331342  0.32341225  1.0
  O  O42  1  0.99886723  0.67592198  0.52824168  1.0
  O  O43  1  0.65288997  0.51569251  0.63189438  1.0
  O  O44  1  0.35345997  0.32782911  0.51646122  1.0
  O  O45  1  0.04555942  0.53582841  0.39106118  1.0
  O  O46  1  0.00976140  0.33341639  0.48766141  1.0
  O  O47  1  0.35536811  0.48910989  0.38760657  1.0
  O  O48  1  0.65402246  0.67545585  0.49437848  1.0
  O  O49  1  0.97480797  0.48068442  0.63234238  1.0
  O  O50  1  0.30328574  0.56108936  0.55537650  1.0
  O  O51  1  0.71340225  0.44690850  0.46830850  1.0
  O  O52  1  0.42022152  0.12288044  0.56195653  1.0
  O  O53  1  0.29096321  0.88247869  0.56291187  1.0
  F  F54  1  0.58495834  0.58547145  0.79193781  1.0
  F  F55  1  0.46147060  0.46599357  0.22878398  1.0
