# generated using pymatgen
data_Zr3H11C69(Br15O8)2
_symmetry_space_group_name_H-M   'P 1'
_cell_length_a   19.96716385
_cell_length_b   20.00517376
_cell_length_c   20.03626026
_cell_angle_alpha   94.42283395
_cell_angle_beta   93.36645097
_cell_angle_gamma   94.15772791
_symmetry_Int_Tables_number   1
_chemical_formula_structural   Zr3H11C69(Br15O8)2
_chemical_formula_sum   'Zr6 H22 C138 Br60 O32'
_cell_volume   7941.91957073
_cell_formula_units_Z   2
loop_
 _symmetry_equiv_pos_site_id
 _symmetry_equiv_pos_as_xyz
  1  'x, y, z'
loop_
 _atom_site_type_symbol
 _atom_site_label
 _atom_site_symmetry_multiplicity
 _atom_site_fract_x
 _atom_site_fract_y
 _atom_site_fract_z
 _atom_site_occupancy
  Zr  Zr0  1  0.81245757  0.96457711  0.86861121  1.0
  Zr  Zr1  1  0.77603006  0.86194143  0.00103131  1.0
  Zr  Zr2  1  0.98001793  0.99863284  0.93820018  1.0
  Zr  Zr3  1  0.91321381  0.83129088  0.90211949  1.0
  Zr  Zr4  1  0.84110999  0.03125288  0.03527584  1.0
  Zr  Zr5  1  0.94134692  0.89780554  0.07122687  1.0
  H  H6  1  0.92738563  0.30310959  0.60088637  1.0
  H  H7  1  0.93520279  0.28233973  0.38608211  1.0
  H  H8  1  0.96347507  0.11220483  0.50037931  1.0
  H  H9  1  0.79830480  0.75170934  0.44062389  1.0
  H  H10  1  0.84495884  0.58983634  0.56039813  1.0
  H  H11  1  0.84430974  0.56169036  0.34497332  1.0
  H  H12  1  0.24931175  0.55228794  0.99897481  1.0
  H  H13  1  0.21235875  0.33652492  0.98754648  1.0
  H  H14  1  0.05213736  0.46287471  0.03060912  1.0
  H  H15  1  0.50446503  0.31080707  0.91823394  1.0
  H  H16  1  0.54786916  0.52568917  0.94208628  1.0
  H  H17  1  0.70807727  0.39610101  0.91200537  1.0
  H  H18  1  0.48919129  0.88939174  0.32093641  1.0
  H  H19  1  0.27582317  0.90847887  0.30662598  1.0
  H  H20  1  0.39837630  0.98563280  0.15691950  1.0
  H  H21  1  0.25439559  0.84517761  0.59451825  1.0
  H  H22  1  0.47018482  0.85695399  0.62748702  1.0
  H  H23  1  0.34567410  0.85304544  0.79537128  1.0
  H  H24  1  0.77435863  0.82357760  0.86148326  1.0
  H  H25  1  0.87862679  0.08972165  0.91736764  1.0
  H  H26  1  0.03700079  0.87933145  0.97348958  1.0
  H  H27  1  0.82001345  0.93195716  0.12709934  1.0
  C  C28  1  0.94874395  0.20520692  0.55769197  1.0
  C  C29  1  0.93624801  0.27290186  0.55505844  1.0
  C  C30  1  0.93203376  0.30095137  0.49311335  1.0
  C  C31  1  0.94068533  0.26100334  0.43436238  1.0
  C  C32  1  0.95132348  0.19273403  0.43632331  1.0
  C  C33  1  0.95681748  0.16560028  0.49829981  1.0
  C  C34  1  0.81876867  0.65921914  0.38542038  1.0
  C  C35  1  0.80943750  0.69949253  0.44403540  1.0
  C  C36  1  0.81920336  0.67507850  0.50701332  1.0
  C  C37  1  0.83581987  0.60884531  0.51135518  1.0
  C  C38  1  0.84384146  0.56759798  0.45315980  1.0
  C  C39  1  0.83547889  0.59289495  0.39014573  1.0
  C  C40  1  0.14811995  0.51473793  0.01626665  1.0
  C  C41  1  0.21530193  0.50786596  0.00314479  1.0
  C  C42  1  0.23850769  0.44364814  0.99298000  1.0
  C  C43  1  0.19441459  0.38642659  0.99645071  1.0
  C  C44  1  0.12735365  0.39321766  0.01080261  1.0
  C  C45  1  0.10472211  0.45736210  0.02093941  1.0
  C  C46  1  0.60888493  0.34591712  0.91379286  1.0
  C  C47  1  0.54052053  0.35457124  0.91991243  1.0
  C  C48  1  0.51843922  0.41903115  0.93133519  1.0
  C  C49  1  0.56469319  0.47528482  0.93325753  1.0
  C  C50  1  0.63274139  0.46697153  0.92476522  1.0
  C  C51  1  0.65469029  0.40241964  0.91615771  1.0
  C  C52  1  0.45213192  0.93748187  0.23438416  1.0
  C  C53  1  0.44549165  0.90688020  0.29447655  1.0
  C  C54  1  0.38291193  0.90050496  0.32243406  1.0
  C  C55  1  0.32501943  0.91674903  0.28643345  1.0
  C  C56  1  0.33071950  0.94494306  0.22516794  1.0
  C  C57  1  0.39433026  0.95943104  0.20227234  1.0
  C  C58  1  0.29255142  0.84762352  0.69790527  1.0
  C  C59  1  0.29901709  0.84620822  0.62868159  1.0
  C  C60  1  0.36282687  0.84998414  0.60318874  1.0
  C  C61  1  0.42032965  0.85235553  0.64696001  1.0
  C  C62  1  0.41392810  0.85216598  0.71605136  1.0
  C  C63  1  0.35027197  0.85025216  0.74130305  1.0
  C  C64  1  0.92437419  0.05360035  0.79611925  1.0
  C  C65  1  0.66535822  0.89173949  0.88081008  1.0
  C  C66  1  0.84190950  0.84584628  0.75594472  1.0
  C  C67  1  0.74663363  0.10003431  0.93023762  1.0
  C  C68  1  0.83231504  0.80398448  0.14165228  1.0
  C  C69  1  0.08757232  0.97373393  0.06141674  1.0
  C  C70  1  0.79797193  0.71599050  0.93170753  1.0
  C  C71  1  0.69847697  0.96452135  0.09179470  1.0
  C  C72  1  0.96132180  0.14470835  0.01374981  1.0
  C  C73  1  0.05143182  0.89053934  0.84219258  1.0
  C  C74  1  0.99772914  0.75507523  0.01068870  1.0
  C  C75  1  0.91746935  0.02791693  0.17959850  1.0
  C  C76  1  0.14543154  0.81760422  0.80752564  1.0
  C  C77  1  0.11025040  0.87554319  0.80029206  1.0
  C  C78  1  0.13195570  0.92023260  0.75354847  1.0
  C  C79  1  0.19053911  0.91069312  0.71968402  1.0
  C  C80  1  0.22688381  0.85383991  0.72811285  1.0
  C  C81  1  0.20178578  0.80629776  0.77058988  1.0
  C  C82  1  0.50495889  0.80620260  0.78843389  1.0
  C  C83  1  0.47465223  0.86106916  0.76332202  1.0
  C  C84  1  0.50209653  0.92635580  0.78508984  1.0
  C  C85  1  0.56217148  0.93648468  0.82550115  1.0
  C  C86  1  0.59490210  0.88113555  0.84750594  1.0
  C  C87  1  0.56336200  0.81591259  0.83202194  1.0
  C  C88  1  0.24129982  0.01770188  0.18287077  1.0
  C  C89  1  0.27066631  0.95593875  0.18096862  1.0
  C  C90  1  0.24422356  0.90393600  0.13293367  1.0
  C  C91  1  0.18992715  0.91398190  0.08850098  1.0
  C  C92  1  0.15758525  0.97374900  0.09469583  1.0
  C  C93  1  0.18462702  0.02649671  0.14046133  1.0
  C  C94  1  0.63892672  0.96921930  0.20095461  1.0
  C  C95  1  0.63583417  0.96585107  0.13092685  1.0
  C  C96  1  0.57282706  0.95015987  0.09604686  1.0
  C  C97  1  0.51631657  0.93233122  0.13058921  1.0
  C  C98  1  0.51658367  0.94526431  0.20125329  1.0
  C  C99  1  0.57944172  0.96624161  0.23550001  1.0
  C  C100  1  0.38132968  0.92603463  0.51143465  1.0
  C  C101  1  0.36930795  0.86021324  0.53082382  1.0
  C  C102  1  0.36256358  0.80665835  0.48053774  1.0
  C  C103  1  0.36705939  0.81851782  0.41261978  1.0
  C  C104  1  0.37880110  0.88417346  0.39340362  1.0
  C  C105  1  0.38609250  0.93780254  0.44375428  1.0
  C  C106  1  0.66053717  0.17890743  0.97002616  1.0
  C  C107  1  0.70358711  0.15827381  0.92004840  1.0
  C  C108  1  0.70914559  0.19653498  0.86404103  1.0
  C  C109  1  0.67427228  0.25483831  0.85956131  1.0
  C  C110  1  0.63602504  0.27861949  0.91209199  1.0
  C  C111  1  0.62913812  0.23917224  0.96694485  1.0
  C  C112  1  0.72686719  0.54739971  0.98029316  1.0
  C  C113  1  0.68208216  0.52628121  0.92434712  1.0
  C  C114  1  0.68616184  0.56123827  0.86619094  1.0
  C  C115  1  0.72975229  0.61943644  0.86582376  1.0
  C  C116  1  0.76816089  0.64411137  0.92440070  1.0
  C  C117  1  0.77042368  0.60550860  0.97980771  1.0
  C  C118  1  0.02977625  0.24438959  0.07744256  1.0
  C  C119  1  0.99235852  0.21624872  0.01956716  1.0
  C  C120  1  0.99030128  0.25224327  0.96232414  1.0
  C  C121  1  0.03422315  0.30954333  0.95895120  1.0
  C  C122  1  0.07889612  0.33345028  0.01429909  1.0
  C  C123  1  0.07380802  0.30196827  0.07444421  1.0
  C  C124  1  0.07641691  0.68107249  0.07418840  1.0
  C  C125  1  0.03413742  0.69160952  0.01698934  1.0
  C  C126  1  0.03170500  0.64255042  0.96098636  1.0
  C  C127  1  0.07705115  0.59222680  0.95938620  1.0
  C  C128  1  0.11604521  0.57973178  0.01714769  1.0
  C  C129  1  0.11486192  0.62452670  0.07434236  1.0
  C  C130  1  0.42904650  0.43615724  0.01307460  1.0
  C  C131  1  0.44681666  0.42648661  0.94616600  1.0
  C  C132  1  0.39508959  0.42241515  0.89488895  1.0
  C  C133  1  0.32764320  0.42745805  0.90989550  1.0
  C  C134  1  0.30993703  0.43685101  0.97678419  1.0
  C  C135  1  0.36162621  0.44098871  0.02811326  1.0
  C  C136  1  0.76992222  0.71932896  0.21228107  1.0
  C  C137  1  0.82294699  0.76914458  0.20562177  1.0
  C  C138  1  0.87163342  0.78302383  0.26061890  1.0
  C  C139  1  0.87212392  0.74263689  0.31471435  1.0
  C  C140  1  0.81970763  0.69305736  0.32151307  1.0
  C  C141  1  0.76855652  0.68273055  0.26979436  1.0
  C  C142  1  0.76362453  0.74006215  0.59993272  1.0
  C  C143  1  0.82161435  0.72245878  0.56834315  1.0
  C  C144  1  0.88447536  0.75315369  0.59457101  1.0
  C  C145  1  0.88890754  0.79994387  0.65045117  1.0
  C  C146  1  0.83158086  0.81211418  0.68556774  1.0
  C  C147  1  0.76840057  0.78425747  0.65852091  1.0
  C  C148  1  0.99573783  0.10917680  0.34987101  1.0
  C  C149  1  0.94481436  0.14859647  0.37261182  1.0
  C  C150  1  0.88400380  0.14523783  0.33262798  1.0
  C  C151  1  0.87752091  0.11196788  0.26792195  1.0
  C  C152  1  0.92714262  0.06849074  0.24695845  1.0
  C  C153  1  0.98530377  0.06598953  0.29060287  1.0
  C  C154  1  0.89109608  0.12049061  0.62395325  1.0
  C  C155  1  0.94445783  0.16985144  0.62028107  1.0
  C  C156  1  0.99323896  0.17937044  0.67425851  1.0
  C  C157  1  0.98883426  0.14192566  0.73103358  1.0
  C  C158  1  0.93590883  0.09091228  0.73385468  1.0
  C  C159  1  0.88929110  0.07849260  0.67682990  1.0
  C  C160  1  0.93432168  0.48596897  0.45763772  1.0
  C  C161  1  0.86616242  0.49895783  0.46135787  1.0
  C  C162  1  0.82066104  0.44660940  0.47773416  1.0
  C  C163  1  0.84248723  0.38332991  0.49040878  1.0
  C  C164  1  0.91058468  0.37013609  0.48610676  1.0
  C  C165  1  0.95609161  0.42254036  0.46983987  1.0
  Br  Br166  1  0.24546964  0.72548716  0.77639311  1.0
  Br  Br167  1  0.11882043  0.75432892  0.86848848  1.0
  Br  Br168  1  0.22372174  0.97772742  0.66529821  1.0
  Br  Br169  1  0.08073073  0.99278703  0.73356223  1.0
  Br  Br170  1  0.59889240  0.74041585  0.86828922  1.0
  Br  Br171  1  0.46489767  0.71867152  0.76170390  1.0
  Br  Br172  1  0.59624789  0.02565703  0.85271984  1.0
  Br  Br173  1  0.45583607  0.00055194  0.75901541  1.0
  Br  Br174  1  0.14096002  0.10724912  0.14556835  1.0
  Br  Br175  1  0.27810527  0.08851836  0.24551898  1.0
  Br  Br176  1  0.15994831  0.84865216  0.01672261  1.0
  Br  Br177  1  0.28029303  0.81879770  0.13110378  1.0
  Br  Br178  1  0.58586117  0.99437616  0.32859140  1.0
  Br  Br179  1  0.72444787  0.96963691  0.24807479  1.0
  Br  Br180  1  0.44257360  0.88314359  0.08009879  1.0
  Br  Br181  1  0.56538874  0.95227181  0.00206699  1.0
  Br  Br182  1  0.40181307  0.02674806  0.41837942  1.0
  Br  Br183  1  0.39073123  0.99908647  0.57818331  1.0
  Br  Br184  1  0.35724662  0.74667709  0.34448162  1.0
  Br  Br185  1  0.34763329  0.71808202  0.50681798  1.0
  Br  Br186  1  0.58101957  0.27083933  0.04056875  1.0
  Br  Br187  1  0.64280812  0.12537010  0.04142471  1.0
  Br  Br188  1  0.67784088  0.30332487  0.78179817  1.0
  Br  Br189  1  0.76683972  0.17261536  0.79541062  1.0
  Br  Br190  1  0.83555722  0.63307205  0.05116003  1.0
  Br  Br191  1  0.72595500  0.49771090  0.05703383  1.0
  Br  Br192  1  0.73730695  0.66587984  0.78742697  1.0
  Br  Br193  1  0.63175877  0.52867300  0.78813189  1.0
  Br  Br194  1  0.12784582  0.33821663  0.15142635  1.0
  Br  Br195  1  0.01704720  0.20539053  0.15945639  1.0
  Br  Br196  1  0.03486517  0.35500935  0.87961892  1.0
  Br  Br197  1  0.92172640  0.22424207  0.89359620  1.0
  Br  Br198  1  0.16692030  0.60528737  0.15188524  1.0
  Br  Br199  1  0.08214920  0.73939419  0.15373655  1.0
  Br  Br200  1  0.08764423  0.53878889  0.87875764  1.0
  Br  Br201  1  0.96393469  0.63362465  0.88986785  1.0
  Br  Br202  1  0.33786545  0.45237709  0.11830244  1.0
  Br  Br203  1  0.49800912  0.44225707  0.08302579  1.0
  Br  Br204  1  0.25850007  0.42244929  0.84027436  1.0
  Br  Br205  1  0.41883014  0.41124377  0.80466787  1.0
  Br  Br206  1  0.69632539  0.61828756  0.28105810  1.0
  Br  Br207  1  0.69733292  0.70092359  0.14670236  1.0
  Br  Br208  1  0.94506467  0.75367474  0.38084251  1.0
  Br  Br209  1  0.93307120  0.86066387  0.26978153  1.0
  Br  Br210  1  0.68984766  0.80574445  0.70211605  1.0
  Br  Br211  1  0.67889813  0.70087389  0.56317205  1.0
  Br  Br212  1  0.97029873  0.85158454  0.67732681  1.0
  Br  Br213  1  0.96445363  0.72848085  0.55605631  1.0
  Br  Br214  1  0.05281559  0.00688033  0.27069492  1.0
  Br  Br215  1  0.07939455  0.11632235  0.40092716  1.0
  Br  Br216  1  0.80109223  0.13100817  0.21375851  1.0
  Br  Br217  1  0.80874837  0.18484245  0.36877204  1.0
  Br  Br218  1  0.82751199  0.00167844  0.66389543  1.0
  Br  Br219  1  0.81976014  0.11253439  0.55585079  1.0
  Br  Br220  1  0.05687715  0.16219354  0.80110433  1.0
  Br  Br221  1  0.06647423  0.24397383  0.66736703  1.0
  Br  Br222  1  0.04811725  0.40579929  0.46577610  1.0
  Br  Br223  1  0.99669587  0.55627994  0.43697127  1.0
  Br  Br224  1  0.77983968  0.31393875  0.51283225  1.0
  Br  Br225  1  0.72860200  0.46342128  0.48155814  1.0
  O  O226  1  0.97270902  0.04770735  0.83880811  1.0
  O  O227  1  0.67948933  0.86401414  0.93396329  1.0
  O  O228  1  0.81515939  0.89988652  0.77123122  1.0
  O  O229  1  0.75285095  0.05714001  0.88157702  1.0
  O  O230  1  0.77533429  0.10013489  0.98884651  1.0
  O  O231  1  0.87714852  0.81296369  0.79513459  1.0
  O  O232  1  0.70611438  0.92749930  0.84890451  1.0
  O  O233  1  0.86356669  0.03157571  0.80207544  1.0
  O  O234  1  0.79231548  0.95772502  0.96814043  1.0
  O  O235  1  0.90776250  0.93180747  0.88630068  1.0
  O  O236  1  0.80334085  0.85422463  0.89252073  1.0
  O  O237  1  0.87858518  0.04464060  0.93257494  1.0
  O  O238  1  0.78334930  0.80796461  0.09937615  1.0
  O  O239  1  0.07615133  0.00314406  0.00889842  1.0
  O  O240  1  0.85010561  0.73267531  0.90256024  1.0
  O  O241  1  0.73850021  0.01598230  0.08948419  1.0
  O  O242  1  0.90640310  0.13071294  0.03925650  1.0
  O  O243  1  0.00526686  0.84381232  0.84407696  1.0
  O  O244  1  0.99216462  0.79651190  0.06073181  1.0
  O  O245  1  0.94219331  0.97184059  0.16941466  1.0
  O  O246  1  0.97672138  0.76413165  0.95084792  1.0
  O  O247  1  0.88192723  0.05506115  0.13579028  1.0
  O  O248  1  0.76317683  0.75452546  0.96720599  1.0
  O  O249  1  0.05351129  0.94876513  0.87320277  1.0
  O  O250  1  0.99648669  0.10455742  0.98044928  1.0
  O  O251  1  0.70426167  0.90579095  0.06393191  1.0
  O  O252  1  0.89246645  0.82740990  0.13409641  1.0
  O  O253  1  0.04498673  0.93915466  0.09269714  1.0
  O  O254  1  0.93115480  0.98683119  0.02527266  1.0
  O  O255  1  0.87689598  0.84772361  0.99664116  1.0
  O  O256  1  0.99169259  0.89468761  0.97206202  1.0
  O  O257  1  0.83686088  0.93135604  0.08253639  1.0
