# generated using pymatgen
data_Zn8H28C41O27
_symmetry_space_group_name_H-M   'P 1'
_cell_length_a   18.49303704
_cell_length_b   18.49403933
_cell_length_c   18.60856283
_cell_angle_alpha   90.60877698
_cell_angle_beta   119.09797908
_cell_angle_gamma   119.95802456
_symmetry_Int_Tables_number   1
_chemical_formula_structural   Zn8H28C41O27
_chemical_formula_sum   'Zn8 H28 C41 O27'
_cell_volume   4539.99888664
_cell_formula_units_Z   1
loop_
 _symmetry_equiv_pos_site_id
 _symmetry_equiv_pos_as_xyz
  1  'x, y, z'
loop_
 _atom_site_type_symbol
 _atom_site_label
 _atom_site_symmetry_multiplicity
 _atom_site_fract_x
 _atom_site_fract_y
 _atom_site_fract_z
 _atom_site_occupancy
  Zn  Zn0  1  0.08399428  0.95046132  0.54123645  1.0
  Zn  Zn1  1  0.08450351  0.12649124  0.54000738  1.0
  Zn  Zn2  1  0.91237221  0.95456353  0.53932397  1.0
  Zn  Zn3  1  0.91687990  0.95372067  0.36901344  1.0
  Zn  Zn4  1  0.91383603  0.54551102  0.95805807  1.0
  Zn  Zn5  1  0.08773272  0.54481934  0.96028247  1.0
  Zn  Zn6  1  0.91261432  0.37241806  0.95931634  1.0
  Zn  Zn7  1  0.08564593  0.54714568  0.13136233  1.0
  H  H8  1  0.95094169  0.60743367  0.27348189  1.0
  H  H9  1  0.95951899  0.15284187  0.23492555  1.0
  H  H10  1  0.88377211  0.18638781  0.79143476  1.0
  H  H11  1  0.83165619  0.67605796  0.22307594  1.0
  H  H12  1  0.07344489  0.34477255  0.81068336  1.0
  H  H13  1  0.90217654  0.09291685  0.71419095  1.0
  H  H14  1  0.03185675  0.26277970  0.68802309  1.0
  H  H15  1  0.59287871  0.18888394  0.80276429  1.0
  H  H16  1  0.58094955  0.34794784  0.77729951  1.0
  H  H17  1  0.40715054  0.09355709  0.69796745  1.0
  H  H18  1  0.41496987  0.26290662  0.72337405  1.0
  H  H19  1  0.01546063  0.75775247  0.68277154  1.0
  H  H20  1  0.87398200  0.72198448  0.09605605  1.0
  H  H21  1  0.04680900  0.89146765  0.22329324  1.0
  H  H22  1  0.16608806  0.82283549  0.27358531  1.0
  H  H23  1  0.12374463  0.77689183  0.40075398  1.0
  H  H24  1  0.90110298  0.70900599  0.80648990  1.0
  H  H25  1  0.08215657  0.73362832  0.81364720  1.0
  H  H26  1  0.01741314  0.91612865  0.87292003  1.0
  H  H27  1  0.90072480  0.81678022  0.84484953  1.0
  H  H28  1  0.90047881  0.90611116  0.80906054  1.0
  H  H29  1  0.40893260  0.71320638  0.31346228  1.0
  H  H30  1  0.41822587  0.69671195  0.15353797  1.0
  H  H31  1  0.59509915  0.79409031  0.40310894  1.0
  H  H32  1  0.58284956  0.80472036  0.23266253  1.0
  H  H33  1  0.11398156  0.40677028  0.31262039  1.0
  H  H34  1  0.93230613  0.23606158  0.15448755  1.0
  H  H35  1  0.10474953  0.31209049  0.40457782  1.0
  C  C36  1  0.00780912  0.13637696  0.36215861  1.0
  C  C37  1  0.98798623  0.79741934  0.68445574  1.0
  C  C38  1  0.44626527  0.72565099  0.27956312  1.0
  C  C39  1  0.99042923  0.85326723  0.62908861  1.0
  C  C40  1  0.38668643  0.68911154  0.19176834  1.0
  C  C41  1  0.55625844  0.77956013  0.33253322  1.0
  C  C42  1  0.61480686  0.81422902  0.30187691  1.0
  C  C43  1  0.05748816  0.33529344  0.27972861  1.0
  C  C44  1  0.99232381  0.30613956  0.19206078  1.0
  C  C45  1  0.05798703  0.27943192  0.33396149  1.0
  C  C46  1  0.00642076  0.19046691  0.30424166  1.0
  C  C47  1  0.92936862  0.73462558  0.16396981  1.0
  C  C48  1  0.94298441  0.21910964  0.77935732  1.0
  C  C49  1  0.01034030  0.30783937  0.81734878  1.0
  C  C50  1  0.94413975  0.16392301  0.72450419  1.0
  C  C51  1  0.27204958  0.13354128  0.64116395  1.0
  C  C52  1  0.99150169  0.19347075  0.68362441  1.0
  C  C53  1  0.55420509  0.22126466  0.77799825  1.0
  C  C54  1  0.61296839  0.31037228  0.80077950  1.0
  C  C55  1  0.44415379  0.16478706  0.72249646  1.0
  C  C56  1  0.38395417  0.19314246  0.69989495  1.0
  C  C57  1  0.27501829  0.63688621  0.13971246  1.0
  C  C58  1  0.02542674  0.82765189  0.23357296  1.0
  C  C59  1  0.72479097  0.36431331  0.85952776  1.0
  C  C60  1  0.01137004  0.64665880  0.87204903  1.0
  C  C61  1  0.99671669  0.36541545  0.13933805  1.0
  C  C62  1  0.00375205  0.36228681  0.86934840  1.0
  C  C63  1  0.72661087  0.86692741  0.35950041  1.0
  C  C64  1  0.99544794  0.64086040  0.13595972  1.0
  C  C65  1  0.99298397  0.13510708  0.63030247  1.0
  C  C66  1  0.00283921  0.85805325  0.36140922  1.0
  C  C67  1  0.90584170  0.70790804  0.23353487  1.0
  C  C68  1  0.97235933  0.67126477  0.26324116  1.0
  C  C69  1  0.09197024  0.79102529  0.26328449  1.0
  C  C70  1  0.99514422  0.69765191  0.19253562  1.0
  C  C71  1  0.93562871  0.87032243  0.82223854  1.0
  C  C72  1  0.06844267  0.76427902  0.33282563  1.0
  C  C73  1  0.00267458  0.80122102  0.30432647  1.0
  C  C74  1  0.95813821  0.73496691  0.79179138  1.0
  C  C75  1  0.02115918  0.70955207  0.82289099  1.0
  C  C76  1  0.95732468  0.79275481  0.73881806  1.0
  O  O77  1  0.00043878  0.99662016  0.49723988  1.0
  O  O78  1  0.93403811  0.32580467  0.05662039  1.0
  O  O79  1  0.06459232  0.44605515  0.89009205  1.0
  O  O80  1  0.94822203  0.05256014  0.32281898  1.0
  O  O81  1  0.05736178  0.61985111  0.17571778  1.0
  O  O82  1  0.93937828  0.32289648  0.88868904  1.0
  O  O83  1  0.93468657  0.61791862  0.05341905  1.0
  O  O84  1  0.94554130  0.62168074  0.88963678  1.0
  O  O85  1  0.06077933  0.44900195  0.17881867  1.0
  O  O86  1  0.23153004  0.61285638  0.05698570  1.0
  O  O87  1  0.76782383  0.32433817  0.88510683  1.0
  O  O88  1  0.22917786  0.05008428  0.61649490  1.0
  O  O89  1  0.05129582  0.87085679  0.60623771  1.0
  O  O90  1  0.22814164  0.17321602  0.62015282  1.0
  O  O91  1  0.76872276  0.88711778  0.44186930  1.0
  O  O92  1  0.04963430  0.17459219  0.60328761  1.0
  O  O93  1  0.93892472  0.87707712  0.32182686  1.0
  O  O94  1  0.93932462  0.05190640  0.61579873  1.0
  O  O95  1  0.06567441  0.88294165  0.44373683  1.0
  O  O96  1  0.91826693  0.83794949  0.74094996  1.0
  O  O97  1  0.77140389  0.88752465  0.32035005  1.0
  O  O98  1  0.06651015  0.17619180  0.44463510  1.0
  O  O99  1  0.93285126  0.87934712  0.60748921  1.0
  O  O100  1  0.00006729  0.50251481  0.00279256  1.0
  O  O101  1  0.23136856  0.62030700  0.17956776  1.0
  O  O102  1  0.76912659  0.44832173  0.87998211  1.0
  O  O103  1  0.07129209  0.62306373  0.89285168  1.0
