# generated using pymatgen
data_AlH10C14O5
_symmetry_space_group_name_H-M   'P 1'
_cell_length_a   6.60745244
_cell_length_b   10.96054931
_cell_length_c   15.22193999
_cell_angle_alpha   90.27832002
_cell_angle_beta   101.36840423
_cell_angle_gamma   105.59850875
_symmetry_Int_Tables_number   1
_chemical_formula_structural   AlH10C14O5
_chemical_formula_sum   'Al2 H20 C28 O10'
_cell_volume   1039.00277646
_cell_formula_units_Z   2
loop_
 _symmetry_equiv_pos_site_id
 _symmetry_equiv_pos_as_xyz
  1  'x, y, z'
loop_
 _atom_site_type_symbol
 _atom_site_label
 _atom_site_symmetry_multiplicity
 _atom_site_fract_x
 _atom_site_fract_y
 _atom_site_fract_z
 _atom_site_occupancy
  Al  Al0  1  0.01037657  0.50314388  0.49894065  1.0
  Al  Al1  1  0.51331740  0.50726944  0.50062235  1.0
  H  H2  1  0.34352907  0.59343480  0.60242638  1.0
  H  H3  1  0.66504073  0.34780123  0.46057871  1.0
  H  H4  1  0.55506858  0.44407404  0.77591342  1.0
  H  H5  1  0.64311706  0.43131385  0.94042981  1.0
  H  H6  1  0.45981614  0.59694097  0.22795707  1.0
  H  H7  1  0.36953530  0.59761496  0.06260334  1.0
  H  H8  1  0.81648344  0.37464411  0.22890831  1.0
  H  H9  1  0.73090193  0.36058239  0.06305716  1.0
  H  H10  1  0.22584435  0.54604900  0.76884385  1.0
  H  H11  1  0.31755273  0.53033079  0.93276488  1.0
  H  H12  1  0.51482109  0.77461922  0.38091938  1.0
  H  H13  1  0.78483506  0.24289429  0.38163100  1.0
  H  H14  1  0.37709736  0.11337195  0.54979682  1.0
  H  H15  1  0.25165553  0.87612440  0.53865960  1.0
  H  H16  1  0.09803987  0.91072153  0.30655605  1.0
  H  H17  1  0.18715227  0.77486860  0.29011477  1.0
  H  H18  1  0.20783204  0.89529983  0.21157400  1.0
  H  H19  1  0.34284349  0.12926218  0.21259413  1.0
  H  H20  1  0.46398047  0.25868215  0.29434670  1.0
  H  H21  1  0.22985660  0.14062047  0.30714774  1.0
  C  C22  1  0.86447907  0.72863474  0.48096588  1.0
  C  C23  1  0.83280012  0.50882812  0.66305302  1.0
  C  C24  1  0.14935528  0.27549838  0.49925515  1.0
  C  C25  1  0.19421460  0.49458818  0.33850455  1.0
  C  C26  1  0.88498678  0.49785289  0.76190683  1.0
  C  C27  1  0.14323039  0.48694173  0.23872125  1.0
  C  C28  1  0.72198993  0.46383802  0.81115644  1.0
  C  C29  1  0.77293225  0.45590623  0.90364088  1.0
  C  C30  1  0.29972860  0.54669876  0.19096667  1.0
  C  C31  1  0.24840433  0.54492696  0.09787735  1.0
  C  C32  1  0.93743898  0.42149967  0.19150748  1.0
  C  C33  1  0.88960133  0.41583843  0.09825038  1.0
  C  C34  1  0.09930664  0.52103020  0.80723874  1.0
  C  C35  1  0.14950193  0.51268976  0.89958222  1.0
  C  C36  1  0.98790260  0.48160245  0.95037095  1.0
  C  C37  1  0.04239981  0.47959837  0.04926863  1.0
  C  C38  1  0.92988152  0.86879284  0.47363070  1.0
  C  C39  1  0.78500040  0.93757426  0.43140373  1.0
  C  C40  1  0.14184681  0.93145497  0.51138393  1.0
  C  C41  1  0.57446944  0.87757167  0.38231403  1.0
  C  C42  1  0.44314215  0.94522961  0.33578280  1.0
  C  C43  1  0.07346771  0.13503437  0.48218773  1.0
  C  C44  1  0.21292649  0.06444768  0.51663781  1.0
  C  C45  1  0.86062579  0.07351990  0.43390780  1.0
  C  C46  1  0.72415034  0.14055793  0.38437237  1.0
  C  C47  1  0.52053545  0.08043863  0.33634253  1.0
  C  C48  1  0.22295538  0.87760020  0.28342891  1.0
  C  C49  1  0.38327399  0.15653498  0.28499080  1.0
  O  O50  1  0.99975239  0.66947178  0.46956577  1.0
  O  O51  1  0.63657009  0.49577966  0.62612812  1.0
  O  O52  1  0.34164937  0.33060597  0.49246705  1.0
  O  O53  1  0.03640360  0.47058318  0.37819528  1.0
  O  O54  1  0.01695251  0.33071467  0.52030224  1.0
  O  O55  1  0.39149982  0.52402906  0.37744309  1.0
  O  O56  1  0.68430197  0.67822578  0.50188217  1.0
  O  O57  1  0.98914362  0.53136039  0.62222491  1.0
  O  O58  1  0.30561375  0.56484727  0.53948587  1.0
  O  O59  1  0.71441655  0.43995005  0.46395312  1.0
