# generated using pymatgen
data_Co3H48C62(NO7)2
_symmetry_space_group_name_H-M   'P 1'
_cell_length_a   13.04169268
_cell_length_b   25.40199930
_cell_length_c   25.40316528
_cell_angle_alpha   59.99868044
_cell_angle_beta   90.00004056
_cell_angle_gamma   89.99673345
_symmetry_Int_Tables_number   1
_chemical_formula_structural   Co3H48C62(NO7)2
_chemical_formula_sum   'Co9 H144 C186 N6 O42'
_cell_volume   7288.10383663
_cell_formula_units_Z   3
loop_
 _symmetry_equiv_pos_site_id
 _symmetry_equiv_pos_as_xyz
  1  'x, y, z'
loop_
 _atom_site_type_symbol
 _atom_site_label
 _atom_site_symmetry_multiplicity
 _atom_site_fract_x
 _atom_site_fract_y
 _atom_site_fract_z
 _atom_site_occupancy
  Co  Co0  1  0.80987237  0.88695272  0.39011178  1.0
  Co  Co1  1  0.14305197  0.39000082  0.72303028  1.0
  Co  Co2  1  0.47652249  0.72295470  0.88697926  1.0
  Co  Co3  1  0.19012575  0.11304637  0.27706479  1.0
  Co  Co4  1  0.85694933  0.60999724  0.11303246  1.0
  Co  Co5  1  0.52347236  0.27704741  0.60992981  1.0
  Co  Co6  1  0.99999877  0.00000090  0.31513332  1.0
  Co  Co7  1  0.33326991  0.31513541  0.68488925  1.0
  Co  Co8  1  0.66666667  0.68486326  0.00002784  1.0
  H  H9  1  0.58465468  0.00915357  0.24105317  1.0
  H  H10  1  0.51895670  0.10854299  0.15848238  1.0
  H  H11  1  0.76983782  0.19928812  0.19117192  1.0
  H  H12  1  0.83246717  0.10013149  0.27420420  1.0
  H  H13  1  0.81017342  0.44072181  0.13049757  1.0
  H  H14  1  0.76205595  0.34848403  0.12536916  1.0
  H  H15  1  0.48218240  0.43681141  0.03309855  1.0
  H  H16  1  0.53180661  0.52841459  0.03900956  1.0
  H  H17  1  0.27963876  0.37379638  0.86599876  1.0
  H  H18  1  0.37042754  0.36203033  0.95733295  1.0
  H  H19  1  0.55323082  0.21837171  0.96212004  1.0
  H  H20  1  0.46233462  0.23143150  0.87013111  1.0
  H  H21  1  0.65682174  0.26931609  0.16339610  1.0
  H  H22  1  0.52184709  0.37998958  0.98732057  1.0
  H  H23  1  0.54160582  0.18616325  0.06363841  1.0
  H  H24  1  0.60354416  0.77502798  0.35972329  1.0
  H  H25  1  0.72908146  0.78985149  0.32793155  1.0
  H  H26  1  0.66652290  0.84454747  0.34107110  1.0
  H  H27  1  0.62850388  0.64235614  0.46110583  1.0
  H  H28  1  0.75791793  0.63081458  0.44634138  1.0
  H  H29  1  0.68242139  0.68896410  0.38757866  1.0
  H  H30  1  0.80826181  0.71539921  0.52416770  1.0
  H  H31  1  0.84015097  0.64834890  0.52080759  1.0
  H  H32  1  0.71888268  0.65376534  0.55026188  1.0
  H  H33  1  0.91762115  0.24106108  0.74967396  1.0
  H  H34  1  0.85218867  0.15837610  0.73294245  1.0
  H  H35  1  0.10315593  0.19114510  0.60954285  1.0
  H  H36  1  0.16562251  0.27421563  0.62565959  1.0
  H  H37  1  0.14319079  0.13051063  0.42865128  1.0
  H  H38  1  0.09546882  0.12524820  0.52613877  1.0
  H  H39  1  0.81534752  0.03315493  0.53017410  1.0
  H  H40  1  0.86471112  0.03905282  0.43262436  1.0
  H  H41  1  0.61298601  0.86590267  0.76026437  1.0
  H  H42  1  0.70343461  0.95741214  0.68068211  1.0
  H  H43  1  0.88619446  0.96223689  0.81953367  1.0
  H  H44  1  0.79549361  0.87018331  0.89847392  1.0
  H  H45  1  0.99013510  0.16333523  0.56732419  1.0
  H  H46  1  0.85488795  0.98732207  0.63271834  1.0
  H  H47  1  0.87504758  0.06358542  0.75024888  1.0
  H  H48  1  0.93702354  0.35964432  0.86537585  1.0
  H  H49  1  0.06265569  0.32796838  0.88228159  1.0
  H  H50  1  0.00003191  0.34102220  0.81450248  1.0
  H  H51  1  0.96181455  0.46109781  0.89660165  1.0
  H  H52  1  0.09127885  0.44637709  0.92282995  1.0
  H  H53  1  0.01582182  0.38760309  0.92344799  1.0
  H  H54  1  0.14137220  0.52425985  0.76037456  1.0
  H  H55  1  0.17328624  0.52093777  0.83075735  1.0
  H  H56  1  0.05197517  0.55034578  0.79591769  1.0
  H  H57  1  0.25097107  0.74984323  0.00910750  1.0
  H  H58  1  0.18526281  0.73299446  0.10850358  1.0
  H  H59  1  0.43622105  0.60959837  0.19922976  1.0
  H  H60  1  0.49889293  0.62578488  0.10006482  1.0
  H  H61  1  0.47666237  0.42876450  0.44072327  1.0
  H  H62  1  0.42861175  0.52615479  0.34849314  1.0
  H  H63  1  0.14873151  0.53014075  0.43677784  1.0
  H  H64  1  0.19837855  0.43265813  0.52841091  1.0
  H  H65  1  0.94618839  0.76026934  0.37377190  1.0
  H  H66  1  0.03679859  0.68068068  0.36194757  1.0
  H  H67  1  0.21960600  0.81951605  0.21828938  1.0
  H  H68  1  0.12887719  0.89846838  0.23138590  1.0
  H  H69  1  0.32338763  0.56733776  0.26927396  1.0
  H  H70  1  0.18828314  0.63270485  0.37994249  1.0
  H  H71  1  0.20796985  0.75021673  0.18612071  1.0
  H  H72  1  0.27009728  0.86530575  0.77496451  1.0
  H  H73  1  0.39561226  0.88226950  0.78981875  1.0
  H  H74  1  0.33304137  0.81444155  0.84450325  1.0
  H  H75  1  0.29512977  0.89657081  0.64233086  1.0
  H  H76  1  0.42456626  0.92284282  0.63081047  1.0
  H  H77  1  0.34907223  0.92347991  0.68894250  1.0
  H  H78  1  0.47484336  0.76042473  0.71542122  1.0
  H  H79  1  0.50674707  0.83082344  0.64836571  1.0
  H  H80  1  0.38546567  0.79595930  0.65378109  1.0
  H  H81  1  0.41534716  0.99084608  0.25020804  1.0
  H  H82  1  0.48104739  0.89145605  0.26702827  1.0
  H  H83  1  0.23016637  0.80070988  0.39046231  1.0
  H  H84  1  0.16753554  0.89986709  0.37433637  1.0
  H  H85  1  0.18982626  0.55928188  0.57121531  1.0
  H  H86  1  0.23794672  0.65151810  0.47384901  1.0
  H  H87  1  0.51782097  0.56318870  0.46991096  1.0
  H  H88  1  0.46819377  0.47158620  0.56742491  1.0
  H  H89  1  0.72035965  0.62619904  0.23979782  1.0
  H  H90  1  0.62956792  0.63796771  0.31936347  1.0
  H  H91  1  0.44676992  0.78162697  0.18049080  1.0
  H  H92  1  0.53766830  0.76856457  0.10156375  1.0
  H  H93  1  0.34318553  0.73068331  0.43271162  1.0
  H  H94  1  0.47815149  0.62001088  0.36730705  1.0
  H  H95  1  0.45839359  0.81383695  0.24980020  1.0
  H  H96  1  0.39645461  0.22497077  0.13475096  1.0
  H  H97  1  0.27091727  0.21014761  0.11778246  1.0
  H  H98  1  0.33347665  0.15545133  0.18561840  1.0
  H  H99  1  0.37149723  0.35764273  0.10346238  1.0
  H  H100  1  0.24208315  0.36918512  0.07715594  1.0
  H  H101  1  0.31757966  0.31103457  0.07654311  1.0
  H  H102  1  0.19173868  0.28460098  0.23956598  1.0
  H  H103  1  0.15985023  0.35165024  0.16915667  1.0
  H  H104  1  0.28111703  0.34623391  0.20402777  1.0
  H  H105  1  0.08236774  0.75893833  0.99073918  1.0
  H  H106  1  0.14780396  0.84162127  0.89132359  1.0
  H  H107  1  0.89684040  0.80885138  0.80069046  1.0
  H  H108  1  0.83437006  0.72578336  0.89987778  1.0
  H  H109  1  0.85680601  0.86949228  0.55915941  1.0
  H  H110  1  0.90452735  0.87475281  0.65138584  1.0
  H  H111  1  0.18465089  0.96684546  0.56332862  1.0
  H  H112  1  0.13528640  0.96094902  0.47167680  1.0
  H  H113  1  0.38701337  0.13409740  0.62616343  1.0
  H  H114  1  0.29656472  0.04258780  0.63809237  1.0
  H  H115  1  0.11381120  0.03776451  0.78176983  1.0
  H  H116  1  0.20451209  0.12981870  0.76865493  1.0
  H  H117  1  0.00986191  0.83666330  0.73065988  1.0
  H  H118  1  0.14511210  0.01267592  0.62004132  1.0
  H  H119  1  0.12494885  0.93641364  0.81383523  1.0
  H  H120  1  0.06297180  0.64035652  0.22501522  1.0
  H  H121  1  0.93734042  0.67203292  0.21024481  1.0
  H  H122  1  0.99996335  0.65897931  0.15551900  1.0
  H  H123  1  0.03818473  0.53890245  0.35769448  1.0
  H  H124  1  0.90871816  0.55362462  0.36920209  1.0
  H  H125  1  0.98417745  0.61239804  0.31104584  1.0
  H  H126  1  0.85862848  0.47573999  0.28463054  1.0
  H  H127  1  0.82671377  0.47906325  0.35169066  1.0
  H  H128  1  0.94802711  0.44965698  0.34625888  1.0
  H  H129  1  0.74902789  0.25015741  0.75894746  1.0
  H  H130  1  0.81473704  0.26700246  0.84149710  1.0
  H  H131  1  0.56377807  0.39040004  0.80882633  1.0
  H  H132  1  0.50110606  0.37421406  0.72584677  1.0
  H  H133  1  0.52334079  0.57123495  0.86948913  1.0
  H  H134  1  0.57139212  0.47384586  0.87464723  1.0
  H  H135  1  0.85127401  0.46985618  0.96691827  1.0
  H  H136  1  0.80162856  0.56733759  0.96107275  1.0
  H  H137  1  0.05381268  0.23973169  0.13404010  1.0
  H  H138  1  0.96320242  0.31931924  0.04262785  1.0
  H  H139  1  0.78039414  0.18048402  0.03780486  1.0
  H  H140  1  0.87112455  0.10153281  0.12985334  1.0
  H  H141  1  0.67661232  0.43266083  0.83661079  1.0
  H  H142  1  0.81171786  0.36729551  0.01264641  1.0
  H  H143  1  0.79203242  0.24978236  0.93633732  1.0
  H  H144  1  0.72989752  0.13469848  0.64027021  1.0
  H  H145  1  0.60438257  0.11773299  0.67208858  1.0
  H  H146  1  0.66695195  0.18556148  0.65894548  1.0
  H  H147  1  0.70487100  0.10343612  0.53889938  1.0
  H  H148  1  0.57543681  0.07716139  0.55365105  1.0
  H  H149  1  0.65093092  0.07652499  0.61242025  1.0
  H  H150  1  0.52515818  0.23957994  0.47584434  1.0
  H  H151  1  0.49325290  0.16918156  0.47918755  1.0
  H  H152  1  0.61453504  0.20404293  0.44974111  1.0
  C  C153  1  0.75308331  0.98993360  0.30951488  1.0
  C  C154  1  0.71261134  0.04879614  0.26189029  1.0
  C  C155  1  0.62423077  0.05139480  0.22929760  1.0
  C  C156  1  0.58854746  0.10700385  0.18302498  1.0
  C  C157  1  0.63992120  0.16127297  0.16870348  1.0
  C  C158  1  0.72736252  0.15794382  0.20271010  1.0
  C  C159  1  0.76378728  0.10259114  0.24866125  1.0
  C  C160  1  0.70683429  0.54651660  0.08461362  1.0
  C  C161  1  0.67346908  0.48977193  0.08552747  1.0
  C  C162  1  0.73769979  0.43868759  0.11026810  1.0
  C  C163  1  0.71017784  0.38737000  0.10742485  1.0
  C  C164  1  0.61792226  0.38556299  0.07957917  1.0
  C  C165  1  0.55388092  0.43699006  0.05514467  1.0
  C  C166  1  0.58083699  0.48829086  0.05838288  1.0
  C  C167  1  0.31194154  0.31387008  0.80570221  1.0
  C  C168  1  0.36461327  0.30292658  0.86276792  1.0
  C  C169  1  0.33951404  0.33967787  0.88769323  1.0
  C  C170  1  0.39097938  0.33313196  0.93848152  1.0
  C  C171  1  0.46831000  0.28911287  0.96663513  1.0
  C  C172  1  0.49185271  0.25183067  0.94192725  1.0
  C  C173  1  0.44145085  0.25892977  0.89042344  1.0
  C  C174  1  0.60516470  0.22079862  0.11891765  1.0
  C  C175  1  0.62182526  0.27338744  0.12258297  1.0
  C  C176  1  0.59216330  0.33095922  0.07577303  1.0
  C  C177  1  0.54156147  0.33524541  0.02510133  1.0
  C  C178  1  0.55553582  0.22656852  0.06725649  1.0
  C  C179  1  0.52231915  0.28337260  0.02037219  1.0
  C  C180  1  0.72399211  0.76862711  0.42135740  1.0
  C  C181  1  0.67774579  0.79579206  0.35889837  1.0
  C  C182  1  0.69879637  0.66549997  0.43627105  1.0
  C  C183  1  0.77823624  0.67978729  0.51621854  1.0
  C  C184  1  0.08622332  0.30944853  0.70058340  1.0
  C  C185  1  0.04571089  0.26188542  0.68926986  1.0
  C  C186  1  0.95731218  0.22929487  0.71923717  1.0
  C  C187  1  0.92175188  0.18297777  0.70993827  1.0
  C  C188  1  0.97322373  0.16864431  0.67003763  1.0
  C  C189  1  0.06063935  0.20268817  0.63934012  1.0
  C  C190  1  0.09694574  0.24865569  0.64872957  1.0
  C  C191  1  0.03969599  0.08471752  0.36879389  1.0
  C  C192  1  0.00637899  0.08561789  0.42464259  1.0
  C  C193  1  0.07073738  0.11030250  0.45097701  1.0
  C  C194  1  0.04340907  0.10738112  0.50520474  1.0
  C  C195  1  0.95116167  0.07955643  0.53488650  1.0
  C  C196  1  0.88700416  0.05518230  0.50789572  1.0
  C  C197  1  0.91378804  0.05845098  0.45332232  1.0
  C  C198  1  0.64544228  0.80559124  0.88044815  1.0
  C  C199  1  0.69793073  0.86272048  0.83434486  1.0
  C  C200  1  0.67273395  0.88766123  0.77268459  1.0
  C  C201  1  0.72404422  0.93852914  0.72842629  1.0
  C  C202  1  0.80134934  0.96669553  0.74428037  1.0
  C  C203  1  0.82488451  0.94201574  0.80626877  1.0
  C  C204  1  0.77460636  0.89046322  0.85068632  1.0
  C  C205  1  0.93856381  0.11883149  0.66033882  1.0
  C  C206  1  0.95518718  0.12250677  0.60407726  1.0
  C  C207  1  0.92547277  0.07571451  0.59331104  1.0
  C  C208  1  0.87474141  0.02508479  0.63968382  1.0
  C  C209  1  0.88889218  0.06720759  0.70622220  1.0
  C  C210  1  0.85550801  0.02036722  0.69628229  1.0
  C  C211  1  0.05731065  0.42137532  0.81003853  1.0
  C  C212  1  0.01122120  0.35888056  0.84539632  1.0
  C  C213  1  0.03212680  0.43630794  0.89823551  1.0
  C  C214  1  0.11137120  0.51630998  0.80393982  1.0
  C  C215  1  0.41966002  0.70064264  0.98991593  1.0
  C  C216  1  0.37902302  0.68939476  0.04874821  1.0
  C  C217  1  0.29056734  0.71935224  0.05134290  1.0
  C  C218  1  0.25486625  0.70999921  0.10695281  1.0
  C  C219  1  0.30626597  0.67005733  0.16122100  1.0
  C  C220  1  0.39373945  0.63940120  0.15788876  1.0
  C  C221  1  0.43017358  0.64882785  0.10254515  1.0
  C  C222  1  0.37325818  0.36887802  0.54651207  1.0
  C  C223  1  0.33993191  0.42472018  0.48974348  1.0
  C  C224  1  0.40418818  0.45103429  0.43867506  1.0
  C  C225  1  0.37669407  0.50521352  0.38735468  1.0
  C  C226  1  0.28444902  0.53488558  0.38552690  1.0
  C  C227  1  0.22040442  0.50791869  0.43694966  1.0
  C  C228  1  0.24733497  0.45338127  0.48826097  1.0
  C  C229  1  0.97865062  0.88045835  0.31391062  1.0
  C  C230  1  0.03118260  0.83433959  0.30290865  1.0
  C  C231  1  0.00600834  0.77267357  0.33964122  1.0
  C  C232  1  0.05738143  0.72841992  0.33306527  1.0
  C  C233  1  0.13467723  0.74426624  0.28904664  1.0
  C  C234  1  0.15824892  0.80626413  0.25175055  1.0
  C  C235  1  0.10795084  0.85067960  0.25887189  1.0
  C  C236  1  0.27158624  0.66031972  0.22075069  1.0
  C  C237  1  0.28834260  0.60407103  0.27334474  1.0
  C  C238  1  0.25868374  0.59329642  0.33091843  1.0
  C  C239  1  0.20801443  0.63967067  0.33520117  1.0
  C  C240  1  0.22192526  0.70619574  0.22651940  1.0
  C  C241  1  0.18872694  0.69626763  0.28332461  1.0
  C  C242  1  0.39059314  0.81004451  0.76862214  1.0
  C  C243  1  0.34430042  0.84535385  0.79575327  1.0
  C  C244  1  0.36542425  0.89825005  0.66548079  1.0
  C  C245  1  0.44482871  0.80398466  0.67979934  1.0
  C  C246  1  0.24691706  0.01006537  0.29944775  1.0
  C  C247  1  0.28738825  0.95120185  0.31068721  1.0
  C  C248  1  0.37577107  0.94860441  0.28069417  1.0
  C  C249  1  0.41145666  0.89299530  0.29003048  1.0
  C  C250  1  0.36008140  0.83872578  0.32997851  1.0
  C  C251  1  0.27264167  0.84205551  0.36065409  1.0
  C  C252  1  0.23621463  0.89740826  0.35125347  1.0
  C  C253  1  0.29316923  0.45348076  0.63112706  1.0
  C  C254  1  0.32653210  0.51022851  0.57529804  1.0
  C  C255  1  0.26229908  0.56131420  0.54895260  1.0
  C  C256  1  0.28982330  0.61262986  0.49479329  1.0
  C  C257  1  0.38208037  0.61443539  0.46514137  1.0
  C  C258  1  0.44612018  0.56300969  0.49213470  1.0
  C  C259  1  0.41916185  0.51170901  0.54667388  1.0
  C  C260  1  0.68805982  0.68612679  0.11957205  1.0
  C  C261  1  0.63538663  0.69706914  0.16569721  1.0
  C  C262  1  0.66048208  0.66031984  0.22737192  1.0
  C  C263  1  0.60901834  0.66686549  0.27161444  1.0
  C  C264  1  0.53169080  0.71088596  0.25574601  1.0
  C  C265  1  0.50814802  0.74816709  0.19375696  1.0
  C  C266  1  0.55854599  0.74106869  0.14935308  1.0
  C  C267  1  0.39484017  0.77920186  0.33971493  1.0
  C  C268  1  0.37817812  0.72661181  0.39597110  1.0
  C  C269  1  0.40784006  0.66904041  0.40672983  1.0
  C  C270  1  0.45843722  0.66475402  0.36034522  1.0
  C  C271  1  0.44446362  0.77343176  0.29382456  1.0
  C  C272  1  0.47768027  0.71662625  0.30374450  1.0
  C  C273  1  0.27600750  0.23137187  0.18998406  1.0
  C  C274  1  0.32225375  0.20420763  0.15468956  1.0
  C  C275  1  0.30120626  0.33449977  0.10177169  1.0
  C  C276  1  0.22176344  0.32021279  0.19600626  1.0
  C  C277  1  0.91377943  0.69055156  0.01003608  1.0
  C  C278  1  0.95428176  0.73811470  0.95115814  1.0
  C  C279  1  0.04267742  0.77070622  0.94853497  1.0
  C  C280  1  0.07824304  0.81702228  0.89291964  1.0
  C  C281  1  0.02676806  0.83135418  0.83868398  1.0
  C  C282  1  0.93935702  0.79731209  0.84202968  1.0
  C  C283  1  0.90304377  0.75134334  0.89738869  1.0
  C  C284  1  0.96030146  0.91528506  0.45351003  1.0
  C  C285  1  0.99361855  0.91438537  0.51025877  1.0
  C  C286  1  0.92925944  0.88970046  0.56127746  1.0
  C  C287  1  0.95658782  0.89262114  0.61258339  1.0
  C  C288  1  0.04883908  0.92044361  0.61444290  1.0
  C  C289  1  0.11299424  0.94481851  0.56307849  1.0
  C  C290  1  0.08620952  0.94155052  0.51177301  1.0
  C  C291  1  0.35455568  0.19441510  0.68603517  1.0
  C  C292  1  0.30206798  0.13728307  0.69706194  1.0
  C  C293  1  0.32726622  0.11233985  0.66034319  1.0
  C  C294  1  0.27595593  0.06147094  0.66695392  1.0
  C  C295  1  0.19865161  0.03330376  0.71097703  1.0
  C  C296  1  0.17511958  0.05798557  0.74828312  1.0
  C  C297  1  0.22539699  0.10953862  0.74114688  1.0
  C  C298  1  0.06143483  0.88116732  0.77917157  1.0
  C  C299  1  0.04481062  0.87749092  0.72658583  1.0
  C  C300  1  0.07452575  0.92428395  0.66902672  1.0
  C  C301  1  0.12525791  0.97491239  0.66477099  1.0
  C  C302  1  0.11110572  0.93279086  0.77343140  1.0
  C  C303  1  0.14449292  0.97963108  0.71665135  1.0
  C  C304  1  0.94268619  0.57862451  0.23140954  1.0
  C  C305  1  0.98877411  0.64112065  0.20427208  1.0
  C  C306  1  0.96786941  0.56369318  0.33453728  1.0
  C  C307  1  0.88862876  0.48369138  0.32024481  1.0
  C  C308  1  0.58033803  0.29936075  0.69055584  1.0
  C  C309  1  0.62098285  0.31060411  0.73813836  1.0
  C  C310  1  0.70943241  0.28064625  0.77069145  1.0
  C  C311  1  0.74513205  0.28999811  0.81695053  1.0
  C  C312  1  0.69373467  0.32994058  0.83127822  1.0
  C  C313  1  0.60625963  0.36059710  0.79728814  1.0
  C  C314  1  0.56982850  0.35117025  0.75137006  1.0
  C  C315  1  0.62675198  0.63111903  0.91539759  1.0
  C  C316  1  0.66007284  0.57527810  0.91446724  1.0
  C  C317  1  0.59581576  0.54896521  0.88971143  1.0
  C  C318  1  0.62330907  0.49478588  0.89256782  1.0
  C  C319  1  0.71555413  0.46511342  0.92041185  1.0
  C  C320  1  0.77959725  0.49207955  0.94486820  1.0
  C  C321  1  0.75266827  0.54661661  0.94164478  1.0
  C  C322  1  0.02134816  0.11954178  0.19436909  1.0
  C  C323  1  0.96881996  0.16566222  0.13724682  1.0
  C  C324  1  0.99399270  0.22732689  0.11231346  1.0
  C  C325  1  0.94262187  0.27158043  0.06148481  1.0
  C  C326  1  0.86532678  0.25573443  0.03331227  1.0
  C  C327  1  0.84175355  0.19373514  0.05801457  1.0
  C  C328  1  0.89204938  0.14932025  0.10955019  1.0
  C  C329  1  0.72841371  0.33967795  0.88107046  1.0
  C  C330  1  0.71165815  0.39592767  0.87741468  1.0
  C  C331  1  0.74131708  0.40670202  0.92421236  1.0
  C  C332  1  0.79198643  0.36032834  0.97487052  1.0
  C  C333  1  0.77807549  0.29380433  0.93271269  1.0
  C  C334  1  0.81127235  0.30373265  0.97959012  1.0
  C  C335  1  0.60940314  0.18995866  0.57866646  1.0
  C  C336  1  0.65569592  0.15464860  0.64110760  1.0
  C  C337  1  0.63457962  0.10175425  0.56372865  1.0
  C  C338  1  0.55517129  0.19601951  0.48378331  1.0
  N  N339  1  0.73541966  0.70762541  0.45510421  1.0
  N  N340  1  0.06864090  0.45517342  0.83724821  1.0
  N  N341  1  0.40200651  0.83728152  0.70762100  1.0
  N  N342  1  0.26458073  0.29237357  0.16273053  1.0
  N  N343  1  0.93135676  0.54482932  0.29241733  1.0
  N  N344  1  0.59799124  0.16272238  0.54490070  1.0
  O  O345  1  0.69684330  0.94192640  0.33462495  1.0
  O  O346  1  0.84557619  0.98511876  0.32818170  1.0
  O  O347  1  0.79764471  0.54459154  0.10562445  1.0
  O  O348  1  0.64612724  0.59135225  0.06378738  1.0
  O  O349  1  0.23135580  0.34746080  0.79255525  1.0
  O  O350  1  0.34988951  0.29176909  0.77516770  1.0
  O  O351  1  0.75220134  0.80182209  0.44274421  1.0
  O  O352  1  0.03000684  0.33455915  0.72348669  1.0
  O  O353  1  0.17875628  0.32804117  0.68680776  1.0
  O  O354  1  0.13044836  0.10583035  0.34967796  1.0
  O  O355  1  0.97907367  0.06380304  0.34484335  1.0
  O  O356  1  0.56504777  0.79234140  0.85995948  1.0
  O  O357  1  0.68332943  0.77510893  0.93310507  1.0
  O  O358  1  0.08549825  0.44273479  0.75546391  1.0
  O  O359  1  0.36352949  0.72355434  0.94186388  1.0
  O  O360  1  0.51217945  0.68676530  0.98519936  1.0
  O  O361  1  0.46408564  0.34980853  0.54458445  1.0
  O  O362  1  0.31253583  0.34488398  0.59133172  1.0
  O  O363  1  0.89820747  0.85997084  0.34761204  1.0
  O  O364  1  0.01655170  0.93310995  0.29176570  1.0
  O  O365  1  0.41887550  0.75548294  0.80182888  1.0
  O  O366  1  0.30315478  0.05807394  0.27655010  1.0
  O  O367  1  0.15442344  0.01488027  0.31329929  1.0
  O  O368  1  0.20235347  0.45540817  0.65021163  1.0
  O  O369  1  0.35386401  0.40864376  0.65513743  1.0
  O  O370  1  0.76864403  0.65253473  0.14001995  1.0
  O  O371  1  0.65011946  0.70822807  0.06694000  1.0
  O  O372  1  0.24779756  0.19817703  0.24456567  1.0
  O  O373  1  0.96999442  0.66544107  0.05804987  1.0
  O  O374  1  0.82124570  0.67195162  0.01485822  1.0
  O  O375  1  0.86954985  0.89417173  0.45550630  1.0
  O  O376  1  0.02092604  0.93619894  0.40864464  1.0
  O  O377  1  0.43495093  0.20766075  0.65229726  1.0
  O  O378  1  0.31668315  0.22489847  0.70820934  1.0
  O  O379  1  0.91450237  0.55726532  0.19819496  1.0
  O  O380  1  0.63647233  0.27644844  0.66541653  1.0
  O  O381  1  0.48782548  0.31323668  0.67196303  1.0
  O  O382  1  0.53592374  0.65019210  0.89439793  1.0
  O  O383  1  0.68746747  0.65511228  0.93622369  1.0
  O  O384  1  0.10179364  0.14002938  0.20758265  1.0
  O  O385  1  0.98344478  0.06689111  0.22487629  1.0
  O  O386  1  0.58112309  0.24451844  0.55730953  1.0
