# generated using pymatgen
data_AlH27(C11O2)3
_symmetry_space_group_name_H-M   'P 1'
_cell_length_a   3.98910915
_cell_length_b   15.97348907
_cell_length_c   16.09155862
_cell_angle_alpha   60.23769145
_cell_angle_beta   88.92384794
_cell_angle_gamma   87.81557812
_symmetry_Int_Tables_number   1
_chemical_formula_structural   AlH27(C11O2)3
_chemical_formula_sum   'Al1 H27 C33 O6'
_cell_volume   889.45495094
_cell_formula_units_Z   1
loop_
 _symmetry_equiv_pos_site_id
 _symmetry_equiv_pos_as_xyz
  1  'x, y, z'
loop_
 _atom_site_type_symbol
 _atom_site_label
 _atom_site_symmetry_multiplicity
 _atom_site_fract_x
 _atom_site_fract_y
 _atom_site_fract_z
 _atom_site_occupancy
  Al  Al0  1  0.99991910  0.50119349  0.99775493  1.0
  H  H1  1  0.50007630  0.92142040  0.15723588  1.0
  H  H2  1  0.54905758  0.92180380  0.42339376  1.0
  H  H3  1  0.45100549  0.65489517  0.42335594  1.0
  H  H4  1  0.23001633  0.84289252  0.10620512  1.0
  H  H5  1  0.73072442  0.59995858  0.34202637  1.0
  H  H6  1  0.76986734  0.05107764  0.10616237  1.0
  H  H7  1  0.26934416  0.05812935  0.34202374  1.0
  H  H8  1  0.25913756  0.84531275  0.55464803  1.0
  H  H9  1  0.74089035  0.60008137  0.55467617  1.0
  H  H10  1  0.64786624  0.43560305  0.34064626  1.0
  H  H11  1  0.73566601  0.44456237  0.22794646  1.0
  H  H12  1  0.03505401  0.48096410  0.28214440  1.0
  H  H13  1  0.33545658  0.83906416  0.94006334  1.0
  H  H14  1  0.21990723  0.72711500  0.95272693  1.0
  H  H15  1  0.93743464  0.79173868  0.98779620  1.0
  H  H16  1  0.66476528  0.22106325  0.94006558  1.0
  H  H17  1  0.77993643  0.32034174  0.95274784  1.0
  H  H18  1  0.06248689  0.22070595  0.98784955  1.0
  H  H19  1  0.35232341  0.22383753  0.34069198  1.0
  H  H20  1  0.26453000  0.32761914  0.22794892  1.0
  H  H21  1  0.96516422  0.23696462  0.28212660  1.0
  H  H22  1  0.97993734  0.75037473  0.77475912  1.0
  H  H23  1  0.38759162  0.77217857  0.79732473  1.0
  H  H24  1  0.18655606  0.85482560  0.68728944  1.0
  H  H25  1  0.01998005  0.47484227  0.77484506  1.0
  H  H26  1  0.61222476  0.43054564  0.79735830  1.0
  H  H27  1  0.81339563  0.45788032  0.68736252  1.0
  C  C28  1  0.51255092  0.35176205  0.07397684  1.0
  C  C29  1  0.49992531  0.57493763  0.85014117  1.0
  C  C30  1  0.48728318  0.57446583  0.07390013  1.0
  C  C31  1  0.51359283  0.93449999  0.28405062  1.0
  C  C32  1  0.50007743  0.88242588  0.23523477  1.0
  C  C33  1  0.48655692  0.78154437  0.28403744  1.0
  C  C34  1  0.48061372  0.73272149  0.38436417  1.0
  C  C35  1  0.50007608  0.78223969  0.43558976  1.0
  C  C36  1  0.51954778  0.88298181  0.38437176  1.0
  C  C37  1  0.34767772  0.72212293  0.08615121  1.0
  C  C38  1  0.34611597  0.77059731  0.13832492  1.0
  C  C39  1  0.47981434  0.72805455  0.23094980  1.0
  C  C40  1  0.61377815  0.63351525  0.27144085  1.0
  C  C41  1  0.61551984  0.58156031  0.22264119  1.0
  C  C42  1  0.48253764  0.62709601  0.12932016  1.0
  C  C43  1  0.65385444  0.09120371  0.13834032  1.0
  C  C44  1  0.65226711  0.19185583  0.08616105  1.0
  C  C45  1  0.51760148  0.24371293  0.12933743  1.0
  C  C46  1  0.38477283  0.19589981  0.22265128  1.0
  C  C47  1  0.38631348  0.09513896  0.27145660  1.0
  C  C48  1  0.52014652  0.04109430  0.23095621  1.0
  C  C49  1  0.36935077  0.77230226  0.59311724  1.0
  C  C50  1  0.36414962  0.72395333  0.69293817  1.0
  C  C51  1  0.50000077  0.62812940  0.74379765  1.0
  C  C52  1  0.63586648  0.58314559  0.69295946  1.0
  C  C53  1  0.63073041  0.63462204  0.59314223  1.0
  C  C54  1  0.49998925  0.72938154  0.54126251  1.0
  C  C55  1  0.76498632  0.48023616  0.27037946  1.0
  C  C56  1  0.20361245  0.77215573  0.98639588  1.0
  C  C57  1  0.79628306  0.24163483  0.98643007  1.0
  C  C58  1  0.23527351  0.24949154  0.27038499  1.0
  C  C59  1  0.22228803  0.77818998  0.74071603  1.0
  C  C60  1  0.77762810  0.48110581  0.74076766  1.0
  O  O61  1  0.72242446  0.59279938  0.01298253  1.0
  O  O62  1  0.74307050  0.39470637  0.09041716  1.0
  O  O63  1  0.74036421  0.51388428  0.89384136  1.0
  O  O64  1  0.25674245  0.51507929  0.09038276  1.0
  O  O65  1  0.25958597  0.59233365  0.89381611  1.0
  O  O66  1  0.27733867  0.39431995  0.01305064  1.0
