# generated using pymatgen
data_Zr3H12C26S5(NO8)2
_symmetry_space_group_name_H-M   'P 1'
_cell_length_a   16.43342865
_cell_length_b   16.46247352
_cell_length_c   16.46250528
_cell_angle_alpha   88.45400487
_cell_angle_beta   60.25371179
_cell_angle_gamma   60.24345219
_symmetry_Int_Tables_number   1
_chemical_formula_structural   Zr3H12C26S5(NO8)2
_chemical_formula_sum   'Zr6 H24 C52 S10 N4 O32'
_cell_volume   3211.76650070
_cell_formula_units_Z   2
loop_
 _symmetry_equiv_pos_site_id
 _symmetry_equiv_pos_as_xyz
  1  'x, y, z'
loop_
 _atom_site_type_symbol
 _atom_site_label
 _atom_site_symmetry_multiplicity
 _atom_site_fract_x
 _atom_site_fract_y
 _atom_site_fract_z
 _atom_site_occupancy
  Zr  Zr0  1  0.51190403  0.09727434  0.59980169  1.0
  Zr  Zr1  1  0.49340659  0.89467297  0.39736330  1.0
  Zr  Zr2  1  0.29250382  0.10206919  0.60527175  1.0
  Zr  Zr3  1  0.71286429  0.88928494  0.39255222  1.0
  Zr  Zr4  1  0.50273639  0.10523958  0.38915935  1.0
  Zr  Zr5  1  0.50270876  0.88631975  0.60821445  1.0
  H  H6  1  0.34368659  0.24514437  0.57742629  1.0
  H  H7  1  0.66169539  0.91693762  0.24946907  1.0
  H  H8  1  0.32887925  0.91431883  0.58845906  1.0
  H  H9  1  0.67652519  0.90604859  0.58015348  1.0
  H  H10  1  0.51882206  0.59243512  0.62125169  1.0
  H  H11  1  0.51353635  0.38662812  0.36146003  1.0
  H  H12  1  0.49255541  0.13246972  0.10766979  1.0
  H  H13  1  0.48726088  0.87295681  0.90156511  1.0
  H  H14  1  0.99275740  0.12797156  0.88891715  1.0
  H  H15  1  0.01310111  0.87597193  0.12268427  1.0
  H  H16  1  0.99263219  0.37136764  0.61782666  1.0
  H  H17  1  0.01263311  0.60568628  0.36634468  1.0
  H  H18  1  0.30451916  0.35231829  0.82858659  1.0
  H  H19  1  0.70109199  0.66532652  0.14266518  1.0
  H  H20  1  0.23730178  0.88469612  0.36892326  1.0
  H  H21  1  0.76748929  0.12629550  0.61025050  1.0
  H  H22  1  0.83958666  0.51378242  0.91948548  1.0
  H  H23  1  0.72140265  0.57196900  0.03019744  1.0
  H  H24  1  0.06031876  0.28307211  0.83346861  1.0
  H  H25  1  0.92172046  0.37670857  0.93295014  1.0
  H  H26  1  0.16601273  0.57546622  0.98041799  1.0
  H  H27  1  0.28432202  0.46484252  0.92163755  1.0
  H  H28  1  0.94538393  0.66178674  0.21084818  1.0
  H  H29  1  0.08394323  0.56225477  0.11740419  1.0
  C  C30  1  0.52052000  0.26010017  0.48503859  1.0
  C  C31  1  0.48515264  0.00903363  0.23430512  1.0
  C  C32  1  0.50115791  0.72381026  0.50314558  1.0
  C  C33  1  0.50443566  0.99134364  0.77059204  1.0
  C  C34  1  0.24937247  0.25694527  0.76612582  1.0
  C  C35  1  0.78037472  0.99568720  0.48855486  1.0
  C  C36  1  0.75619219  0.72829718  0.23770714  1.0
  C  C37  1  0.22462438  0.00642413  0.49919077  1.0
  C  C38  1  0.23255582  0.26536792  0.49308253  1.0
  C  C39  1  0.23270424  0.99808527  0.77693115  1.0
  C  C40  1  0.77274432  0.71764457  0.49638064  1.0
  C  C41  1  0.77309980  0.00097053  0.22897253  1.0
  C  C42  1  0.51663567  0.57341285  0.55994671  1.0
  C  C43  1  0.51708145  0.40498592  0.42207419  1.0
  C  C44  1  0.50898437  0.63107882  0.49799421  1.0
  C  C45  1  0.52241676  0.34831969  0.48514393  1.0
  C  C46  1  0.51565536  0.48664506  0.44880219  1.0
  C  C47  1  0.52028542  0.49076110  0.53210656  1.0
  C  C48  1  0.48905828  0.07184896  0.08923638  1.0
  C  C49  1  0.48952478  0.93417961  0.92064794  1.0
  C  C50  1  0.48358931  0.00879681  0.14590259  1.0
  C  C51  1  0.49705452  0.99624675  0.86311105  1.0
  C  C52  1  0.48598921  0.96188890  0.00326247  1.0
  C  C53  1  0.49061454  0.04518476  0.00747765  1.0
  C  C54  1  0.02842114  0.06748534  0.91562280  1.0
  C  C55  1  0.97790049  0.93717777  0.09648572  1.0
  C  C56  1  0.14359735  0.00028271  0.86804885  1.0
  C  C57  1  0.86269834  0.00336528  0.14275079  1.0
  C  C58  1  0.03841626  0.96065315  0.01415978  1.0
  C  C59  1  0.96803282  0.04504952  0.99900782  1.0
  C  C60  1  0.02776102  0.39763407  0.55666751  1.0
  C  C61  1  0.97704876  0.57886569  0.42672891  1.0
  C  C62  1  0.14294355  0.35141526  0.49048869  1.0
  C  C63  1  0.86188389  0.62638331  0.49396147  1.0
  C  C64  1  0.03749585  0.49531641  0.44897768  1.0
  C  C65  1  0.96717950  0.48001762  0.53326365  1.0
  C  C66  1  0.05072977  0.38959783  0.90483878  1.0
  C  C67  1  0.21363928  0.38640316  0.87534187  1.0
  C  C68  1  0.14756230  0.46680416  0.95438423  1.0
  C  C69  1  0.02733804  0.51273827  0.01395881  1.0
  C  C70  1  0.95499010  0.59000194  0.10462525  1.0
  C  C71  1  0.79201430  0.61877537  0.10844237  1.0
  C  C72  1  0.85813398  0.53972700  0.02806764  1.0
  C  C73  1  0.97839076  0.48038205  0.98193677  1.0
  C  C74  1  0.16906280  0.34436915  0.85061807  1.0
  C  C75  1  0.83660546  0.64385763  0.15018852  1.0
  C  C76  1  0.15340867  0.94434594  0.42724562  1.0
  C  C77  1  0.85140498  0.06788603  0.55068457  1.0
  C  C78  1  0.13627612  0.00966040  0.49446109  1.0
  C  C79  1  0.86859765  0.00054237  0.48544404  1.0
  C  C80  1  0.95492733  0.04819015  0.52907589  1.0
  C  C81  1  0.04988197  0.96595635  0.44696904  1.0
  S  S82  1  0.50719511  0.58508425  0.40536239  1.0
  S  S83  1  0.52667442  0.39319670  0.57656447  1.0
  S  S84  1  0.47948030  0.91736282  0.10082054  1.0
  S  S85  1  0.49898427  0.08876755  0.90912873  1.0
  S  S86  1  0.17904873  0.90993091  0.92482725  1.0
  S  S87  1  0.82737158  0.09487569  0.08719133  1.0
  S  S88  1  0.17817893  0.40709937  0.39908336  1.0
  S  S89  1  0.82652312  0.56938527  0.58409386  1.0
  S  S90  1  0.99483131  0.09823705  0.58105586  1.0
  S  S91  1  0.01003318  0.91384699  0.39701212  1.0
  N  N92  1  0.80545485  0.51884783  0.99202086  1.0
  N  N93  1  0.00551757  0.34787517  0.88686645  1.0
  N  N94  1  0.20036990  0.50285206  0.97502142  1.0
  N  N95  1  0.00029058  0.60866327  0.14582593  1.0
  O  O96  1  0.52271433  0.22240018  0.55354873  1.0
  O  O97  1  0.48281330  0.94060793  0.27211178  1.0
  O  O98  1  0.49379814  0.76399879  0.43729454  1.0
  O  O99  1  0.51141015  0.05739278  0.73059467  1.0
  O  O100  1  0.21247144  0.22157917  0.73381724  1.0
  O  O101  1  0.81142655  0.92687945  0.42356523  1.0
  O  O102  1  0.79307228  0.76065499  0.27304220  1.0
  O  O103  1  0.19366853  0.07133645  0.56800390  1.0
  O  O104  1  0.33465358  0.23330236  0.42468913  1.0
  O  O105  1  0.33478790  0.92774754  0.74245796  1.0
  O  O106  1  0.67068565  0.75204953  0.56669895  1.0
  O  O107  1  0.67101276  0.06943526  0.26105166  1.0
  O  O108  1  0.20005550  0.06626415  0.73882611  1.0
  O  O109  1  0.80536632  0.75589448  0.42835698  1.0
  O  O110  1  0.80513417  0.92947600  0.26375015  1.0
  O  O111  1  0.20046713  0.23076740  0.56470151  1.0
  O  O112  1  0.35500841  0.22005837  0.72557885  1.0
  O  O113  1  0.32600643  0.93686366  0.43415523  1.0
  O  O114  1  0.65056722  0.76869073  0.27465079  1.0
  O  O115  1  0.67896056  0.06061919  0.55813093  1.0
  O  O116  1  0.50466987  0.92188317  0.73715944  1.0
  O  O117  1  0.51456717  0.22944075  0.41883018  1.0
  O  O118  1  0.49095084  0.07532494  0.26502093  1.0
  O  O119  1  0.50092856  0.75723662  0.57259368  1.0
  O  O120  1  0.62715242  0.93076763  0.55699980  1.0
  O  O121  1  0.37819384  0.93752523  0.56380706  1.0
  O  O122  1  0.61595051  0.94073996  0.32027062  1.0
  O  O123  1  0.38940615  0.17433085  0.55364079  1.0
  O  O124  1  0.41121546  0.04382086  0.45561854  1.0
  O  O125  1  0.59417981  0.03895974  0.45065315  1.0
  O  O126  1  0.58555793  0.86463676  0.45876439  1.0
  O  O127  1  0.41984120  0.03579596  0.62985021  1.0
