# generated using pymatgen
data_UH24C20(NO3)2
_symmetry_space_group_name_H-M   'P 1'
_cell_length_a   9.60918005
_cell_length_b   14.66822502
_cell_length_c   19.24584193
_cell_angle_alpha   89.99956717
_cell_angle_beta   89.99992838
_cell_angle_gamma   89.99982575
_symmetry_Int_Tables_number   1
_chemical_formula_structural   UH24C20(NO3)2
_chemical_formula_sum   'U4 H96 C80 N8 O24'
_cell_volume   2712.69401474
_cell_formula_units_Z   4
loop_
 _symmetry_equiv_pos_site_id
 _symmetry_equiv_pos_as_xyz
  1  'x, y, z'
loop_
 _atom_site_type_symbol
 _atom_site_label
 _atom_site_symmetry_multiplicity
 _atom_site_fract_x
 _atom_site_fract_y
 _atom_site_fract_z
 _atom_site_occupancy
  U  U0  1  0.76911836  0.00925409  0.24487081  1.0
  U  U1  1  0.73088327  0.99074670  0.74487208  1.0
  U  U2  1  0.23088292  0.50925509  0.25512837  1.0
  U  U3  1  0.26911557  0.49074046  0.75513252  1.0
  H  H4  1  0.12538226  0.83423348  0.05213088  1.0
  H  H5  1  0.37461985  0.16576407  0.55212854  1.0
  H  H6  1  0.87462063  0.33423709  0.44786953  1.0
  H  H7  1  0.62538049  0.66576306  0.94786807  1.0
  H  H8  1  0.08312449  0.95112704  0.04635321  1.0
  H  H9  1  0.41687452  0.04887057  0.54635203  1.0
  H  H10  1  0.91687682  0.45112915  0.45364705  1.0
  H  H11  1  0.58312428  0.54887095  0.95364682  1.0
  H  H12  1  0.07693975  0.93867745  0.92537013  1.0
  H  H13  1  0.42305831  0.06132256  0.42536949  1.0
  H  H14  1  0.92305933  0.43867782  0.57462958  1.0
  H  H15  1  0.57693961  0.56132192  0.07462990  1.0
  H  H16  1  0.10366030  0.82032362  0.92898943  1.0
  H  H17  1  0.39634087  0.17967636  0.42898812  1.0
  H  H18  1  0.89634037  0.32032476  0.57101096  1.0
  H  H19  1  0.60366066  0.67967501  0.07100955  1.0
  H  H20  1  0.86101011  0.78781790  0.93062184  1.0
  H  H21  1  0.63899105  0.21218038  0.43062051  1.0
  H  H22  1  0.13899070  0.28781989  0.56938081  1.0
  H  H23  1  0.36101137  0.71218158  0.06937697  1.0
  H  H24  1  0.60519310  0.89353467  0.04884258  1.0
  H  H25  1  0.89480590  0.10646328  0.54884160  1.0
  H  H26  1  0.39480640  0.39353648  0.45115853  1.0
  H  H27  1  0.10519368  0.60646191  0.95115743  1.0
  H  H28  1  0.64824910  0.79411247  0.00079923  1.0
  H  H29  1  0.85174899  0.20588527  0.50079874  1.0
  H  H30  1  0.35174879  0.29411390  0.49920245  1.0
  H  H31  1  0.14824805  0.70588470  0.99920023  1.0
  H  H32  1  0.59759194  0.89392563  0.95607127  1.0
  H  H33  1  0.90240916  0.10607240  0.45607039  1.0
  H  H34  1  0.40240839  0.39392598  0.54393025  1.0
  H  H35  1  0.09759271  0.60607097  0.04392874  1.0
  H  H36  1  0.74762236  0.03085652  0.95153197  1.0
  H  H37  1  0.75238396  0.96914155  0.45152878  1.0
  H  H38  1  0.25237965  0.53085610  0.54847114  1.0
  H  H39  1  0.24762456  0.46914353  0.04847033  1.0
  H  H40  1  0.91397676  0.03348020  0.99137428  1.0
  H  H41  1  0.58602945  0.96651680  0.49137173  1.0
  H  H42  1  0.08602419  0.53348323  0.50862777  1.0
  H  H43  1  0.41397908  0.46651816  0.00862740  1.0
  H  H44  1  0.76164238  0.03389952  0.04343710  1.0
  H  H45  1  0.73836184  0.96609576  0.54343539  1.0
  H  H46  1  0.23835879  0.53390260  0.45656505  1.0
  H  H47  1  0.26164439  0.46609846  0.95656467  1.0
  H  H48  1  0.77959953  0.74703803  0.09341673  1.0
  H  H49  1  0.72040249  0.25295676  0.59341605  1.0
  H  H50  1  0.22040170  0.24704198  0.40658366  1.0
  H  H51  1  0.27959745  0.75295889  0.90658213  1.0
  H  H52  1  0.96033816  0.73665205  0.10921285  1.0
  H  H53  1  0.53965965  0.26334121  0.60921222  1.0
  H  H54  1  0.03966103  0.23665994  0.39078709  1.0
  H  H55  1  0.46033815  0.76334314  0.89078538  1.0
  H  H56  1  0.89602064  0.72067037  0.02405374  1.0
  H  H57  1  0.60397843  0.27932646  0.52405350  1.0
  H  H58  1  0.10397758  0.22067320  0.47594681  1.0
  H  H59  1  0.39602139  0.77932700  0.97594453  1.0
  H  H60  1  0.08865009  0.96622641  0.30929775  1.0
  H  H61  1  0.41135242  0.03377338  0.80930082  1.0
  H  H62  1  0.91134803  0.46622566  0.19070190  1.0
  H  H63  1  0.58865478  0.53377566  0.69070019  1.0
  H  H64  1  0.33343902  0.02668709  0.31713689  1.0
  H  H65  1  0.16656243  0.97331194  0.81713727  1.0
  H  H66  1  0.66655906  0.52668657  0.18286374  1.0
  H  H67  1  0.83344168  0.47331211  0.68286068  1.0
  H  H68  1  0.38352416  0.18226778  0.27070146  1.0
  H  H69  1  0.11648054  0.81773239  0.77070225  1.0
  H  H70  1  0.61647216  0.68226622  0.22929775  1.0
  H  H71  1  0.88352743  0.31773336  0.72929763  1.0
  H  H72  1  0.18554042  0.27289543  0.21812783  1.0
  H  H73  1  0.31446233  0.72710799  0.71812590  1.0
  H  H74  1  0.81445444  0.77289227  0.28187242  1.0
  H  H75  1  0.68554293  0.22710884  0.78187503  1.0
  H  H76  1  0.95012612  0.20211721  0.21358863  1.0
  H  H77  1  0.54987767  0.79788457  0.71359114  1.0
  H  H78  1  0.04987011  0.70211758  0.28640787  1.0
  H  H79  1  0.45012830  0.29788585  0.78641042  1.0
  H  H80  1  0.55309479  0.84371556  0.30794390  1.0
  H  H81  1  0.94690460  0.15628734  0.80794260  1.0
  H  H82  1  0.44690910  0.34371504  0.19205645  1.0
  H  H83  1  0.05309267  0.65628454  0.69205614  1.0
  H  H84  1  0.33707452  0.75388022  0.28243898  1.0
  H  H85  1  0.16292702  0.24612461  0.78243838  1.0
  H  H86  1  0.66293083  0.25387970  0.21756190  1.0
  H  H87  1  0.83707191  0.74612204  0.71756296  1.0
  H  H88  1  0.18553715  0.80327198  0.18276489  1.0
  H  H89  1  0.31446568  0.19673042  0.68276499  1.0
  H  H90  1  0.81446693  0.30327154  0.31723570  1.0
  H  H91  1  0.68553452  0.69672990  0.81723767  1.0
  H  H92  1  0.25902290  0.93984365  0.11264750  1.0
  H  H93  1  0.24097907  0.06016012  0.61264845  1.0
  H  H94  1  0.74098055  0.43984198  0.38735178  1.0
  H  H95  1  0.75902280  0.56015604  0.88735345  1.0
  H  H96  1  0.48419822  0.01666341  0.14160805  1.0
  H  H97  1  0.01580055  0.98334007  0.64160846  1.0
  H  H98  1  0.51580199  0.51666351  0.35839108  1.0
  H  H99  1  0.98419624  0.48333548  0.85839150  1.0
  C  C100  1  0.80603837  0.90070995  0.99763445  1.0
  C  C101  1  0.69396054  0.09928495  0.49763322  1.0
  C  C102  1  0.19395880  0.40071317  0.50236651  1.0
  C  C103  1  0.30604033  0.59928896  0.00236543  1.0
  C  C104  1  0.90271282  0.86344685  0.05804456  1.0
  C  C105  1  0.59728616  0.13654897  0.55804204  1.0
  C  C106  1  0.09728682  0.36345070  0.44195672  1.0
  C  C107  1  0.40271224  0.63654983  0.94195474  1.0
  C  C108  1  0.05021760  0.88272896  0.03022473  1.0
  C  C109  1  0.44978250  0.11726744  0.53022314  1.0
  C  C110  1  0.94978299  0.38273358  0.46977539  1.0
  C  C111  1  0.55021911  0.61726773  0.96977479  1.0
  C  C112  1  0.04033840  0.87584699  0.95019750  1.0
  C  C113  1  0.45966272  0.12415141  0.45019648  1.0
  C  C114  1  0.95966096  0.37584958  0.54980205  1.0
  C  C115  1  0.54033908  0.62415108  0.04980151  1.0
  C  C116  1  0.88567697  0.86103667  0.93348510  1.0
  C  C117  1  0.61432522  0.13896226  0.43348317  1.0
  C  C118  1  0.11432350  0.36103805  0.56651609  1.0
  C  C119  1  0.38567754  0.63896344  0.06651421  1.0
  C  C120  1  0.86828825  0.91270541  0.12526726  1.0
  C  C121  1  0.63170848  0.08728974  0.62526552  1.0
  C  C122  1  0.13171324  0.41270917  0.37473373  1.0
  C  C123  1  0.36828702  0.58729133  0.87473310  1.0
  C  C124  1  0.83750949  0.90092600  0.86557734  1.0
  C  C125  1  0.66248976  0.09907565  0.36557510  1.0
  C  C126  1  0.16248976  0.40092662  0.63442466  1.0
  C  C127  1  0.33751007  0.59907489  0.13442252  1.0
  C  C128  1  0.65551385  0.86863546  0.00129158  1.0
  C  C129  1  0.84448631  0.13136228  0.50129101  1.0
  C  C130  1  0.34448473  0.36863690  0.49870966  1.0
  C  C131  1  0.15551419  0.63136171  0.99870787  1.0
  C  C132  1  0.80834970  0.00563506  0.99595564  1.0
  C  C133  1  0.69165025  0.99436190  0.49595390  1.0
  C  C134  1  0.19165034  0.50563656  0.50404657  1.0
  C  C135  1  0.30835398  0.49436351  0.00404610  1.0
  C  C136  1  0.88255419  0.76094224  0.07162962  1.0
  C  C137  1  0.61744475  0.23905344  0.57162700  1.0
  C  C138  1  0.11744488  0.26094618  0.42837226  1.0
  C  C139  1  0.38255525  0.73905516  0.92836866  1.0
  C  C140  1  0.11556925  0.03385463  0.29005057  1.0
  C  C141  1  0.38443123  0.96614466  0.79005137  1.0
  C  C142  1  0.88442984  0.53385409  0.20994898  1.0
  C  C143  1  0.61557188  0.46614704  0.70994661  1.0
  C  C144  1  0.25069620  0.06758589  0.29427732  1.0
  C  C145  1  0.24930427  0.93241541  0.79427528  1.0
  C  C146  1  0.74930065  0.56758498  0.20572412  1.0
  C  C147  1  0.75069796  0.43241551  0.70572030  1.0
  C  C148  1  0.27851214  0.15427133  0.26801840  1.0
  C  C149  1  0.22149048  0.84572887  0.76801584  1.0
  C  C150  1  0.72148431  0.65426953  0.23198202  1.0
  C  C151  1  0.77851319  0.34573139  0.73198180  1.0
  C  C152  1  0.17012404  0.20438603  0.23856361  1.0
  C  C153  1  0.32987969  0.79561923  0.73855972  1.0
  C  C154  1  0.82987009  0.70438100  0.26143859  1.0
  C  C155  1  0.67012733  0.29561895  0.76143925  1.0
  C  C156  1  0.03791098  0.16559961  0.23638615  1.0
  C  C157  1  0.46209276  0.83440226  0.73638507  1.0
  C  C158  1  0.96208645  0.66559839  0.26361316  1.0
  C  C159  1  0.53791097  0.33440222  0.76361368  1.0
  C  C160  1  0.48575607  0.86157281  0.26435991  1.0
  C  C161  1  0.01424447  0.13843151  0.76435898  1.0
  C  C162  1  0.51424774  0.36157036  0.23564138  1.0
  C  C163  1  0.98575392  0.63842779  0.73564194  1.0
  C  C164  1  0.36434834  0.81278250  0.25063609  1.0
  C  C165  1  0.13565224  0.18722059  0.75063532  1.0
  C  C166  1  0.63565465  0.31278104  0.24936497  1.0
  C  C167  1  0.86434592  0.68721970  0.74936636  1.0
  C  C168  1  0.28081365  0.84024562  0.19505623  1.0
  C  C169  1  0.21918811  0.15975870  0.69505506  1.0
  C  C170  1  0.71919026  0.34024413  0.30494570  1.0
  C  C171  1  0.78081330  0.65975607  0.80494730  1.0
  C  C172  1  0.32239355  0.91498488  0.15542822  1.0
  C  C173  1  0.17760310  0.08501779  0.65543010  1.0
  C  C174  1  0.67760585  0.41498513  0.34456964  1.0
  C  C175  1  0.82239449  0.58501400  0.84457217  1.0
  C  C176  1  0.44676825  0.95863549  0.17170846  1.0
  C  C177  1  0.05323045  0.04136770  0.67171067  1.0
  C  C178  1  0.55323199  0.45863547  0.32828967  1.0
  C  C179  1  0.94676631  0.54136246  0.82829238  1.0
  N  N180  1  0.01067261  0.08183614  0.26151183  1.0
  N  N181  1  0.48932898  0.91816548  0.76151389  1.0
  N  N182  1  0.98932418  0.58183443  0.23848588  1.0
  N  N183  1  0.51067435  0.41816711  0.73848750  1.0
  N  N184  1  0.52721007  0.93267972  0.22530346  1.0
  N  N185  1  0.97278849  0.06732535  0.72530474  1.0
  N  N186  1  0.47278821  0.43267766  0.27469534  1.0
  N  N187  1  0.02720815  0.56731974  0.77469711  1.0
  O  O188  1  0.83362532  0.92128161  0.30296745  1.0
  O  O189  1  0.66635327  0.07872475  0.80297769  1.0
  O  O190  1  0.16635636  0.42127888  0.19702310  1.0
  O  O191  1  0.33362458  0.57871247  0.69703761  1.0
  O  O192  1  0.70482450  0.09834906  0.18757040  1.0
  O  O193  1  0.79518248  0.90166934  0.68758358  1.0
  O  O194  1  0.29517533  0.59833300  0.31241735  1.0
  O  O195  1  0.20481781  0.40164835  0.81243036  1.0
  O  O196  1  0.75317854  0.89291565  0.15576849  1.0
  O  O197  1  0.74681291  0.10708601  0.65577072  1.0
  O  O198  1  0.24681680  0.39291404  0.34422898  1.0
  O  O199  1  0.25317834  0.60708200  0.84423143  1.0
  O  O200  1  0.94646852  0.97361304  0.15189723  1.0
  O  O201  1  0.55353230  0.02638116  0.65189641  1.0
  O  O202  1  0.05353373  0.47361723  0.34810237  1.0
  O  O203  1  0.44646557  0.52638150  0.84810257  1.0
  O  O204  1  0.72180460  0.87530215  0.83872126  1.0
  O  O205  1  0.77819784  0.12469976  0.33871880  1.0
  O  O206  1  0.27819685  0.37530091  0.66128089  1.0
  O  O207  1  0.22180395  0.62469897  0.16127867  1.0
  O  O208  1  0.90894524  0.96218298  0.83437040  1.0
  O  O209  1  0.59105096  0.03782306  0.33436596  1.0
  O  O210  1  0.09105269  0.46218139  0.66563176  1.0
  O  O211  1  0.40894603  0.53781777  0.16562994  1.0
