# generated using pymatgen
data_Tb2Cu3H30C24(NO4)6
_symmetry_space_group_name_H-M   'P 1'
_cell_length_a   13.38949949
_cell_length_b   13.38952720
_cell_length_c   14.39960465
_cell_angle_alpha   89.99984571
_cell_angle_beta   89.99994214
_cell_angle_gamma   60.00006965
_symmetry_Int_Tables_number   1
_chemical_formula_structural   Tb2Cu3H30C24(NO4)6
_chemical_formula_sum   'Tb4 Cu6 H60 C48 N12 O48'
_cell_volume   2235.68745411
_cell_formula_units_Z   2
loop_
 _symmetry_equiv_pos_site_id
 _symmetry_equiv_pos_as_xyz
  1  'x, y, z'
loop_
 _atom_site_type_symbol
 _atom_site_label
 _atom_site_symmetry_multiplicity
 _atom_site_fract_x
 _atom_site_fract_y
 _atom_site_fract_z
 _atom_site_occupancy
  Tb  Tb0  1  0.66666667  0.66666667  0.83153136  1.0
  Tb  Tb1  1  0.33333333  0.33333333  0.66846649  1.0
  Tb  Tb2  1  0.33333333  0.33333333  0.16846804  1.0
  Tb  Tb3  1  0.66666667  0.66666667  0.33153361  1.0
  Cu  Cu4  1  0.49999947  0.49999989  0.00000063  1.0
  Cu  Cu5  1  0.49999986  0.99999984  0.00000056  1.0
  Cu  Cu6  1  0.99999964  0.49999995  0.99999993  1.0
  Cu  Cu7  1  0.99999995  0.49999987  0.49999940  1.0
  Cu  Cu8  1  0.50000029  0.99999992  0.50000040  1.0
  Cu  Cu9  1  0.49999991  0.49999997  0.49999977  1.0
  H  H10  1  0.32317793  0.63981563  0.08307851  1.0
  H  H11  1  0.63981602  0.03700660  0.08307842  1.0
  H  H12  1  0.03700671  0.32317785  0.08307835  1.0
  H  H13  1  0.96299231  0.36018499  0.41692161  1.0
  H  H14  1  0.67682373  0.96299230  0.41692169  1.0
  H  H15  1  0.36018557  0.67682275  0.41692150  1.0
  H  H16  1  0.67682266  0.36018420  0.91692159  1.0
  H  H17  1  0.36018382  0.96299324  0.91692168  1.0
  H  H18  1  0.96299345  0.67682284  0.91692175  1.0
  H  H19  1  0.03700828  0.63981485  0.58307848  1.0
  H  H20  1  0.32317642  0.03700840  0.58307841  1.0
  H  H21  1  0.63981502  0.32317708  0.58307860  1.0
  H  H22  1  0.39564303  0.68783495  0.20536705  1.0
  H  H23  1  0.68783605  0.91652187  0.20536663  1.0
  H  H24  1  0.91652250  0.39564249  0.20536717  1.0
  H  H25  1  0.08347775  0.31216393  0.29463276  1.0
  H  H26  1  0.60435874  0.08347789  0.29463349  1.0
  H  H27  1  0.31216346  0.60435899  0.29463228  1.0
  H  H28  1  0.60435681  0.31216489  0.79463305  1.0
  H  H29  1  0.31216379  0.08347796  0.79463347  1.0
  H  H30  1  0.08347766  0.60435821  0.79463292  1.0
  H  H31  1  0.91652210  0.68783589  0.70536734  1.0
  H  H32  1  0.39564067  0.91652281  0.70536660  1.0
  H  H33  1  0.68783670  0.39564170  0.70536712  1.0
  H  H34  1  0.46212680  0.74143607  0.13198299  1.0
  H  H35  1  0.74143543  0.79643846  0.13198349  1.0
  H  H36  1  0.79643768  0.46212685  0.13198319  1.0
  H  H37  1  0.20356319  0.25856454  0.36801603  1.0
  H  H38  1  0.53787303  0.20356302  0.36801525  1.0
  H  H39  1  0.25856453  0.53787291  0.36801566  1.0
  H  H40  1  0.53787261  0.25856462  0.86801641  1.0
  H  H41  1  0.25856398  0.20356223  0.86801661  1.0
  H  H42  1  0.20356217  0.53787298  0.86801622  1.0
  H  H43  1  0.79643665  0.74143529  0.63198407  1.0
  H  H44  1  0.46212682  0.79643680  0.63198415  1.0
  H  H45  1  0.74143606  0.46212693  0.63198444  1.0
  H  H46  1  0.30506915  0.83183887  0.02596754  1.0
  H  H47  1  0.83183974  0.86309104  0.02596726  1.0
  H  H48  1  0.86309075  0.30506937  0.02596725  1.0
  H  H49  1  0.13690716  0.16816087  0.47403020  1.0
  H  H50  1  0.69493184  0.13690786  0.47403136  1.0
  H  H51  1  0.16816064  0.69493211  0.47403022  1.0
  H  H52  1  0.69493069  0.16816096  0.97403255  1.0
  H  H53  1  0.16816010  0.13690879  0.97403284  1.0
  H  H54  1  0.13690909  0.69493046  0.97403285  1.0
  H  H55  1  0.86309343  0.83183896  0.52596990  1.0
  H  H56  1  0.30506832  0.86309284  0.52596873  1.0
  H  H57  1  0.83183994  0.30506773  0.52596988  1.0
  H  H58  1  0.28694812  0.74069055  0.94584362  1.0
  H  H59  1  0.74069084  0.97236047  0.94584311  1.0
  H  H60  1  0.97236099  0.28694912  0.94584386  1.0
  H  H61  1  0.02763776  0.25931022  0.55415525  1.0
  H  H62  1  0.71305082  0.02763944  0.55415453  1.0
  H  H63  1  0.25930995  0.71305166  0.55415527  1.0
  H  H64  1  0.71305203  0.25931015  0.05415648  1.0
  H  H65  1  0.25930900  0.02763936  0.05415698  1.0
  H  H66  1  0.02763959  0.71305072  0.05415624  1.0
  H  H67  1  0.97236165  0.74069048  0.44584485  1.0
  H  H68  1  0.28694902  0.97236039  0.44584488  1.0
  H  H69  1  0.74069021  0.28694904  0.44584483  1.0
  C  C70  1  0.56559619  0.56223392  0.16074160  1.0
  C  C71  1  0.56223348  0.87217008  0.16074191  1.0
  C  C72  1  0.87217037  0.56559553  0.16074214  1.0
  C  C73  1  0.12782811  0.43776841  0.33925950  1.0
  C  C74  1  0.43440402  0.12782882  0.33925974  1.0
  C  C75  1  0.43776817  0.43440424  0.33925866  1.0
  C  C76  1  0.43440365  0.43776591  0.83925850  1.0
  C  C77  1  0.43776636  0.12782976  0.83925819  1.0
  C  C78  1  0.12782947  0.43440430  0.83925795  1.0
  C  C79  1  0.87217130  0.56223229  0.66074060  1.0
  C  C80  1  0.56559614  0.87217188  0.66074035  1.0
  C  C81  1  0.56223167  0.56559560  0.66074074  1.0
  C  C82  1  0.44835607  0.66781466  0.14212643  1.0
  C  C83  1  0.66781416  0.88382962  0.14212675  1.0
  C  C84  1  0.88383012  0.44835619  0.14212719  1.0
  C  C85  1  0.11617075  0.33218509  0.35787265  1.0
  C  C86  1  0.55164378  0.11617014  0.35787271  1.0
  C  C87  1  0.33218514  0.55164443  0.35787227  1.0
  C  C88  1  0.55164334  0.33218603  0.85787367  1.0
  C  C89  1  0.33218568  0.11617022  0.85787335  1.0
  C  C90  1  0.11617047  0.55164364  0.85787291  1.0
  C  C91  1  0.88382952  0.66781389  0.64212676  1.0
  C  C92  1  0.44835531  0.88382969  0.64212738  1.0
  C  C93  1  0.66781470  0.44835540  0.64212713  1.0
  C  C94  1  0.44607180  0.73791281  0.93115078  1.0
  C  C95  1  0.73791305  0.81601605  0.93115124  1.0
  C  C96  1  0.81601541  0.44607220  0.93115167  1.0
  C  C97  1  0.18398262  0.26208709  0.56884447  1.0
  C  C98  1  0.55392852  0.18397955  0.56884231  1.0
  C  C99  1  0.26208657  0.55393029  0.56884476  1.0
  C  C100  1  0.55392879  0.26208702  0.06884932  1.0
  C  C101  1  0.26208785  0.18398465  0.06884886  1.0
  C  C102  1  0.18398475  0.55392849  0.06884843  1.0
  C  C103  1  0.81601754  0.73791360  0.43115494  1.0
  C  C104  1  0.44607133  0.81602028  0.43115779  1.0
  C  C105  1  0.73791327  0.44606954  0.43115673  1.0
  C  C106  1  0.34892134  0.74626496  0.99254000  1.0
  C  C107  1  0.74626567  0.90481283  0.99254031  1.0
  C  C108  1  0.90481298  0.34892212  0.99254093  1.0
  C  C109  1  0.09518662  0.25373494  0.50745881  1.0
  C  C110  1  0.65107849  0.09518623  0.50745874  1.0
  C  C111  1  0.25373424  0.65107865  0.50745824  1.0
  C  C112  1  0.65107807  0.25373573  0.00745940  1.0
  C  C113  1  0.25373492  0.09518700  0.00745979  1.0
  C  C114  1  0.09518643  0.65107857  0.00745917  1.0
  C  C115  1  0.90481279  0.74626576  0.49254129  1.0
  C  C116  1  0.34892210  0.90481360  0.49254135  1.0
  C  C117  1  0.74626528  0.34892032  0.49254256  1.0
  N  N118  1  0.38973554  0.65271778  0.06100758  1.0
  N  N119  1  0.65271816  0.95754686  0.06100777  1.0
  N  N120  1  0.95754628  0.38973534  0.06100764  1.0
  N  N121  1  0.04245293  0.34728111  0.43899086  1.0
  N  N122  1  0.61026611  0.04245204  0.43899028  1.0
  N  N123  1  0.34728143  0.61026614  0.43899039  1.0
  N  N124  1  0.61026430  0.34728205  0.93899252  1.0
  N  N125  1  0.34728125  0.04245384  0.93899233  1.0
  N  N126  1  0.04245356  0.61026449  0.93899176  1.0
  N  N127  1  0.95754691  0.65271873  0.56100924  1.0
  N  N128  1  0.38973373  0.95754780  0.56100981  1.0
  N  N129  1  0.65271916  0.38973369  0.56100971  1.0
  O  O130  1  0.54485258  0.64629246  0.93797881  1.0
  O  O131  1  0.64629223  0.80885475  0.93797926  1.0
  O  O132  1  0.80885439  0.54485296  0.93797951  1.0
  O  O133  1  0.19114519  0.35370916  0.56201916  1.0
  O  O134  1  0.45514405  0.19114257  0.56201924  1.0
  O  O135  1  0.35370921  0.45514523  0.56201896  1.0
  O  O136  1  0.45514726  0.35370737  0.06202128  1.0
  O  O137  1  0.35370835  0.19114509  0.06202084  1.0
  O  O138  1  0.19114545  0.45514688  0.06202059  1.0
  O  O139  1  0.80885466  0.64629066  0.43798094  1.0
  O  O140  1  0.54485579  0.80885726  0.43798086  1.0
  O  O141  1  0.64629106  0.54485374  0.43798183  1.0
  O  O142  1  0.60307434  0.47627354  0.10548531  1.0
  O  O143  1  0.47627242  0.92065374  0.10548620  1.0
  O  O144  1  0.92065356  0.60307337  0.10548709  1.0
  O  O145  1  0.07934208  0.52372880  0.39451440  1.0
  O  O146  1  0.39692785  0.07934257  0.39451620  1.0
  O  O147  1  0.52372816  0.39692985  0.39451366  1.0
  O  O148  1  0.39692582  0.52372716  0.89451479  1.0
  O  O149  1  0.52372742  0.07934610  0.89451320  1.0
  O  O150  1  0.07934628  0.39692646  0.89451301  1.0
  O  O151  1  0.92065627  0.47627104  0.60548361  1.0
  O  O152  1  0.60307081  0.92065813  0.60548529  1.0
  O  O153  1  0.47627125  0.60307085  0.60548644  1.0
  O  O154  1  0.42545577  0.81896120  0.87570958  1.0
  O  O155  1  0.81896035  0.75558328  0.87571017  1.0
  O  O156  1  0.75558261  0.42545685  0.87570923  1.0
  O  O157  1  0.24441845  0.18103612  0.62428912  1.0
  O  O158  1  0.57454637  0.24441749  0.62428819  1.0
  O  O159  1  0.18103655  0.57454478  0.62428935  1.0
  O  O160  1  0.57454438  0.18103950  0.12429051  1.0
  O  O161  1  0.18104024  0.24441656  0.12429062  1.0
  O  O162  1  0.24441724  0.57454298  0.12429018  1.0
  O  O163  1  0.75558139  0.81896371  0.37571098  1.0
  O  O164  1  0.42545304  0.75558320  0.37571191  1.0
  O  O165  1  0.81896168  0.42545678  0.37571283  1.0
  O  O166  1  0.62294664  0.56353430  0.22982055  1.0
  O  O167  1  0.56353488  0.81351881  0.22982096  1.0
  O  O168  1  0.81351890  0.62294695  0.22982108  1.0
  O  O169  1  0.18648168  0.43646717  0.27018188  1.0
  O  O170  1  0.37705186  0.18648182  0.27018280  1.0
  O  O171  1  0.43646595  0.37705281  0.27018114  1.0
  O  O172  1  0.37705321  0.43646553  0.77017885  1.0
  O  O173  1  0.43646528  0.18648189  0.77017914  1.0
  O  O174  1  0.18648126  0.37705374  0.77017902  1.0
  O  O175  1  0.81351891  0.56353266  0.72981683  1.0
  O  O176  1  0.62294841  0.81351716  0.72981799  1.0
  O  O177  1  0.56353346  0.62294789  0.72981826  1.0
