# generated using pymatgen
data_Zn2H25C37N8
_symmetry_space_group_name_H-M   'P 1'
_cell_length_a   19.78636705
_cell_length_b   19.83683517
_cell_length_c   19.87069295
_cell_angle_alpha   74.96023692
_cell_angle_beta   69.76555681
_cell_angle_gamma   112.84046840
_symmetry_Int_Tables_number   1
_chemical_formula_structural   Zn2H25C37N8
_chemical_formula_sum   'Zn4 H50 C74 N16'
_cell_volume   6004.37625477
_cell_formula_units_Z   2
loop_
 _symmetry_equiv_pos_site_id
 _symmetry_equiv_pos_as_xyz
  1  'x, y, z'
loop_
 _atom_site_type_symbol
 _atom_site_label
 _atom_site_symmetry_multiplicity
 _atom_site_fract_x
 _atom_site_fract_y
 _atom_site_fract_z
 _atom_site_occupancy
  Zn  Zn0  1  0.89452324  0.39267226  0.99734677  1.0
  Zn  Zn1  1  0.12208181  0.62087927  0.99552657  1.0
  Zn  Zn2  1  0.10293275  0.50043511  0.90739120  1.0
  Zn  Zn3  1  0.91429215  0.51295184  0.08455163  1.0
  H  H4  1  0.13859211  0.68850063  0.49217074  1.0
  H  H5  1  0.72463093  0.48785045  0.15139999  1.0
  H  H6  1  0.86451405  0.23596819  0.13074753  1.0
  H  H7  1  0.31088245  0.78985026  0.83773633  1.0
  H  H8  1  0.86296344  0.52975328  0.25616686  1.0
  H  H9  1  0.14235867  0.64160431  0.75000567  1.0
  H  H10  1  0.14325303  0.37753830  0.83927180  1.0
  H  H11  1  0.88237408  0.63119114  0.96864245  1.0
  H  H12  1  0.72703940  0.97700354  0.43276966  1.0
  H  H13  1  0.50289467  0.03159219  0.54793368  1.0
  H  H14  1  0.83861664  0.23767784  0.88802913  1.0
  H  H15  1  0.85874150  0.55154277  0.51071270  1.0
  H  H16  1  0.83115121  0.16367705  0.96741896  1.0
  H  H17  1  0.80245562  0.23490835  0.98470933  1.0
  H  H18  1  0.20923805  0.84325364  0.81835718  1.0
  H  H19  1  0.15966755  0.86750536  0.89346851  1.0
  H  H20  1  0.20039121  0.80392813  0.91444315  1.0
  H  H21  1  0.64710532  0.95200561  0.59381771  1.0
  H  H22  1  0.58303913  0.05690829  0.38684329  1.0
  H  H23  1  0.56555069  0.90054617  0.44501155  1.0
  H  H24  1  0.66441740  0.10822453  0.53573402  1.0
  H  H25  1  0.15953615  0.73425478  0.30009715  1.0
  H  H26  1  0.88347428  0.02940942  0.87042992  1.0
  H  H27  1  0.21062376  0.71738924  0.35550621  1.0
  H  H28  1  0.15359373  0.63958733  0.33360466  1.0
  H  H29  1  0.84008417  0.59675704  0.67086221  1.0
  H  H30  1  0.78647223  0.51753801  0.64869016  1.0
  H  H31  1  0.84024922  0.50516775  0.70248500  1.0
  H  H32  1  0.42368092  0.21065504  0.14609936  1.0
  H  H33  1  0.38264933  0.22102558  0.07950695  1.0
  H  H34  1  0.48897526  0.29407390  0.04852630  1.0
  H  H35  1  0.24299083  0.41619559  0.26638659  1.0
  H  H36  1  0.34586708  0.47878138  0.25076009  1.0
  H  H37  1  0.14891139  0.02617249  0.79805306  1.0
  H  H38  1  0.32096932  0.50442345  0.17344050  1.0
  H  H39  1  0.29543284  0.27779847  0.10087995  1.0
  H  H40  1  0.43989739  0.43163505  0.21879524  1.0
  H  H41  1  0.89222770  0.39534829  0.24585604  1.0
  H  H42  1  0.28843935  0.62140465  0.73377796  1.0
  H  H43  1  0.16220380  0.53196559  0.17659208  1.0
  H  H44  1  0.26212076  0.55558834  0.10481679  1.0
  H  H45  1  0.22155192  0.61815699  0.07981004  1.0
  H  H46  1  0.62799571  0.22834361  0.10989197  1.0
  H  H47  1  0.63309129  0.29820900  0.02915455  1.0
  H  H48  1  0.88149647  0.90154332  0.87889382  1.0
  H  H49  1  0.72089668  0.28552724  0.01308049  1.0
  H  H50  1  0.15076212  0.15392216  0.78995152  1.0
  H  H51  1  0.13550123  0.65993591  0.15153238  1.0
  H  H52  1  0.86791509  0.49724123  0.86698039  1.0
  H  H53  1  0.10680809  0.35520145  0.02416195  1.0
  C  C54  1  0.93620540  0.28588965  0.91700064  1.0
  C  C55  1  0.59620802  0.03248038  0.43360165  1.0
  C  C56  1  0.67667094  0.98855722  0.45885233  1.0
  C  C57  1  0.55355000  0.02041075  0.52169224  1.0
  C  C58  1  0.81140673  0.21401952  0.29640492  1.0
  C  C59  1  0.40578114  0.80001019  0.68137888  1.0
  C  C60  1  0.64187644  0.06147608  0.51616235  1.0
  C  C61  1  0.58823276  0.94734061  0.46450278  1.0
  C  C62  1  0.68674286  0.07577808  0.42617320  1.0
  C  C63  1  0.54337278  0.93310064  0.55448725  1.0
  C  C64  1  0.75766090  0.14987309  0.35819648  1.0
  C  C65  1  0.08347995  0.74527248  0.91495853  1.0
  C  C66  1  0.46934822  0.86071938  0.62156326  1.0
  C  C67  1  0.07738992  0.65917039  0.49533227  1.0
  C  C68  1  0.91997938  0.58199711  0.50726975  1.0
  C  C69  1  0.07061645  0.62741396  0.16418461  1.0
  C  C70  1  0.93412581  0.52610735  0.85087828  1.0
  C  C71  1  0.00327985  0.62530158  0.56926216  1.0
  C  C72  1  0.99399563  0.61468906  0.43380608  1.0
  C  C73  1  0.92270322  0.58626972  0.57510338  1.0
  C  C74  1  0.07463221  0.65441287  0.42767028  1.0
  C  C75  1  0.00840681  0.62459642  0.63865654  1.0
  C  C76  1  0.99550497  0.59699545  0.23572383  1.0
  C  C77  1  0.98910799  0.60724617  0.36660737  1.0
  C  C78  1  0.98952101  0.60189571  0.30658745  1.0
  C  C79  1  0.00982685  0.61425674  0.70144512  1.0
  C  C80  1  0.32739636  0.31093350  0.12721048  1.0
  C  C81  1  0.40727875  0.39773867  0.19332323  1.0
  C  C82  1  0.30116400  0.36066248  0.15357865  1.0
  C  C83  1  0.43716975  0.35252983  0.16192539  1.0
  C  C84  1  0.34010059  0.40263829  0.19023405  1.0
  C  C85  1  0.39423636  0.30565061  0.13077201  1.0
  C  C86  1  0.24187692  0.37402020  0.13765701  1.0
  C  C87  1  0.00709258  0.58695300  0.77565727  1.0
  C  C88  1  0.51283340  0.35872354  0.15585941  1.0
  C  C89  1  0.58300284  0.37083414  0.14125765  1.0
  C  C90  1  0.19960002  0.39422126  0.11466341  1.0
  C  C91  1  0.94045930  0.95709705  0.85894334  1.0
  C  C92  1  0.09205327  0.09860484  0.80894964  1.0
  C  C93  1  0.12146534  0.40685502  0.03791205  1.0
  C  C94  1  0.72880468  0.44729205  0.12466415  1.0
  C  C95  1  0.01451954  0.95407506  0.84135660  1.0
  C  C96  1  0.01669230  0.09994713  0.83200855  1.0
  C  C97  1  0.09097931  0.02728517  0.81346259  1.0
  C  C98  1  0.16110810  0.42851978  0.08219224  1.0
  C  C99  1  0.94157153  0.02851434  0.85430597  1.0
  C  C100  1  0.01185336  0.87908640  0.85748768  1.0
  C  C101  1  0.01551661  0.16870047  0.83875408  1.0
  C  C102  1  0.01423840  0.22474081  0.85289997  1.0
  C  C103  1  0.00920429  0.81414918  0.88055115  1.0
  C  C104  1  0.89197110  0.36792901  0.20516250  1.0
  C  C105  1  0.28118696  0.65160711  0.77188298  1.0
  C  C106  1  0.16405932  0.50195110  0.07927800  1.0
  C  C107  1  0.70703810  0.35500795  0.07764482  1.0
  C  C108  1  0.87789962  0.28658836  0.14606247  1.0
  C  C109  1  0.66584992  0.38870603  0.11823606  1.0
  C  C110  1  0.29214666  0.73735246  0.82544479  1.0
  C  C111  1  0.93117956  0.56086003  0.21810852  1.0
  C  C112  1  0.07458440  0.60002538  0.79085803  1.0
  C  C113  1  0.07591723  0.35491702  0.86733480  1.0
  C  C114  1  0.94773684  0.66023045  0.95517758  1.0
  C  C115  1  0.01004619  0.28506638  0.87540042  1.0
  C  C116  1  0.01224741  0.74403729  0.91225337  1.0
  C  C117  1  0.84743074  0.22754575  0.94073994  1.0
  C  C118  1  0.16785155  0.81859179  0.88342131  1.0
  C  C119  1  0.15410642  0.68847339  0.35030460  1.0
  C  C120  1  0.86141041  0.28504834  0.22157765  1.0
  C  C121  1  0.84287268  0.54927571  0.65323211  1.0
  C  C122  1  0.42342858  0.25493962  0.09957796  1.0
  C  C123  1  0.31123326  0.45318165  0.22204125  1.0
  C  C124  1  0.20408380  0.55468093  0.11204715  1.0
  C  C125  1  0.67066015  0.28852191  0.05604259  1.0
  C  C126  1  0.33229503  0.73416481  0.75332471  1.0
  C  C127  1  0.63376626  0.97621876  0.54713992  1.0
  N  N128  1  0.95786812  0.35104658  0.93226855  1.0
  N  N129  1  0.78791919  0.39188592  0.06141617  1.0
  N  N130  1  0.91311936  0.36366810  0.09056598  1.0
  N  N131  1  0.22338399  0.66341025  0.88161724  1.0
  N  N132  1  0.96568322  0.56955643  0.14266018  1.0
  N  N133  1  0.04340805  0.54914003  0.86816457  1.0
  N  N134  1  0.04440427  0.39399126  0.90130317  1.0
  N  N135  1  0.97808285  0.61554293  0.98151989  1.0
  N  N136  1  0.06124059  0.66760464  0.95604200  1.0
  N  N137  1  0.05239915  0.61074502  0.10927010  1.0
  N  N138  1  0.95732559  0.50396033  0.90474520  1.0
  N  N139  1  0.10301656  0.46304264  0.01059399  1.0
  N  N140  1  0.80132479  0.44881906  0.09075555  1.0
  N  N141  1  0.92181366  0.41377630  0.12661904  1.0
  N  N142  1  0.21657767  0.60989653  0.84845134  1.0
  N  N143  1  0.12837658  0.52059912  0.03658321  1.0
