# generated using pymatgen
data_Hf3H22C22(NO8)2
_symmetry_space_group_name_H-M   'P 1'
_cell_length_a   12.54181420
_cell_length_b   16.62824680
_cell_length_c   16.68352312
_cell_angle_alpha   81.96051809
_cell_angle_beta   68.26750947
_cell_angle_gamma   68.54335268
_symmetry_Int_Tables_number   1
_chemical_formula_structural   Hf3H22C22(NO8)2
_chemical_formula_sum   'Hf6 H44 C44 N4 O32'
_cell_volume   3007.98551719
_cell_formula_units_Z   2
loop_
 _symmetry_equiv_pos_site_id
 _symmetry_equiv_pos_as_xyz
  1  'x, y, z'
loop_
 _atom_site_type_symbol
 _atom_site_label
 _atom_site_symmetry_multiplicity
 _atom_site_fract_x
 _atom_site_fract_y
 _atom_site_fract_z
 _atom_site_occupancy
  Hf  Hf0  1  0.93223054  0.11188616  0.03333634  1.0
  Hf  Hf1  1  0.09172751  0.95958239  0.86721272  1.0
  Hf  Hf2  1  0.87335019  0.94527890  0.17921367  1.0
  Hf  Hf3  1  0.02936033  0.79339619  0.00990313  1.0
  Hf  Hf4  1  0.78847701  0.98389259  0.99440595  1.0
  Hf  Hf5  1  0.17466677  0.92229600  0.05196937  1.0
  H  H6  1  0.38709904  0.44399744  0.00340035  1.0
  H  H7  1  0.15986848  0.52962033  0.00328732  1.0
  H  H8  1  0.58178743  0.46005516  0.01353212  1.0
  H  H9  1  0.81303554  0.37153680  0.00761101  1.0
  H  H10  1  0.84541319  0.00834763  0.52822567  1.0
  H  H11  1  0.71622019  0.98551351  0.44034984  1.0
  H  H12  1  0.11315401  0.90772905  0.51838145  1.0
  H  H13  1  0.24835900  0.92471285  0.60456434  1.0
  H  H14  1  0.16639199  0.07619515  0.92557671  1.0
  H  H15  1  0.95526793  0.85851168  0.86532940  1.0
  H  H16  1  0.07930191  0.78915140  0.15706707  1.0
  H  H17  1  0.70763187  0.09277867  0.14791303  1.0
  H  H18  1  0.13303144  0.86582973  0.73597161  1.0
  H  H19  1  0.16540915  0.77824711  0.83153132  1.0
  H  H20  1  0.93565277  0.68548527  0.11658081  1.0
  H  H21  1  0.86217269  0.84532314  0.32351811  1.0
  H  H22  1  0.79635233  0.05237753  0.30488242  1.0
  H  H23  1  0.76919621  0.25492456  0.12539334  1.0
  H  H24  1  0.92939062  0.23841670  0.92183306  1.0
  H  H25  1  0.21366978  0.05234561  0.73522188  1.0
  H  H26  1  0.75940671  0.84611059  0.28922535  1.0
  H  H27  1  0.88945809  0.22403084  0.14970444  1.0
  H  H28  1  0.07939206  0.06953452  0.73601361  1.0
  H  H29  1  0.21891357  0.69530856  0.88582953  1.0
  H  H30  1  0.29541798  0.91496595  0.26560254  1.0
  H  H31  1  0.04078571  0.92746134  0.39596283  1.0
  H  H32  1  0.54642611  0.93104201  0.33432875  1.0
  H  H33  1  0.40831707  0.98141963  0.20626714  1.0
  H  H34  1  0.55733607  0.91835814  0.84036395  1.0
  H  H35  1  0.42857269  0.95728172  0.70779203  1.0
  H  H36  1  0.67433873  0.98315288  0.78039399  1.0
  H  H37  1  0.90982564  0.00598717  0.64848289  1.0
  H  H38  1  0.45289048  0.90363564  0.60817109  1.0
  H  H39  1  0.52078640  0.99475001  0.43311789  1.0
  H  H40  1  0.50736427  0.70850735  0.04935485  1.0
  H  H41  1  0.42236629  0.58847004  0.98170162  1.0
  H  H42  1  0.62397247  0.77039255  0.97945035  1.0
  H  H43  1  0.85376392  0.64348433  0.01151036  1.0
  H  H44  1  0.33018980  0.13792735  0.07466843  1.0
  H  H45  1  0.10910978  0.25768676  0.02671880  1.0
  H  H46  1  0.45741270  0.19118492  0.99560790  1.0
  H  H47  1  0.55386136  0.32565218  0.02650651  1.0
  H  H48  1  0.01587702  0.35410452  0.99034875  1.0
  H  H49  1  0.95713674  0.54304278  0.03024131  1.0
  C  C50  1  0.34149367  0.32615177  0.01174840  1.0
  C  C51  1  0.32007173  0.41525043  0.00795393  1.0
  C  C52  1  0.20224802  0.45988754  0.00629842  1.0
  C  C53  1  0.14854010  0.39873858  0.00820204  1.0
  C  C54  1  0.62626716  0.57590397  0.01617563  1.0
  C  C55  1  0.64897996  0.48739976  0.01192699  1.0
  C  C56  1  0.76850729  0.44134230  0.01014719  1.0
  C  C57  1  0.82179696  0.50098380  0.01362640  1.0
  C  C58  1  0.70704658  0.97820778  0.64381741  1.0
  C  C59  1  0.76360098  0.99093454  0.55550781  1.0
  C  C60  1  0.69606729  0.97989522  0.50981008  1.0
  C  C61  1  0.59655372  0.95947624  0.56959246  1.0
  C  C62  1  0.25803066  0.92868359  0.40169326  1.0
  C  C63  1  0.19870120  0.92028990  0.49033817  1.0
  C  C64  1  0.26959410  0.92811565  0.53510178  1.0
  C  C65  1  0.37356695  0.94224814  0.47442444  1.0
  C  C66  1  0.66303445  0.18947672  0.00724579  1.0
  C  C67  1  0.36746886  0.92993755  0.86201379  1.0
  C  C68  1  0.86759643  0.00460101  0.78749034  1.0
  C  C69  1  0.16984116  0.10923340  0.07758174  1.0
  C  C70  1  0.08966885  0.91553506  0.25769498  1.0
  C  C71  1  0.78284713  0.79670162  0.98253454  1.0
  C  C72  1  0.30788420  0.72045032  0.02060307  1.0
  C  C73  1  0.60322506  0.95895542  0.17947187  1.0
  C  C74  1  0.22658260  0.92095312  0.32995067  1.0
  C  C75  1  0.11658682  0.92029218  0.33491415  1.0
  C  C76  1  0.46402276  0.94476956  0.31950969  1.0
  C  C77  1  0.47837106  0.96182803  0.23559501  1.0
  C  C78  1  0.49157976  0.93147929  0.80810480  1.0
  C  C79  1  0.50836858  0.94905060  0.72392542  1.0
  C  C80  1  0.73738057  0.98754117  0.71548504  1.0
  C  C81  1  0.83993057  0.00170883  0.71014663  1.0
  C  C82  1  0.50197049  0.93930807  0.55725354  1.0
  C  C83  1  0.47096110  0.96021042  0.48506375  1.0
  C  C84  1  0.51664095  0.64781549  0.02507566  1.0
  C  C85  1  0.42030772  0.64579695  0.00774962  1.0
  C  C86  1  0.71125263  0.74073904  0.98905269  1.0
  C  C87  1  0.76481318  0.65701878  0.00659294  1.0
  C  C88  1  0.24310065  0.16559068  0.06448078  1.0
  C  C89  1  0.19604057  0.24543140  0.03458079  1.0
  C  C90  1  0.45128663  0.25597404  0.00717881  1.0
  C  C91  1  0.55202350  0.26370754  0.01385753  1.0
  C  C92  1  0.03164067  0.41003458  0.00475610  1.0
  C  C93  1  0.93956548  0.48789491  0.01628186  1.0
  N  N94  1  0.23394812  0.31644857  0.01351306  1.0
  N  N95  1  0.73354441  0.58396623  0.01626038  1.0
  N  N96  1  0.60374677  0.95850492  0.65187091  1.0
  N  N97  1  0.36598770  0.94197991  0.39263818  1.0
  O  O98  1  0.75035211  0.20371325  0.01937891  1.0
  O  O99  1  0.66655249  0.11521635  0.99125655  1.0
  O  O100  1  0.29002910  0.94442572  0.82391272  1.0
  O  O101  1  0.34635580  0.91536600  0.94239578  1.0
  O  O102  1  0.97622128  0.00342875  0.77510754  1.0
  O  O103  1  0.78673437  0.00371948  0.86146102  1.0
  O  O104  1  0.05618058  0.14519192  0.08818123  1.0
  O  O105  1  0.22692765  0.02763462  0.07357796  1.0
  O  O106  1  0.97694301  0.21123682  0.95902690  1.0
  O  O107  1  0.82259220  0.20702849  0.14905685  1.0
  O  O108  1  0.12745229  0.07057278  0.77082969  1.0
  O  O109  1  0.17854110  0.86159754  0.77345143  1.0
  O  O110  1  0.92380098  0.03901212  0.94819190  1.0
  O  O111  1  0.11935265  0.03849069  0.95345702  1.0
  O  O112  1  0.97884599  0.92333212  0.27038905  1.0
  O  O113  1  0.17494226  0.90587630  0.18401325  1.0
  O  O114  1  0.89033558  0.75905425  0.98551753  1.0
  O  O115  1  0.73315319  0.87826190  0.97450258  1.0
  O  O116  1  0.22541115  0.70999276  0.99981338  1.0
  O  O117  1  0.29859235  0.79051821  0.05117735  1.0
  O  O118  1  0.68747079  0.92984746  0.21246806  1.0
  O  O119  1  0.61739895  0.98816355  0.10268970  1.0
  O  O120  1  0.84780520  0.83027143  0.27476057  1.0
  O  O121  1  0.75680644  0.02875547  0.27868037  1.0
  O  O122  1  0.01465377  0.69289736  0.09151131  1.0
  O  O123  1  0.14342424  0.73183189  0.87603436  1.0
  O  O124  1  0.05168604  0.83783978  0.12135397  1.0
  O  O125  1  0.87610332  0.89628473  0.06864431  1.0
  O  O126  1  0.99775100  0.00219972  0.10637888  1.0
  O  O127  1  0.96486578  0.88658971  0.90806882  1.0
  O  O128  1  0.78362052  0.05578832  0.10810369  1.0
  O  O129  1  0.12996734  0.88036150  0.96288574  1.0
