# generated using pymatgen
data_Zn4H6C24Br6O13
_symmetry_space_group_name_H-M   'P 1'
_cell_length_a   18.11875876
_cell_length_b   18.20044897
_cell_length_c   18.23255685
_cell_angle_alpha   61.70084826
_cell_angle_beta   61.65410618
_cell_angle_gamma   61.53606190
_symmetry_Int_Tables_number   1
_chemical_formula_structural   Zn4H6C24Br6O13
_chemical_formula_sum   'Zn8 H12 C48 Br12 O26'
_cell_volume   4406.94023142
_cell_formula_units_Z   2
loop_
 _symmetry_equiv_pos_site_id
 _symmetry_equiv_pos_as_xyz
  1  'x, y, z'
loop_
 _atom_site_type_symbol
 _atom_site_label
 _atom_site_symmetry_multiplicity
 _atom_site_fract_x
 _atom_site_fract_y
 _atom_site_fract_z
 _atom_site_occupancy
  Zn  Zn0  1  0.85884224  0.04962771  0.05992611  1.0
  Zn  Zn1  1  0.03506514  0.04798205  0.06675280  1.0
  Zn  Zn2  1  0.03159857  0.05096375  0.88964062  1.0
  Zn  Zn3  1  0.03112840  0.87677111  0.05820092  1.0
  Zn  Zn4  1  0.61960520  0.46476841  0.47491033  1.0
  Zn  Zn5  1  0.44407609  0.45707864  0.47747096  1.0
  Zn  Zn6  1  0.44592467  0.63581779  0.47482842  1.0
  Zn  Zn7  1  0.44679859  0.46801435  0.64765414  1.0
  H  H8  1  0.78926657  0.31872435  0.11002841  1.0
  H  H9  1  0.68795198  0.18435791  0.43564974  1.0
  H  H10  1  0.78625414  0.09728256  0.80932540  1.0
  H  H11  1  0.69391636  0.42390631  0.72453080  1.0
  H  H12  1  0.78726907  0.81484447  0.33012970  1.0
  H  H13  1  0.68825051  0.70093591  0.20411672  1.0
  H  H14  1  0.07139307  0.32489636  0.82413416  1.0
  H  H15  1  0.40024053  0.19446473  0.72603977  1.0
  H  H16  1  0.30906802  0.80249843  0.10570848  1.0
  H  H17  1  0.17135296  0.69409897  0.43049457  1.0
  H  H18  1  0.30311465  0.82510397  0.80669580  1.0
  H  H19  1  0.17702612  0.70046531  0.71906267  1.0
  C  C20  1  0.85390098  0.14116268  0.16031724  1.0
  C  C21  1  0.79532458  0.19755167  0.21938615  1.0
  C  C22  1  0.76769676  0.28928637  0.18132674  1.0
  C  C23  1  0.71236061  0.34262314  0.23476100  1.0
  C  C24  1  0.68323842  0.30570639  0.32636498  1.0
  C  C25  1  0.71029637  0.21393329  0.36438262  1.0
  C  C26  1  0.76615866  0.16055961  0.31093093  1.0
  C  C27  1  0.62503107  0.36286390  0.38472657  1.0
  C  C28  1  0.85063130  0.14597873  0.87950317  1.0
  C  C29  1  0.79331213  0.20600999  0.82139716  1.0
  C  C30  1  0.76602358  0.16873794  0.79084377  1.0
  C  C31  1  0.71302000  0.22331619  0.73693559  1.0
  C  C32  1  0.68678400  0.31510110  0.71266221  1.0
  C  C33  1  0.71417049  0.35241054  0.74306371  1.0
  C  C34  1  0.76711552  0.29781046  0.79713581  1.0
  C  C35  1  0.62892061  0.37414800  0.65509197  1.0
  C  C36  1  0.84946119  0.86915455  0.15278907  1.0
  C  C37  1  0.79135642  0.81180396  0.21124355  1.0
  C  C38  1  0.76560184  0.78995227  0.30247901  1.0
  C  C39  1  0.71244108  0.73625384  0.35766595  1.0
  C  C40  1  0.68420145  0.70395528  0.32295370  1.0
  C  C41  1  0.70985294  0.72589891  0.23174475  1.0
  C  C42  1  0.76306691  0.77950618  0.17658782  1.0
  C  C43  1  0.62682607  0.64585050  0.38096002  1.0
  C  C44  1  0.12577460  0.14668946  0.88857293  1.0
  C  C45  1  0.18327554  0.20476271  0.83159257  1.0
  C  C46  1  0.14341040  0.29629595  0.80332774  1.0
  C  C47  1  0.19599029  0.35055351  0.74786459  1.0
  C  C48  1  0.28844016  0.31465945  0.71951119  1.0
  C  C49  1  0.32827296  0.22312978  0.74773083  1.0
  C  C50  1  0.27573064  0.16893592  0.80342882  1.0
  C  C51  1  0.34684039  0.37166836  0.65971201  1.0
  C  C52  1  0.13008240  0.86608483  0.15517183  1.0
  C  C53  1  0.18649279  0.80570641  0.21423602  1.0
  C  C54  1  0.27879107  0.77897956  0.17681107  1.0
  C  C55  1  0.33174294  0.72246486  0.23069312  1.0
  C  C56  1  0.29386492  0.69171706  0.32203567  1.0
  C  C57  1  0.20155650  0.71774981  0.35940712  1.0
  C  C58  1  0.14860132  0.77444873  0.30554739  1.0
  C  C59  1  0.35039028  0.63458880  0.38119468  1.0
  C  C60  1  0.12524827  0.87227944  0.87606687  1.0
  C  C61  1  0.18382928  0.81581419  0.81721983  1.0
  C  C62  1  0.27553109  0.79752548  0.78779708  1.0
  C  C63  1  0.33120982  0.74382144  0.73472534  1.0
  C  C64  1  0.29640590  0.70858755  0.70968402  1.0
  C  C65  1  0.20465117  0.72757452  0.73842390  1.0
  C  C66  1  0.14899787  0.78070713  0.79205000  1.0
  C  C67  1  0.35474182  0.64979472  0.65313105  1.0
  Br  Br68  1  0.67556323  0.46724740  0.18137430  1.0
  Br  Br69  1  0.80227218  0.03587552  0.36387328  1.0
  Br  Br70  1  0.67580168  0.17148291  0.69658244  1.0
  Br  Br71  1  0.80373145  0.34972869  0.83792269  1.0
  Br  Br72  1  0.67889177  0.70662576  0.48152627  1.0
  Br  Br73  1  0.79705987  0.80857784  0.05272517  1.0
  Br  Br74  1  0.14019323  0.47486744  0.70992943  1.0
  Br  Br75  1  0.33151934  0.04452772  0.83988204  1.0
  Br  Br76  1  0.45719247  0.68718430  0.17854903  1.0
  Br  Br77  1  0.02316240  0.80979007  0.35783669  1.0
  Br  Br78  1  0.45581003  0.71867620  0.69635105  1.0
  Br  Br79  1  0.02442684  0.80582567  0.83025038  1.0
  O  O80  1  0.98945163  0.00666334  0.01907156  1.0
  O  O81  1  0.93702121  0.11863873  0.14243344  1.0
  O  O82  1  0.81348390  0.12345989  0.13294126  1.0
  O  O83  1  0.54199376  0.37866450  0.40959233  1.0
  O  O84  1  0.66557027  0.38853331  0.40412694  1.0
  O  O85  1  0.93368349  0.12295374  0.84016604  1.0
  O  O86  1  0.81025924  0.12311191  0.96175359  1.0
  O  O87  1  0.54597185  0.39604728  0.69514577  1.0
  O  O88  1  0.66869807  0.39660815  0.57274563  1.0
  O  O89  1  0.93247875  0.82891336  0.13197481  1.0
  O  O90  1  0.80973578  0.95188386  0.13151945  1.0
  O  O91  1  0.54365227  0.68516460  0.40228518  1.0
  O  O92  1  0.66743123  0.56326763  0.40106473  1.0
  O  O93  1  0.10223904  0.12651064  0.84696141  1.0
  O  O94  1  0.10570854  0.12480732  0.97131250  1.0
  O  O95  1  0.36772487  0.39877107  0.69760751  1.0
  O  O96  1  0.37090860  0.38522309  0.57783474  1.0
  O  O97  1  0.10928596  0.82794409  0.12824789  1.0
  O  O98  1  0.11023941  0.94845108  0.13707692  1.0
  O  O99  1  0.37118722  0.67648554  0.40383928  1.0
  O  O100  1  0.37025216  0.55160700  0.40352005  1.0
  O  O101  1  0.10620855  0.95514140  0.83796468  1.0
  O  O102  1  0.10227188  0.83123203  0.95808286  1.0
  O  O103  1  0.37980648  0.56769021  0.69400007  1.0
  O  O104  1  0.37123235  0.68767138  0.57062496  1.0
  O  O105  1  0.48900240  0.50585492  0.51822927  1.0
