# generated using pymatgen
data_AlH10(C3O)5
_symmetry_space_group_name_H-M   'P 1'
_cell_length_a   6.61224085
_cell_length_b   11.00803979
_cell_length_c   17.69821382
_cell_angle_alpha   91.58586025
_cell_angle_beta   99.10931433
_cell_angle_gamma   106.01005208
_symmetry_Int_Tables_number   1
_chemical_formula_structural   AlH10(C3O)5
_chemical_formula_sum   'Al2 H20 C30 O10'
_cell_volume   1219.17312835
_cell_formula_units_Z   2
loop_
 _symmetry_equiv_pos_site_id
 _symmetry_equiv_pos_as_xyz
  1  'x, y, z'
loop_
 _atom_site_type_symbol
 _atom_site_label
 _atom_site_symmetry_multiplicity
 _atom_site_fract_x
 _atom_site_fract_y
 _atom_site_fract_z
 _atom_site_occupancy
  Al  Al0  1  0.01700032  0.50106257  0.49987937  1.0
  Al  Al1  1  0.51656534  0.50019554  0.49889739  1.0
  H  H2  1  0.36100489  0.65385402  0.54389738  1.0
  H  H3  1  0.67680425  0.34509189  0.46268784  1.0
  H  H4  1  0.82461075  0.43902059  0.27191018  1.0
  H  H5  1  0.73778229  0.43486933  0.12875237  1.0
  H  H6  1  0.41187970  0.54680638  0.11899831  1.0
  H  H7  1  0.49468513  0.54672029  0.26198058  1.0
  H  H8  1  0.59890270  0.43960415  0.87510544  1.0
  H  H9  1  0.52817514  0.44807536  0.73232498  1.0
  H  H10  1  0.20200656  0.54954671  0.72922561  1.0
  H  H11  1  0.27643874  0.54522618  0.87216273  1.0
  H  H12  1  0.52486355  0.76800605  0.40166232  1.0
  H  H13  1  0.79586405  0.23467821  0.39895031  1.0
  H  H14  1  0.37513636  0.11470905  0.54448783  1.0
  H  H15  1  0.25056991  0.87835880  0.53766348  1.0
  H  H16  1  0.11099254  0.90031920  0.34285824  1.0
  H  H17  1  0.19927791  0.76486500  0.32698027  1.0
  H  H18  1  0.22054582  0.88337414  0.25977046  1.0
  H  H19  1  0.35716048  0.11454943  0.25836303  1.0
  H  H20  1  0.47931513  0.24716568  0.32638046  1.0
  H  H21  1  0.24452411  0.13126715  0.34072761  1.0
  C  C22  1  0.87122090  0.72642805  0.48651374  1.0
  C  C23  1  0.81956628  0.50473956  0.63778357  1.0
  C  C24  1  0.15244073  0.27302563  0.49839401  1.0
  C  C25  1  0.21110802  0.49288976  0.36008768  1.0
  C  C26  1  0.16399528  0.49264117  0.27497042  1.0
  C  C27  1  0.95083917  0.46177513  0.23737387  1.0
  C  C28  1  0.90327003  0.45998035  0.15807325  1.0
  C  C29  1  0.06946635  0.49058251  0.11436662  1.0
  C  C30  1  0.28383398  0.52239311  0.15270085  1.0
  C  C31  1  0.32998282  0.52269955  0.23201175  1.0
  C  C32  1  0.02299387  0.48980790  0.03355119  1.0
  C  C33  1  0.98452757  0.49009989  0.96375367  1.0
  C  C34  1  0.94248939  0.49222537  0.88301496  1.0
  C  C35  1  0.73046156  0.46438077  0.84295327  1.0
  C  C36  1  0.69094941  0.46875102  0.76378840  1.0
  C  C37  1  0.86110225  0.49963459  0.72274723  1.0
  C  C38  1  0.07198528  0.52606131  0.76205737  1.0
  C  C39  1  0.11291284  0.52315047  0.84123945  1.0
  C  C40  1  0.93436873  0.86621750  0.48058999  1.0
  C  C41  1  0.79151848  0.93249914  0.44412818  1.0
  C  C42  1  0.14276901  0.93151471  0.51310918  1.0
  C  C43  1  0.58354131  0.87085828  0.40305855  1.0
  C  C44  1  0.45381285  0.93651161  0.36407029  1.0
  C  C45  1  0.07651532  0.13223454  0.48574551  1.0
  C  C46  1  0.21357760  0.06413126  0.51640098  1.0
  C  C47  1  0.86682872  0.06831323  0.44535757  1.0
  C  C48  1  0.73356183  0.13299258  0.40288405  1.0
  C  C49  1  0.53164505  0.07133382  0.36341707  1.0
  C  C50  1  0.23530667  0.86719057  0.32126655  1.0
  C  C51  1  0.39716284  0.14520902  0.31997634  1.0
  O  O52  1  0.01233338  0.66985419  0.47966063  1.0
  O  O53  1  0.62660401  0.48788298  0.60518455  1.0
  O  O54  1  0.34538403  0.32695662  0.49196237  1.0
  O  O55  1  0.05143989  0.47183494  0.39492726  1.0
  O  O56  1  0.02119399  0.33026397  0.51578783  1.0
  O  O57  1  0.40553002  0.51282025  0.39186186  1.0
  O  O58  1  0.68555255  0.67297594  0.50069933  1.0
  O  O59  1  0.98157780  0.52682616  0.60406277  1.0
  O  O60  1  0.30984297  0.56308922  0.53144450  1.0
  O  O61  1  0.72417222  0.43716356  0.46702186  1.0
