# generated using pymatgen
data_Al2H8C16O15F4
_symmetry_space_group_name_H-M   'P 1'
_cell_length_a   6.69808883
_cell_length_b   13.09057829
_cell_length_c   17.24097723
_cell_angle_alpha   90.18254117
_cell_angle_beta   90.57801602
_cell_angle_gamma   98.74272917
_symmetry_Int_Tables_number   1
_chemical_formula_structural   Al2H8C16O15F4
_chemical_formula_sum   'Al4 H16 C32 O30 F8'
_cell_volume   1494.06284444
_cell_formula_units_Z   2
loop_
 _symmetry_equiv_pos_site_id
 _symmetry_equiv_pos_as_xyz
  1  'x, y, z'
loop_
 _atom_site_type_symbol
 _atom_site_label
 _atom_site_symmetry_multiplicity
 _atom_site_fract_x
 _atom_site_fract_y
 _atom_site_fract_z
 _atom_site_occupancy
  Al  Al0  1  0.88034339  0.49400741  0.49863177  1.0
  Al  Al1  1  0.37912321  0.49164357  0.49903664  1.0
  Al  Al2  1  0.22158545  0.00497963  0.99617802  1.0
  Al  Al3  1  0.72159754  0.00547843  0.99712731  1.0
  H  H4  1  0.81979519  0.27333127  0.85279710  1.0
  H  H5  1  0.81419175  0.27676434  0.14475980  1.0
  H  H6  1  0.24350342  0.85735732  0.85451312  1.0
  H  H7  1  0.34428727  0.75294640  0.21278272  1.0
  H  H8  1  0.74818225  0.72305101  0.71687893  1.0
  H  H9  1  0.75028662  0.72495765  0.27404452  1.0
  H  H10  1  0.61908831  0.82782364  0.82325087  1.0
  H  H11  1  0.65169620  0.83984756  0.16086854  1.0
  H  H12  1  0.15670949  0.00554920  0.66201025  1.0
  H  H13  1  0.15742443  0.00941243  0.33302001  1.0
  H  H14  1  0.14536597  0.32459879  0.62772340  1.0
  H  H15  1  0.12439031  0.32012759  0.37701222  1.0
  H  H16  1  0.66529680  0.61422526  0.53713457  1.0
  H  H17  1  0.08182869  0.35276550  0.50953332  1.0
  H  H18  1  0.43006853  0.87686165  0.02605364  1.0
  H  H19  1  0.00916100  0.12249065  0.04053457  1.0
  C  C20  1  0.59891154  0.37217810  0.60696373  1.0
  C  C21  1  0.59663591  0.37929150  0.38784603  1.0
  C  C22  1  0.16272195  0.60955945  0.39209686  1.0
  C  C23  1  0.16661410  0.61108389  0.60652111  1.0
  C  C24  1  0.18774886  0.67891844  0.67479204  1.0
  C  C25  1  0.17931000  0.67132633  0.32112866  1.0
  C  C26  1  0.03358982  0.71690214  0.71271174  1.0
  C  C27  1  0.03017321  0.70984937  0.27969664  1.0
  C  C28  1  0.90529556  0.81924179  0.81914709  1.0
  C  C29  1  0.91775340  0.81169573  0.16934062  1.0
  C  C30  1  0.06418915  0.78332353  0.78213287  1.0
  C  C31  1  0.06783176  0.77013033  0.20763907  1.0
  C  C32  1  0.41214107  0.23969253  0.69445618  1.0
  C  C33  1  0.40720097  0.24456385  0.30035855  1.0
  C  C34  1  0.58196237  0.31269529  0.68068398  1.0
  C  C35  1  0.57554788  0.31911448  0.31426626  1.0
  C  C36  1  0.72315516  0.32328111  0.74204122  1.0
  C  C37  1  0.71630137  0.32897249  0.25387866  1.0
  C  C38  1  0.69942701  0.26333820  0.80925421  1.0
  C  C39  1  0.69478087  0.26631437  0.18764572  1.0
  C  C40  1  0.52630522  0.19047192  0.82077166  1.0
  C  C41  1  0.52487600  0.19092552  0.17625106  1.0
  C  C42  1  0.38105289  0.18083967  0.76136374  1.0
  C  C43  1  0.37897952  0.18277991  0.23426967  1.0
  C  C44  1  0.18124710  0.12109409  0.73177386  1.0
  C  C45  1  0.18021974  0.12269642  0.26239255  1.0
  C  C46  1  0.21403104  0.19395714  0.65699003  1.0
  C  C47  1  0.21065563  0.19721490  0.33701032  1.0
  C  C48  1  0.50611609  0.12353524  0.10603243  1.0
  C  C49  1  0.50603552  0.12536949  0.89173026  1.0
  C  C50  1  0.93195351  0.88715009  0.88630096  1.0
  C  C51  1  0.94234707  0.87765643  0.10031053  1.0
  O  O52  1  0.43177550  0.39557528  0.41872238  1.0
  O  O53  1  0.43092665  0.39275304  0.57949363  1.0
  O  O54  1  0.77151380  0.39467617  0.57708106  1.0
  O  O55  1  0.77270036  0.40631728  0.41489306  1.0
  O  O56  1  0.98945257  0.58298342  0.57916400  1.0
  O  O57  1  0.98932206  0.58934333  0.42247023  1.0
  O  O58  1  0.64657762  0.55396943  0.50322677  1.0
  O  O59  1  0.32565656  0.58155632  0.41739839  1.0
  O  O60  1  0.32903511  0.58495625  0.57948860  1.0
  O  O61  1  0.10929563  0.42567607  0.49685676  1.0
  O  O62  1  0.66813672  0.10160951  0.92045213  1.0
  O  O63  1  0.66880444  0.10087705  0.07783169  1.0
  O  O64  1  0.32767332  0.09469635  0.08010468  1.0
  O  O65  1  0.32877021  0.09861809  0.91757964  1.0
  O  O66  1  0.11384415  0.90136937  0.06951559  1.0
  O  O67  1  0.11276718  0.91530874  0.91301482  1.0
  O  O68  1  0.45311080  0.94045621  0.99641669  1.0
  O  O69  1  0.77227134  0.91358573  0.91508138  1.0
  O  O70  1  0.77512162  0.90658281  0.07698689  1.0
  O  O71  1  0.99031299  0.06724261  0.00216647  1.0
  O  O72  1  0.25478096  0.80954965  0.80940085  1.0
  O  O73  1  0.25685676  0.78571791  0.17762982  1.0
  O  O74  1  0.84407025  0.69211407  0.68397328  1.0
  O  O75  1  0.84120224  0.69101069  0.30741319  1.0
  O  O76  1  0.71001676  0.79130118  0.79313598  1.0
  O  O77  1  0.72183594  0.79634400  0.19582879  1.0
  O  O78  1  0.17484951  0.01683150  0.71792203  1.0
  O  O79  1  0.17331184  0.01877022  0.27699552  1.0
  O  O80  1  0.07310740  0.25639898  0.64211150  1.0
  O  O81  1  0.06382727  0.25545161  0.35124856  1.0
  F  F82  1  0.23582630  0.13199387  0.59011604  1.0
  F  F83  1  0.24112684  0.13635082  0.40387810  1.0
  F  F84  1  0.38120561  0.70345896  0.70096335  1.0
  F  F85  1  0.37574635  0.68976796  0.29350025  1.0
  F  F86  1  0.88874782  0.39649898  0.73843713  1.0
  F  F87  1  0.87964123  0.40364718  0.25746833  1.0
  F  F88  1  0.01440703  0.13564264  0.77579653  1.0
  F  F89  1  0.01358796  0.13599625  0.21601710  1.0
