# generated using pymatgen
data_Zn4H6C22O17
_symmetry_space_group_name_H-M   'P 1'
_cell_length_a   15.99464814
_cell_length_b   15.99540710
_cell_length_c   21.37030167
_cell_angle_alpha   68.07646681
_cell_angle_beta   68.08424906
_cell_angle_gamma   90.04774515
_symmetry_Int_Tables_number   1
_chemical_formula_structural   Zn4H6C22O17
_chemical_formula_sum   'Zn8 H12 C44 O34'
_cell_volume   4642.63025889
_cell_formula_units_Z   2
loop_
 _symmetry_equiv_pos_site_id
 _symmetry_equiv_pos_as_xyz
  1  'x, y, z'
loop_
 _atom_site_type_symbol
 _atom_site_label
 _atom_site_symmetry_multiplicity
 _atom_site_fract_x
 _atom_site_fract_y
 _atom_site_fract_z
 _atom_site_occupancy
  Zn  Zn0  1  0.11823787  0.71827926  0.56372571  1.0
  Zn  Zn1  1  0.71814447  0.31792121  0.56378039  1.0
  Zn  Zn2  1  0.31790860  0.71811231  0.56379758  1.0
  Zn  Zn3  1  0.68209223  0.28188818  0.43620166  1.0
  Zn  Zn4  1  0.28185536  0.68207722  0.43621971  1.0
  Zn  Zn5  1  0.88176229  0.28172122  0.43627279  1.0
  Zn  Zn6  1  0.28169664  0.88175404  0.43626157  1.0
  Zn  Zn7  1  0.71830476  0.11824575  0.56373865  1.0
  H  H8  1  0.90171423  0.59873872  0.04928156  1.0
  H  H9  1  0.89364668  0.31808317  0.01485918  1.0
  H  H10  1  0.31801030  0.89378726  0.01483088  1.0
  H  H11  1  0.68198964  0.10621187  0.98516899  1.0
  H  H12  1  0.10635898  0.68191391  0.98514013  1.0
  H  H13  1  0.19375648  0.49584224  0.01437455  1.0
  H  H14  1  0.80624503  0.50415825  0.98562450  1.0
  H  H15  1  0.50413580  0.80625186  0.98561149  1.0
  H  H16  1  0.09828671  0.40126245  0.95071793  1.0
  H  H17  1  0.49586368  0.19374863  0.01438766  1.0
  H  H18  1  0.40131948  0.09839177  0.95074104  1.0
  H  H19  1  0.59867990  0.90160804  0.04925880  1.0
  C  C20  1  0.35016980  0.84975108  0.29989219  1.0
  C  C21  1  0.96338264  0.46105869  0.07583302  1.0
  C  C22  1  0.46107885  0.96336443  0.07583691  1.0
  C  C23  1  0.53892053  0.03663537  0.92416340  1.0
  C  C24  1  0.03661886  0.53894180  0.92416650  1.0
  C  C25  1  0.07594522  0.57797024  0.84638013  1.0
  C  C26  1  0.92406066  0.42203229  0.15361292  1.0
  C  C27  1  0.42209998  0.92396586  0.15360997  1.0
  C  C28  1  0.64982958  0.15024873  0.70010812  1.0
  C  C29  1  0.57789985  0.07603258  0.84639060  1.0
  C  C30  1  0.47320135  0.97312740  0.50000822  1.0
  C  C31  1  0.52680015  0.02687308  0.49999458  1.0
  C  C32  1  0.02687331  0.52679350  0.49999391  1.0
  C  C33  1  0.97312382  0.47320493  0.50000741  1.0
  C  C34  1  0.15027293  0.64992608  0.70011404  1.0
  C  C35  1  0.47316744  0.52680090  0.50001805  1.0
  C  C36  1  0.52683249  0.47319822  0.49998323  1.0
  C  C37  1  0.09090775  0.59077923  0.50002400  1.0
  C  C38  1  0.90909061  0.40922262  0.49997696  1.0
  C  C39  1  0.40920778  0.90908636  0.49997889  1.0
  C  C40  1  0.84972734  0.35007510  0.29988470  1.0
  C  C41  1  0.59079463  0.09091139  0.50002208  1.0
  C  C42  1  0.40912980  0.59079002  0.50002589  1.0
  C  C43  1  0.59087025  0.40920978  0.49997564  1.0
  C  C44  1  0.09078719  0.90916841  0.49996069  1.0
  C  C45  1  0.90921533  0.09083412  0.50003892  1.0
  C  C46  1  0.02680535  0.97317735  0.49998763  1.0
  C  C47  1  0.97319806  0.02682655  0.50001134  1.0
  C  C48  1  0.94547215  0.55583960  0.02645121  1.0
  C  C49  1  0.05452924  0.44416020  0.97354807  1.0
  C  C50  1  0.44419153  0.05458008  0.97357237  1.0
  C  C51  1  0.55580785  0.94541973  0.02642794  1.0
  C  C52  1  0.05024779  0.58301444  0.97564617  1.0
  C  C53  1  0.94975428  0.41698536  0.02435292  1.0
  C  C54  1  0.41693519  0.94981857  0.02436058  1.0
  C  C55  1  0.58306430  0.05018192  0.97563904  1.0
  C  C56  1  0.11041130  0.61081524  0.77927613  1.0
  C  C57  1  0.88958729  0.38918389  0.22072786  1.0
  C  C58  1  0.38930631  0.88954957  0.22072415  1.0
  C  C59  1  0.61069149  0.11044886  0.77927698  1.0
  C  C60  1  0.93138941  0.51176338  0.97585517  1.0
  C  C61  1  0.06861142  0.48823711  0.02414454  1.0
  C  C62  1  0.48834181  0.06860454  0.02414406  1.0
  C  C63  1  0.51165767  0.93139594  0.97585556  1.0
  O  O64  1  0.24997265  0.75001645  0.50000232  1.0
  O  O65  1  0.66539958  0.09451681  0.66861141  1.0
  O  O66  1  0.09457003  0.66550108  0.66858440  1.0
  O  O67  1  0.90542934  0.33449871  0.33141498  1.0
  O  O68  1  0.17363524  0.60182455  0.45550314  1.0
  O  O69  1  0.82636246  0.39817321  0.54449868  1.0
  O  O70  1  0.39817665  0.82634212  0.54447385  1.0
  O  O71  1  0.60182362  0.17365904  0.45552724  1.0
  O  O72  1  0.75002807  0.24998335  0.49999668  1.0
  O  O73  1  0.37110158  0.60203602  0.45530532  1.0
  O  O74  1  0.62889846  0.39796378  0.54469574  1.0
  O  O75  1  0.39786885  0.62880396  0.54475109  1.0
  O  O76  1  0.60213176  0.37119515  0.45524954  1.0
  O  O77  1  0.17354179  0.94262191  0.45548942  1.0
  O  O78  1  0.82646297  0.05738199  0.54450824  1.0
  O  O79  1  0.05733071  0.82640645  0.54442341  1.0
  O  O80  1  0.94267394  0.17359677  0.45557447  1.0
  O  O81  1  0.05746965  0.62898792  0.54457977  1.0
  O  O82  1  0.94252827  0.37101120  0.45542020  1.0
  O  O83  1  0.37093313  0.94250897  0.45545801  1.0
  O  O84  1  0.62906826  0.05749085  0.54454313  1.0
  O  O85  1  0.33482616  0.76249083  0.33116278  1.0
  O  O86  1  0.66517299  0.23750760  0.66883751  1.0
  O  O87  1  0.23754194  0.66524636  0.66887520  1.0
  O  O88  1  0.76245878  0.33475344  0.33112380  1.0
  O  O89  1  0.33459968  0.90548231  0.33138819  1.0
  O  O90  1  0.10458387  0.66696312  0.94533897  1.0
  O  O91  1  0.89541752  0.33303668  0.05466031  1.0
  O  O92  1  0.33294393  0.89557337  0.05463680  1.0
  O  O93  1  0.66705544  0.10442643  0.94536305  1.0
  O  O94  1  0.13287898  0.47575215  0.05412476  1.0
  O  O95  1  0.86712264  0.52424901  0.94587361  1.0
  O  O96  1  0.52405887  0.86713886  0.94586900  1.0
  O  O97  1  0.47594196  0.13286162  0.05413071  1.0
