# generated using pymatgen
data_AlH6C15(O2F)3
_symmetry_space_group_name_H-M   'P 1'
_cell_length_a   4.01636803
_cell_length_b   17.24421946
_cell_length_c   17.24421176
_cell_angle_alpha   119.99995097
_cell_angle_beta   90.00000093
_cell_angle_gamma   89.99994855
_symmetry_Int_Tables_number   1
_chemical_formula_structural   AlH6C15(O2F)3
_chemical_formula_sum   'Al2 H12 C30 O12 F6'
_cell_volume   1034.31122148
_cell_formula_units_Z   2
loop_
 _symmetry_equiv_pos_site_id
 _symmetry_equiv_pos_as_xyz
  1  'x, y, z'
loop_
 _atom_site_type_symbol
 _atom_site_label
 _atom_site_symmetry_multiplicity
 _atom_site_fract_x
 _atom_site_fract_y
 _atom_site_fract_z
 _atom_site_occupancy
  Al  Al0  1  0.00110003  0.00000031  0.49999991  1.0
  Al  Al1  1  0.99893320  0.33333349  0.16666668  1.0
  H  H2  1  0.72459778  0.58288248  0.47031504  1.0
  H  H3  1  0.28199642  0.58151452  0.46848691  1.0
  H  H4  1  0.27497482  0.75026302  0.55397917  1.0
  H  H5  1  0.71772308  0.75166045  0.55364508  1.0
  H  H6  1  0.72459942  0.02968575  0.11256735  1.0
  H  H7  1  0.28199556  0.03151386  0.11302734  1.0
  H  H8  1  0.27497694  0.94602064  0.19628245  1.0
  H  H9  1  0.71772770  0.94635472  0.19801466  1.0
  H  H10  1  0.72459869  0.38743374  0.91712019  1.0
  H  H11  1  0.28199483  0.38697444  0.91848759  1.0
  H  H12  1  0.27497622  0.30371849  0.74973930  1.0
  H  H13  1  0.71772450  0.30198680  0.74834169  1.0
  C  C14  1  0.50026979  0.06556094  0.63676583  1.0
  C  C15  1  0.50027268  0.86323526  0.42879561  1.0
  C  C16  1  0.50026979  0.07120520  0.43443970  1.0
  C  C17  1  0.49977549  0.47009318  0.23218002  1.0
  C  C18  1  0.49977339  0.26781966  0.23791221  1.0
  C  C19  1  0.49976843  0.26208781  0.02990731  1.0
  C  C20  1  0.50282531  0.56976079  0.28161714  1.0
  C  C21  1  0.49756894  0.76354287  0.37851625  1.0
  C  C22  1  0.50563870  0.62004220  0.37480675  1.0
  C  C23  1  0.50280014  0.71359359  0.28469359  1.0
  C  C24  1  0.49463355  0.71322525  0.42140463  1.0
  C  C25  1  0.49758914  0.61976236  0.23778960  1.0
  C  C26  1  0.50325845  0.61354221  0.45939261  1.0
  C  C27  1  0.49651583  0.71963746  0.51246920  1.0
  C  C28  1  0.50282903  0.21838211  0.28814274  1.0
  C  C29  1  0.49756327  0.12148265  0.38502586  1.0
  C  C30  1  0.50564021  0.12519303  0.24523468  1.0
  C  C31  1  0.50279169  0.21530518  0.42889898  1.0
  C  C32  1  0.49463284  0.07859513  0.29181948  1.0
  C  C33  1  0.49758291  0.26220776  0.38197128  1.0
  C  C34  1  0.50326012  0.04060720  0.15414860  1.0
  C  C35  1  0.49651532  0.98753075  0.20716694  1.0
  C  C36  1  0.50282653  0.21185715  0.93024000  1.0
  C  C37  1  0.49756077  0.11497386  0.73645802  1.0
  C  C38  1  0.50563495  0.25476548  0.87995936  1.0
  C  C39  1  0.50279195  0.07110128  0.78640731  1.0
  C  C40  1  0.49463008  0.20818034  0.78677610  1.0
  C  C41  1  0.49758317  0.11802859  0.88023775  1.0
  C  C42  1  0.50325701  0.34585264  0.88646025  1.0
  C  C43  1  0.49651222  0.29283384  0.78036532  1.0
  O  O44  1  0.26644172  0.01467894  0.41598741  1.0
  O  O45  1  0.26644656  0.08401425  0.59869197  1.0
  O  O46  1  0.26644443  0.90130828  0.48532063  1.0
  O  O47  1  0.73709815  0.08675162  0.48930929  1.0
  O  O48  1  0.73709851  0.90255775  0.41324851  1.0
  O  O49  1  0.73709829  0.01069193  0.59744329  1.0
  O  O50  1  0.26265125  0.24654070  0.06915765  1.0
  O  O51  1  0.26265835  0.43084303  0.17738257  1.0
  O  O52  1  0.26265358  0.32261836  0.25346003  1.0
  O  O53  1  0.73338735  0.31868571  0.06804839  1.0
  O  O54  1  0.73338748  0.24936370  0.18131414  1.0
  O  O55  1  0.73339708  0.43195249  0.25063590  1.0
  F  F56  1  0.50410721  0.75580217  0.23618611  1.0
  F  F57  1  0.49619494  0.57753373  0.14708151  1.0
  F  F58  1  0.50409376  0.26381479  0.51961607  1.0
  F  F59  1  0.49618844  0.35291658  0.43044961  1.0
  F  F60  1  0.50409928  0.98038443  0.74419895  1.0
  F  F61  1  0.49618897  0.06954974  0.92246760  1.0
