# generated using pymatgen
data_Zn4H12C24Br2O13
_symmetry_space_group_name_H-M   'P 1'
_cell_length_a   10.91520326
_cell_length_b   10.91921315
_cell_length_c   19.53504173
_cell_angle_alpha   92.42598001
_cell_angle_beta   96.54220135
_cell_angle_gamma   99.61972893
_symmetry_Int_Tables_number   1
_chemical_formula_structural   Zn4H12C24Br2O13
_chemical_formula_sum   'Zn4 H12 C24 Br2 O13'
_cell_volume   2276.12473162
_cell_formula_units_Z   1
loop_
 _symmetry_equiv_pos_site_id
 _symmetry_equiv_pos_as_xyz
  1  'x, y, z'
loop_
 _atom_site_type_symbol
 _atom_site_label
 _atom_site_symmetry_multiplicity
 _atom_site_fract_x
 _atom_site_fract_y
 _atom_site_fract_z
 _atom_site_occupancy
  Zn  Zn0  1  0.40619542  0.59221127  0.55943567  1.0
  Zn  Zn1  1  0.60461777  0.61531943  0.45108592  1.0
  Zn  Zn2  1  0.36999764  0.39101612  0.43218998  1.0
  Zn  Zn3  1  0.59419996  0.39758886  0.55656334  1.0
  H  H4  1  0.35298539  0.56567323  0.76531718  1.0
  H  H5  1  0.64838610  0.52137825  0.00998462  1.0
  H  H6  1  0.37111267  0.57830923  0.89327035  1.0
  H  H7  1  0.01821057  0.63176742  0.52155859  1.0
  H  H8  1  0.26876100  0.42977528  0.09268898  1.0
  H  H9  1  0.97265262  0.34730243  0.48773916  1.0
  H  H10  1  0.56011731  0.02034152  0.56386954  1.0
  H  H11  1  0.66282228  0.60522485  0.24305073  1.0
  H  H12  1  0.27692555  0.42811621  0.22068225  1.0
  H  H13  1  0.36067202  0.48840555  0.99221417  1.0
  H  H14  1  0.65745257  0.60423271  0.11572137  1.0
  H  H15  1  0.69676577  0.42046046  0.77369554  1.0
  C  C16  1  0.82763259  0.52393863  0.51236820  1.0
  C  C17  1  0.55398695  0.51401624  0.98289947  1.0
  C  C18  1  0.45559478  0.50693152  0.01978459  1.0
  C  C19  1  0.16043423  0.46273056  0.49521307  1.0
  C  C20  1  0.47075833  0.51518759  0.23959661  1.0
  C  C21  1  0.02364911  0.44193637  0.49960097  1.0
  C  C22  1  0.96544363  0.53714939  0.51356304  1.0
  C  C23  1  0.46442646  0.02992880  0.46631449  1.0
  C  C24  1  0.51813986  0.96760994  0.51577587  1.0
  C  C25  1  0.51874312  0.83139512  0.51301938  1.0
  C  C26  1  0.46655546  0.16756707  0.47680474  1.0
  C  C27  1  0.54379713  0.50585476  0.90787359  1.0
  C  C28  1  0.47609332  0.51317319  0.31599221  1.0
  C  C29  1  0.51405486  0.48797947  0.68476825  1.0
  C  C30  1  0.52340123  0.49180730  0.76155631  1.0
  C  C31  1  0.43126287  0.53554499  0.79570687  1.0
  C  C32  1  0.44164361  0.54164568  0.86715629  1.0
  C  C33  1  0.63545189  0.46338885  0.87185894  1.0
  C  C34  1  0.62566288  0.45491341  0.80019801  1.0
  C  C35  1  0.57400327  0.56417888  0.13824689  1.0
  C  C36  1  0.57754996  0.56546194  0.20948510  1.0
  C  C37  1  0.35949758  0.46637642  0.19700962  1.0
  C  C38  1  0.35561640  0.46741801  0.12572261  1.0
  C  C39  1  0.46311550  0.51388161  0.09477691  1.0
  Br  Br40  1  0.37912782  0.95072558  0.38210540  1.0
  Br  Br41  1  0.77735044  0.41129168  0.92126425  1.0
  O  O42  1  0.49429205  0.49775174  0.49985623  1.0
  O  O43  1  0.57615619  0.57091764  0.35184584  1.0
  O  O44  1  0.59219016  0.43443724  0.65581723  1.0
  O  O45  1  0.38074902  0.45333716  0.33998783  1.0
  O  O46  1  0.42816879  0.53955812  0.65401143  1.0
  O  O47  1  0.46389323  0.77301320  0.55932947  1.0
  O  O48  1  0.53043233  0.21947618  0.53240400  1.0
  O  O49  1  0.78023804  0.61446622  0.48756426  1.0
  O  O50  1  0.20025524  0.38005262  0.45956216  1.0
  O  O51  1  0.76920423  0.42621218  0.53544394  1.0
  O  O52  1  0.22632727  0.56081199  0.52682743  1.0
  O  O53  1  0.57476496  0.78701531  0.46683407  1.0
  O  O54  1  0.40612594  0.21943903  0.43035764  1.0
