# generated using pymatgen
data_Al4H20C41Br2O21
_symmetry_space_group_name_H-M   'P 1'
_cell_length_a   6.70373680
_cell_length_b   19.65973217
_cell_length_c   21.22755702
_cell_angle_alpha   86.78788615
_cell_angle_beta   88.21326056
_cell_angle_gamma   88.95419007
_symmetry_Int_Tables_number   1
_chemical_formula_structural   Al4H20C41Br2O21
_chemical_formula_sum   'Al4 H20 C41 Br2 O21'
_cell_volume   2791.52241992
_cell_formula_units_Z   1
loop_
 _symmetry_equiv_pos_site_id
 _symmetry_equiv_pos_as_xyz
  1  'x, y, z'
loop_
 _atom_site_type_symbol
 _atom_site_label
 _atom_site_symmetry_multiplicity
 _atom_site_fract_x
 _atom_site_fract_y
 _atom_site_fract_z
 _atom_site_occupancy
  Al  Al0  1  0.87377935  0.51046887  0.50752806  1.0
  Al  Al1  1  0.37257813  0.51019383  0.50851575  1.0
  Al  Al2  1  0.34676512  0.98195715  0.98415459  1.0
  Al  Al3  1  0.84784151  0.98204520  0.98377766  1.0
  H  H4  1  0.01500861  0.28284948  0.13956999  1.0
  H  H5  1  0.07673344  0.36135362  0.21456481  1.0
  H  H6  1  0.43155346  0.25363524  0.29954160  1.0
  H  H7  1  0.39824927  0.32150907  0.24348793  1.0
  H  H8  1  0.37079642  0.24632832  0.16356711  1.0
  H  H9  1  0.16071902  0.20103901  0.35533852  1.0
  H  H10  1  0.87214108  0.15425251  0.26535324  1.0
  H  H11  1  0.81773654  0.24695762  0.18774029  1.0
  H  H12  1  0.11384963  0.12077647  0.28186351  1.0
  H  H13  1  0.58526932  0.41202218  0.23972636  1.0
  H  H14  1  0.78181999  0.41316417  0.18135578  1.0
  H  H15  1  0.80797091  0.45926058  0.31684721  1.0
  H  H16  1  0.01014653  0.45920802  0.26179777  1.0
  H  H17  1  0.82199363  0.54124314  0.18781575  1.0
  H  H18  1  0.85450002  0.57560542  0.26238187  1.0
  H  H19  1  0.62023142  0.54296918  0.24397211  1.0
  H  H20  1  0.62853981  0.42171456  0.50371408  1.0
  H  H21  1  0.11711117  0.59756886  0.52139954  1.0
  H  H22  1  0.59196174  0.06927521  0.99420392  1.0
  H  H23  1  0.10303985  0.89401948  0.97324118  1.0
  C  C24  1  0.62545346  0.59451249  0.42056880  1.0
  C  C25  1  0.61169633  0.59052200  0.59064446  1.0
  C  C26  1  0.11872650  0.42404456  0.59409396  1.0
  C  C27  1  0.13650965  0.42947918  0.42654189  1.0
  C  C28  1  0.99291504  0.31771394  0.23610935  1.0
  C  C29  1  0.33310096  0.27342885  0.26226068  1.0
  C  C30  1  0.32033116  0.22339574  0.20940642  1.0
  C  C31  1  0.08046787  0.10979317  0.11512071  1.0
  C  C32  1  0.12184624  0.28858655  0.29169997  1.0
  C  C33  1  0.97408775  0.26270562  0.18747839  1.0
  C  C34  1  0.10421689  0.19868511  0.20472930  1.0
  C  C35  1  0.02876442  0.16765256  0.26968886  1.0
  C  C36  1  0.05035817  0.21894293  0.32094773  1.0
  C  C37  1  0.08892310  0.14985861  0.15642800  1.0
  C  C38  1  0.13538626  0.33801892  0.33941042  1.0
  C  C39  1  0.14258837  0.38023947  0.37882486  1.0
  C  C40  1  0.10415833  0.12152563  0.84848561  1.0
  C  C41  1  0.10627791  0.16930750  0.80876702  1.0
  C  C42  1  0.10813548  0.22190374  0.76572113  1.0
  C  C43  1  0.11006371  0.27067117  0.72652131  1.0
  C  C44  1  0.11260363  0.32323274  0.68345145  1.0
  C  C45  1  0.11528401  0.37092069  0.64363971  1.0
  C  C46  1  0.62395964  0.64264290  0.36681138  1.0
  C  C47  1  0.61766429  0.68330819  0.32091014  1.0
  C  C48  1  0.61126856  0.72711639  0.27023924  1.0
  C  C49  1  0.60523266  0.76733451  0.22353381  1.0
  C  C50  1  0.59893542  0.81120110  0.17289179  1.0
  C  C51  1  0.59373576  0.85141122  0.12663614  1.0
  C  C52  1  0.60738424  0.63780989  0.64011363  1.0
  C  C53  1  0.60836616  0.67942310  0.68103864  1.0
  C  C54  1  0.60996767  0.72520516  0.72555016  1.0
  C  C55  1  0.61206078  0.76750659  0.76632728  1.0
  C  C56  1  0.61307965  0.81317926  0.81095663  1.0
  C  C57  1  0.61381566  0.85464751  0.85202492  1.0
  C  C58  1  0.60935922  0.90208930  0.90137278  1.0
  C  C59  1  0.59347520  0.89826388  0.07188870  1.0
  C  C60  1  0.08428381  0.06216355  0.06604289  1.0
  C  C61  1  0.10198153  0.06825776  0.89793931  1.0
  C  C62  1  0.74849890  0.40822864  0.23283412  1.0
  C  C63  1  0.84665431  0.46493779  0.26611793  1.0
  C  C64  1  0.78251508  0.53498312  0.23847988  1.0
  Br  Br65  1  0.50485662  0.14433055  0.22201196  1.0
  Br  Br66  1  0.80438311  0.22472798  0.37456056  1.0
  O  O67  1  0.44381998  0.57230532  0.57143233  1.0
  O  O68  1  0.79565498  0.57622937  0.44114921  1.0
  O  O69  1  0.96350958  0.44959240  0.44495413  1.0
  O  O70  1  0.78421630  0.57240999  0.57035073  1.0
  O  O71  1  0.94975050  0.44401655  0.57362276  1.0
  O  O72  1  0.45477975  0.57573293  0.44222213  1.0
  O  O73  1  0.62541699  0.47035234  0.50903924  1.0
  O  O74  1  0.29051223  0.44453268  0.57499938  1.0
  O  O75  1  0.30283272  0.44815166  0.44662223  1.0
  O  O76  1  0.12103961  0.55125532  0.50795121  1.0
  O  O77  1  0.76459683  0.91580138  0.04957866  1.0
  O  O78  1  0.43681473  0.92003291  0.92175405  1.0
  O  O79  1  0.27148841  0.04777570  0.91750981  1.0
  O  O80  1  0.42357552  0.91647169  0.05106225  1.0
  O  O81  1  0.25678165  0.04365601  0.04581809  1.0
  O  O82  1  0.77703572  0.92065847  0.92035873  1.0
  O  O83  1  0.59531200  0.02207658  0.98325067  1.0
  O  O84  1  0.91716055  0.04337917  0.04660383  1.0
  O  O85  1  0.93054141  0.04827891  0.91789021  1.0
  O  O86  1  0.09934825  0.94120771  0.98419764  1.0
  O  O87  1  0.80141098  0.34080613  0.25688450  1.0
