# generated using pymatgen
data_Al4H24C47I6(NO5)4
_symmetry_space_group_name_H-M   'P 1'
_cell_length_a   6.65740300
_cell_length_b   20.10904623
_cell_length_c   23.49777930
_cell_angle_alpha   78.20106268
_cell_angle_beta   89.90845571
_cell_angle_gamma   88.55188180
_symmetry_Int_Tables_number   1
_chemical_formula_structural   Al4H24C47I6(NO5)4
_chemical_formula_sum   'Al4 H24 C47 I6 N4 O20'
_cell_volume   3078.27252200
_cell_formula_units_Z   1
loop_
 _symmetry_equiv_pos_site_id
 _symmetry_equiv_pos_as_xyz
  1  'x, y, z'
loop_
 _atom_site_type_symbol
 _atom_site_label
 _atom_site_symmetry_multiplicity
 _atom_site_fract_x
 _atom_site_fract_y
 _atom_site_fract_z
 _atom_site_occupancy
  Al  Al0  1  0.92766984  0.49872852  0.50113635  1.0
  Al  Al1  1  0.42759059  0.49974076  0.49832302  1.0
  Al  Al2  1  0.43427580  0.99843858  0.00006173  1.0
  Al  Al3  1  0.93407295  0.99730308  0.99894017  1.0
  H  H4  1  0.88739351  0.88749528  0.86829415  1.0
  H  H5  1  0.90931336  0.81391810  0.79337054  1.0
  H  H6  1  0.85594482  0.73694840  0.65306478  1.0
  H  H7  1  0.88702157  0.65763579  0.58357815  1.0
  H  H8  1  0.52588049  0.86635691  0.89437990  1.0
  H  H9  1  0.41448957  0.65604618  0.73287579  1.0
  H  H10  1  0.54699696  0.78962436  0.82151847  1.0
  H  H11  1  0.37852345  0.76853211  0.26024823  1.0
  H  H12  1  0.40231180  0.08175285  0.15179375  1.0
  H  H13  1  0.41973162  0.25495746  0.35472970  1.0
  H  H14  1  0.42118881  0.34078739  0.41892705  1.0
  H  H15  1  0.96142365  0.16134163  0.07960907  1.0
  H  H16  1  0.95267886  0.24470993  0.14623729  1.0
  H  H17  1  0.21510450  0.13281400  0.68797282  1.0
  H  H18  1  0.17908246  0.21170801  0.63833736  1.0
  H  H19  1  0.37732889  0.20105755  0.69011352  1.0
  H  H20  1  0.12674014  0.19025958  0.77149942  1.0
  H  H21  1  0.09288489  0.26859285  0.72219798  1.0
  H  H22  1  0.84581380  0.14151918  0.72235062  1.0
  H  H23  1  0.81439563  0.22037264  0.67260168  1.0
  H  H24  1  0.66951266  0.57948651  0.51620359  1.0
  H  H25  1  0.18803510  0.41397099  0.53174034  1.0
  H  H26  1  0.68854397  0.91087589  0.02842491  1.0
  H  H27  1  0.17674489  0.08579989  0.97333335  1.0
  C  C28  1  0.68068971  0.41026951  0.58736857  1.0
  C  C29  1  0.68478172  0.43137876  0.42613037  1.0
  C  C30  1  0.16822646  0.58796068  0.41415797  1.0
  C  C31  1  0.17397043  0.57068844  0.57246711  1.0
  C  C32  1  0.16941299  0.61357729  0.61754998  1.0
  C  C33  1  0.31844280  0.61277194  0.66054578  1.0
  C  C34  1  0.30215579  0.65665877  0.69913692  1.0
  C  C35  1  0.13665064  0.70222135  0.69567639  1.0
  C  C36  1  0.98523874  0.70235286  0.65429775  1.0
  C  C37  1  0.00318065  0.65848867  0.61595392  1.0
  C  C38  1  0.04236674  0.82556280  0.81607755  1.0
  C  C39  1  0.03091086  0.86618064  0.85718374  1.0
  C  C40  1  0.23010029  0.79810740  0.80339036  1.0
  C  C41  1  0.20588292  0.88095711  0.88522512  1.0
  C  C42  1  0.39270472  0.85418481  0.87201956  1.0
  C  C43  1  0.40449447  0.81230966  0.83182508  1.0
  C  C44  1  0.15378958  0.63627740  0.35976383  1.0
  C  C45  1  0.09874854  0.72224455  0.26101742  1.0
  C  C46  1  0.23617651  0.76904394  0.23679315  1.0
  C  C47  1  0.21095409  0.81677616  0.18498333  1.0
  C  C48  1  0.13065576  0.67645138  0.31357036  1.0
  C  C49  1  0.19643059  0.85944590  0.13994755  1.0
  C  C50  1  0.68085581  0.13603674  0.85888906  1.0
  C  C51  1  0.72112977  0.22200412  0.75971338  1.0
  C  C52  1  0.63278538  0.28553976  0.74558578  1.0
  C  C53  1  0.65526916  0.32885140  0.69155786  1.0
  C  C54  1  0.69377073  0.17833872  0.81374707  1.0
  C  C55  1  0.67290357  0.36610637  0.64385824  1.0
  C  C56  1  0.68679712  0.38884688  0.38050928  1.0
  C  C57  1  0.83196639  0.39175082  0.33613947  1.0
  C  C58  1  0.82698800  0.34533481  0.29842803  1.0
  C  C59  1  0.67659100  0.29556581  0.30611665  1.0
  C  C60  1  0.53321772  0.29375923  0.35018782  1.0
  C  C61  1  0.53510764  0.34076808  0.38564312  1.0
  C  C62  1  0.53067736  0.15804082  0.19282452  1.0
  C  C63  1  0.52562465  0.11628677  0.15209739  1.0
  C  C64  1  0.68528521  0.20552826  0.18996171  1.0
  C  C65  1  0.68072183  0.11730414  0.11161716  1.0
  C  C66  1  0.83994016  0.16188615  0.11059180  1.0
  C  C67  1  0.83648327  0.20722452  0.14768168  1.0
  C  C68  1  0.67547581  0.07232032  0.06843103  1.0
  C  C69  1  0.68154813  0.08580103  0.91212074  1.0
  C  C70  1  0.19609828  0.92436935  0.92970190  1.0
  C  C71  1  0.18696889  0.90978097  0.08681407  1.0
  C  C72  1  0.86093606  0.19680556  0.71723696  1.0
  C  C73  1  0.08127234  0.21325359  0.72659326  1.0
  C  C74  1  0.22100959  0.18826082  0.68336228  1.0
  I  I75  1  0.82054076  0.71499941  0.21999154  1.0
  I  I76  1  0.45001602  0.32535853  0.80461618  1.0
  I  I77  1  0.29439096  0.14807123  0.25342245  1.0
  I  I78  1  0.05367487  0.34715181  0.23531549  1.0
  I  I79  1  0.04287721  0.47003251  0.32229925  1.0
  I  I80  1  0.56405126  0.54261478  0.67493549  1.0
  N  N81  1  0.10725963  0.74789330  0.73353964  1.0
  N  N82  1  0.25999589  0.75479001  0.76367577  1.0
  N  N83  1  0.65859546  0.24210642  0.27534004  1.0
  N  N84  1  0.69944053  0.25738962  0.22205676  1.0
  O  O85  1  0.51215424  0.44780433  0.44295449  1.0
  O  O86  1  0.85354598  0.42790591  0.56723949  1.0
  O  O87  1  0.00362858  0.55402655  0.55576063  1.0
  O  O88  1  0.85126093  0.44458775  0.44710404  1.0
  O  O89  1  0.00157345  0.56898769  0.43763110  1.0
  O  O90  1  0.51126257  0.42725301  0.56288315  1.0
  O  O91  1  0.67463896  0.53961936  0.49894624  1.0
  O  O92  1  0.34303131  0.56919830  0.43362678  1.0
  O  O93  1  0.34406058  0.55627393  0.55270320  1.0
  O  O94  1  0.18113237  0.45772347  0.50506385  1.0
  O  O95  1  0.85382019  0.06104842  0.92962564  1.0
  O  O96  1  0.50499817  0.05087282  0.05674180  1.0
  O  O97  1  0.35528765  0.92724534  0.06331419  1.0
  O  O98  1  0.51385705  0.07048459  0.93690388  1.0
  O  O99  1  0.36340794  0.94491809  0.94481142  1.0
  O  O100  1  0.84292003  0.06021657  0.04571531  1.0
  O  O101  1  0.68688607  0.95630440  0.00449922  1.0
  O  O102  1  0.02388419  0.93655603  0.94963673  1.0
  O  O103  1  0.01379720  0.93206292  0.06788632  1.0
  O  O104  1  0.18038571  0.03915769  0.99473741  1.0
