# generated using pymatgen
data_Zn4H29C48O13F
_symmetry_space_group_name_H-M   'P 1'
_cell_length_a   19.54739198
_cell_length_b   19.59158222
_cell_length_c   19.61964428
_cell_angle_alpha   84.42432071
_cell_angle_beta   84.63415009
_cell_angle_gamma   89.56774437
_symmetry_Int_Tables_number   1
_chemical_formula_structural   Zn4H29C48O13F
_chemical_formula_sum   'Zn4 H29 C48 O13 F1'
_cell_volume   7445.29625814
_cell_formula_units_Z   1
loop_
 _symmetry_equiv_pos_site_id
 _symmetry_equiv_pos_as_xyz
  1  'x, y, z'
loop_
 _atom_site_type_symbol
 _atom_site_label
 _atom_site_symmetry_multiplicity
 _atom_site_fract_x
 _atom_site_fract_y
 _atom_site_fract_z
 _atom_site_occupancy
  Zn  Zn0  1  0.55791584  0.44254013  0.44127772  1.0
  Zn  Zn1  1  0.44875642  0.56367893  0.44054997  1.0
  Zn  Zn2  1  0.55592780  0.55343063  0.55302970  1.0
  Zn  Zn3  1  0.43760507  0.44095605  0.56523254  1.0
  H  H4  1  0.56935501  0.23399341  0.42985391  1.0
  H  H5  1  0.89254050  0.56758470  0.55510041  1.0
  H  H6  1  0.55638215  0.76391186  0.58250218  1.0
  H  H7  1  0.09969540  0.46249774  0.62243372  1.0
  H  H8  1  0.56908247  0.56372234  0.76045491  1.0
  H  H9  1  0.55623123  0.41158045  0.23094155  1.0
  H  H10  1  0.46462885  0.61151217  0.22776523  1.0
  H  H11  1  0.51279491  0.57195438  0.99098938  1.0
  H  H12  1  0.42496767  0.38958700  0.90863124  1.0
  H  H13  1  0.55612128  0.41585090  0.10346213  1.0
  H  H14  1  0.42097740  0.40072509  0.78115656  1.0
  H  H15  1  0.46805366  0.90335921  0.38417157  1.0
  H  H16  1  0.48748000  0.41639227  0.00960927  1.0
  H  H17  1  0.57306462  0.55389803  0.88756102  1.0
  H  H18  1  0.46444180  0.77549074  0.39144763  1.0
  H  H19  1  0.46770667  0.61821326  0.09973735  1.0
  H  H20  1  0.51330875  0.00816566  0.42609112  1.0
  H  H21  1  0.42514772  0.09834845  0.61651159  1.0
  H  H22  1  0.55699524  0.89160556  0.57781583  1.0
  H  H23  1  0.42119731  0.22638351  0.60621174  1.0
  H  H24  1  0.48771472  0.99166575  0.58376207  1.0
  H  H25  1  0.57316628  0.10634837  0.43870300  1.0
  H  H26  1  0.76463535  0.56410669  0.56318861  1.0
  H  H27  1  0.22777820  0.46061346  0.61250138  1.0
  H  H28  1  0.99244342  0.50803806  0.57492602  1.0
  H  H29  1  0.90090496  0.43144786  0.39459229  1.0
  H  H30  1  0.10716779  0.55710529  0.41338911  1.0
  H  H31  1  0.77260558  0.42789099  0.40413290  1.0
  H  H32  1  0.00706507  0.49039891  0.42026756  1.0
  C  C33  1  0.31614475  0.50757869  0.50732566  1.0
  C  C34  1  0.49906010  0.01839635  0.53235358  1.0
  C  C35  1  0.50919998  0.98114334  0.47780755  1.0
  C  C36  1  0.68450962  0.49520438  0.48912049  1.0
  C  C37  1  0.50951575  0.76217734  0.48772794  1.0
  C  C38  1  0.76110813  0.49531761  0.48462419  1.0
  C  C39  1  0.79521143  0.53438408  0.52736648  1.0
  C  C40  1  0.86642633  0.53572294  0.52296223  1.0
  C  C41  1  0.90578332  0.49847884  0.47535617  1.0
  C  C42  1  0.87106063  0.46034992  0.43188707  1.0
  C  C43  1  0.79967294  0.45806981  0.43697816  1.0
  C  C44  1  0.49826194  0.09321978  0.52733437  1.0
  C  C45  1  0.13216116  0.53490821  0.45771069  1.0
  C  C46  1  0.20334958  0.53521161  0.45421032  1.0
  C  C47  1  0.20017298  0.48197144  0.56967410  1.0
  C  C48  1  0.50856702  0.50782511  0.31325104  1.0
  C  C49  1  0.12894802  0.48302624  0.57489107  1.0
  C  C50  1  0.09354294  0.50842158  0.51837308  1.0
  C  C51  1  0.98068592  0.49920891  0.47033077  1.0
  C  C52  1  0.01865647  0.50650135  0.52334294  1.0
  C  C53  1  0.23961721  0.50854312  0.50939624  1.0
  C  C54  1  0.49433038  0.48326508  0.76328005  1.0
  C  C55  1  0.45663139  0.12805563  0.57528807  1.0
  C  C56  1  0.53696614  0.52656146  0.79362726  1.0
  C  C57  1  0.53862566  0.52115116  0.86450390  1.0
  C  C58  1  0.49808076  0.47211635  0.90730368  1.0
  C  C59  1  0.45645495  0.42802603  0.87618644  1.0
  C  C60  1  0.49358701  0.48898522  0.68702356  1.0
  C  C61  1  0.45391585  0.43402811  0.80526508  1.0
  C  C62  1  0.53529298  0.45848352  0.13069576  1.0
  C  C63  1  0.53575310  0.45595163  0.20165510  1.0
  C  C64  1  0.48485377  0.56924364  0.19976204  1.0
  C  C65  1  0.48649285  0.57252379  0.12858167  1.0
  C  C66  1  0.45410689  0.19933274  0.56979371  1.0
  C  C67  1  0.51033306  0.51670036  0.09280817  1.0
  C  C68  1  0.49879447  0.46686450  0.98196461  1.0
  C  C69  1  0.50872622  0.52052568  0.01834822  1.0
  C  C70  1  0.50975770  0.51095907  0.23693223  1.0
  C  C71  1  0.50771261  0.68590404  0.49127242  1.0
  C  C72  1  0.49425494  0.31423619  0.51184775  1.0
  C  C73  1  0.49462475  0.23778342  0.51710122  1.0
  C  C74  1  0.53718630  0.20360468  0.46977432  1.0
  C  C75  1  0.53877613  0.13249301  0.47471632  1.0
  C  C76  1  0.53582424  0.86622579  0.53736422  1.0
  C  C77  1  0.53588382  0.79510411  0.54007978  1.0
  C  C78  1  0.48482652  0.80167533  0.43171394  1.0
  C  C79  1  0.48681190  0.87278434  0.42808576  1.0
  C  C80  1  0.51084061  0.90643999  0.48152961  1.0
  O  O81  1  0.49969303  0.49940876  0.50021036  1.0
  O  O82  1  0.47176650  0.65965833  0.44929962  1.0
  O  O83  1  0.45153445  0.34294189  0.55349604  1.0
  O  O84  1  0.54200047  0.65282729  0.53608526  1.0
  O  O85  1  0.53710220  0.34490479  0.46600400  1.0
  O  O86  1  0.54323110  0.46011403  0.34315774  1.0
  O  O87  1  0.45153227  0.45065460  0.66206533  1.0
  O  O88  1  0.34958522  0.54924601  0.46266116  1.0
  O  O89  1  0.65369891  0.53359194  0.53126318  1.0
  O  O90  1  0.34138995  0.46487986  0.55174448  1.0
  O  O91  1  0.65602705  0.45714783  0.45051198  1.0
  O  O92  1  0.47261573  0.55318601  0.34270443  1.0
  O  O93  1  0.53550679  0.53195570  0.65257899  1.0
  F  F94  1  0.23724598  0.56177177  0.39405466  1.0
