# generated using pymatgen
data_Al4H25C37I2NO20
_symmetry_space_group_name_H-M   'P 1'
_cell_length_a   6.66343640
_cell_length_b   16.48047750
_cell_length_c   18.54161498
_cell_angle_alpha   106.79836624
_cell_angle_beta   89.91414412
_cell_angle_gamma   89.95923612
_symmetry_Int_Tables_number   1
_chemical_formula_structural   Al4H25C37I2NO20
_chemical_formula_sum   'Al4 H25 C37 I2 N1 O20'
_cell_volume   1949.28549472
_cell_formula_units_Z   1
loop_
 _symmetry_equiv_pos_site_id
 _symmetry_equiv_pos_as_xyz
  1  'x, y, z'
loop_
 _atom_site_type_symbol
 _atom_site_label
 _atom_site_symmetry_multiplicity
 _atom_site_fract_x
 _atom_site_fract_y
 _atom_site_fract_z
 _atom_site_occupancy
  Al  Al0  1  0.13296741  0.49982433  0.49967360  1.0
  Al  Al1  1  0.63404776  0.49932738  0.50029444  1.0
  Al  Al2  1  0.64353681  0.99924390  0.99967376  1.0
  Al  Al3  1  0.14273146  0.99971522  0.00091750  1.0
  H  H4  1  0.59014378  0.22894979  0.16703991  1.0
  H  H5  1  0.58970849  0.15445984  0.21811538  1.0
  H  H6  1  0.58774262  0.26354457  0.33182409  1.0
  H  H7  1  0.57701161  0.33798886  0.28079326  1.0
  H  H8  1  0.92361038  0.28259372  0.12917338  1.0
  H  H9  1  0.90143891  0.39424950  0.23967327  1.0
  H  H10  1  0.14824894  0.14040247  0.23335429  1.0
  H  H11  1  0.91666966  0.10700891  0.26207141  1.0
  H  H12  1  0.15463563  0.26000903  0.33746487  1.0
  H  H13  1  0.15074886  0.24797111  0.15985161  1.0
  H  H14  1  0.13471183  0.36365870  0.26893403  1.0
  H  H15  1  0.71478452  0.68204779  0.69775415  1.0
  H  H16  1  0.66604919  0.86176053  0.77073118  1.0
  H  H17  1  0.70653551  0.78288602  0.81575262  1.0
  H  H18  1  0.45761617  0.61390279  0.75698064  1.0
  H  H19  1  0.40546431  0.72098182  0.86989246  1.0
  H  H20  1  0.09023167  0.73247353  0.67195978  1.0
  H  H21  1  0.26997410  0.78250659  0.63047549  1.0
  H  H22  1  0.09727116  0.84756948  0.77988262  1.0
  H  H23  1  0.20021429  0.62261715  0.73737044  1.0
  H  H24  1  0.16146411  0.74194472  0.84232119  1.0
  H  H25  1  0.38343935  0.39735145  0.50941319  1.0
  H  H26  1  0.88028697  0.61270422  0.53148863  1.0
  H  H27  1  0.39103002  0.09658543  0.98251029  1.0
  H  H28  1  0.89452675  0.89796499  0.01237835  1.0
  C  C29  1  0.39206936  0.61744254  0.61305732  1.0
  C  C30  1  0.37780822  0.58582724  0.41540914  1.0
  C  C31  1  0.87570690  0.38609510  0.38461123  1.0
  C  C32  1  0.89067955  0.40946215  0.58283427  1.0
  C  C33  1  0.88872791  0.35757671  0.63330228  1.0
  C  C34  1  0.88909601  0.31283285  0.67587064  1.0
  C  C35  1  0.88968077  0.26428455  0.72271204  1.0
  C  C36  1  0.89054198  0.22008737  0.76624496  1.0
  C  C37  1  0.89110757  0.17293233  0.81424176  1.0
  C  C38  1  0.89214662  0.13025680  0.85856722  1.0
  C  C39  1  0.66782135  0.21090521  0.21227162  1.0
  C  C40  1  0.66246455  0.28340220  0.28682672  1.0
  C  C41  1  0.99449437  0.26543204  0.17628118  1.0
  C  C42  1  0.99489513  0.16101803  0.25130506  1.0
  C  C43  1  0.88597924  0.18723719  0.18816348  1.0
  C  C44  1  0.87614570  0.31294523  0.31211977  1.0
  C  C45  1  0.98397449  0.34055456  0.24928916  1.0
  C  C46  1  0.99972146  0.23746552  0.32440689  1.0
  C  C47  1  0.60487361  0.73206910  0.70016655  1.0
  C  C48  1  0.60713447  0.80166760  0.77610730  1.0
  C  C49  1  0.34076147  0.65861483  0.75098337  1.0
  C  C50  1  0.24023115  0.76090331  0.68015858  1.0
  C  C51  1  0.39529720  0.69312336  0.68363023  1.0
  C  C52  1  0.39414154  0.81623757  0.80944560  1.0
  C  C53  1  0.31861843  0.73289321  0.82360449  1.0
  C  C54  1  0.24512764  0.83490565  0.75326830  1.0
  C  C55  1  0.38297905  0.63648892  0.36377167  1.0
  C  C56  1  0.38663528  0.68051814  0.32060700  1.0
  C  C57  1  0.38986921  0.72879000  0.27352450  1.0
  C  C58  1  0.39220139  0.77333256  0.23030524  1.0
  C  C59  1  0.39449160  0.82158663  0.18321124  1.0
  C  C60  1  0.39660760  0.86553471  0.13993369  1.0
  C  C61  1  0.39836866  0.91590221  0.08827825  1.0
  C  C62  1  0.38935773  0.88452776  0.88509144  1.0
  C  C63  1  0.88879701  0.08177955  0.91164135  1.0
  C  C64  1  0.89614916  0.11582502  0.11458361  1.0
  C  C65  1  0.92534941  0.21499660  0.39018143  1.0
  I  I66  1  0.71168237  0.77882324  0.60667928  1.0
  I  I67  1  0.30865113  0.95718333  0.73311644  1.0
  N  N68  1  0.86203406  0.19936156  0.44333640  1.0
  O  O69  1  0.54412187  0.57496326  0.44473766  1.0
  O  O70  1  0.22389379  0.59668518  0.58057683  1.0
  O  O71  1  0.06132058  0.43791731  0.57061190  1.0
  O  O72  1  0.20691279  0.55772466  0.42704626  1.0
  O  O73  1  0.04361085  0.40675439  0.41735360  1.0
  O  O74  1  0.55813735  0.57940106  0.59361648  1.0
  O  O75  1  0.38308801  0.44795219  0.49263389  1.0
  O  O76  1  0.70798212  0.42045094  0.40732708  1.0
  O  O77  1  0.72243249  0.42194868  0.55535708  1.0
  O  O78  1  0.88345142  0.55125776  0.51035800  1.0
  O  O79  1  0.21785289  0.91327631  0.90998991  1.0
  O  O80  1  0.56856874  0.94240477  0.07355563  1.0
  O  O81  1  0.73219470  0.09427584  0.07917424  1.0
  O  O82  1  0.55576151  0.90394746  0.91920795  1.0
  O  O83  1  0.71802780  0.05512423  0.92568571  1.0
  O  O84  1  0.22943429  0.92865184  0.06140515  1.0
  O  O85  1  0.39289901  0.05059479  0.00546878  1.0
  O  O86  1  0.05592461  0.07073066  0.94077501  1.0
  O  O87  1  0.06825368  0.08465193  0.09261256  1.0
  O  O88  1  0.89346307  0.94761275  0.99432897  1.0
