# generated using pymatgen
data_Zn3H12C26BrO12
_symmetry_space_group_name_H-M   'P 1'
_cell_length_a   18.55363798
_cell_length_b   18.63915583
_cell_length_c   18.68430045
_cell_angle_alpha   109.69045907
_cell_angle_beta   109.27693880
_cell_angle_gamma   109.20690292
_symmetry_Int_Tables_number   1
_chemical_formula_structural   Zn3H12C26BrO12
_chemical_formula_sum   'Zn6 H24 C52 Br2 O24'
_cell_volume   4988.61283877
_cell_formula_units_Z   2
loop_
 _symmetry_equiv_pos_site_id
 _symmetry_equiv_pos_as_xyz
  1  'x, y, z'
loop_
 _atom_site_type_symbol
 _atom_site_label
 _atom_site_symmetry_multiplicity
 _atom_site_fract_x
 _atom_site_fract_y
 _atom_site_fract_z
 _atom_site_occupancy
  Zn  Zn0  1  0.99151959  0.56372558  0.06126565  1.0
  Zn  Zn1  1  0.00106117  0.44110079  0.94240058  1.0
  Zn  Zn2  1  0.56303606  0.56191212  0.50024967  1.0
  Zn  Zn3  1  0.43308610  0.44542213  0.50363204  1.0
  Zn  Zn4  1  0.56154239  0.99956908  0.06274524  1.0
  Zn  Zn5  1  0.43678650  0.99568068  0.93282553  1.0
  H  H6  1  0.82613501  0.62772636  0.88319899  1.0
  H  H7  1  0.63545377  0.28928025  0.22219039  1.0
  H  H8  1  0.63161571  0.41315336  0.32577820  1.0
  H  H9  1  0.55764017  0.64375238  0.77428508  1.0
  H  H10  1  0.57025426  0.81439224  0.66499492  1.0
  H  H11  1  0.65901628  0.18930182  0.70710840  1.0
  H  H12  1  0.55565422  0.16476278  0.56402092  1.0
  H  H13  1  0.70599296  0.60433826  0.75171358  1.0
  H  H14  1  0.84759625  0.19443653  0.95142731  1.0
  H  H15  1  0.72489194  0.09224858  0.95736831  1.0
  H  H16  1  0.60796564  0.25739690  0.95864118  1.0
  H  H17  1  0.73905292  0.36739288  0.96957826  1.0
  H  H18  1  0.21527180  0.50208494  0.39409398  1.0
  H  H19  1  0.11338799  0.59818445  0.83072391  1.0
  H  H20  1  0.35032774  0.87440212  0.10797607  1.0
  H  H21  1  0.56267700  0.75180703  0.90251585  1.0
  H  H22  1  0.55805767  0.91379000  0.78434390  1.0
  H  H23  1  0.25505399  0.52442502  0.15043365  1.0
  H  H24  1  0.36701458  0.51677600  0.26295200  1.0
  H  H25  1  0.11127476  0.52457857  0.28992437  1.0
  H  H26  1  0.21754476  0.72118918  0.82684365  1.0
  H  H27  1  0.23637420  0.75795066  0.11011905  1.0
  H  H28  1  0.39788193  0.22829474  0.29880809  1.0
  H  H29  1  0.76958626  0.34004575  0.82728014  1.0
  C  C30  1  0.87914225  0.35637901  0.97184537  1.0
  C  C31  1  0.66147157  0.24492039  0.95895151  1.0
  C  C32  1  0.73369963  0.30545895  0.96381136  1.0
  C  C33  1  0.86396629  0.50857454  0.90519558  1.0
  C  C34  1  0.80094118  0.28745136  0.96167684  1.0
  C  C35  1  0.24843663  0.52218789  0.20554228  1.0
  C  C36  1  0.30974887  0.51652591  0.26714149  1.0
  C  C37  1  0.29712138  0.50819639  0.33456342  1.0
  C  C38  1  0.22469534  0.50933394  0.34184965  1.0
  C  C39  1  0.16649732  0.52119134  0.28349173  1.0
  C  C40  1  0.17718683  0.52582519  0.21408622  1.0
  C  C41  1  0.71945928  0.40292052  0.76127146  1.0
  C  C42  1  0.16404265  0.65982242  0.89083405  1.0
  C  C43  1  0.22245473  0.72799351  0.88879374  1.0
  C  C44  1  0.29006651  0.80477519  0.96728591  1.0
  C  C45  1  0.10562093  0.60049076  0.97468083  1.0
  C  C46  1  0.29656750  0.81480940  0.04741333  1.0
  C  C47  1  0.23427383  0.74960367  0.04873796  1.0
  C  C48  1  0.16907710  0.67092774  0.97065009  1.0
  C  C49  1  0.51198411  0.40102192  0.38083982  1.0
  C  C50  1  0.58089541  0.46455293  0.61117784  1.0
  C  C51  1  0.54986774  0.65261185  0.63241142  1.0
  C  C52  1  0.78345321  0.49070860  0.83186784  1.0
  C  C53  1  0.36298890  0.49964041  0.39804991  1.0
  C  C54  1  0.51821673  0.11681346  0.13419330  1.0
  C  C55  1  0.59030594  0.10984565  0.96704544  1.0
  C  C56  1  0.54335973  0.89340527  0.91510610  1.0
  C  C57  1  0.11129226  0.52904644  0.14488742  1.0
  C  C58  1  0.35863969  0.87585516  0.96863926  1.0
  C  C59  1  0.44943506  0.24135141  0.28140362  1.0
  C  C60  1  0.45168033  0.17305469  0.22329564  1.0
  C  C61  1  0.51816729  0.18938561  0.20110207  1.0
  C  C62  1  0.58341680  0.27640240  0.23904514  1.0
  C  C63  1  0.77727465  0.56153637  0.82873682  1.0
  C  C64  1  0.58140074  0.34543262  0.29647437  1.0
  C  C65  1  0.51424368  0.32812451  0.31771152  1.0
  C  C66  1  0.56170472  0.70509544  0.77921263  1.0
  C  C67  1  0.56300009  0.76432444  0.84966247  1.0
  C  C68  1  0.55883490  0.83802619  0.84969450  1.0
  C  C69  1  0.71984398  0.32939591  0.76792606  1.0
  C  C70  1  0.56175430  0.85634985  0.78347648  1.0
  C  C71  1  0.56735994  0.80054269  0.71651766  1.0
  C  C72  1  0.56319976  0.72269913  0.71222486  1.0
  C  C73  1  0.65900987  0.24515302  0.70026630  1.0
  C  C74  1  0.71008137  0.54817545  0.75430513  1.0
  C  C75  1  0.59943597  0.23091438  0.62011235  1.0
  C  C76  1  0.59827542  0.30110530  0.61102036  1.0
  C  C77  1  0.65273469  0.38946016  0.68277866  1.0
  C  C78  1  0.64905187  0.46491983  0.68258997  1.0
  C  C79  1  0.79587830  0.20855235  0.95475996  1.0
  C  C80  1  0.72702989  0.15119490  0.95678253  1.0
  C  C81  1  0.65986421  0.16926685  0.95888242  1.0
  Br  Br82  1  0.36261510  0.05557475  0.17433378  1.0
  Br  Br83  1  0.52836343  0.27322159  0.49430786  1.0
  O  O84  1  0.90430112  0.43498688  0.02453491  1.0
  O  O85  1  0.46441338  0.08683050  0.05494021  1.0
  O  O86  1  0.61649186  0.08753822  0.02345490  1.0
  O  O87  1  0.91506297  0.33315097  0.92639433  1.0
  O  O88  1  0.50951633  0.08527631  0.91714583  1.0
  O  O89  1  0.58699029  0.91534157  0.99604323  1.0
  O  O90  1  0.48681940  0.91498144  0.88564095  1.0
  O  O91  1  0.43726130  0.91022094  0.02846030  1.0
  O  O92  1  0.33430420  0.89811463  0.91040271  1.0
  O  O93  1  0.89189626  0.56683603  0.98398960  1.0
  O  O94  1  0.90205989  0.46649609  0.88404880  1.0
  O  O95  1  0.45415041  0.38086596  0.40356905  1.0
  O  O96  1  0.08202655  0.62506590  0.03097698  1.0
  O  O97  1  0.08018327  0.52037747  0.92194100  1.0
  O  O98  1  0.07604562  0.57547682  0.16712780  1.0
  O  O99  1  0.09455833  0.48433218  0.06711073  1.0
  O  O100  1  0.56981187  0.47999923  0.40874195  1.0
  O  O101  1  0.60979917  0.51260016  0.58158325  1.0
  O  O102  1  0.49973724  0.42272842  0.59015898  1.0
  O  O103  1  0.59718376  0.67279203  0.59745382  1.0
  O  O104  1  0.49025503  0.57578543  0.60347061  1.0
  O  O105  1  0.44235688  0.54107335  0.41695271  1.0
  O  O106  1  0.33529085  0.45062264  0.42870621  1.0
  O  O107  1  0.57381685  0.09268257  0.16235574  1.0
