# generated using pymatgen
data_Zn4H9C21N3O13
_symmetry_space_group_name_H-M   'P 1'
_cell_length_a   16.41313178
_cell_length_b   16.62590782
_cell_length_c   16.84516309
_cell_angle_alpha   117.39376443
_cell_angle_beta   118.11085208
_cell_angle_gamma   61.74721974
_symmetry_Int_Tables_number   1
_chemical_formula_structural   Zn4H9C21N3O13
_chemical_formula_sum   'Zn8 H18 C42 N6 O26'
_cell_volume   3401.18430934
_cell_formula_units_Z   2
loop_
 _symmetry_equiv_pos_site_id
 _symmetry_equiv_pos_as_xyz
  1  'x, y, z'
loop_
 _atom_site_type_symbol
 _atom_site_label
 _atom_site_symmetry_multiplicity
 _atom_site_fract_x
 _atom_site_fract_y
 _atom_site_fract_z
 _atom_site_occupancy
  Zn  Zn0  1  0.85646610  0.06122710  0.94915100  1.0
  Zn  Zn1  1  0.04291342  0.05381850  0.13582128  1.0
  Zn  Zn2  1  0.05085511  0.05590311  0.94926663  1.0
  Zn  Zn3  1  0.04687023  0.86850448  0.94499430  1.0
  Zn  Zn4  1  0.64926156  0.45649713  0.55351362  1.0
  Zn  Zn5  1  0.46325794  0.45974512  0.36542884  1.0
  Zn  Zn6  1  0.46013578  0.64382371  0.55135139  1.0
  Zn  Zn7  1  0.45606244  0.44704745  0.54591463  1.0
  H  H8  1  0.82009856  0.36919584  0.13939334  1.0
  H  H9  1  0.74204027  0.52702858  0.24341666  1.0
  H  H10  1  0.76446561  0.23028814  0.26278058  1.0
  H  H11  1  0.87493135  0.95143553  0.62338437  1.0
  H  H12  1  0.77730634  0.97818955  0.46503588  1.0
  H  H13  1  0.73813923  0.25296876  0.74894880  1.0
  H  H14  1  0.83619204  0.84066187  0.03324681  1.0
  H  H15  1  0.75766501  0.73139893  0.01151699  1.0
  H  H16  1  0.74568546  0.76112106  0.72853737  1.0
  H  H17  1  0.96449493  0.37453080  0.12886091  1.0
  H  H18  1  0.99662985  0.53081739  0.22653519  1.0
  H  H19  1  0.26952552  0.23147174  0.25838243  1.0
  H  H20  1  0.35425103  0.84372786  0.15332940  1.0
  H  H21  1  0.51631455  0.76362416  0.25589808  1.0
  H  H22  1  0.21819964  0.76297411  0.25883909  1.0
  H  H23  1  0.36810534  0.86307693  0.01741068  1.0
  H  H24  1  0.52706251  0.75280320  0.98593372  1.0
  H  H25  1  0.21885139  0.74206570  0.72310983  1.0
  C  C26  1  0.85120216  0.19323453  0.13680820  1.0
  C  C27  1  0.80036122  0.28770625  0.19519216  1.0
  C  C28  1  0.79188909  0.37206284  0.18798584  1.0
  C  C29  1  0.74748349  0.45960973  0.24504397  1.0
  C  C30  1  0.71388353  0.38588981  0.30666000  1.0
  C  C31  1  0.76059696  0.29422067  0.25599120  1.0
  C  C32  1  0.66125005  0.40098405  0.36805710  1.0
  C  C33  1  0.86712127  0.08812804  0.79465339  1.0
  C  C34  1  0.81337670  0.10054554  0.69833763  1.0
  C  C35  1  0.82568596  0.02259383  0.61777464  1.0
  C  C36  1  0.77221172  0.03803795  0.52976851  1.0
  C  C37  1  0.70484830  0.19860734  0.59669952  1.0
  C  C38  1  0.75008195  0.19052611  0.68788065  1.0
  C  C39  1  0.64558745  0.29605233  0.58230259  1.0
  C  C40  1  0.85075636  0.86827714  0.89476130  1.0
  C  C41  1  0.79839493  0.80777076  0.88218921  1.0
  C  C42  1  0.80030242  0.80059586  0.96259228  1.0
  C  C43  1  0.75644319  0.73964661  0.95013421  1.0
  C  C44  1  0.70818321  0.69812475  0.78916177  1.0
  C  C45  1  0.75019545  0.75655262  0.79310889  1.0
  C  C46  1  0.65444223  0.64090499  0.69521051  1.0
  C  C47  1  0.09658626  0.19690630  0.13101818  1.0
  C  C48  1  0.11464715  0.29105431  0.18723235  1.0
  C  C49  1  0.03740556  0.37609730  0.17712920  1.0
  C  C50  1  0.05583362  0.46279890  0.23032685  1.0
  C  C51  1  0.21851750  0.38652403  0.29404451  1.0
  C  C52  1  0.20743616  0.29601303  0.24834669  1.0
  C  C53  1  0.31721144  0.39923927  0.35501952  1.0
  C  C54  1  0.17675893  0.86260421  0.14092236  1.0
  C  C55  1  0.27364562  0.81034679  0.19918593  1.0
  C  C56  1  0.35848438  0.80924547  0.19734882  1.0
  C  C57  1  0.44860165  0.76404293  0.25400571  1.0
  C  C58  1  0.37666649  0.71859735  0.30724755  1.0
  C  C59  1  0.28237333  0.76429884  0.25565566  1.0
  C  C60  1  0.39529086  0.66037783  0.36511088  1.0
  C  C61  1  0.18697386  0.87007670  0.89204952  1.0
  C  C62  1  0.28175441  0.80878762  0.87286221  1.0
  C  C63  1  0.36923046  0.81370875  0.94713110  1.0
  C  C64  1  0.45714048  0.75344443  0.92910291  1.0
  C  C65  1  0.37765826  0.69387781  0.77200570  1.0
  C  C66  1  0.28546212  0.74705675  0.78289609  1.0
  C  C67  1  0.39104206  0.63326200  0.67653125  1.0
  N  N68  1  0.70876482  0.46747164  0.30374777  1.0
  N  N69  1  0.71374669  0.12446046  0.51827063  1.0
  N  N70  1  0.71194733  0.68787526  0.86539037  1.0
  N  N71  1  0.14487939  0.46900018  0.28708650  1.0
  N  N72  1  0.45865903  0.71892148  0.30817398  1.0
  N  N73  1  0.46225188  0.69447347  0.84320954  1.0
  O  O74  1  0.99932987  0.00827345  0.99758322  1.0
  O  O75  1  0.92866348  0.13839393  0.18053620  1.0
  O  O76  1  0.81279235  0.17751424  0.04766217  1.0
  O  O77  1  0.57979559  0.38507416  0.32419169  1.0
  O  O78  1  0.70161368  0.42982406  0.45675688  1.0
  O  O79  1  0.95989358  0.06469749  0.82253444  1.0
  O  O80  1  0.81478522  0.10228166  0.83953162  1.0
  O  O81  1  0.55633909  0.32929810  0.57700305  1.0
  O  O82  1  0.69304241  0.33512942  0.57786972  1.0
  O  O83  1  0.93523187  0.82281007  0.88497087  1.0
  O  O84  1  0.80736615  0.95840706  0.91616198  1.0
  O  O85  1  0.57188916  0.68848776  0.64954827  1.0
  O  O86  1  0.69727295  0.55077892  0.67116164  1.0
  O  O87  1  0.06424233  0.17943570  0.04141870  1.0
  O  O88  1  0.11363305  0.14392020  0.17629168  1.0
  O  O89  1  0.34264314  0.41080075  0.44224829  1.0
  O  O90  1  0.36396865  0.39870483  0.31209006  1.0
  O  O91  1  0.15121604  0.82064631  0.05242733  1.0
  O  O92  1  0.13116031  0.94552333  0.18581329  1.0
  O  O93  1  0.40379496  0.70369225  0.45225218  1.0
  O  O94  1  0.40262795  0.57288717  0.32045292  1.0
  O  O95  1  0.17758488  0.95851202  0.93738689  1.0
  O  O96  1  0.12430667  0.82982495  0.86399964  1.0
  O  O97  1  0.41683704  0.54304009  0.65693099  1.0
  O  O98  1  0.37766408  0.67937143  0.62604773  1.0
  O  O99  1  0.50534066  0.50300374  0.50393218  1.0
