# generated using pymatgen
data_Zn4H6C18N6O13
_symmetry_space_group_name_H-M   'P 1'
_cell_length_a   18.17495910
_cell_length_b   18.20318691
_cell_length_c   18.26399412
_cell_angle_alpha   119.85497770
_cell_angle_beta   90.06075852
_cell_angle_gamma   119.90064283
_symmetry_Int_Tables_number   1
_chemical_formula_structural   Zn4H6C18N6O13
_chemical_formula_sum   'Zn8 H12 C36 N12 O26'
_cell_volume   4286.17988233
_cell_formula_units_Z   2
loop_
 _symmetry_equiv_pos_site_id
 _symmetry_equiv_pos_as_xyz
  1  'x, y, z'
loop_
 _atom_site_type_symbol
 _atom_site_label
 _atom_site_symmetry_multiplicity
 _atom_site_fract_x
 _atom_site_fract_y
 _atom_site_fract_z
 _atom_site_occupancy
  Zn  Zn0  1  0.03969254  0.09257734  0.94028215  1.0
  Zn  Zn1  1  0.85895226  0.90940467  0.93812535  1.0
  Zn  Zn2  1  0.03596561  0.08540174  0.11101992  1.0
  Zn  Zn3  1  0.03515551  0.91022799  0.93820112  1.0
  Zn  Zn4  1  0.44991207  0.91397682  0.52659489  1.0
  Zn  Zn5  1  0.62426066  0.08678723  0.52598756  1.0
  Zn  Zn6  1  0.44709153  0.08761850  0.52673289  1.0
  Zn  Zn7  1  0.44810558  0.90875003  0.34816026  1.0
  H  H8  1  0.67266950  0.88380603  0.78673129  1.0
  H  H9  1  0.57321153  0.88321262  0.68645290  1.0
  H  H10  1  0.19555693  0.39991659  0.30900533  1.0
  H  H11  1  0.29475966  0.59847350  0.40863108  1.0
  H  H12  1  0.19686771  0.88105169  0.78655798  1.0
  H  H13  1  0.29538340  0.88032215  0.68616368  1.0
  H  H14  1  0.91557939  0.11305907  0.30326860  1.0
  H  H15  1  0.81725311  0.11325259  0.40383441  1.0
  H  H16  1  0.91194676  0.59695703  0.78925398  1.0
  H  H17  1  0.81244304  0.39848524  0.68941257  1.0
  H  H18  1  0.18371136  0.10998973  0.30015731  1.0
  H  H19  1  0.28224871  0.10976104  0.40054941  1.0
  C  C20  1  0.85519465  0.00243203  0.84399117  1.0
  C  C21  1  0.79318675  0.99826347  0.78448895  1.0
  C  C22  1  0.69996679  0.93202645  0.76188303  1.0
  C  C23  1  0.64636439  0.93171354  0.70780385  1.0
  C  C24  1  0.69013832  0.99758072  0.68059527  1.0
  C  C25  1  0.63495711  0.00121253  0.62221063  1.0
  C  C26  1  0.13417584  0.28071440  0.12673864  1.0
  C  C27  1  0.19297999  0.39755037  0.18939824  1.0
  C  C28  1  0.21808611  0.44611643  0.28207737  1.0
  C  C29  1  0.27162571  0.55325431  0.33584743  1.0
  C  C30  1  0.29578872  0.60319146  0.29259501  1.0
  C  C31  1  0.35383517  0.72002987  0.34708544  1.0
  C  C32  1  0.13323646  0.00025115  0.84405167  1.0
  C  C33  1  0.19107707  0.99598856  0.78475906  1.0
  C  C34  1  0.21778916  0.92942451  0.76184972  1.0
  C  C35  1  0.27093240  0.92907160  0.70773205  1.0
  C  C36  1  0.29309838  0.99519941  0.68076978  1.0
  C  C37  1  0.35185276  0.99910955  0.62244218  1.0
  C  C38  1  0.85257621  0.99701331  0.12190137  1.0
  C  C39  1  0.79804337  0.99993872  0.18437071  1.0
  C  C40  1  0.84239278  0.06514598  0.27689935  1.0
  C  C41  1  0.78933045  0.06526498  0.33112719  1.0
  C  C42  1  0.69604390  0.00023628  0.28838568  1.0
  C  C43  1  0.63418851  0.99792968  0.34369327  1.0
  C  C44  1  0.85027641  0.71791221  0.84195835  1.0
  C  C45  1  0.79522423  0.60098030  0.78300143  1.0
  C  C46  1  0.83890331  0.55147761  0.76280590  1.0
  C  C47  1  0.78521823  0.44438584  0.70894729  1.0
  C  C48  1  0.69217684  0.39535836  0.67952009  1.0
  C  C49  1  0.63023756  0.27848116  0.62104094  1.0
  C  C50  1  0.13140266  0.99534034  0.11911224  1.0
  C  C51  1  0.18894088  0.99794398  0.18127493  1.0
  C  C52  1  0.20938871  0.06250438  0.27377972  1.0
  C  C53  1  0.26250901  0.06236743  0.32787108  1.0
  C  C54  1  0.29124759  0.99786267  0.28508505  1.0
  C  C55  1  0.35055191  0.99549725  0.34077118  1.0
  N  N56  1  0.78028111  0.05922081  0.70381028  1.0
  N  N57  1  0.83182899  0.05957630  0.75581182  1.0
  N  N58  1  0.26978243  0.55241876  0.20296949  1.0
  N  N59  1  0.21839161  0.44964893  0.15138958  1.0
  N  N60  1  0.26475052  0.05703064  0.70419380  1.0
  N  N61  1  0.21377503  0.05747880  0.75625743  1.0
  N  N62  1  0.65688556  0.93879859  0.19885397  1.0
  N  N63  1  0.70787285  0.93857705  0.14681499  1.0
  N  N64  1  0.65369251  0.44693396  0.70042190  1.0
  N  N65  1  0.70527052  0.54983053  0.75221073  1.0
  N  N66  1  0.26943053  0.93705297  0.19558168  1.0
  N  N67  1  0.21812331  0.93695812  0.14361053  1.0
  O  O68  1  0.99183945  0.99913599  0.98028441  1.0
  O  O69  1  0.81466950  0.93849283  0.86488477  1.0
  O  O70  1  0.93914635  0.06701198  0.86741168  1.0
  O  O71  1  0.67595557  0.06331091  0.60029064  1.0
  O  O72  1  0.54990640  0.93946615  0.60047572  1.0
  O  O73  1  0.11087937  0.23465804  0.16589230  1.0
  O  O74  1  0.11337068  0.23919937  0.04343375  1.0
  O  O75  1  0.37512716  0.76237769  0.30574306  1.0
  O  O76  1  0.37591787  0.76506393  0.43185988  1.0
  O  O77  1  0.10681435  0.93361243  0.86225412  1.0
  O  O78  1  0.11658784  0.06734207  0.86999533  1.0
  O  O79  1  0.37144697  0.06000192  0.59946486  1.0
  O  O80  1  0.37658634  0.93868944  0.60192505  1.0
  O  O81  1  0.93772758  0.05936826  0.16131900  1.0
  O  O82  1  0.81113000  0.93528190  0.03844012  1.0
  O  O83  1  0.55027134  0.93349671  0.30308060  1.0
  O  O84  1  0.67458355  0.06346272  0.42815385  1.0
  O  O85  1  0.93530547  0.76254616  0.86471487  1.0
  O  O86  1  0.80909334  0.76085335  0.86351416  1.0
  O  O87  1  0.54616185  0.23576841  0.59983424  1.0
  O  O88  1  0.67065779  0.23386007  0.59883636  1.0
  O  O89  1  0.11052622  0.05947998  0.15871773  1.0
  O  O90  1  0.10896641  0.93189475  0.03550363  1.0
  O  O91  1  0.37369232  0.93457071  0.30031148  1.0
  O  O92  1  0.37163943  0.05733764  0.42515488  1.0
  O  O93  1  0.49210149  0.99973546  0.48092933  1.0
