# generated using pymatgen
data_ZnH14C29N2(OF)6
_symmetry_space_group_name_H-M   'P 1'
_cell_length_a   16.41594815
_cell_length_b   22.48417663
_cell_length_c   30.39883279
_cell_angle_alpha   90.00009218
_cell_angle_beta   90.00008941
_cell_angle_gamma   89.99993969
_symmetry_Int_Tables_number   1
_chemical_formula_structural   ZnH14C29N2(OF)6
_chemical_formula_sum   'Zn8 H112 C232 N16 O48 F48'
_cell_volume   11220.18114754
_cell_formula_units_Z   8
loop_
 _symmetry_equiv_pos_site_id
 _symmetry_equiv_pos_as_xyz
  1  'x, y, z'
loop_
 _atom_site_type_symbol
 _atom_site_label
 _atom_site_symmetry_multiplicity
 _atom_site_fract_x
 _atom_site_fract_y
 _atom_site_fract_z
 _atom_site_occupancy
  Zn  Zn0  1  0.93311860  0.53079930  0.78023297  1.0
  Zn  Zn1  1  0.56688286  0.96920143  0.28023263  1.0
  Zn  Zn2  1  0.43311894  0.96920052  0.21976775  1.0
  Zn  Zn3  1  0.06688162  0.53079912  0.71976745  1.0
  Zn  Zn4  1  0.06688216  0.46920192  0.21976697  1.0
  Zn  Zn5  1  0.43311791  0.03079802  0.71976764  1.0
  Zn  Zn6  1  0.56688060  0.03079803  0.78023285  1.0
  Zn  Zn7  1  0.93311854  0.46920166  0.28023281  1.0
  H  H8  1  0.90921519  0.47493834  0.86665631  1.0
  H  H9  1  0.59078542  0.02506198  0.36665645  1.0
  H  H10  1  0.40921531  0.02506180  0.13334346  1.0
  H  H11  1  0.09078512  0.47493751  0.63334405  1.0
  H  H12  1  0.09078558  0.52506244  0.13334396  1.0
  H  H13  1  0.40921413  0.97493746  0.63334349  1.0
  H  H14  1  0.59078546  0.97493765  0.86665647  1.0
  H  H15  1  0.90921321  0.52506193  0.36665688  1.0
  H  H16  1  0.79853327  0.46512843  0.92377983  1.0
  H  H17  1  0.70146872  0.03487246  0.42377942  1.0
  H  H18  1  0.29853261  0.03487090  0.07621985  1.0
  H  H19  1  0.20146583  0.46512873  0.57621985  1.0
  H  H20  1  0.20146627  0.53487190  0.07621978  1.0
  H  H21  1  0.29853144  0.96512788  0.57622052  1.0
  H  H22  1  0.70146755  0.96512944  0.92378042  1.0
  H  H23  1  0.79852945  0.53487160  0.42377975  1.0
  H  H24  1  0.64846072  0.57744962  0.84189939  1.0
  H  H25  1  0.85153909  0.92254991  0.34189956  1.0
  H  H26  1  0.14846217  0.92255043  0.15810076  1.0
  H  H27  1  0.35153883  0.57744953  0.65809977  1.0
  H  H28  1  0.35154005  0.42255027  0.15809923  1.0
  H  H29  1  0.14846106  0.07744998  0.65810070  1.0
  H  H30  1  0.85153860  0.07744902  0.84189918  1.0
  H  H31  1  0.64846072  0.42254947  0.34189918  1.0
  H  H32  1  0.76617056  0.58295338  0.78858851  1.0
  H  H33  1  0.73382849  0.91704514  0.28858924  1.0
  H  H34  1  0.26617278  0.91704612  0.21141108  1.0
  H  H35  1  0.23383020  0.58295306  0.71141164  1.0
  H  H36  1  0.23383020  0.41704695  0.21141044  1.0
  H  H37  1  0.26617167  0.08295475  0.71141136  1.0
  H  H38  1  0.73382798  0.08295288  0.78858853  1.0
  H  H39  1  0.76617118  0.41704550  0.28858862  1.0
  H  H40  1  0.54935315  0.35740080  0.95328705  1.0
  H  H41  1  0.95065197  0.14259837  0.45328664  1.0
  H  H42  1  0.04934920  0.14259872  0.04671374  1.0
  H  H43  1  0.45064855  0.35740262  0.54671317  1.0
  H  H44  1  0.45064762  0.64259953  0.04671256  1.0
  H  H45  1  0.04934818  0.85740063  0.54671363  1.0
  H  H46  1  0.95065157  0.85740117  0.95328685  1.0
  H  H47  1  0.54935100  0.64259949  0.45328743  1.0
  H  H48  1  0.55686945  0.65356823  0.98705628  1.0
  H  H49  1  0.94313017  0.84643162  0.48705578  1.0
  H  H50  1  0.05687059  0.84643188  0.01294445  1.0
  H  H51  1  0.44313181  0.65356954  0.51294461  1.0
  H  H52  1  0.44313009  0.34643166  0.01294267  1.0
  H  H53  1  0.05686999  0.15356872  0.51294448  1.0
  H  H54  1  0.94313139  0.15356979  0.98705582  1.0
  H  H55  1  0.55686895  0.34643258  0.48705664  1.0
  H  H56  1  0.51289323  0.89465429  0.62937097  1.0
  H  H57  1  0.98710657  0.60534566  0.12937186  1.0
  H  H58  1  0.01289454  0.60534630  0.37062973  1.0
  H  H59  1  0.48710829  0.89465190  0.87062890  1.0
  H  H60  1  0.48710692  0.10534471  0.37062766  1.0
  H  H61  1  0.01289358  0.39465378  0.87062742  1.0
  H  H62  1  0.98710562  0.39465537  0.62937120  1.0
  H  H63  1  0.51289369  0.10534488  0.12937202  1.0
  H  H64  1  0.58157765  0.82162330  0.58162899  1.0
  H  H65  1  0.91842324  0.67837789  0.08163057  1.0
  H  H66  1  0.08157837  0.67837724  0.41837144  1.0
  H  H67  1  0.41842581  0.82161972  0.91837014  1.0
  H  H68  1  0.41842617  0.17837659  0.41836996  1.0
  H  H69  1  0.08157631  0.32162334  0.91836970  1.0
  H  H70  1  0.91842300  0.32162354  0.58162949  1.0
  H  H71  1  0.58157373  0.17837750  0.08163079  1.0
  H  H72  1  0.79387923  0.83006480  0.66529315  1.0
  H  H73  1  0.70612068  0.66993568  0.16529388  1.0
  H  H74  1  0.29387851  0.66993691  0.33470646  1.0
  H  H75  1  0.20612238  0.83006299  0.83470763  1.0
  H  H76  1  0.20612153  0.16993642  0.33470646  1.0
  H  H77  1  0.29387887  0.33006421  0.83470572  1.0
  H  H78  1  0.70612164  0.33006387  0.66529446  1.0
  H  H79  1  0.79387777  0.16993646  0.16529362  1.0
  H  H80  1  0.72367252  0.90467913  0.71219990  1.0
  H  H81  1  0.77632692  0.59532056  0.21220028  1.0
  H  H82  1  0.22367299  0.59532219  0.28779998  1.0
  H  H83  1  0.27632716  0.90467805  0.78780130  1.0
  H  H84  1  0.27632703  0.09532165  0.28779971  1.0
  H  H85  1  0.22367324  0.40467888  0.78779933  1.0
  H  H86  1  0.77632717  0.40467992  0.71220028  1.0
  H  H87  1  0.72367360  0.09532051  0.21219996  1.0
  H  H88  1  0.97479667  0.66361297  0.63165071  1.0
  H  H89  1  0.52520193  0.83638788  0.13165018  1.0
  H  H90  1  0.47479885  0.83638727  0.36835234  1.0
  H  H91  1  0.02520337  0.66361226  0.86834986  1.0
  H  H92  1  0.02520349  0.33638825  0.36834988  1.0
  H  H93  1  0.47479762  0.16361201  0.86835008  1.0
  H  H94  1  0.52520253  0.16361351  0.63164990  1.0
  H  H95  1  0.97479740  0.33638541  0.13164744  1.0
  H  H96  1  0.90194605  0.73275535  0.58235936  1.0
  H  H97  1  0.59805362  0.76724540  0.08235880  1.0
  H  H98  1  0.40194481  0.76724539  0.41764265  1.0
  H  H99  1  0.09805449  0.73275513  0.91764130  1.0
  H  H100  1  0.09805594  0.26724632  0.41764124  1.0
  H  H101  1  0.40194653  0.23275494  0.91764146  1.0
  H  H102  1  0.59805412  0.23275628  0.58235926  1.0
  H  H103  1  0.90194262  0.26724432  0.08235732  1.0
  H  H104  1  0.69072475  0.72218408  0.66670329  1.0
  H  H105  1  0.80927456  0.77781595  0.16670326  1.0
  H  H106  1  0.19072630  0.77781726  0.33333333  1.0
  H  H107  1  0.30927581  0.72218441  0.83329670  1.0
  H  H108  1  0.30927602  0.27781625  0.33333333  1.0
  H  H109  1  0.19072560  0.22218438  0.83329668  1.0
  H  H110  1  0.80927507  0.22218263  0.66670337  1.0
  H  H111  1  0.69072496  0.27781815  0.16670422  1.0
  H  H112  1  0.76526762  0.65215041  0.71521863  1.0
  H  H113  1  0.73473060  0.84784840  0.21521960  1.0
  H  H114  1  0.26527320  0.84784910  0.28478096  1.0
  H  H115  1  0.23473181  0.65215158  0.78478062  1.0
  H  H116  1  0.23473131  0.34784725  0.28477966  1.0
  H  H117  1  0.26526894  0.15215149  0.78478066  1.0
  H  H118  1  0.73473183  0.15214901  0.71521832  1.0
  H  H119  1  0.76527260  0.34785009  0.21521899  1.0
  C  C120  1  0.85040163  0.49688046  0.86304399  1.0
  C  C121  1  0.64960019  0.00311986  0.36304382  1.0
  C  C122  1  0.35040118  0.00311928  0.13695574  1.0
  C  C123  1  0.14959926  0.49688048  0.63695606  1.0
  C  C124  1  0.14959975  0.50311988  0.13695562  1.0
  C  C125  1  0.35040058  0.99688003  0.63695579  1.0
  C  C126  1  0.64959836  0.99688061  0.86304453  1.0
  C  C127  1  0.85039907  0.50311897  0.36304387  1.0
  C  C128  1  0.78909848  0.49161681  0.89425897  1.0
  C  C129  1  0.71090159  0.00838401  0.39425853  1.0
  C  C130  1  0.28909855  0.00838342  0.10574136  1.0
  C  C131  1  0.21090058  0.49161672  0.60574041  1.0
  C  C132  1  0.21090106  0.50838441  0.10574031  1.0
  C  C133  1  0.28909734  0.99161543  0.60574140  1.0
  C  C134  1  0.71090160  0.99161647  0.89425891  1.0
  C  C135  1  0.78909653  0.50838406  0.39425854  1.0
  C  C136  1  0.71533421  0.52047535  0.88657610  1.0
  C  C137  1  0.78466756  0.97952561  0.38657529  1.0
  C  C138  1  0.21533362  0.97952553  0.11342476  1.0
  C  C139  1  0.28466542  0.52047566  0.61342299  1.0
  C  C140  1  0.28466595  0.47952454  0.11342318  1.0
  C  C141  1  0.21533260  0.02047383  0.61342530  1.0
  C  C142  1  0.78466532  0.02047525  0.88657550  1.0
  C  C143  1  0.71533169  0.47952556  0.38657497  1.0
  C  C144  1  0.70523237  0.55412653  0.84848123  1.0
  C  C145  1  0.79476807  0.94587301  0.34848072  1.0
  C  C146  1  0.20523315  0.94587347  0.15151962  1.0
  C  C147  1  0.29476721  0.55412692  0.65151889  1.0
  C  C148  1  0.29476718  0.44587380  0.15151805  1.0
  C  C149  1  0.20523269  0.05412599  0.65151987  1.0
  C  C150  1  0.79476700  0.05412687  0.84848064  1.0
  C  C151  1  0.70523111  0.44587297  0.34848006  1.0
  C  C152  1  0.76984144  0.55733807  0.81898013  1.0
  C  C153  1  0.73015891  0.94266097  0.31898022  1.0
  C  C154  1  0.26984293  0.94266144  0.18101980  1.0
  C  C155  1  0.23015813  0.55733768  0.68101967  1.0
  C  C156  1  0.23015932  0.44266227  0.18101948  1.0
  C  C157  1  0.26984186  0.05733848  0.68102005  1.0
  C  C158  1  0.73015784  0.05733801  0.81897981  1.0
  C  C159  1  0.76984020  0.44266088  0.31897961  1.0
  C  C160  1  0.62050153  0.45698367  0.92605912  1.0
  C  C161  1  0.87950473  0.04301679  0.42605689  1.0
  C  C162  1  0.12049658  0.04301669  0.07394370  1.0
  C  C163  1  0.37950002  0.45698426  0.57394089  1.0
  C  C164  1  0.37950106  0.54301578  0.07394148  1.0
  C  C165  1  0.12049604  0.95698355  0.57394437  1.0
  C  C166  1  0.87950235  0.95698453  0.92605722  1.0
  C  C167  1  0.62049587  0.54301651  0.42605576  1.0
  C  C168  1  0.55781011  0.45176228  0.96078147  1.0
  C  C169  1  0.94219442  0.04823825  0.46078029  1.0
  C  C170  1  0.05780627  0.04823946  0.03922064  1.0
  C  C171  1  0.44219206  0.45176231  0.53921820  1.0
  C  C172  1  0.44219370  0.54823806  0.03921912  1.0
  C  C173  1  0.05780573  0.95176164  0.53922064  1.0
  C  C174  1  0.94219388  0.95176265  0.96077996  1.0
  C  C175  1  0.55780505  0.54823892  0.46077911  1.0
  C  C176  1  0.53001579  0.50309041  0.98323465  1.0
  C  C177  1  0.96998747  0.99691032  0.48323469  1.0
  C  C178  1  0.03001246  0.99691150  0.01676605  1.0
  C  C179  1  0.46998569  0.50309170  0.51676507  1.0
  C  C180  1  0.46998863  0.49690948  0.01676627  1.0
  C  C181  1  0.03001268  0.00309046  0.51676722  1.0
  C  C182  1  0.96998648  0.00309150  0.98323421  1.0
  C  C183  1  0.53001203  0.49690952  0.48323256  1.0
  C  C184  1  0.56036488  0.56044895  0.97306359  1.0
  C  C185  1  0.93963714  0.93955131  0.47306353  1.0
  C  C186  1  0.06036105  0.93955294  0.02693682  1.0
  C  C187  1  0.43963591  0.56045029  0.52693621  1.0
  C  C188  1  0.43963832  0.43955139  0.02693635  1.0
  C  C189  1  0.06036180  0.06044902  0.52693806  1.0
  C  C190  1  0.93963728  0.06044873  0.97306279  1.0
  C  C191  1  0.56036181  0.43955227  0.47306208  1.0
  C  C192  1  0.62346201  0.56806847  0.93875605  1.0
  C  C193  1  0.87653991  0.93193305  0.43875527  1.0
  C  C194  1  0.12345950  0.93193248  0.06124539  1.0
  C  C195  1  0.37653877  0.56806948  0.56124474  1.0
  C  C196  1  0.37653815  0.43193098  0.06124290  1.0
  C  C197  1  0.12345902  0.06806684  0.56124598  1.0
  C  C198  1  0.87654126  0.06806785  0.93875520  1.0
  C  C199  1  0.62345894  0.43193263  0.43875454  1.0
  C  C200  1  0.52689876  0.39599731  0.97128939  1.0
  C  C201  1  0.97310519  0.10400235  0.47128962  1.0
  C  C202  1  0.02689542  0.10400312  0.02871104  1.0
  C  C203  1  0.47310348  0.39599818  0.52871021  1.0
  C  C204  1  0.47310444  0.60400214  0.02871021  1.0
  C  C205  1  0.02689496  0.89599665  0.52871130  1.0
  C  C206  1  0.97310412  0.89599765  0.97128922  1.0
  C  C207  1  0.52689545  0.60400393  0.47128907  1.0
  C  C208  1  0.53200892  0.61011502  0.99555296  1.0
  C  C209  1  0.96799195  0.88988529  0.49555319  1.0
  C  C210  1  0.03200814  0.88988600  0.00444677  1.0
  C  C211  1  0.46799241  0.61011540  0.50444690  1.0
  C  C212  1  0.46799246  0.38988487  0.00444698  1.0
  C  C213  1  0.03200821  0.11011460  0.50444774  1.0
  C  C214  1  0.96799262  0.11011567  0.99555284  1.0
  C  C215  1  0.53200835  0.38988582  0.49555205  1.0
  C  C216  1  0.57145952  0.94938840  0.70192447  1.0
  C  C217  1  0.92853928  0.55061127  0.20192459  1.0
  C  C218  1  0.07146069  0.55061170  0.29807595  1.0
  C  C219  1  0.42854010  0.94938767  0.79807678  1.0
  C  C220  1  0.42853881  0.05061016  0.29807514  1.0
  C  C221  1  0.07146027  0.44938951  0.79807502  1.0
  C  C222  1  0.92853886  0.44938952  0.70192432  1.0
  C  C223  1  0.57146127  0.05061044  0.20192447  1.0
  C  C224  1  0.61391213  0.90428863  0.67365890  1.0
  C  C225  1  0.88608781  0.59571142  0.17365904  1.0
  C  C226  1  0.11391210  0.59571233  0.32634155  1.0
  C  C227  1  0.38608938  0.90428622  0.82634164  1.0
  C  C228  1  0.38608925  0.09571081  0.32634104  1.0
  C  C229  1  0.11391113  0.40428892  0.82634057  1.0
  C  C230  1  0.88608867  0.40428979  0.67365839  1.0
  C  C231  1  0.61391138  0.09571145  0.17365896  1.0
  C  C232  1  0.57475383  0.88038024  0.63684101  1.0
  C  C233  1  0.92524661  0.61961973  0.13684154  1.0
  C  C234  1  0.07475387  0.61962031  0.36315974  1.0
  C  C235  1  0.42524772  0.88037698  0.86315917  1.0
  C  C236  1  0.42524632  0.11961921  0.36315860  1.0
  C  C237  1  0.07475172  0.38037971  0.86315807  1.0
  C  C238  1  0.92524628  0.38038136  0.63684053  1.0
  C  C239  1  0.57475183  0.11961935  0.13684142  1.0
  C  C240  1  0.61375553  0.83885944  0.61016892  1.0
  C  C241  1  0.88624361  0.66114092  0.11016980  1.0
  C  C242  1  0.11375620  0.66114152  0.38983186  1.0
  C  C243  1  0.38624608  0.83885672  0.88983055  1.0
  C  C244  1  0.38624584  0.16114090  0.38983036  1.0
  C  C245  1  0.11375532  0.33885941  0.88983014  1.0
  C  C246  1  0.88624457  0.33885926  0.61016973  1.0
  C  C247  1  0.61375347  0.16114184  0.11017037  1.0
  C  C248  1  0.69287861  0.81991543  0.62019137  1.0
  C  C249  1  0.80712177  0.68008495  0.12019253  1.0
  C  C250  1  0.19287862  0.68008591  0.37980849  1.0
  C  C251  1  0.30712302  0.81991319  0.87980874  1.0
  C  C252  1  0.30712215  0.18008490  0.37980824  1.0
  C  C253  1  0.19287838  0.31991538  0.87980774  1.0
  C  C254  1  0.80712215  0.31991487  0.62019211  1.0
  C  C255  1  0.69287592  0.18008536  0.12019251  1.0
  C  C256  1  0.73236525  0.84433974  0.65699248  1.0
  C  C257  1  0.76763403  0.65566072  0.15699227  1.0
  C  C258  1  0.23236457  0.65566201  0.34300807  1.0
  C  C259  1  0.26763574  0.84433790  0.84300831  1.0
  C  C260  1  0.26763551  0.15566104  0.34300778  1.0
  C  C261  1  0.23236491  0.34433917  0.84300767  1.0
  C  C262  1  0.76763497  0.34433921  0.65699220  1.0
  C  C263  1  0.73236381  0.15566155  0.15699228  1.0
  C  C264  1  0.69334832  0.88599308  0.68346851  1.0
  C  C265  1  0.80665164  0.61400655  0.18346926  1.0
  C  C266  1  0.19334763  0.61400782  0.31653135  1.0
  C  C267  1  0.30665200  0.88599159  0.81653135  1.0
  C  C268  1  0.30665244  0.11400637  0.31653044  1.0
  C  C269  1  0.19334669  0.38599290  0.81653035  1.0
  C  C270  1  0.80665314  0.38599385  0.68346924  1.0
  C  C271  1  0.69334694  0.11400741  0.18346892  1.0
  C  C272  1  0.91895173  0.61068029  0.70563047  1.0
  C  C273  1  0.58104647  0.88931983  0.20563005  1.0
  C  C274  1  0.41895423  0.88931955  0.29437023  1.0
  C  C275  1  0.08104838  0.61067982  0.79437004  1.0
  C  C276  1  0.08104843  0.38931960  0.29436880  1.0
  C  C277  1  0.41895125  0.11067961  0.79436923  1.0
  C  C278  1  0.58104837  0.11067857  0.70562971  1.0
  C  C279  1  0.91895482  0.38932096  0.20562858  1.0
  C  C280  1  0.87461002  0.65353397  0.67635501  1.0
  C  C281  1  0.62538871  0.84646565  0.17635523  1.0
  C  C282  1  0.37461388  0.84646546  0.32364664  1.0
  C  C283  1  0.12539003  0.65353353  0.82364522  1.0
  C  C284  1  0.12538892  0.34646503  0.32364426  1.0
  C  C285  1  0.37461084  0.15353424  0.82364503  1.0
  C  C286  1  0.62538932  0.15353354  0.67635461  1.0
  C  C287  1  0.87461256  0.34646592  0.17635373  1.0
  C  C288  1  0.91234459  0.67671510  0.63888420  1.0
  C  C289  1  0.58765463  0.82328487  0.13888403  1.0
  C  C290  1  0.41234555  0.82328474  0.36111848  1.0
  C  C291  1  0.08765603  0.67671522  0.86111640  1.0
  C  C292  1  0.08765556  0.32328523  0.36111541  1.0
  C  C293  1  0.41234492  0.17671457  0.86111656  1.0
  C  C294  1  0.58765521  0.17671515  0.63888343  1.0
  C  C295  1  0.91234474  0.32328467  0.13888190  1.0
  C  C296  1  0.87079225  0.71583949  0.61131111  1.0
  C  C297  1  0.62920689  0.78416087  0.11131060  1.0
  C  C298  1  0.37079274  0.78416082  0.38869087  1.0
  C  C299  1  0.12920771  0.71583874  0.88868954  1.0
  C  C300  1  0.12920791  0.28416129  0.38868916  1.0
  C  C301  1  0.37079265  0.21583902  0.88868967  1.0
  C  C302  1  0.62920803  0.21583996  0.61131104  1.0
  C  C303  1  0.87079001  0.28416070  0.11130941  1.0
  C  C304  1  0.79064824  0.73280080  0.62093020  1.0
  C  C305  1  0.70935154  0.76719914  0.12093007  1.0
  C  C306  1  0.29064872  0.76720003  0.37907105  1.0
  C  C307  1  0.20935230  0.73280041  0.87907046  1.0
  C  C308  1  0.20935314  0.26719954  0.37907006  1.0
  C  C309  1  0.29064861  0.23280075  0.87907020  1.0
  C  C310  1  0.70935205  0.23280031  0.62093020  1.0
  C  C311  1  0.79064663  0.26719992  0.12092948  1.0
  C  C312  1  0.75283995  0.70923094  0.65853293  1.0
  C  C313  1  0.74715811  0.79076863  0.15853319  1.0
  C  C314  1  0.25284273  0.79076946  0.34146763  1.0
  C  C315  1  0.24715880  0.70923089  0.84146737  1.0
  C  C316  1  0.24715898  0.29076850  0.34146668  1.0
  C  C317  1  0.25284144  0.20923126  0.84146708  1.0
  C  C318  1  0.74715986  0.20922998  0.65853296  1.0
  C  C319  1  0.75284075  0.29077033  0.15853289  1.0
  C  C320  1  0.79437463  0.67014658  0.68591852  1.0
  C  C321  1  0.70562412  0.82985261  0.18591911  1.0
  C  C322  1  0.29437849  0.82985335  0.31408208  1.0
  C  C323  1  0.20562539  0.67014695  0.81408108  1.0
  C  C324  1  0.20562492  0.32985242  0.31408043  1.0
  C  C325  1  0.29437603  0.17014728  0.81408148  1.0
  C  C326  1  0.70562532  0.17014521  0.68591818  1.0
  C  C327  1  0.79437781  0.32985383  0.18591852  1.0
  C  C328  1  0.74011621  0.77493397  0.59172053  1.0
  C  C329  1  0.75988288  0.72506635  0.09172072  1.0
  C  C330  1  0.24011562  0.72506689  0.40828002  1.0
  C  C331  1  0.25988367  0.77493272  0.90827985  1.0
  C  C332  1  0.25988456  0.22506592  0.40827973  1.0
  C  C333  1  0.24011666  0.27493488  0.90827955  1.0
  C  C334  1  0.75988393  0.27493344  0.59172057  1.0
  C  C335  1  0.74011344  0.22506539  0.09172009  1.0
  C  C336  1  0.68270678  0.73430361  0.56370263  1.0
  C  C337  1  0.81729284  0.76569620  0.06370259  1.0
  C  C338  1  0.18270621  0.76569685  0.43629853  1.0
  C  C339  1  0.31729254  0.73430238  0.93629803  1.0
  C  C340  1  0.31729338  0.26569717  0.43629764  1.0
  C  C341  1  0.18270610  0.23430413  0.93629735  1.0
  C  C342  1  0.81729394  0.23430348  0.56370206  1.0
  C  C343  1  0.68270274  0.26569618  0.06370256  1.0
  C  C344  1  0.79403930  0.81247409  0.55982692  1.0
  C  C345  1  0.70596152  0.68752482  0.05982734  1.0
  C  C346  1  0.29403886  0.68752539  0.44017335  1.0
  C  C347  1  0.20596112  0.81247429  0.94017318  1.0
  C  C348  1  0.20596085  0.18752580  0.44017335  1.0
  C  C349  1  0.29403986  0.31247462  0.94017325  1.0
  C  C350  1  0.70596129  0.31247494  0.55982691  1.0
  C  C351  1  0.79403538  0.18752560  0.05982676  1.0
  N  N352  1  0.84081636  0.52901502  0.82606331  1.0
  N  N353  1  0.65918402  0.97098448  0.32606337  1.0
  N  N354  1  0.34081717  0.97098488  0.17393668  1.0
  N  N355  1  0.15918326  0.52901467  0.67393711  1.0
  N  N356  1  0.15918441  0.47098665  0.17393630  1.0
  N  N357  1  0.34081614  0.02901452  0.67393689  1.0
  N  N358  1  0.65918359  0.02901457  0.82606326  1.0
  N  N359  1  0.84081507  0.47098433  0.32606315  1.0
  N  N360  1  0.65076900  0.51511697  0.91810425  1.0
  N  N361  1  0.84923408  0.98488583  0.41810318  1.0
  N  N362  1  0.15076648  0.98488485  0.08189721  1.0
  N  N363  1  0.34923064  0.51511672  0.58189451  1.0
  N  N364  1  0.34923177  0.48488247  0.08189503  1.0
  N  N365  1  0.15076607  0.01511539  0.58189741  1.0
  N  N366  1  0.84923185  0.01511593  0.91810305  1.0
  N  N367  1  0.65076403  0.48488406  0.41810247  1.0
  O  O368  1  0.64597737  0.41441192  0.90486980  1.0
  O  O369  1  0.85403675  0.08558449  0.40486661  1.0
  O  O370  1  0.14596633  0.08558531  0.09513337  1.0
  O  O371  1  0.35402729  0.41441480  0.59512917  1.0
  O  O372  1  0.35402888  0.58558753  0.09513211  1.0
  O  O373  1  0.14596584  0.91441407  0.59513431  1.0
  O  O374  1  0.85403322  0.91441458  0.90486657  1.0
  O  O375  1  0.64596556  0.58558553  0.40486649  1.0
  O  O376  1  0.65220656  0.61650873  0.92856327  1.0
  O  O377  1  0.84779350  0.88349187  0.42856240  1.0
  O  O378  1  0.15220477  0.88349131  0.07143886  1.0
  O  O379  1  0.34779475  0.61650891  0.57143726  1.0
  O  O380  1  0.34779237  0.38349160  0.07143535  1.0
  O  O381  1  0.15220544  0.11650757  0.57143984  1.0
  O  O382  1  0.84779417  0.11650947  0.92856075  1.0
  O  O383  1  0.65220540  0.38349276  0.42856136  1.0
  O  O384  1  0.50113275  0.96615754  0.68914961  1.0
  O  O385  1  0.99886601  0.53384210  0.18915043  1.0
  O  O386  1  0.00113399  0.53384217  0.31085074  1.0
  O  O387  1  0.49886623  0.96615722  0.81085165  1.0
  O  O388  1  0.49886618  0.03384102  0.31084966  1.0
  O  O389  1  0.00113415  0.46615912  0.81085049  1.0
  O  O390  1  0.99886495  0.46615994  0.68914953  1.0
  O  O391  1  0.50113575  0.03384089  0.18915026  1.0
  O  O392  1  0.60873489  0.96749226  0.73599948  1.0
  O  O393  1  0.89126279  0.53250748  0.23599988  1.0
  O  O394  1  0.10873599  0.53250692  0.26400162  1.0
  O  O395  1  0.39126470  0.96749193  0.76400178  1.0
  O  O396  1  0.39126344  0.03250674  0.26400012  1.0
  O  O397  1  0.10873554  0.46749285  0.76399972  1.0
  O  O398  1  0.89126417  0.46749297  0.73600029  1.0
  O  O399  1  0.60873850  0.03250618  0.23599980  1.0
  O  O400  1  0.88211140  0.59422032  0.74049396  1.0
  O  O401  1  0.61788873  0.90577988  0.24049490  1.0
  O  O402  1  0.38211377  0.90577865  0.25950704  1.0
  O  O403  1  0.11788935  0.59422019  0.75950555  1.0
  O  O404  1  0.11788754  0.40577912  0.25950565  1.0
  O  O405  1  0.38211021  0.09422046  0.75950569  1.0
  O  O406  1  0.61788943  0.09421812  0.74049322  1.0
  O  O407  1  0.88211325  0.40578148  0.24049241  1.0
  O  O408  1  0.98916515  0.59380705  0.69316159  1.0
  O  O409  1  0.51083606  0.90619304  0.19316146  1.0
  O  O410  1  0.48916888  0.90619318  0.30683983  1.0
  O  O411  1  0.01083681  0.59380755  0.80683857  1.0
  O  O412  1  0.01083501  0.40619328  0.30683801  1.0
  O  O413  1  0.48916410  0.09380551  0.80683815  1.0
  O  O414  1  0.51083432  0.09380627  0.69316142  1.0
  O  O415  1  0.98916639  0.40619323  0.19316005  1.0
  F  F416  1  0.64490749  0.76351213  0.52994969  1.0
  F  F417  1  0.85508837  0.73648672  0.02994899  1.0
  F  F418  1  0.14490828  0.73648792  0.47005144  1.0
  F  F419  1  0.35509118  0.76351138  0.97005134  1.0
  F  F420  1  0.35509206  0.23648776  0.47005123  1.0
  F  F421  1  0.14490508  0.26351361  0.97004898  1.0
  F  F422  1  0.85509066  0.26351242  0.52994882  1.0
  F  F423  1  0.64490289  0.23648628  0.02995057  1.0
  F  F424  1  0.62284919  0.71011287  0.58915784  1.0
  F  F425  1  0.87715233  0.78988566  0.08915689  1.0
  F  F426  1  0.12284851  0.78988675  0.41084360  1.0
  F  F427  1  0.37715017  0.71011154  0.91084345  1.0
  F  F428  1  0.37715219  0.28988657  0.41084308  1.0
  F  F429  1  0.12285026  0.21011200  0.91084238  1.0
  F  F430  1  0.87715164  0.21011225  0.58915601  1.0
  F  F431  1  0.62284572  0.28988746  0.08915748  1.0
  F  F432  1  0.72401296  0.68816446  0.54527033  1.0
  F  F433  1  0.77598721  0.81183576  0.04527130  1.0
  F  F434  1  0.22401177  0.81183553  0.45473087  1.0
  F  F435  1  0.27598643  0.68816463  0.95473027  1.0
  F  F436  1  0.27598842  0.31183588  0.45472960  1.0
  F  F437  1  0.22401233  0.18816680  0.95473127  1.0
  F  F438  1  0.77598717  0.18816481  0.54527006  1.0
  F  F439  1  0.72400885  0.31183392  0.04526900  1.0
  F  F440  1  0.83002319  0.77935475  0.52748357  1.0
  F  F441  1  0.66998058  0.72064276  0.02748269  1.0
  F  F442  1  0.33002340  0.72064382  0.47251739  1.0
  F  F443  1  0.16997667  0.77935593  0.97251649  1.0
  F  F444  1  0.16997757  0.22064514  0.47251637  1.0
  F  F445  1  0.33002384  0.27935713  0.97251626  1.0
  F  F446  1  0.66997858  0.27935696  0.52748320  1.0
  F  F447  1  0.83001800  0.22064396  0.02748180  1.0
  F  F448  1  0.85510676  0.84041952  0.58224164  1.0
  F  F449  1  0.64489230  0.65958166  0.08224231  1.0
  F  F450  1  0.35510690  0.65958125  0.41775803  1.0
  F  F451  1  0.14489302  0.84041838  0.91775718  1.0
  F  F452  1  0.14489339  0.15958125  0.41775797  1.0
  F  F453  1  0.35510786  0.34041867  0.91775697  1.0
  F  F454  1  0.64489325  0.34041997  0.58224224  1.0
  F  F455  1  0.85510653  0.15958284  0.08224144  1.0
  F  F456  1  0.75051693  0.85567647  0.53922548  1.0
  F  F457  1  0.74948322  0.64432107  0.03922786  1.0
  F  F458  1  0.25051722  0.64432305  0.46077410  1.0
  F  F459  1  0.24948160  0.85567712  0.96077369  1.0
  F  F460  1  0.24948261  0.14432298  0.46077446  1.0
  F  F461  1  0.25051998  0.35567793  0.96077405  1.0
  F  F462  1  0.74948415  0.35567862  0.53922715  1.0
  F  F463  1  0.75051490  0.14432144  0.03922691  1.0
