# generated using pymatgen
data_ZnH24C30(NO2)2
_symmetry_space_group_name_H-M   'P 1'
_cell_length_a   7.56695176
_cell_length_b   22.13958411
_cell_length_c   22.13939160
_cell_angle_alpha   120.00022417
_cell_angle_beta   90.00013542
_cell_angle_gamma   89.99987526
_symmetry_Int_Tables_number   1
_chemical_formula_structural   ZnH24C30(NO2)2
_chemical_formula_sum   'Zn3 H72 C90 N6 O12'
_cell_volume   3212.07558663
_cell_formula_units_Z   3
loop_
 _symmetry_equiv_pos_site_id
 _symmetry_equiv_pos_as_xyz
  1  'x, y, z'
loop_
 _atom_site_type_symbol
 _atom_site_label
 _atom_site_symmetry_multiplicity
 _atom_site_fract_x
 _atom_site_fract_y
 _atom_site_fract_z
 _atom_site_occupancy
  Zn  Zn0  1  0.00000143  0.50000047  0.50000006  1.0
  Zn  Zn1  1  0.00000657  0.49999948  0.99999982  1.0
  Zn  Zn2  1  0.00000380  0.99999921  0.49999901  1.0
  H  H3  1  0.53824312  0.38010669  0.34886072  1.0
  H  H4  1  0.67789604  0.30670248  0.32025804  1.0
  H  H5  1  0.65671999  0.34776308  0.26876341  1.0
  H  H6  1  0.90381007  0.40445812  0.27269549  1.0
  H  H7  1  0.06253580  0.41006364  0.20860043  1.0
  H  H8  1  0.27224345  0.42483259  0.13340780  1.0
  H  H9  1  0.60012601  0.55429059  0.31187046  1.0
  H  H10  1  0.38507539  0.53947523  0.38770566  1.0
  H  H11  1  0.39110869  0.47770858  0.08788608  1.0
  H  H12  1  0.61956500  0.47933328  0.00872659  1.0
  H  H13  1  0.02077471  0.51862233  0.14982061  1.0
  H  H14  1  0.81458079  0.51274050  0.23453281  1.0
  H  H15  1  0.53824909  0.65113663  0.03124052  1.0
  H  H16  1  0.67790772  0.67973636  0.98643956  1.0
  H  H17  1  0.65672339  0.73123356  0.07899507  1.0
  H  H18  1  0.90380987  0.72730281  0.13176254  1.0
  H  H19  1  0.06253852  0.79139721  0.20145973  1.0
  H  H20  1  0.27223862  0.86659119  0.29142620  1.0
  H  H21  1  0.60011345  0.68812897  0.24242915  1.0
  H  H22  1  0.38506510  0.61229294  0.15177534  1.0
  H  H23  1  0.39109645  0.91211035  0.38983036  1.0
  H  H24  1  0.61955439  0.99127071  0.47061261  1.0
  H  H25  1  0.02076119  0.85017728  0.36880589  1.0
  H  H26  1  0.81456692  0.76546469  0.27821249  1.0
  H  H27  1  0.53825936  0.96875911  0.61989859  1.0
  H  H28  1  0.67791544  0.01356099  0.69330071  1.0
  H  H29  1  0.65673666  0.92100676  0.65224243  1.0
  H  H30  1  0.90381631  0.86823864  0.59554352  1.0
  H  H31  1  0.06254777  0.79854034  0.58993621  1.0
  H  H32  1  0.27224935  0.70857569  0.57516448  1.0
  H  H33  1  0.60012847  0.75757657  0.44570347  1.0
  H  H34  1  0.38507598  0.84822810  0.46051963  1.0
  H  H35  1  0.39110184  0.61017526  0.52227955  1.0
  H  H36  1  0.61954811  0.52938952  0.52065808  1.0
  H  H37  1  0.02077021  0.63119378  0.48137540  1.0
  H  H38  1  0.81458364  0.72179027  0.48725815  1.0
  H  H39  1  0.46174573  0.61990089  0.65114229  1.0
  H  H40  1  0.32208753  0.69330250  0.67974186  1.0
  H  H41  1  0.34326359  0.65224346  0.73123772  1.0
  H  H42  1  0.09617615  0.59554894  0.72730409  1.0
  H  H43  1  0.93745702  0.58993612  0.79139686  1.0
  H  H44  1  0.72775466  0.57516039  0.86658700  1.0
  H  H45  1  0.39986549  0.44571074  0.68812400  1.0
  H  H46  1  0.61491479  0.46052923  0.61228991  1.0
  H  H47  1  0.60890528  0.52227605  0.91210229  1.0
  H  H48  1  0.38045689  0.52065604  0.99126638  1.0
  H  H49  1  0.97923001  0.48138160  0.85018373  1.0
  H  H50  1  0.18541467  0.48726396  0.76546818  1.0
  H  H51  1  0.46175298  0.34885583  0.96875944  1.0
  H  H52  1  0.32208775  0.32025923  0.01356107  1.0
  H  H53  1  0.34326811  0.26876203  0.92100691  1.0
  H  H54  1  0.09618559  0.27269538  0.86824074  1.0
  H  H55  1  0.93746091  0.20860204  0.79853911  1.0
  H  H56  1  0.72775552  0.13341014  0.70857594  1.0
  H  H57  1  0.39987805  0.31187288  0.75757957  1.0
  H  H58  1  0.61493037  0.38770734  0.84823079  1.0
  H  H59  1  0.60890034  0.08788941  0.61017642  1.0
  H  H60  1  0.38045033  0.00872802  0.52939139  1.0
  H  H61  1  0.97923692  0.14982040  0.63119036  1.0
  H  H62  1  0.18542326  0.23453455  0.72178770  1.0
  H  H63  1  0.46174932  0.03124222  0.38009903  1.0
  H  H64  1  0.32208795  0.98644085  0.30669807  1.0
  H  H65  1  0.34326542  0.07899562  0.34775707  1.0
  H  H66  1  0.09618577  0.13176112  0.40445828  1.0
  H  H67  1  0.93746091  0.20145890  0.41006127  1.0
  H  H68  1  0.72776065  0.29142511  0.42483423  1.0
  H  H69  1  0.39988021  0.24242527  0.55429531  1.0
  H  H70  1  0.61492609  0.15177271  0.53947819  1.0
  H  H71  1  0.60890156  0.38982764  0.47771705  1.0
  H  H72  1  0.38044736  0.47061076  0.47934083  1.0
  H  H73  1  0.97923980  0.36880911  0.51863158  1.0
  H  H74  1  0.18543165  0.27821419  0.51274736  1.0
  C  C75  1  0.66375864  0.35716542  0.32225051  1.0
  C  C76  1  0.81592030  0.40453580  0.36339216  1.0
  C  C77  1  0.93379320  0.42519071  0.32755723  1.0
  C  C78  1  0.08891663  0.46547591  0.35375853  1.0
  C  C79  1  0.20854320  0.47406720  0.30448548  1.0
  C  C80  1  0.17871202  0.44247575  0.23234119  1.0
  C  C81  1  0.29818267  0.45060393  0.18928618  1.0
  C  C82  1  0.45351996  0.49002418  0.21654506  1.0
  C  C83  1  0.48263222  0.52227592  0.28882211  1.0
  C  C84  1  0.36200919  0.51456863  0.33179217  1.0
  C  C85  1  0.58220832  0.49531038  0.16955543  1.0
  C  C86  1  0.52886961  0.48649839  0.10480942  1.0
  C  C87  1  0.65486074  0.48808262  0.06018255  1.0
  C  C88  1  0.87980489  0.50940934  0.13864966  1.0
  C  C89  1  0.76318082  0.50710799  0.18598626  1.0
  C  C90  1  0.66376324  0.67774582  0.03491041  1.0
  C  C91  1  0.81592109  0.63660559  0.04114310  1.0
  C  C92  1  0.93379162  0.67244030  0.09763442  1.0
  C  C93  1  0.08891654  0.64624027  0.11171944  1.0
  C  C94  1  0.20854071  0.69551389  0.16958369  1.0
  C  C95  1  0.17871222  0.76765814  0.21013498  1.0
  C  C96  1  0.29817516  0.81071219  0.26132022  1.0
  C  C97  1  0.45350865  0.78345422  0.27348684  1.0
  C  C98  1  0.48262086  0.71117592  0.23346023  1.0
  C  C99  1  0.36200290  0.66820794  0.18278191  1.0
  C  C100  1  0.58219590  0.83044287  0.32576403  1.0
  C  C101  1  0.52885604  0.89518687  0.38169653  1.0
  C  C102  1  0.65484999  0.93981546  0.42790737  1.0
  C  C103  1  0.87979399  0.86134932  0.37076619  1.0
  C  C104  1  0.76316841  0.81401071  0.32112846  1.0
  C  C105  1  0.66377366  0.96509059  0.64283921  1.0
  C  C106  1  0.81592594  0.95885825  0.59546486  1.0
  C  C107  1  0.93379650  0.90236437  0.57480694  1.0
  C  C108  1  0.08892251  0.88828029  0.53452149  1.0
  C  C109  1  0.20855075  0.83041791  0.52593170  1.0
  C  C110  1  0.17871996  0.78986721  0.55752346  1.0
  C  C111  1  0.29818696  0.73868230  0.54939294  1.0
  C  C112  1  0.45352154  0.72651784  0.50996970  1.0
  C  C113  1  0.48263474  0.76654437  0.47771928  1.0
  C  C114  1  0.36201272  0.81722285  0.48542810  1.0
  C  C115  1  0.58221023  0.67424132  0.50468191  1.0
  C  C116  1  0.52886135  0.61830778  0.51349234  1.0
  C  C117  1  0.65485013  0.57209592  0.51190945  1.0
  C  C118  1  0.87980043  0.62923623  0.49058650  1.0
  C  C119  1  0.76318133  0.67887471  0.49288720  1.0
  C  C120  1  0.33622890  0.64284112  0.67775062  1.0
  C  C121  1  0.18407384  0.59546657  0.63660598  1.0
  C  C122  1  0.06620094  0.57481113  0.67244200  1.0
  C  C123  1  0.91107752  0.53452593  0.64623935  1.0
  C  C124  1  0.79144698  0.52593621  0.69551273  1.0
  C  C125  1  0.82127948  0.55752453  0.76765545  1.0
  C  C126  1  0.70181412  0.54939270  0.81070909  1.0
  C  C127  1  0.54647683  0.50997245  0.78344976  1.0
  C  C128  1  0.51735928  0.47772542  0.71117371  1.0
  C  C129  1  0.63797967  0.48543531  0.66820360  1.0
  C  C130  1  0.41779375  0.50468364  0.83043944  1.0
  C  C131  1  0.47114304  0.51349093  0.89518265  1.0
  C  C132  1  0.34515323  0.51190879  0.93981192  1.0
  C  C133  1  0.12020115  0.49059042  0.86135124  1.0
  C  C134  1  0.23681993  0.49289072  0.81401231  1.0
  C  C135  1  0.33623487  0.32224873  0.96509105  1.0
  C  C136  1  0.18408495  0.36339209  0.95885857  1.0
  C  C137  1  0.06620913  0.32755945  0.90236783  1.0
  C  C138  1  0.91108554  0.35375897  0.88828210  1.0
  C  C139  1  0.79145608  0.30448535  0.83041830  1.0
  C  C140  1  0.82128456  0.23234214  0.78986663  1.0
  C  C141  1  0.70181766  0.18928809  0.73868230  1.0
  C  C142  1  0.54648153  0.21654711  0.72651891  1.0
  C  C143  1  0.51737064  0.28882436  0.76654545  1.0
  C  C144  1  0.63799125  0.33179287  0.81722313  1.0
  C  C145  1  0.41779560  0.16955741  0.67424165  1.0
  C  C146  1  0.47114074  0.10481185  0.61830927  1.0
  C  C147  1  0.34514944  0.06018325  0.57209662  1.0
  C  C148  1  0.12020279  0.13864992  0.62923400  1.0
  C  C149  1  0.23682441  0.18598749  0.67887347  1.0
  C  C150  1  0.33622973  0.03491127  0.35716003  1.0
  C  C151  1  0.18407614  0.04114308  0.40453502  1.0
  C  C152  1  0.06620690  0.09763435  0.42519344  1.0
  C  C153  1  0.91108221  0.11171738  0.46547746  1.0
  C  C154  1  0.79145661  0.16958133  0.47406759  1.0
  C  C155  1  0.82128740  0.21013255  0.44247564  1.0
  C  C156  1  0.70182172  0.26131799  0.45060642  1.0
  C  C157  1  0.54648714  0.27348401  0.49003044  1.0
  C  C158  1  0.51737394  0.23345747  0.52228131  1.0
  C  C159  1  0.63798936  0.18277900  0.51457159  1.0
  C  C160  1  0.41779977  0.32576209  0.49531901  1.0
  C  C161  1  0.47114337  0.38169355  0.48650574  1.0
  C  C162  1  0.34514930  0.42790540  0.48809042  1.0
  C  C163  1  0.12020560  0.37076717  0.50941893  1.0
  C  C164  1  0.23683000  0.32112923  0.50711760  1.0
  N  N165  1  0.82725911  0.49956991  0.07642298  1.0
  N  N166  1  0.82724970  0.92357419  0.42314998  1.0
  N  N167  1  0.82724975  0.57684979  0.50042566  1.0
  N  N168  1  0.17275354  0.50042777  0.92357507  1.0
  N  N169  1  0.17275105  0.07642296  0.57684962  1.0
  N  N170  1  0.17275232  0.42315049  0.49957640  1.0
  O  O171  1  0.14131169  0.49565859  0.41720409  1.0
  O  O172  1  0.82642877  0.42094536  0.42743330  1.0
  O  O173  1  0.14131157  0.58279506  0.07845728  1.0
  O  O174  1  0.82643024  0.57256420  0.99351242  1.0
  O  O175  1  0.14131063  0.92154383  0.50433867  1.0
  O  O176  1  0.82643987  0.00648757  0.57905548  1.0
  O  O177  1  0.85868642  0.50434221  0.58279372  1.0
  O  O178  1  0.17357066  0.57905545  0.57256587  1.0
  O  O179  1  0.85869579  0.41720679  0.92154377  1.0
  O  O180  1  0.17358108  0.42743504  0.00648822  1.0
  O  O181  1  0.85868748  0.07845593  0.49566088  1.0
  O  O182  1  0.17357145  0.99351167  0.42094471  1.0
