# generated using pymatgen
data_CuH3C5N2
_symmetry_space_group_name_H-M   'P 1'
_cell_length_a   16.24405235
_cell_length_b   21.82221688
_cell_length_c   22.81927556
_cell_angle_alpha   89.93018995
_cell_angle_beta   89.27303212
_cell_angle_gamma   89.96561300
_symmetry_Int_Tables_number   1
_chemical_formula_structural   CuH3C5N2
_chemical_formula_sum   'Cu12 H36 C60 N24'
_cell_volume   8088.34646388
_cell_formula_units_Z   12
loop_
 _symmetry_equiv_pos_site_id
 _symmetry_equiv_pos_as_xyz
  1  'x, y, z'
loop_
 _atom_site_type_symbol
 _atom_site_label
 _atom_site_symmetry_multiplicity
 _atom_site_fract_x
 _atom_site_fract_y
 _atom_site_fract_z
 _atom_site_occupancy
  Cu  Cu0  1  0.76607749  0.10980215  0.20390058  1.0
  Cu  Cu1  1  0.79244596  0.13539739  0.07109998  1.0
  Cu  Cu2  1  0.86107113  0.22828190  0.16874649  1.0
  Cu  Cu3  1  0.23576453  0.38727947  0.70085483  1.0
  Cu  Cu4  1  0.21134537  0.36297976  0.56795894  1.0
  Cu  Cu5  1  0.13654724  0.27173485  0.66700726  1.0
  Cu  Cu6  1  0.26567974  0.88824545  0.29841801  1.0
  Cu  Cu7  1  0.29058345  0.86610337  0.43238474  1.0
  Cu  Cu8  1  0.36412355  0.77345525  0.33480519  1.0
  Cu  Cu9  1  0.73128410  0.60859958  0.79711614  1.0
  Cu  Cu10  1  0.71032304  0.63750728  0.92859313  1.0
  Cu  Cu11  1  0.63824633  0.72917323  0.82970227  1.0
  H  H12  1  0.33306654  0.59947891  0.51911020  1.0
  H  H13  1  0.50565125  0.73041817  0.58671722  1.0
  H  H14  1  0.48342052  0.55231330  0.66659483  1.0
  H  H15  1  0.66704836  0.90261519  0.01696521  1.0
  H  H16  1  0.49103223  0.77090118  0.08201180  1.0
  H  H17  1  0.51972485  0.94339731  0.17040578  1.0
  H  H18  1  0.83234606  0.40203769  0.98227351  1.0
  H  H19  1  0.00879938  0.27096277  0.91654330  1.0
  H  H20  1  0.98330464  0.44587862  0.83141324  1.0
  H  H21  1  0.01765445  0.05527544  0.33096792  1.0
  H  H22  1  0.98907143  0.23008569  0.41595416  1.0
  H  H23  1  0.16479939  0.09968909  0.48081069  1.0
  H  H24  1  0.63117214  0.00504212  0.20082233  1.0
  H  H25  1  0.70062210  0.01695938  0.01721987  1.0
  H  H26  1  0.97363421  0.24815978  0.28143337  1.0
  H  H27  1  0.85112751  0.07715413  0.32298383  1.0
  H  H28  1  0.86267444  0.20125706  0.95720288  1.0
  H  H29  1  0.90176851  0.34286785  0.08649999  1.0
  H  H30  1  0.36942907  0.49146214  0.69794932  1.0
  H  H31  1  0.30693406  0.48144840  0.51421292  1.0
  H  H32  1  0.02330181  0.25296754  0.78172704  1.0
  H  H33  1  0.15106618  0.42164800  0.82130167  1.0
  H  H34  1  0.14031057  0.29870037  0.45503527  1.0
  H  H35  1  0.09032337  0.15900238  0.58543359  1.0
  H  H36  1  0.12989916  0.99168915  0.30065369  1.0
  H  H37  1  0.19771557  0.98624083  0.48358956  1.0
  H  H38  1  0.48024584  0.75346679  0.22138084  1.0
  H  H39  1  0.34888089  0.91931966  0.17656267  1.0
  H  H40  1  0.35709954  0.80014492  0.54696716  1.0
  H  H41  1  0.40579986  0.66041699  0.41663912  1.0
  H  H42  1  0.86461493  0.50273204  0.79941105  1.0
  H  H43  1  0.80703779  0.52124256  0.98445638  1.0
  H  H44  1  0.52875579  0.74925229  0.71520776  1.0
  H  H45  1  0.64217714  0.57315279  0.68078243  1.0
  H  H46  1  0.63981720  0.70314408  0.04135710  1.0
  H  H47  1  0.59462759  0.84356074  0.91159061  1.0
  C  C48  1  0.40405706  0.56806673  0.59291846  1.0
  C  C49  1  0.38211661  0.61049358  0.54955622  1.0
  C  C50  1  0.41805044  0.66894885  0.54715143  1.0
  C  C51  1  0.47690245  0.68526541  0.58891380  1.0
  C  C52  1  0.50137359  0.64300754  0.63169342  1.0
  C  C53  1  0.46519111  0.58469535  0.63267654  1.0
  C  C54  1  0.59795672  0.93089972  0.09404520  1.0
  C  C55  1  0.61796030  0.89073016  0.04801194  1.0
  C  C56  1  0.58019458  0.83315486  0.04350907  1.0
  C  C57  1  0.52108051  0.81541831  0.08573581  1.0
  C  C58  1  0.49853169  0.85547032  0.13119879  1.0
  C  C59  1  0.53671263  0.91294532  0.13436575  1.0
  C  C60  1  0.90351723  0.43173607  0.90666406  1.0
  C  C61  1  0.88213387  0.39059915  0.95165929  1.0
  C  C62  1  0.91939236  0.33270863  0.95542414  1.0
  C  C63  1  0.97911462  0.31570756  0.91340318  1.0
  C  C64  1  0.00293801  0.35670072  0.86895739  1.0
  C  C65  1  0.96544740  0.41451568  0.86660382  1.0
  C  C66  1  0.09572187  0.06957032  0.40570245  1.0
  C  C67  1  0.03458440  0.08661154  0.36602827  1.0
  C  C68  1  0.99649147  0.14425894  0.36858329  1.0
  C  C69  1  0.01914074  0.18545725  0.41268945  1.0
  C  C70  1  0.07819522  0.16868136  0.45422961  1.0
  C  C71  1  0.11579600  0.11091325  0.45035553  1.0
  C  C72  1  0.65510537  0.01700341  0.15769343  1.0
  C  C73  1  0.64398807  0.98754251  0.10365866  1.0
  C  C74  1  0.69159030  0.02245431  0.06411338  1.0
  C  C75  1  0.93396642  0.20822623  0.28414920  1.0
  C  C76  1  0.93584466  0.15876777  0.32341904  1.0
  C  C77  1  0.87233069  0.12032429  0.30456028  1.0
  C  C78  1  0.86900222  0.22882492  0.99644689  1.0
  C  C79  1  0.89397695  0.29002301  0.00204868  1.0
  C  C80  1  0.88714510  0.30153551  0.06236232  1.0
  C  C81  1  0.34739556  0.47978628  0.65467864  1.0
  C  C82  1  0.35962414  0.51029440  0.60105855  1.0
  C  C83  1  0.31424223  0.47541410  0.56107194  1.0
  C  C84  1  0.06427251  0.29214410  0.78378988  1.0
  C  C85  1  0.06376172  0.34152734  0.82306352  1.0
  C  C86  1  0.12860088  0.37888372  0.80326019  1.0
  C  C87  1  0.13145588  0.27157811  0.49451500  1.0
  C  C88  1  0.10311929  0.21120706  0.50060373  1.0
  C  C89  1  0.10771962  0.19977565  0.56096115  1.0
  C  C90  1  0.15343301  0.98127274  0.34383762  1.0
  C  C91  1  0.14172995  0.01257093  0.39704458  1.0
  C  C92  1  0.18913882  0.97908404  0.43701703  1.0
  C  C93  1  0.43837739  0.79206026  0.21802889  1.0
  C  C94  1  0.43783984  0.84022098  0.17728053  1.0
  C  C95  1  0.37211684  0.87736319  0.19589858  1.0
  C  C96  1  0.36590556  0.77304992  0.50751605  1.0
  C  C97  1  0.39289673  0.71229623  0.50144690  1.0
  C  C98  1  0.38891904  0.70129952  0.44103265  1.0
  C  C99  1  0.84360072  0.51640774  0.84279646  1.0
  C  C100  1  0.85770675  0.48860244  0.89729734  1.0
  C  C101  1  0.81296213  0.52507597  0.93717053  1.0
  C  C102  1  0.56616417  0.70803731  0.71423316  1.0
  C  C103  1  0.56186576  0.65718739  0.67685641  1.0
  C  C104  1  0.62315453  0.61761264  0.69742722  1.0
  C  C105  1  0.63211793  0.73039572  0.00198905  1.0
  C  C106  1  0.60522014  0.79112910  0.99629735  1.0
  C  C107  1  0.61082867  0.80257863  0.93588465  1.0
  N  N108  1  0.72821470  0.06902775  0.09261772  1.0
  N  N109  1  0.70578223  0.06538940  0.15081440  1.0
  N  N110  1  0.83550069  0.14501263  0.25742398  1.0
  N  N111  1  0.87415510  0.19940564  0.24431164  1.0
  N  N112  1  0.86047750  0.25074295  0.09065417  1.0
  N  N113  1  0.84844133  0.20570623  0.04956375  1.0
  N  N114  1  0.27763123  0.42793994  0.58904705  1.0
  N  N115  1  0.29804005  0.43091226  0.64724719  1.0
  N  N116  1  0.16492071  0.35359896  0.75559691  1.0
  N  N117  1  0.12458252  0.29997037  0.74306093  1.0
  N  N118  1  0.13638220  0.24986259  0.58881434  1.0
  N  N119  1  0.15188674  0.29432332  0.54739851  1.0
  N  N120  1  0.22621494  0.93158787  0.40952265  1.0
  N  N121  1  0.20426397  0.93319492  0.35154724  1.0
  N  N122  1  0.33622316  0.85315103  0.24426455  1.0
  N  N123  1  0.37771536  0.80041160  0.25841722  1.0
  N  N124  1  0.36197878  0.75191681  0.41309432  1.0
  N  N125  1  0.34692448  0.79638751  0.45449088  1.0
  N  N126  1  0.77506535  0.57099057  0.90834594  1.0
  N  N127  1  0.79386474  0.56533177  0.84971259  1.0
  N  N128  1  0.66091737  0.64297058  0.74373907  1.0
  N  N129  1  0.62512143  0.69894129  0.75467283  1.0
  N  N130  1  0.63873011  0.75211000  0.90765268  1.0
  N  N131  1  0.65268873  0.70743565  0.94888429  1.0
