# generated using pymatgen
data_Zn2H28C25N4O9
_symmetry_space_group_name_H-M   'P 1'
_cell_length_a   9.88772831
_cell_length_b   11.28902934
_cell_length_c   16.07989579
_cell_angle_alpha   89.70082381
_cell_angle_beta   81.58228828
_cell_angle_gamma   82.56423784
_symmetry_Int_Tables_number   1
_chemical_formula_structural   Zn2H28C25N4O9
_chemical_formula_sum   'Zn2 H28 C25 N4 O9'
_cell_volume   1760.44418073
_cell_formula_units_Z   1
loop_
 _symmetry_equiv_pos_site_id
 _symmetry_equiv_pos_as_xyz
  1  'x, y, z'
loop_
 _atom_site_type_symbol
 _atom_site_label
 _atom_site_symmetry_multiplicity
 _atom_site_fract_x
 _atom_site_fract_y
 _atom_site_fract_z
 _atom_site_occupancy
  Zn  Zn0  1  0.63491971  0.49779966  0.48570178  1.0
  Zn  Zn1  1  0.35140932  0.48350682  0.52359992  1.0
  H  H2  1  0.47476800  0.68625424  0.94256951  1.0
  H  H3  1  0.68133719  0.57934919  0.05405352  1.0
  H  H4  1  0.65022730  0.63429835  0.91360332  1.0
  H  H5  1  0.58581508  0.30525808  0.92096980  1.0
  H  H6  1  0.35403287  0.09542988  0.51159752  1.0
  H  H7  1  0.59320512  0.88257553  0.47758105  1.0
  H  H8  1  0.66943082  0.08933999  0.47037064  1.0
  H  H9  1  0.27791511  0.89130743  0.52214221  1.0
  H  H10  1  0.11285507  0.58197488  0.43923465  1.0
  H  H11  1  0.84499902  0.62716151  0.48526849  1.0
  H  H12  1  0.53402678  0.68564916  0.07995856  1.0
  H  H13  1  0.11205339  0.38257607  0.55647586  1.0
  H  H14  1  0.28456059  0.45401458  0.09390405  1.0
  H  H15  1  0.29754781  0.60620419  0.07282835  1.0
  H  H16  1  0.29187183  0.55098898  0.93197033  1.0
  H  H17  1  0.33682316  0.39781432  0.95060876  1.0
  H  H18  1  0.48982435  0.31470535  0.05820690  1.0
  H  H19  1  0.13422101  0.26212464  0.43802650  1.0
  H  H20  1  0.07632093  0.30533911  0.34085577  1.0
  H  H21  1  0.95285571  0.12416196  0.46299873  1.0
  H  H22  1  0.89702479  0.16658030  0.36664856  1.0
  H  H23  1  0.13087141  0.08038366  0.28812068  1.0
  H  H24  1  0.05283915  0.97081757  0.35045619  1.0
  H  H25  1  0.18781141  0.03789751  0.38499384  1.0
  H  H26  1  0.77653970  0.34488694  0.04968131  1.0
  H  H27  1  0.68139365  0.34947908  0.14599616  1.0
  H  H28  1  0.77837250  0.47829307  0.92396636  1.0
  H  H29  1  0.78609473  0.35946330  0.86488496  1.0
  C  C30  1  0.41597089  0.72181735  0.50777956  1.0
  C  C31  1  0.55540494  0.61291069  0.95209346  1.0
  C  C32  1  0.51250571  0.49535804  0.92052953  1.0
  C  C33  1  0.60879608  0.38684376  0.95001816  1.0
  C  C34  1  0.56958564  0.37549909  0.04769817  1.0
  C  C35  1  0.52058138  0.49372530  0.82966110  1.0
  C  C36  1  0.48503658  0.50071898  0.17542068  1.0
  C  C37  1  0.48468122  0.49758990  0.25110415  1.0
  C  C38  1  0.38632634  0.85387683  0.50752346  1.0
  C  C39  1  0.48653132  0.92525730  0.49210966  1.0
  C  C40  1  0.56077431  0.12563806  0.48557415  1.0
  C  C41  1  0.49088801  0.49463476  0.34043485  1.0
  C  C42  1  0.46094014  0.05345901  0.49636240  1.0
  C  C43  1  0.07714988  0.50478584  0.47333681  1.0
  C  C44  1  0.94264931  0.46731136  0.46022325  1.0
  C  C45  1  0.53032143  0.25731267  0.49516778  1.0
  C  C46  1  0.51593270  0.49100632  0.66443856  1.0
  C  C47  1  0.57242064  0.60123919  0.04571291  1.0
  C  C48  1  0.34803044  0.51474959  0.05748673  1.0
  C  C49  1  0.36237035  0.48756870  0.96246273  1.0
  C  C50  1  0.52112321  0.49191638  0.75398492  1.0
  C  C51  1  0.49295874  0.50014058  0.08482766  1.0
  C  C52  1  0.04518832  0.26974113  0.40362991  1.0
  C  C53  1  0.98868066  0.15175725  0.39862962  1.0
  C  C54  1  0.09623145  0.05520552  0.35313347  1.0
  N  N55  1  0.14925111  0.45482051  0.52654775  1.0
  N  N56  1  0.83162453  0.54195749  0.47050006  1.0
  N  N57  1  0.68802114  0.32423741  0.08460587  1.0
  N  N58  1  0.75598196  0.39263103  0.92440457  1.0
  O  O59  1  0.54153367  0.67442445  0.49722340  1.0
  O  O60  1  0.31073130  0.66523711  0.51960212  1.0
  O  O61  1  0.60947217  0.49978645  0.36129524  1.0
  O  O62  1  0.37908098  0.48689667  0.38970807  1.0
  O  O63  1  0.63393724  0.31500936  0.48314012  1.0
  O  O64  1  0.40431184  0.30258930  0.51490023  1.0
  O  O65  1  0.62912891  0.49236318  0.61542866  1.0
  O  O66  1  0.39681474  0.48908621  0.64313774  1.0
  O  O67  1  0.93105069  0.35312416  0.44716470  1.0
