# generated using pymatgen
data_AlH9C21N(O2F)3
_symmetry_space_group_name_H-M   'P 1'
_cell_length_a   4.10636043
_cell_length_b   23.38773918
_cell_length_c   23.38765010
_cell_angle_alpha   59.99952795
_cell_angle_beta   89.99920737
_cell_angle_gamma   90.00030895
_symmetry_Int_Tables_number   1
_chemical_formula_structural   AlH9C21N(O2F)3
_chemical_formula_sum   'Al3 H27 C63 N3 O18 F9'
_cell_volume   1945.18298416
_cell_formula_units_Z   3
loop_
 _symmetry_equiv_pos_site_id
 _symmetry_equiv_pos_as_xyz
  1  'x, y, z'
loop_
 _atom_site_type_symbol
 _atom_site_label
 _atom_site_symmetry_multiplicity
 _atom_site_fract_x
 _atom_site_fract_y
 _atom_site_fract_z
 _atom_site_occupancy
  Al  Al0  1  0.00511196  0.49972411  0.49971102  1.0
  Al  Al1  1  0.00511330  0.83305389  0.83389661  1.0
  Al  Al2  1  0.00506655  0.16723271  0.16639780  1.0
  H  H3  1  0.79407256  0.07868346  0.05173472  1.0
  H  H4  1  0.79043104  0.07750958  0.94693564  1.0
  H  H5  1  0.21670514  0.25620409  0.85793103  1.0
  H  H6  1  0.21678516  0.05252805  0.92288332  1.0
  H  H7  1  0.79410596  0.03627392  0.74534006  1.0
  H  H8  1  0.79042786  0.14224242  0.74417162  1.0
  H  H9  1  0.21666353  0.19126420  0.71921618  1.0
  H  H10  1  0.79418543  0.38505646  0.70292414  1.0
  H  H11  1  0.79052209  0.28025959  0.80889958  1.0
  H  H12  1  0.21020247  0.63117259  0.94783415  1.0
  H  H13  1  0.20881124  0.52508890  0.05255900  1.0
  H  H14  1  0.78199055  0.61362593  0.14281713  1.0
  H  H15  1  0.78189129  0.47616579  0.07686815  1.0
  H  H16  1  0.21023186  0.28117913  0.25433055  1.0
  H  H17  1  0.20887200  0.38590602  0.25568552  1.0
  H  H18  1  0.78198962  0.41022313  0.28028344  1.0
  H  H19  1  0.21021994  0.58765743  0.29783163  1.0
  H  H20  1  0.20886520  0.58902086  0.19174539  1.0
  H  H21  1  0.21011172  0.92077521  0.63127565  1.0
  H  H22  1  0.20962637  0.92223767  0.52516324  1.0
  H  H23  1  0.78250482  0.74344922  0.61377337  1.0
  H  H24  1  0.78238156  0.94711373  0.47612142  1.0
  H  H25  1  0.21010886  0.96460451  0.28128014  1.0
  H  H26  1  0.20972583  0.85848628  0.38592698  1.0
  H  H27  1  0.78249904  0.80944996  0.41011023  1.0
  H  H28  1  0.21013583  0.61461231  0.58744821  1.0
  H  H29  1  0.20969649  0.71925879  0.58891526  1.0
  C  C30  1  0.50578267  0.58774902  0.49896973  1.0
  C  C31  1  0.50215797  0.41271212  0.58738941  1.0
  C  C32  1  0.50584097  0.49904418  0.41301576  1.0
  C  C33  1  0.50217032  0.92072338  0.83323683  1.0
  C  C34  1  0.50578388  0.83231248  0.74661283  1.0
  C  C35  1  0.50582946  0.74635482  0.92126991  1.0
  C  C36  1  0.50211347  0.16656969  0.07938311  1.0
  C  C37  1  0.50570718  0.07995259  0.25442183  1.0
  C  C38  1  0.50578617  0.25460939  0.16571136  1.0
  C  C39  1  0.66311937  0.11697401  0.00930810  1.0
  C  C40  1  0.66466318  0.11675448  0.94997989  1.0
  C  C41  1  0.50456077  0.16654539  0.89408400  1.0
  C  C42  1  0.34413454  0.21654956  0.89957265  1.0
  C  C43  1  0.34835493  0.21579029  0.95917981  1.0
  C  C44  1  0.50332384  0.16658866  0.01528505  1.0
  C  C45  1  0.34421094  0.05054292  0.88322825  1.0
  C  C46  1  0.34845179  0.99169879  0.88246471  1.0
  C  C47  1  0.50338398  0.98480491  0.83325461  1.0
  C  C48  1  0.66315646  0.04040261  0.78363689  1.0
  C  C49  1  0.66469152  0.09994667  0.78342217  1.0
  C  C50  1  0.50459170  0.10604516  0.83322080  1.0
  C  C51  1  0.34411526  0.23289871  0.71722491  1.0
  C  C52  1  0.34836547  0.29250730  0.65837863  1.0
  C  C53  1  0.50335758  0.34861277  0.65147167  1.0
  C  C54  1  0.66320249  0.34263324  0.70706064  1.0
  C  C55  1  0.66471650  0.28330197  0.76660850  1.0
  C  C56  1  0.50457121  0.22740948  0.77271659  1.0
  C  C57  1  0.33927856  0.62679097  0.99055724  1.0
  C  C58  1  0.33518419  0.56717850  0.04982517  1.0
  C  C59  1  0.49376518  0.56072302  0.10600859  1.0
  C  C60  1  0.65552985  0.61592138  0.10093387  1.0
  C  C61  1  0.65368465  0.67483021  0.04142106  1.0
  C  C62  1  0.50024205  0.68207050  0.98506877  1.0
  C  C63  1  0.65546577  0.43428419  0.11646282  1.0
  C  C64  1  0.65360193  0.37476981  0.11707055  1.0
  C  C65  1  0.50020305  0.31841245  0.16619029  1.0
  C  C66  1  0.33927523  0.32389995  0.21598548  1.0
  C  C67  1  0.33520190  0.38317099  0.21632620  1.0
  C  C68  1  0.49376110  0.43935492  0.16659128  1.0
  C  C69  1  0.65554236  0.44981162  0.28257723  1.0
  C  C70  1  0.65370391  0.45041707  0.34148676  1.0
  C  C71  1  0.50025944  0.49952822  0.34872812  1.0
  C  C72  1  0.33929494  0.54931889  0.29345184  1.0
  C  C73  1  0.33521821  0.54966614  0.23383581  1.0
  C  C74  1  0.49379614  0.49993667  0.22738044  1.0
  C  C75  1  0.33974438  0.88248665  0.62691561  1.0
  C  C76  1  0.33601347  0.88288267  0.56726106  1.0
  C  C77  1  0.49482274  0.83319685  0.56077311  1.0
  C  C78  1  0.65605999  0.78303802  0.61603062  1.0
  C  C79  1  0.65351532  0.78361217  0.67497027  1.0
  C  C80  1  0.50038500  0.83270985  0.68227533  1.0
  C  C81  1  0.65596226  0.94937032  0.43426630  1.0
  C  C82  1  0.65340163  0.00830636  0.37476406  1.0
  C  C83  1  0.50028293  0.01561353  0.31835154  1.0
  C  C84  1  0.33973288  0.96024529  0.32393362  1.0
  C  C85  1  0.33603547  0.90059222  0.38318526  1.0
  C  C86  1  0.49481858  0.89410474  0.43936769  1.0
  C  C87  1  0.65605648  0.76760062  0.44970194  1.0
  C  C88  1  0.65352051  0.70808757  0.45027709  1.0
  C  C89  1  0.50037489  0.65168403  0.49937461  1.0
  C  C90  1  0.33977097  0.65726340  0.54915794  1.0
  C  C91  1  0.33605074  0.71652108  0.54955445  1.0
  C  C92  1  0.49484372  0.77269751  0.49986446  1.0
  N  N93  1  0.50475795  0.16666914  0.83333979  1.0
  N  N94  1  0.49118303  0.50000465  0.16666202  1.0
  N  N95  1  0.49271374  0.83333167  0.50000166  1.0
  O  O96  1  0.27138810  0.47040358  0.45256611  1.0
  O  O97  1  0.27125234  0.57692692  0.47030868  1.0
  O  O98  1  0.26636616  0.45202314  0.57771607  1.0
  O  O99  1  0.74354787  0.52836747  0.42245554  1.0
  O  O100  1  0.73850296  0.42328181  0.54843071  1.0
  O  O101  1  0.74344643  0.54904400  0.52838309  1.0
  O  O102  1  0.74352577  0.75580069  0.88250472  1.0
  O  O103  1  0.73851664  0.88176524  0.86162572  1.0
  O  O104  1  0.74346400  0.86172933  0.75590055  1.0
  O  O105  1  0.27139170  0.78590723  0.91036127  1.0
  O  O106  1  0.27125309  0.80365690  0.78609308  1.0
  O  O107  1  0.26638589  0.91105350  0.80359425  1.0
  O  O108  1  0.74349377  0.21584502  0.19503733  1.0
  O  O109  1  0.73848093  0.19495755  0.08995403  1.0
  O  O110  1  0.74338157  0.08924434  0.21571688  1.0
  O  O111  1  0.27135325  0.24369474  0.13707549  1.0
  O  O112  1  0.27118906  0.11943638  0.24359910  1.0
  O  O113  1  0.26634800  0.13692933  0.11869846  1.0
  F  F114  1  0.19124314  0.26518851  0.96267185  1.0
  F  F115  1  0.19138302  0.93880793  0.93186634  1.0
  F  F116  1  0.19121867  0.29600338  0.60548786  1.0
  F  F117  1  0.81189375  0.72751555  0.03818696  1.0
  F  F118  1  0.81177307  0.37154070  0.06760813  1.0
  F  F119  1  0.81191913  0.40096277  0.39417050  1.0
  F  F120  1  0.81101214  0.73396278  0.72772264  1.0
  F  F121  1  0.81080954  0.06106978  0.37165684  1.0
  F  F122  1  0.81100248  0.70498636  0.40062557  1.0
