# generated using pymatgen
data_MgH3C7SO3
_symmetry_space_group_name_H-M   'P 1'
_cell_length_a   6.87753391
_cell_length_b   25.71092341
_cell_length_c   25.72249625
_cell_angle_alpha   119.14573083
_cell_angle_beta   95.10710118
_cell_angle_gamma   95.16341905
_symmetry_Int_Tables_number   1
_chemical_formula_structural   MgH3C7SO3
_chemical_formula_sum   'Mg6 H18 C42 S6 O18'
_cell_volume   3910.00715513
_cell_formula_units_Z   6
loop_
 _symmetry_equiv_pos_site_id
 _symmetry_equiv_pos_as_xyz
  1  'x, y, z'
loop_
 _atom_site_type_symbol
 _atom_site_label
 _atom_site_symmetry_multiplicity
 _atom_site_fract_x
 _atom_site_fract_y
 _atom_site_fract_z
 _atom_site_occupancy
  Mg  Mg0  1  0.06828091  0.66901874  0.37543339  1.0
  Mg  Mg1  1  0.39956170  0.70660859  0.33100339  1.0
  Mg  Mg2  1  0.69278651  0.62458111  0.29348175  1.0
  Mg  Mg3  1  0.66668609  0.32009744  0.62104587  1.0
  Mg  Mg4  1  0.34675052  0.30111677  0.68031035  1.0
  Mg  Mg5  1  0.04604173  0.37928505  0.69920244  1.0
  H  H6  1  0.44927402  0.84607033  0.47849988  1.0
  H  H7  1  0.60369535  0.63236453  0.15406657  1.0
  H  H8  1  0.97028975  0.52153467  0.36747425  1.0
  H  H9  1  0.77454720  0.87518555  0.42294471  1.0
  H  H10  1  0.89915690  0.54798818  0.12484912  1.0
  H  H11  1  0.35005137  0.57642358  0.45163068  1.0
  H  H12  1  0.01210550  0.96393871  0.50147584  1.0
  H  H13  1  0.04845956  0.53770049  0.03613248  1.0
  H  H14  1  0.50911707  0.49778116  0.46178853  1.0
  H  H15  1  0.27539828  0.15301926  0.59431088  1.0
  H  H16  1  0.12406446  0.44137059  0.84728707  1.0
  H  H17  1  0.68185193  0.40590071  0.55880867  1.0
  H  H18  1  0.98213009  0.13256532  0.61931418  1.0
  H  H19  1  0.85136701  0.48667324  0.86751988  1.0
  H  H20  1  0.36319277  0.38055770  0.51308981  1.0
  H  H21  1  0.72734201  0.04515393  0.59201870  1.0
  H  H22  1  0.68446748  0.54665015  0.95499107  1.0
  H  H23  1  0.13554385  0.40758509  0.45281398  1.0
  C  C24  1  0.24289300  0.90999645  0.49656345  1.0
  C  C25  1  0.33340409  0.58661098  0.09009823  1.0
  C  C26  1  0.74556137  0.50314351  0.41312937  1.0
  C  C27  1  0.30187434  0.85328940  0.46650056  1.0
  C  C28  1  0.44889067  0.61326799  0.14683051  1.0
  C  C29  1  0.83470939  0.53338130  0.38658453  1.0
  C  C30  1  0.16976909  0.80270173  0.42173156  1.0
  C  C31  1  0.36702682  0.61923967  0.19740818  1.0
  C  C32  1  0.74722803  0.57812698  0.38072912  1.0
  C  C33  1  0.97247596  0.81113906  0.40776053  1.0
  C  C34  1  0.16112680  0.59691462  0.18896211  1.0
  C  C35  1  0.56364801  0.59192604  0.40299985  1.0
  C  C36  1  0.92402434  0.86991875  0.43559272  1.0
  C  C37  1  0.05399721  0.56593995  0.13017249  1.0
  C  C38  1  0.48711216  0.56389262  0.43379924  1.0
  C  C39  1  0.05529362  0.91928776  0.47931271  1.0
  C  C40  1  0.13622365  0.56020530  0.08080953  1.0
  C  C41  1  0.57473623  0.52016152  0.43946287  1.0
  C  C42  1  0.81288578  0.76082157  0.36931930  1.0
  C  C43  1  0.05186794  0.60879018  0.23927061  1.0
  C  C44  1  0.44280980  0.63045367  0.39120118  1.0
  C  C45  1  0.48489429  0.09432801  0.59338475  1.0
  C  C46  1  0.39259410  0.49899988  0.90584533  1.0
  C  C47  1  0.89197240  0.40647485  0.50081718  1.0
  C  C48  1  0.43023079  0.14758958  0.59906008  1.0
  C  C49  1  0.28434935  0.45148388  0.85264952  1.0
  C  C50  1  0.83179899  0.40105497  0.54856031  1.0
  C  C51  1  0.57311241  0.19733844  0.61313121  1.0
  C  C52  1  0.37702340  0.41585568  0.80291864  1.0
  C  C53  1  0.96058654  0.38712217  0.58431665  1.0
  C  C54  1  0.77732237  0.19171225  0.62214158  1.0
  C  C55  1  0.58694699  0.43051414  0.80848953  1.0
  C  C56  1  0.15567674  0.37799170  0.56960660  1.0
  C  C57  1  0.82618244  0.13585175  0.61238726  1.0
  C  C58  1  0.69207346  0.47653075  0.86428420  1.0
  C  C59  1  0.21417170  0.38749266  0.52332116  1.0
  C  C60  1  0.68496426  0.08720183  0.59772221  1.0
  C  C61  1  0.59977378  0.51043781  0.91294459  1.0
  C  C62  1  0.08755262  0.40201352  0.48924740  1.0
  C  C63  1  0.93817169  0.24273301  0.64621769  1.0
  C  C64  1  0.69640445  0.40357388  0.75748237  1.0
  C  C65  1  0.29244103  0.35409278  0.59671430  1.0
  S  S66  1  0.29237878  0.04272561  0.59188177  1.0
  S  S67  1  0.25155876  0.54895620  0.95728349  1.0
  S  S68  1  0.70083499  0.40788363  0.45078110  1.0
  S  S69  1  0.40440911  0.96364097  0.56286890  1.0
  S  S70  1  0.44229578  0.59906650  0.03642895  1.0
  S  S71  1  0.84136170  0.43696245  0.40059836  1.0
  O  O72  1  0.63922011  0.77017846  0.35814576  1.0
  O  O73  1  0.86876801  0.58827187  0.22996069  1.0
  O  O74  1  0.28027635  0.64159794  0.41168037  1.0
  O  O75  1  0.85188845  0.70645990  0.34927539  1.0
  O  O76  1  0.14542327  0.64308706  0.29359763  1.0
  O  O77  1  0.50229034  0.65067412  0.35702848  1.0
  O  O78  1  0.23313556  0.74907480  0.39583581  1.0
  O  O79  1  0.48391835  0.64699954  0.25104094  1.0
  O  O80  1  0.83668979  0.60417588  0.35309849  1.0
  O  O81  1  0.11431393  0.23789862  0.66143334  1.0
  O  O82  1  0.87744620  0.42363011  0.76229261  1.0
  O  O83  1  0.45342888  0.33890820  0.57671742  1.0
  O  O84  1  0.89753586  0.29367492  0.65285276  1.0
  O  O85  1  0.60452062  0.35931168  0.70661825  1.0
  O  O86  1  0.24507366  0.34753030  0.64106385  1.0
  O  O87  1  0.50998389  0.24729112  0.61838494  1.0
  O  O88  1  0.26366725  0.37118027  0.75305439  1.0
  O  O89  1  0.89237866  0.38212427  0.62917832  1.0
