# generated using pymatgen
data_Al2H21C30(NO4)3
_symmetry_space_group_name_H-M   'P 1'
_cell_length_a   3.96062637
_cell_length_b   17.22289739
_cell_length_c   17.22293839
_cell_angle_alpha   119.99996258
_cell_angle_beta   90.00020778
_cell_angle_gamma   89.99988313
_symmetry_Int_Tables_number   1
_chemical_formula_structural   Al2H21C30(NO4)3
_chemical_formula_sum   'Al2 H21 C30 N3 O12'
_cell_volume   1017.43841790
_cell_formula_units_Z   1
loop_
 _symmetry_equiv_pos_site_id
 _symmetry_equiv_pos_as_xyz
  1  'x, y, z'
loop_
 _atom_site_type_symbol
 _atom_site_label
 _atom_site_symmetry_multiplicity
 _atom_site_fract_x
 _atom_site_fract_y
 _atom_site_fract_z
 _atom_site_occupancy
  Al  Al0  1  0.98913159  0.49999983  0.99999994  1.0
  Al  Al1  1  0.00933322  0.83333216  0.66666608  1.0
  H  H2  1  0.50824221  0.83544589  0.41708180  1.0
  H  H3  1  0.27027119  0.52717076  0.41509238  1.0
  H  H4  1  0.72052322  0.52805014  0.41713003  1.0
  H  H5  1  0.73059391  0.44578777  0.24868388  1.0
  H  H6  1  0.28005405  0.44522418  0.24700491  1.0
  H  H7  1  0.50825006  0.58163693  0.66455434  1.0
  H  H8  1  0.27027102  0.88792282  0.97282743  1.0
  H  H9  1  0.72052303  0.88908096  0.97194932  1.0
  H  H10  1  0.73059320  0.80289542  0.05421131  1.0
  H  H11  1  0.28005336  0.80178187  0.05477564  1.0
  H  H12  1  0.50824433  0.08291567  0.91836106  1.0
  H  H13  1  0.27027195  0.08490469  0.61207780  1.0
  H  H14  1  0.72052396  0.08286839  0.61092012  1.0
  H  H15  1  0.73059297  0.25131539  0.69710364  1.0
  H  H16  1  0.28005060  0.25299338  0.69821706  1.0
  H  H17  1  0.47457691  0.73223449  0.17538168  1.0
  H  H18  1  0.58056552  0.82558348  0.27210524  1.0
  H  H19  1  0.47457756  0.44314650  0.76776495  1.0
  H  H20  1  0.58056509  0.44652189  0.67441653  1.0
  H  H21  1  0.47456779  0.32461784  0.05685121  1.0
  H  H22  1  0.58056408  0.22789496  0.05347688  1.0
  C  C23  1  0.49038483  0.36203827  0.93245389  1.0
  C  C24  1  0.49038801  0.57041549  0.13796152  1.0
  C  C25  1  0.49038637  0.56754551  0.92958448  1.0
  C  C26  1  0.50919782  0.76678802  0.52891570  1.0
  C  C27  1  0.50920451  0.76212838  0.73321309  1.0
  C  C28  1  0.50919851  0.97108422  0.73787141  1.0
  C  C29  1  0.50570539  0.71709674  0.42925567  1.0
  C  C30  1  0.49183529  0.62164030  0.23694709  1.0
  C  C31  1  0.49727495  0.62372390  0.38000488  1.0
  C  C32  1  0.48244783  0.71702396  0.28610870  1.0
  C  C33  1  0.50389207  0.57840292  0.28688837  1.0
  C  C34  1  0.50429340  0.76227974  0.38058353  1.0
  C  C35  1  0.49746224  0.53846749  0.38545085  1.0
  C  C36  1  0.50407423  0.48664119  0.27928886  1.0
  C  C37  1  0.50571290  0.71215910  0.78290368  1.0
  C  C38  1  0.49183753  0.61530616  0.87835930  1.0
  C  C39  1  0.49727790  0.75628141  0.87627629  1.0
  C  C40  1  0.48245211  0.56908554  0.78297669  1.0
  C  C41  1  0.50389108  0.70848676  0.92159822  1.0
  C  C42  1  0.50430412  0.61830488  0.73772181  1.0
  C  C43  1  0.49746246  0.84698360  0.96153188  1.0
  C  C44  1  0.50407320  0.79264791  0.01335844  1.0
  C  C45  1  0.50570840  0.07074309  0.78783988  1.0
  C  C46  1  0.49183419  0.26305247  0.88469283  1.0
  C  C47  1  0.49727985  0.11999420  0.74371804  1.0
  C  C48  1  0.48244486  0.21389059  0.93091382  1.0
  C  C49  1  0.50388733  0.21311132  0.79151330  1.0
  C  C50  1  0.50429247  0.11941614  0.88169522  1.0
  C  C51  1  0.49746600  0.11454808  0.65301582  1.0
  C  C52  1  0.50407094  0.22071007  0.70735126  1.0
  N  N53  1  0.45050786  0.76698081  0.24317420  1.0
  N  N54  1  0.45051276  0.47619373  0.73301924  1.0
  N  N55  1  0.45050095  0.25682463  0.02380504  1.0
  O  O56  1  0.72298884  0.58658238  0.98790575  1.0
  O  O57  1  0.72299165  0.40132246  0.91341744  1.0
  O  O58  1  0.72299007  0.51209350  0.09867631  1.0
  O  O59  1  0.25652703  0.50976016  0.91247331  1.0
  O  O60  1  0.25652561  0.58752667  0.09728700  1.0
  O  O61  1  0.25653068  0.40271303  0.99023930  1.0
  O  O62  1  0.74416167  0.93114155  0.75484443  1.0
  O  O63  1  0.74415565  0.82370328  0.56885746  1.0
  O  O64  1  0.74415940  0.74515477  0.67629658  1.0
  O  O65  1  0.27509385  0.93229289  0.68019242  1.0
  O  O66  1  0.27510253  0.81980704  0.75209872  1.0
  O  O67  1  0.27509383  0.74789969  0.56770676  1.0
