# generated using pymatgen
data_Zn2H22C25(NO4)2
_symmetry_space_group_name_H-M   'P 1'
_cell_length_a   9.90806022
_cell_length_b   11.03713812
_cell_length_c   11.07197618
_cell_angle_alpha   84.38132945
_cell_angle_beta   84.96984353
_cell_angle_gamma   87.56966373
_symmetry_Int_Tables_number   1
_chemical_formula_structural   Zn2H22C25(NO4)2
_chemical_formula_sum   'Zn2 H22 C25 N2 O8'
_cell_volume   1199.63735918
_cell_formula_units_Z   1
loop_
 _symmetry_equiv_pos_site_id
 _symmetry_equiv_pos_as_xyz
  1  'x, y, z'
loop_
 _atom_site_type_symbol
 _atom_site_label
 _atom_site_symmetry_multiplicity
 _atom_site_fract_x
 _atom_site_fract_y
 _atom_site_fract_z
 _atom_site_occupancy
  Zn  Zn0  1  0.64722339  0.48522114  0.48949842  1.0
  Zn  Zn1  1  0.35618061  0.49778024  0.49574062  1.0
  H  H2  1  0.30818639  0.59762514  0.10632382  1.0
  H  H3  1  0.84250268  0.10333393  0.46548502  1.0
  H  H4  1  0.82415665  0.48797749  0.24425163  1.0
  H  H5  1  0.97757131  0.40012908  0.21078950  1.0
  H  H6  1  0.83512464  0.33417919  0.30127846  1.0
  H  H7  1  0.92039196  0.31499035  0.78683744  1.0
  H  H8  1  0.85176496  0.40619835  0.90273227  1.0
  H  H9  1  0.74683104  0.36748419  0.78987367  1.0
  H  H10  1  0.10619284  0.47165814  0.78449125  1.0
  H  H11  1  0.21868461  0.68679992  0.90612459  1.0
  H  H12  1  0.37072658  0.76572284  0.87560687  1.0
  H  H13  1  0.15891753  0.45229570  0.31765725  1.0
  H  H14  1  0.31854225  0.67390415  0.76506486  1.0
  H  H15  1  0.30318560  0.10735461  0.45738647  1.0
  H  H16  1  0.85162112  0.87338763  0.48154372  1.0
  H  H17  1  0.82100114  0.58428421  0.74524836  1.0
  H  H18  1  0.06976243  0.62798545  0.73698189  1.0
  H  H19  1  0.61006908  0.52015406  0.07553541  1.0
  H  H20  1  0.51979603  0.41178288  0.91567050  1.0
  H  H21  1  0.31185915  0.88056170  0.46629086  1.0
  H  H22  1  0.79903088  0.87000853  0.64017955  1.0
  H  H23  1  0.79220788  0.09964909  0.62436349  1.0
  C  C24  1  0.51050081  0.25723762  0.48383787  1.0
  C  C25  1  0.08890579  0.46458668  0.39745333  1.0
  C  C26  1  0.94902235  0.45100733  0.39340643  1.0
  C  C27  1  0.46648450  0.47301421  0.73071661  1.0
  C  C28  1  0.91922934  0.49074200  0.59120065  1.0
  C  C29  1  0.89027716  0.50681179  0.72616493  1.0
  C  C30  1  0.04736116  0.53373511  0.72401615  1.0
  C  C31  1  0.52333614  0.72384945  0.50536008  1.0
  C  C32  1  0.49756318  0.52886592  0.25504858  1.0
  C  C33  1  0.40275457  0.57061084  0.05528622  1.0
  C  C34  1  0.50959302  0.53856435  0.12002723  1.0
  C  C35  1  0.51266917  0.12170475  0.49050823  1.0
  C  C36  1  0.39984286  0.57391746  0.92309161  1.0
  C  C37  1  0.46320473  0.48314567  0.86389246  1.0
  C  C38  1  0.62964168  0.05192775  0.51370677  1.0
  C  C39  1  0.89479881  0.41662343  0.28032102  1.0
  C  C40  1  0.84938340  0.39140509  0.80621060  1.0
  C  C41  1  0.32279921  0.68019645  0.86273622  1.0
  C  C42  1  0.39722737  0.05618162  0.47482281  1.0
  C  C43  1  0.40179026  0.92924258  0.48051178  1.0
  C  C44  1  0.52125764  0.85925391  0.50334565  1.0
  C  C45  1  0.63401612  0.92476055  0.52092434  1.0
  C  C46  1  0.78143361  0.91478815  0.54949279  1.0
  C  C47  1  0.77640065  0.05886605  0.54020735  1.0
  C  C48  1  0.05790593  0.50617616  0.59286090  1.0
  N  N49  1  0.14608957  0.49461738  0.49686905  1.0
  N  N50  1  0.86012653  0.46743541  0.49300392  1.0
  O  O51  1  0.62642054  0.30547506  0.47517330  1.0
  O  O52  1  0.39592751  0.31395998  0.48805588  1.0
  O  O53  1  0.58331962  0.45767244  0.67536499  1.0
  O  O54  1  0.35411836  0.47921068  0.68244662  1.0
  O  O55  1  0.63889123  0.66795545  0.50826545  1.0
  O  O56  1  0.40959937  0.67464404  0.50341254  1.0
  O  O57  1  0.60808522  0.52486202  0.30687018  1.0
  O  O58  1  0.37869626  0.52403904  0.30959614  1.0
