# generated using pymatgen
data_ZnH14C33(N3O7)2
_symmetry_space_group_name_H-M   'P 1'
_cell_length_a   15.90082315
_cell_length_b   16.99518854
_cell_length_c   17.65233218
_cell_angle_alpha   91.09228953
_cell_angle_beta   91.38887440
_cell_angle_gamma   90.23827748
_symmetry_Int_Tables_number   1
_chemical_formula_structural   ZnH14C33(N3O7)2
_chemical_formula_sum   'Zn2 H28 C66 N12 O28'
_cell_volume   4768.00291805
_cell_formula_units_Z   2
loop_
 _symmetry_equiv_pos_site_id
 _symmetry_equiv_pos_as_xyz
  1  'x, y, z'
loop_
 _atom_site_type_symbol
 _atom_site_label
 _atom_site_symmetry_multiplicity
 _atom_site_fract_x
 _atom_site_fract_y
 _atom_site_fract_z
 _atom_site_occupancy
  Zn  Zn0  1  0.49921079  0.41223947  0.49687585  1.0
  Zn  Zn1  1  0.50590882  0.58707122  0.50307426  1.0
  H  H2  1  0.06202999  0.37078877  0.53860252  1.0
  H  H3  1  0.94002995  0.61454852  0.44006964  1.0
  H  H4  1  0.41952948  0.58138803  0.25272519  1.0
  H  H5  1  0.61137948  0.42875133  0.73155869  1.0
  H  H6  1  0.43886017  0.58731405  0.11300106  1.0
  H  H7  1  0.63862734  0.44544842  0.87124467  1.0
  H  H8  1  0.56735789  0.13258232  0.60443613  1.0
  H  H9  1  0.38026846  0.86257396  0.43190689  1.0
  H  H10  1  0.50618184  0.25347986  0.29647618  1.0
  H  H11  1  0.43147629  0.31842386  0.19013385  1.0
  H  H12  1  0.29508654  0.38653071  0.21172355  1.0
  H  H13  1  0.23364959  0.38825940  0.33968395  1.0
  H  H14  1  0.30787850  0.32252795  0.44635595  1.0
  H  H15  1  0.72114257  0.73741350  0.51221330  1.0
  H  H16  1  0.83209706  0.67683394  0.59402289  1.0
  H  H17  1  0.79632980  0.62469659  0.71919027  1.0
  H  H18  1  0.64929600  0.63417825  0.76443429  1.0
  H  H19  1  0.53770676  0.69304413  0.68274227  1.0
  H  H20  1  0.98429744  0.71141876  0.52539147  1.0
  H  H21  1  0.03617828  0.82223438  0.60723432  1.0
  H  H22  1  0.13932535  0.79762420  0.71262978  1.0
  H  H23  1  0.19050724  0.66144940  0.73504667  1.0
  H  H24  1  0.13872039  0.55085765  0.65399502  1.0
  H  H25  1  0.08162530  0.32265128  0.38842941  1.0
  H  H26  1  0.04832681  0.21215548  0.29927697  1.0
  H  H27  1  0.90047900  0.18880325  0.25376359  1.0
  H  H28  1  0.78626419  0.27741620  0.29852881  1.0
  H  H29  1  0.81936394  0.38807932  0.38647431  1.0
  C  C30  1  0.49733641  0.50167375  0.64453640  1.0
  C  C31  1  0.51667565  0.50924472  0.35676197  1.0
  C  C32  1  0.66083619  0.48870550  0.50490657  1.0
  C  C33  1  0.34369999  0.50019522  0.49426623  1.0
  C  C34  1  0.03541614  0.42514893  0.51671975  1.0
  C  C35  1  0.96832354  0.56170362  0.46359223  1.0
  C  C36  1  0.97800288  0.48129053  0.56099453  1.0
  C  C37  1  0.02703206  0.50634108  0.41987224  1.0
  C  C38  1  0.75138142  0.48858837  0.50248730  1.0
  C  C39  1  0.25320999  0.50271405  0.49257480  1.0
  C  C40  1  0.97555561  0.43014592  0.44481241  1.0
  C  C41  1  0.02733930  0.55705842  0.53555299  1.0
  C  C42  1  0.91552260  0.48879797  0.48982834  1.0
  C  C43  1  0.08830226  0.49763723  0.49045729  1.0
  C  C44  1  0.82727151  0.48741397  0.49570384  1.0
  C  C45  1  0.17674572  0.50170960  0.49047258  1.0
  C  C46  1  0.61148261  0.47946446  0.16124030  1.0
  C  C47  1  0.46915433  0.56567124  0.85048815  1.0
  C  C48  1  0.59701213  0.47269715  0.23864764  1.0
  C  C49  1  0.45418376  0.55525534  0.77289234  1.0
  C  C50  1  0.52887114  0.50980320  0.27231278  1.0
  C  C51  1  0.50554769  0.50647338  0.72940285  1.0
  C  C52  1  0.47236678  0.55176254  0.22644773  1.0
  C  C53  1  0.57170668  0.46675799  0.76579116  1.0
  C  C54  1  0.48352680  0.55595650  0.14905183  1.0
  C  C55  1  0.58716694  0.47638010  0.84306385  1.0
  C  C56  1  0.55354395  0.52047355  0.11461778  1.0
  C  C57  1  0.53605627  0.52588605  0.88747063  1.0
  C  C58  1  0.55818584  0.52407209  0.03515214  1.0
  C  C59  1  0.54804699  0.52896697  0.96671318  1.0
  C  C60  1  0.53622749  0.16139015  0.55698865  1.0
  C  C61  1  0.43161981  0.83516380  0.46339430  1.0
  C  C62  1  0.53309352  0.24260310  0.55363117  1.0
  C  C63  1  0.43714625  0.75406819  0.46756841  1.0
  C  C64  1  0.45593188  0.24322273  0.44083252  1.0
  C  C65  1  0.55680797  0.75678627  0.54491211  1.0
  C  C66  1  0.45713794  0.16092148  0.44033852  1.0
  C  C67  1  0.55643619  0.83881878  0.54122909  1.0
  C  C68  1  0.49729561  0.11768347  0.49774890  1.0
  C  C69  1  0.49453510  0.88040801  0.50046885  1.0
  C  C70  1  0.49650409  0.03479942  0.49775274  1.0
  C  C71  1  0.49480626  0.96323690  0.49837786  1.0
  C  C72  1  0.41181966  0.28428495  0.37827719  1.0
  C  C73  1  0.44600292  0.28205175  0.30572579  1.0
  C  C74  1  0.40409883  0.31917522  0.24616227  1.0
  C  C75  1  0.32791452  0.35747328  0.25833332  1.0
  C  C76  1  0.29313137  0.35840149  0.33027751  1.0
  C  C77  1  0.33475971  0.32169070  0.39027526  1.0
  C  C78  1  0.62230208  0.71785006  0.59200652  1.0
  C  C79  1  0.70556855  0.71475184  0.56752080  1.0
  C  C80  1  0.76762992  0.68090481  0.61330407  1.0
  C  C81  1  0.74745193  0.65143781  0.68394447  1.0
  C  C82  1  0.66489119  0.65606342  0.70882383  1.0
  C  C83  1  0.60200834  0.68903497  0.66320658  1.0
  C  C84  1  0.05691960  0.62335320  0.58448193  1.0
  C  C85  1  0.02890737  0.70021133  0.57177666  1.0
  C  C86  1  0.05827427  0.76267328  0.61776821  1.0
  C  C87  1  0.11604022  0.74886996  0.67680970  1.0
  C  C88  1  0.14455773  0.67244303  0.68973262  1.0
  C  C89  1  0.11524322  0.61007689  0.64391699  1.0
  C  C90  1  0.95271044  0.36304603  0.39386021  1.0
  C  C91  1  0.01677279  0.31254531  0.36901434  1.0
  C  C92  1  0.99802100  0.25040868  0.31873196  1.0
  C  C93  1  0.91507796  0.23742448  0.29318894  1.0
  C  C94  1  0.85114652  0.28691884  0.31810778  1.0
  C  C95  1  0.86973398  0.34967256  0.36800674  1.0
  N  N96  1  0.49574070  0.28418971  0.49863480  1.0
  N  N97  1  0.49667237  0.71416631  0.50557955  1.0
  N  N98  1  0.94660653  0.47022942  0.63710429  1.0
  N  N99  1  0.05457243  0.51723251  0.34255768  1.0
  N  N100  1  0.41214471  0.11636933  0.37911204  1.0
  N  N101  1  0.62193868  0.88499051  0.58302941  1.0
  N  N102  1  0.68645497  0.44407622  0.12766410  1.0
  N  N103  1  0.41286421  0.61527768  0.89581155  1.0
  N  N104  1  0.65724064  0.43108958  0.28931550  1.0
  N  N105  1  0.38284320  0.59673569  0.73584473  1.0
  N  N106  1  0.57711713  0.28457579  0.61821666  1.0
  N  N107  1  0.37039980  0.71060962  0.42277895  1.0
  O  O108  1  0.51629050  0.43687557  0.61311657  1.0
  O  O109  1  0.53499324  0.57354792  0.39106591  1.0
  O  O110  1  0.47551594  0.56505155  0.61259385  1.0
  O  O111  1  0.48897171  0.44636393  0.38406213  1.0
  O  O112  1  0.62425846  0.42503848  0.48330769  1.0
  O  O113  1  0.38244566  0.56227006  0.47621518  1.0
  O  O114  1  0.62633147  0.55202951  0.52760250  1.0
  O  O115  1  0.37636591  0.43474783  0.51318186  1.0
  O  O116  1  0.90612606  0.52606703  0.66389354  1.0
  O  O117  1  0.96116710  0.40684718  0.66837786  1.0
  O  O118  1  0.01815025  0.56743477  0.30393250  1.0
  O  O119  1  0.11185377  0.47324321  0.32102260  1.0
  O  O120  1  0.33489816  0.11273966  0.38334436  1.0
  O  O121  1  0.45610393  0.08470931  0.33065293  1.0
  O  O122  1  0.61040960  0.89752067  0.65100335  1.0
  O  O123  1  0.68105105  0.90883463  0.54543221  1.0
  O  O124  1  0.71292920  0.47409170  0.06948458  1.0
  O  O125  1  0.71774571  0.38644305  0.15976865  1.0
  O  O126  1  0.44643713  0.66061292  0.94321032  1.0
  O  O127  1  0.33623070  0.60679087  0.88382283  1.0
  O  O128  1  0.63966254  0.36313621  0.30621088  1.0
  O  O129  1  0.71816802  0.47041507  0.31315772  1.0
  O  O130  1  0.38669220  0.66939393  0.73554023  1.0
  O  O131  1  0.32568296  0.55505059  0.70884841  1.0
  O  O132  1  0.64471307  0.31623832  0.60510530  1.0
  O  O133  1  0.54308750  0.27915174  0.68005435  1.0
  O  O134  1  0.29898578  0.71437912  0.44795239  1.0
  O  O135  1  0.39223183  0.68018930  0.36256587  1.0
