# generated using pymatgen
data_Zr3H14C39N9O16
_symmetry_space_group_name_H-M   'P 1'
_cell_length_a   17.86785379
_cell_length_b   22.21954728
_cell_length_c   22.22171596
_cell_angle_alpha   65.32880054
_cell_angle_beta   88.74855170
_cell_angle_gamma   88.73867881
_symmetry_Int_Tables_number   1
_chemical_formula_structural   Zr3H14C39N9O16
_chemical_formula_sum   'Zr6 H28 C78 N18 O32'
_cell_volume   8014.32610744
_cell_formula_units_Z   2
loop_
 _symmetry_equiv_pos_site_id
 _symmetry_equiv_pos_as_xyz
  1  'x, y, z'
loop_
 _atom_site_type_symbol
 _atom_site_label
 _atom_site_symmetry_multiplicity
 _atom_site_fract_x
 _atom_site_fract_y
 _atom_site_fract_z
 _atom_site_occupancy
  Zr  Zr0  1  0.20537448  0.97381947  0.04688679  1.0
  Zr  Zr1  1  0.93708602  0.95085665  0.02587639  1.0
  Zr  Zr2  1  0.07296112  0.85339815  0.14231197  1.0
  Zr  Zr3  1  0.06942252  0.07200412  0.93098121  1.0
  Zr  Zr4  1  0.09920443  0.89950703  0.96452983  1.0
  Zr  Zr5  1  0.04192144  0.02615034  0.10500174  1.0
  H  H6  1  0.62210375  0.07195273  0.49229549  1.0
  H  H7  1  0.51354693  0.84686586  0.58645518  1.0
  H  H8  1  0.64819695  0.40582636  0.48306227  1.0
  H  H9  1  0.49082818  0.51710114  0.59529048  1.0
  H  H10  1  0.52255552  0.50771469  0.92765143  1.0
  H  H11  1  0.63030445  0.41252928  0.15301354  1.0
  H  H12  1  0.19928289  0.00953500  0.90782917  1.0
  H  H13  1  0.98605923  0.81807435  0.04799021  1.0
  H  H14  1  0.93978367  0.08933102  0.99723045  1.0
  H  H15  1  0.15413652  0.94029136  0.18221762  1.0
  H  H16  1  0.17038781  0.77362931  0.01443666  1.0
  H  H17  1  0.08949241  0.82225579  0.27407189  1.0
  H  H18  1  0.97236349  0.96979936  0.23092413  1.0
  H  H19  1  0.08032018  0.94135300  0.83413642  1.0
  H  H20  1  0.05732482  0.10801676  0.80245362  1.0
  H  H21  1  0.07706509  0.19910603  0.90658955  1.0
  H  H22  1  0.03536400  0.15550329  0.00189289  1.0
  H  H23  1  0.02825489  0.81302466  0.93225332  1.0
  H  H24  1  0.84132663  0.92707774  0.93796048  1.0
  H  H25  1  0.28326496  0.02011159  0.13514784  1.0
  H  H26  1  0.11722712  0.05142780  0.19482740  1.0
  H  H27  1  0.10433222  0.01130614  0.83784606  1.0
  H  H28  1  0.83323951  0.86722190  0.00826426  1.0
  H  H29  1  0.13487852  0.73512395  0.17430416  1.0
  H  H30  1  0.11377046  0.76974493  0.07442066  1.0
  H  H31  1  0.06830482  0.15401694  0.07171474  1.0
  H  H32  1  0.03545310  0.91465318  0.23286558  1.0
  H  H33  1  0.19885620  0.05239272  0.12362919  1.0
  C  C34  1  0.73650189  0.12501763  0.74012687  1.0
  C  C35  1  0.66396419  0.09915466  0.67260246  1.0
  C  C36  1  0.66336916  0.20389661  0.66543946  1.0
  C  C37  1  0.45088556  0.81446874  0.89596651  1.0
  C  C38  1  0.51737765  0.72485326  0.90040299  1.0
  C  C39  1  0.51531410  0.81892090  0.80542462  1.0
  C  C40  1  0.69202867  0.10260905  0.18519598  1.0
  C  C41  1  0.62887649  0.19397039  0.18011780  1.0
  C  C42  1  0.62623839  0.09939556  0.27460818  1.0
  C  C43  1  0.59043668  0.98840447  0.58174914  1.0
  C  C44  1  0.55950726  0.92362980  0.60930694  1.0
  C  C45  1  0.53753118  0.89613957  0.56605785  1.0
  C  C46  1  0.54467726  0.93061516  0.49695454  1.0
  C  C47  1  0.57631941  0.99512373  0.46951154  1.0
  C  C48  1  0.59795403  0.02273950  0.51268968  1.0
  C  C49  1  0.40641352  0.79770421  0.33026274  1.0
  C  C50  1  0.47243089  0.82333694  0.40178566  1.0
  C  C51  1  0.47560510  0.71857557  0.40880616  1.0
  C  C52  1  0.40470666  0.25853063  0.87712894  1.0
  C  C53  1  0.47840875  0.32652249  0.90132786  1.0
  C  C54  1  0.47685120  0.33294348  0.79697966  1.0
  C  C55  1  0.73855351  0.66666667  0.20445529  1.0
  C  C56  1  0.66601031  0.59053410  0.28263851  1.0
  C  C57  1  0.67060547  0.59643252  0.17833879  1.0
  C  C58  1  0.59184331  0.39456175  0.57379203  1.0
  C  C59  1  0.54687849  0.42638732  0.60601212  1.0
  C  C60  1  0.52543677  0.49282264  0.57080680  1.0
  C  C61  1  0.54702825  0.52833498  0.50449166  1.0
  C  C62  1  0.59224374  0.49656278  0.47236009  1.0
  C  C63  1  0.61362975  0.43014494  0.50753128  1.0
  C  C64  1  0.56793649  0.53004284  0.00493092  1.0
  C  C65  1  0.59930944  0.50234149  0.06955785  1.0
  C  C66  1  0.60656047  0.43319203  0.10364239  1.0
  C  C67  1  0.58493268  0.39019967  0.07572574  1.0
  C  C68  1  0.55397028  0.41799122  0.01095448  1.0
  C  C69  1  0.54652783  0.48708914  0.97693864  1.0
  C  C70  1  0.28155265  0.89109048  0.96936320  1.0
  C  C71  1  0.24611178  0.11511891  0.93423226  1.0
  C  C72  1  0.25394013  0.85192178  0.18177927  1.0
  C  C73  1  0.89323713  0.81332351  0.14808455  1.0
  C  C74  1  0.85972443  0.02415135  0.11208095  1.0
  C  C75  1  0.89346957  0.06876422  0.88494517  1.0
  C  C76  1  0.79193201  0.71815892  0.18670628  1.0
  C  C77  1  0.83831599  0.76131715  0.17284583  1.0
  C  C78  1  0.64684630  0.57045709  0.13319266  1.0
  C  C79  1  0.62387161  0.54181870  0.10111051  1.0
  C  C80  1  0.61629557  0.53122959  0.40598141  1.0
  C  C81  1  0.63864284  0.55968979  0.34906609  1.0
  C  C82  1  0.34956165  0.20847057  0.89658724  1.0
  C  C83  1  0.30161569  0.16648457  0.91225671  1.0
  C  C84  1  0.50545901  0.35152058  0.94616191  1.0
  C  C85  1  0.52919883  0.37889253  0.97912209  1.0
  C  C86  1  0.50200633  0.36350206  0.72979775  1.0
  C  C87  1  0.52335713  0.39178672  0.67255709  1.0
  C  C88  1  0.30908246  0.82900394  0.23363924  1.0
  C  C89  1  0.35455396  0.81572821  0.27744564  1.0
  C  C90  1  0.52318071  0.59475969  0.46989355  1.0
  C  C91  1  0.50141343  0.65178681  0.44080488  1.0
  C  C92  1  0.51971516  0.89969576  0.45707541  1.0
  C  C93  1  0.49639895  0.86831883  0.42783350  1.0
  C  C94  1  0.79447815  0.04815497  0.13547971  1.0
  C  C95  1  0.74435700  0.07214105  0.15673099  1.0
  C  C96  1  0.58881178  0.03088254  0.40055933  1.0
  C  C97  1  0.60347341  0.06332937  0.34212600  1.0
  C  C98  1  0.59619209  0.32104484  0.11146203  1.0
  C  C99  1  0.60895215  0.26217057  0.14367558  1.0
  C  C100  1  0.34739307  0.86625969  0.94739979  1.0
  C  C101  1  0.39796243  0.84356276  0.92527404  1.0
  C  C102  1  0.55529012  0.59902269  0.96934618  1.0
  C  C103  1  0.54041686  0.65745821  0.93695518  1.0
  C  C104  1  0.53575516  0.85518171  0.73727588  1.0
  C  C105  1  0.54841491  0.88759951  0.67844244  1.0
  C  C106  1  0.79145305  0.10644294  0.79041343  1.0
  C  C107  1  0.83879917  0.09120717  0.83287420  1.0
  C  C108  1  0.63800515  0.05368834  0.64802697  1.0
  C  C109  1  0.61486190  0.02024954  0.62093726  1.0
  C  C110  1  0.63688807  0.27064189  0.63507622  1.0
  C  C111  1  0.61524039  0.32788559  0.60773484  1.0
  N  N112  1  0.71327837  0.07735750  0.72252350  1.0
  N  N113  1  0.63732001  0.16177755  0.64167153  1.0
  N  N114  1  0.71330088  0.18875962  0.71440977  1.0
  N  N115  1  0.47333221  0.75169156  0.93314013  1.0
  N  N116  1  0.53935943  0.75542800  0.83629051  1.0
  N  N117  1  0.47146155  0.85142016  0.83261564  1.0
  N  N118  1  0.67225009  0.16606542  0.14791410  1.0
  N  N119  1  0.60484098  0.16360859  0.24366738  1.0
  N  N120  1  0.66958296  0.06596364  0.24805545  1.0
  N  N121  1  0.42641181  0.84525523  0.34936476  1.0
  N  N122  1  0.49807974  0.76054991  0.43414966  1.0
  N  N123  1  0.42983306  0.73401225  0.35686146  1.0
  N  N124  1  0.42898938  0.27678209  0.92405349  1.0
  N  N125  1  0.50412517  0.35709486  0.83837632  1.0
  N  N126  1  0.42707357  0.28383088  0.81307861  1.0
  N  N127  1  0.71361588  0.64110955  0.26772267  1.0
  N  N128  1  0.64311753  0.56533674  0.24065301  1.0
  N  N129  1  0.71836800  0.64755438  0.15689486  1.0
  O  O130  1  0.24372669  0.03744396  0.10280874  1.0
  O  O131  1  0.29041345  0.92565835  0.00173649  1.0
  O  O132  1  0.27266197  0.90364739  0.13057299  1.0
  O  O133  1  0.18103916  0.13067521  0.91084461  1.0
  O  O134  1  0.19264801  0.82128166  0.19266909  1.0
  O  O135  1  0.26959520  0.05855233  0.97579860  1.0
  O  O136  1  0.21993318  0.87484779  0.95252560  1.0
  O  O137  1  0.14024637  0.89641230  0.05642937  1.0
  O  O138  1  0.16275044  0.99524996  0.94392087  1.0
  O  O139  1  0.13153743  0.94588239  0.14090148  1.0
  O  O140  1  0.11603447  0.03883085  0.02803080  1.0
  O  O141  1  0.04153369  0.16454859  0.93102778  1.0
  O  O142  1  0.11947829  0.78412690  0.02364022  1.0
  O  O143  1  0.02275013  0.97544090  0.95833819  1.0
  O  O144  1  0.00908249  0.85844004  0.04498638  1.0
  O  O145  1  0.00105029  0.93788738  0.10426803  1.0
  O  O146  1  0.97616348  0.05318979  0.00949162  1.0
  O  O147  1  0.09507113  0.76002585  0.14464756  1.0
  O  O148  1  0.95651452  0.80245464  0.17445293  1.0
  O  O149  1  0.87089021  0.86554639  0.09839349  1.0
  O  O150  1  0.12039192  0.06856235  0.14682874  1.0
  O  O151  1  0.85048623  0.99477563  0.07473138  1.0
  O  O152  1  0.05546064  0.84746178  0.23864471  1.0
  O  O153  1  0.02458436  0.96551246  0.21969364  1.0
  O  O154  1  0.02775621  0.13845134  0.05334003  1.0
  O  O155  1  0.92182312  0.03655669  0.13195613  1.0
  O  O156  1  0.86933448  0.89349807  0.97417141  1.0
  O  O157  1  0.09458451  0.08278614  0.83495159  1.0
  O  O158  1  0.87161082  0.02056259  0.93855375  1.0
  O  O159  1  0.95578346  0.09708664  0.87333788  1.0
  O  O160  1  0.11622624  0.96175886  0.85219626  1.0
  O  O161  1  0.04110715  0.85950620  0.91327005  1.0
