# generated using pymatgen
data_Zn2PH13C21O8
_symmetry_space_group_name_H-M   'P 1'
_cell_length_a   13.65716617
_cell_length_b   14.85631028
_cell_length_c   19.95941421
_cell_angle_alpha   90.00014698
_cell_angle_beta   72.39030028
_cell_angle_gamma   90.00002985
_symmetry_Int_Tables_number   1
_chemical_formula_structural   Zn2PH13C21O8
_chemical_formula_sum   'Zn8 P4 H52 C84 O32'
_cell_volume   3859.89773025
_cell_formula_units_Z   4
loop_
 _symmetry_equiv_pos_site_id
 _symmetry_equiv_pos_as_xyz
  1  'x, y, z'
loop_
 _atom_site_type_symbol
 _atom_site_label
 _atom_site_symmetry_multiplicity
 _atom_site_fract_x
 _atom_site_fract_y
 _atom_site_fract_z
 _atom_site_occupancy
  Zn  Zn0  1  0.39698785  0.02763744  0.56285331  1.0
  Zn  Zn1  1  0.64313128  0.09741793  0.54991378  1.0
  Zn  Zn2  1  0.60301337  0.52764184  0.93714614  1.0
  Zn  Zn3  1  0.35686685  0.59741754  0.95008746  1.0
  Zn  Zn4  1  0.60301360  0.97235839  0.43714429  1.0
  Zn  Zn5  1  0.35686865  0.90258127  0.45008665  1.0
  Zn  Zn6  1  0.39698733  0.47236140  0.06285513  1.0
  Zn  Zn7  1  0.64313155  0.40258234  0.04991430  1.0
  P  P8  1  0.72335994  0.02625921  0.69478113  1.0
  P  P9  1  0.27664128  0.52625828  0.80521883  1.0
  P  P10  1  0.27663999  0.97374201  0.30521880  1.0
  P  P11  1  0.72336018  0.47374092  0.19478178  1.0
  H  H12  1  0.44417444  0.82732234  0.82323108  1.0
  H  H13  1  0.74260254  0.74576785  0.82902294  1.0
  H  H14  1  0.56739893  0.94451119  0.57377517  1.0
  H  H15  1  0.52136641  0.95853852  0.74670889  1.0
  H  H16  1  0.66274646  0.20899971  0.68437121  1.0
  H  H17  1  0.84132055  0.90344860  0.59050875  1.0
  H  H18  1  0.02971257  0.88857247  0.52983356  1.0
  H  H19  1  0.82164320  0.87830738  0.75421597  1.0
  H  H20  1  0.73237588  0.04187102  0.84091703  1.0
  H  H21  1  0.63466107  0.34009768  0.76767256  1.0
  H  H22  1  0.69746450  0.17206835  0.92431049  1.0
  H  H23  1  0.09117369  0.10895044  0.64972627  1.0
  H  H24  1  0.90293310  0.12452460  0.71241796  1.0
  H  H25  1  0.55582362  0.32731842  0.67677011  1.0
  H  H26  1  0.25739247  0.24576780  0.67097923  1.0
  H  H27  1  0.43260140  0.44451212  0.92622677  1.0
  H  H28  1  0.47863620  0.45853685  0.75329059  1.0
  H  H29  1  0.33725316  0.70900153  0.81562943  1.0
  H  H30  1  0.15867748  0.40345136  0.90949109  1.0
  H  H31  1  0.97028468  0.38857919  0.97016491  1.0
  H  H32  1  0.17835946  0.37830957  0.74578585  1.0
  H  H33  1  0.26762687  0.54187024  0.65908313  1.0
  H  H34  1  0.36533698  0.84010124  0.73232765  1.0
  H  H35  1  0.30253283  0.67206663  0.57568955  1.0
  H  H36  1  0.90883288  0.60895805  0.85027072  1.0
  H  H37  1  0.09707423  0.62453025  0.78757991  1.0
  H  H38  1  0.55582396  0.17268023  0.17677067  1.0
  H  H39  1  0.25739432  0.25423337  0.17097763  1.0
  H  H40  1  0.43260101  0.05548734  0.42622676  1.0
  H  H41  1  0.47863197  0.04146338  0.25329136  1.0
  H  H42  1  0.33725422  0.79100218  0.31562706  1.0
  H  H43  1  0.15867631  0.09654993  0.40949232  1.0
  H  H44  1  0.97028273  0.11142202  0.47016533  1.0
  H  H45  1  0.17835674  0.12169452  0.24578646  1.0
  H  H46  1  0.26762327  0.95813155  0.15908306  1.0
  H  H47  1  0.36534116  0.65989951  0.23232689  1.0
  H  H48  1  0.30253235  0.82793421  0.07568958  1.0
  H  H49  1  0.90883314  0.89104405  0.35026921  1.0
  H  H50  1  0.09707450  0.87547191  0.28757937  1.0
  H  H51  1  0.44417477  0.67267944  0.32322964  1.0
  H  H52  1  0.74260439  0.75423342  0.32902384  1.0
  H  H53  1  0.56739930  0.55548843  0.07377550  1.0
  H  H54  1  0.52136756  0.54146236  0.24670854  1.0
  H  H55  1  0.66274677  0.29100104  0.18437251  1.0
  H  H56  1  0.84132244  0.59654987  0.09050834  1.0
  H  H57  1  0.02971447  0.61142136  0.02983468  1.0
  H  H58  1  0.82164279  0.62169300  0.25421710  1.0
  H  H59  1  0.73237767  0.45813098  0.34091783  1.0
  H  H60  1  0.63466295  0.15989863  0.26767228  1.0
  H  H61  1  0.69746864  0.32793257  0.42431105  1.0
  H  H62  1  0.09117012  0.39104519  0.14972806  1.0
  H  H63  1  0.90292877  0.37547299  0.21241938  1.0
  C  C64  1  0.70173935  0.11818322  0.75683266  1.0
  C  C65  1  0.86031239  0.01450391  0.65592184  1.0
  C  C66  1  0.67612473  0.92677697  0.74627911  1.0
  C  C67  1  0.58903083  0.77907689  0.83008339  1.0
  C  C68  1  0.54136781  0.69895410  0.87401633  1.0
  C  C69  1  0.52660330  0.83920886  0.80735635  1.0
  C  C70  1  0.69531485  0.79335365  0.81091296  1.0
  C  C71  1  0.07080960  0.99775446  0.58658315  1.0
  C  C72  1  0.56957366  0.91238915  0.76540819  1.0
  C  C73  1  0.18401785  0.98874479  0.54934802  1.0
  C  C74  1  0.67348525  0.20192335  0.73606895  1.0
  C  C75  1  0.89593511  0.94775776  0.60437424  1.0
  C  C76  1  0.00056802  0.93946067  0.57020201  1.0
  C  C77  1  0.73884758  0.86723330  0.76932367  1.0
  C  C78  1  0.71136103  0.10724590  0.82448697  1.0
  C  C79  1  0.65626055  0.27425902  0.78257953  1.0
  C  C80  1  0.69222925  0.17950146  0.87116385  1.0
  C  C81  1  0.03531616  0.06430406  0.63783767  1.0
  C  C82  1  0.93051067  0.07262202  0.67256555  1.0
  C  C83  1  0.66484411  0.26349873  0.85024049  1.0
  C  C84  1  0.64284633  0.34156395  0.90052026  1.0
  C  C85  1  0.29826108  0.61818410  0.74316814  1.0
  C  C86  1  0.13969037  0.51450438  0.84407677  1.0
  C  C87  1  0.32387791  0.42677657  0.75372131  1.0
  C  C88  1  0.41096494  0.27907288  0.66991919  1.0
  C  C89  1  0.45862645  0.19894861  0.62598741  1.0
  C  C90  1  0.47339475  0.33920698  0.69264536  1.0
  C  C91  1  0.30468245  0.29335234  0.68908983  1.0
  C  C92  1  0.92919145  0.49775962  0.91341273  1.0
  C  C93  1  0.43042821  0.41238806  0.73459186  1.0
  C  C94  1  0.81598013  0.48875204  0.95064798  1.0
  C  C95  1  0.32651668  0.70192633  0.76393069  1.0
  C  C96  1  0.10406366  0.44776044  0.89562452  1.0
  C  C97  1  0.99943077  0.43946727  0.92979773  1.0
  C  C98  1  0.26115354  0.36723279  0.73067845  1.0
  C  C99  1  0.28863940  0.60724654  0.67551331  1.0
  C  C100  1  0.34373982  0.77426117  0.71742007  1.0
  C  C101  1  0.30777192  0.67950061  0.62883591  1.0
  C  C102  1  0.96468965  0.56431039  0.86216039  1.0
  C  C103  1  0.06949514  0.57262577  0.82743103  1.0
  C  C104  1  0.33515626  0.76349930  0.64975809  1.0
  C  C105  1  0.35715555  0.84156099  0.59947665  1.0
  C  C106  1  0.29826134  0.88181531  0.24316661  1.0
  C  C107  1  0.13968908  0.98549462  0.34407827  1.0
  C  C108  1  0.32387291  0.07322425  0.25372380  1.0
  C  C109  1  0.41096603  0.22092568  0.16991918  1.0
  C  C110  1  0.45863059  0.30104847  0.12598692  1.0
  C  C111  1  0.47339509  0.16079236  0.19264540  1.0
  C  C112  1  0.30468277  0.20664959  0.18908896  1.0
  C  C113  1  0.92919031  0.00224003  0.41341378  1.0
  C  C114  1  0.43042397  0.08761342  0.23459422  1.0
  C  C115  1  0.81597975  0.01124836  0.45064789  1.0
  C  C116  1  0.32651697  0.79807518  0.26392950  1.0
  C  C117  1  0.10406328  0.05223942  0.39562601  1.0
  C  C118  1  0.99942960  0.06053382  0.42979790  1.0
  C  C119  1  0.26115083  0.13277061  0.23068008  1.0
  C  C120  1  0.28863889  0.89275600  0.17551296  1.0
  C  C121  1  0.34373861  0.72573884  0.21742056  1.0
  C  C122  1  0.30777067  0.82050043  0.12883508  1.0
  C  C123  1  0.96468836  0.93569110  0.36215979  1.0
  C  C124  1  0.06949385  0.92737584  0.32743092  1.0
  C  C125  1  0.33515505  0.73650250  0.14975910  1.0
  C  C126  1  0.35715283  0.65843929  0.09947933  1.0
  C  C127  1  0.70174116  0.38181578  0.25683231  1.0
  C  C128  1  0.86031109  0.48549482  0.15592184  1.0
  C  C129  1  0.67612586  0.57322331  0.24627882  1.0
  C  C130  1  0.58903115  0.72092498  0.33008205  1.0
  C  C131  1  0.54136656  0.80104722  0.37401497  1.0
  C  C132  1  0.52660441  0.66079155  0.30735523  1.0
  C  C133  1  0.69531518  0.70664821  0.31091309  1.0
  C  C134  1  0.07081077  0.50224025  0.08658372  1.0
  C  C135  1  0.56957402  0.58761249  0.26540758  1.0
  C  C136  1  0.18402056  0.51125120  0.04935029  1.0
  C  C137  1  0.67348556  0.29807422  0.23607026  1.0
  C  C138  1  0.89593472  0.55223877  0.10437473  1.0
  C  C139  1  0.00056839  0.56053261  0.07020135  1.0
  C  C140  1  0.73884793  0.63276910  0.26932316  1.0
  C  C141  1  0.71136284  0.39275536  0.32448664  1.0
  C  C142  1  0.65626087  0.22573870  0.28257969  1.0
  C  C143  1  0.69223107  0.32049994  0.37116338  1.0
  C  C144  1  0.03531411  0.43569218  0.13783823  1.0
  C  C145  1  0.93050863  0.42737747  0.17256809  1.0
  C  C146  1  0.66484673  0.23650125  0.35024069  1.0
  C  C147  1  0.64284820  0.15843619  0.40051898  1.0
  O  O148  1  0.66725357  0.03901261  0.64085750  1.0
  O  O149  1  0.44450590  0.69073806  0.88794143  1.0
  O  O150  1  0.20999729  0.92421860  0.50494633  1.0
  O  O151  1  0.64042469  0.41950789  0.87353828  1.0
  O  O152  1  0.60254337  0.64690421  0.89252706  1.0
  O  O153  1  0.24352172  0.04523263  0.56473739  1.0
  O  O154  1  0.62728149  0.32433165  0.96503250  1.0
  O  O155  1  0.55494345  0.99164936  0.54354086  1.0
  O  O156  1  0.33274841  0.53901323  0.85914182  1.0
  O  O157  1  0.55548836  0.19073392  0.61206029  1.0
  O  O158  1  0.79000150  0.42422869  0.99505438  1.0
  O  O159  1  0.35957486  0.91950704  0.62645976  1.0
  O  O160  1  0.39744784  0.14690132  0.60747772  1.0
  O  O161  1  0.75647639  0.54523439  0.93525774  1.0
  O  O162  1  0.37272270  0.82433117  0.53496539  1.0
  O  O163  1  0.44505609  0.49165106  0.95646033  1.0
  O  O164  1  0.33274865  0.96098794  0.35914095  1.0
  O  O165  1  0.55549250  0.30926316  0.11206032  1.0
  O  O166  1  0.79000110  0.07577185  0.49505442  1.0
  O  O167  1  0.35957523  0.58049468  0.12646015  1.0
  O  O168  1  0.39745196  0.35309701  0.10747734  1.0
  O  O169  1  0.75647664  0.95476523  0.43525735  1.0
  O  O170  1  0.37271920  0.67567092  0.03496726  1.0
  O  O171  1  0.44505725  0.00834850  0.45645941  1.0
  O  O172  1  0.66725152  0.46098664  0.14085911  1.0
  O  O173  1  0.44450542  0.80926326  0.38794092  1.0
  O  O174  1  0.20999997  0.57577657  0.00494673  1.0
  O  O175  1  0.64042659  0.08049283  0.37353734  1.0
  O  O176  1  0.60254594  0.85309586  0.39252349  1.0
  O  O177  1  0.24352352  0.45476615  0.06474019  1.0
  O  O178  1  0.62728029  0.17566803  0.46503189  1.0
  O  O179  1  0.55494384  0.50835016  0.04354161  1.0
