# generated using pymatgen
data_ZnH14C22N2O7
_symmetry_space_group_name_H-M   'P 1'
_cell_length_a   9.58515522
_cell_length_b   11.01025274
_cell_length_c   23.72578071
_cell_angle_alpha   90.59138506
_cell_angle_beta   89.99532151
_cell_angle_gamma   89.92405413
_symmetry_Int_Tables_number   1
_chemical_formula_structural   ZnH14C22N2O7
_chemical_formula_sum   'Zn2 H28 C44 N4 O14'
_cell_volume   2503.76424173
_cell_formula_units_Z   2
loop_
 _symmetry_equiv_pos_site_id
 _symmetry_equiv_pos_as_xyz
  1  'x, y, z'
loop_
 _atom_site_type_symbol
 _atom_site_label
 _atom_site_symmetry_multiplicity
 _atom_site_fract_x
 _atom_site_fract_y
 _atom_site_fract_z
 _atom_site_occupancy
  Zn  Zn0  1  0.36990175  0.50095632  0.50018129  1.0
  Zn  Zn1  1  0.65264678  0.50035561  0.49974467  1.0
  H  H2  1  0.49847258  0.19047214  0.94933042  1.0
  H  H3  1  0.28480165  0.45725152  0.67894372  1.0
  H  H4  1  0.74203760  0.11316854  0.49140042  1.0
  H  H5  1  0.29480084  0.88803245  0.50812751  1.0
  H  H6  1  0.74183315  0.88570017  0.49993988  1.0
  H  H7  1  0.29497394  0.11562064  0.49947417  1.0
  H  H8  1  0.87622958  0.63330495  0.56235857  1.0
  H  H9  1  0.14630070  0.36883916  0.43707539  1.0
  H  H10  1  0.87774532  0.36751302  0.43732465  1.0
  H  H11  1  0.14476152  0.63203985  0.56334521  1.0
  H  H12  1  0.13282386  0.64186630  0.25830813  1.0
  H  H13  1  0.49738535  0.80823055  0.05060070  1.0
  H  H14  1  0.10875197  0.48099221  0.26187572  1.0
  H  H15  1  0.01291531  0.47865695  0.16343894  1.0
  H  H16  1  0.91593873  0.58110011  0.20722073  1.0
  H  H17  1  0.03982568  0.63858383  0.15865510  1.0
  H  H18  1  0.13628592  0.35862793  0.74207045  1.0
  H  H19  1  0.11198084  0.51955292  0.73883977  1.0
  H  H20  1  0.01680902  0.52114730  0.83738484  1.0
  H  H21  1  0.91977431  0.41914363  0.79354093  1.0
  H  H22  1  0.04408149  0.36115311  0.84184298  1.0
  H  H23  1  0.49458938  0.19737443  0.05615712  1.0
  H  H24  1  0.49751272  0.80135053  0.94375433  1.0
  H  H25  1  0.72408913  0.48821548  0.21439734  1.0
  H  H26  1  0.72789554  0.50986118  0.78506495  1.0
  H  H27  1  0.72644740  0.49637794  0.32070529  1.0
  H  H28  1  0.72881252  0.50269657  0.67875476  1.0
  H  H29  1  0.28251077  0.54359743  0.32141334  1.0
  C  C30  1  0.51880069  0.26290768  0.49119252  1.0
  C  C31  1  0.38051510  0.46803712  0.70306489  1.0
  C  C32  1  0.37658693  0.52893774  0.23820471  1.0
  C  C33  1  0.38001908  0.47069704  0.76196555  1.0
  C  C34  1  0.50356744  0.51329726  0.20922906  1.0
  C  C35  1  0.50741271  0.48560258  0.79069435  1.0
  C  C36  1  0.64471584  0.06281493  0.49495196  1.0
  C  C37  1  0.39204018  0.93841821  0.50450820  1.0
  C  C38  1  0.64465929  0.93712314  0.49994713  1.0
  C  C39  1  0.39209254  0.06413157  0.49948570  1.0
  C  C40  1  0.51829464  0.87402808  0.50480905  1.0
  C  C41  1  0.51836213  0.73838664  0.50854009  1.0
  C  C42  1  0.51840816  0.12722071  0.49467097  1.0
  C  C43  1  0.93824857  0.57424955  0.53495818  1.0
  C  C44  1  0.08434177  0.42694033  0.46493202  1.0
  C  C45  1  0.93906915  0.42658392  0.46489741  1.0
  C  C46  1  0.08351536  0.57390666  0.53530689  1.0
  C  C47  1  0.50336566  0.51927174  0.38953947  1.0
  C  C48  1  0.50459186  0.48157724  0.61036728  1.0
  C  C49  1  0.50071849  0.60548591  0.87713028  1.0
  C  C50  1  0.49601471  0.39326802  0.12280477  1.0
  C  C51  1  0.50343785  0.37733834  0.87924804  1.0
  C  C52  1  0.62827244  0.50147638  0.23838614  1.0
  C  C53  1  0.49999636  0.62139845  0.12068094  1.0
  C  C54  1  0.49944734  0.38342246  0.94169912  1.0
  C  C55  1  0.49761661  0.61528845  0.05822231  1.0
  C  C56  1  0.49853127  0.49738881  0.96992793  1.0
  C  C57  1  0.49740594  0.50133011  0.02999438  1.0
  C  C58  1  0.49884015  0.60754830  0.93964010  1.0
  C  C59  1  0.49619983  0.39117668  0.06028562  1.0
  C  C60  1  0.49780704  0.27664620  0.97239757  1.0
  C  C61  1  0.49733832  0.72207686  0.02752393  1.0
  C  C62  1  0.49589521  0.28050763  0.03159007  1.0
  C  C63  1  0.63174200  0.49719775  0.76127093  1.0
  C  C64  1  0.49770921  0.71822279  0.96833148  1.0
  C  C65  1  0.12871772  0.55717849  0.23307723  1.0
  C  C66  1  0.01807690  0.56402590  0.18771501  1.0
  C  C67  1  0.13226921  0.44309631  0.76746271  1.0
  C  C68  1  0.02200709  0.43598180  0.81295027  1.0
  C  C69  1  0.62972766  0.50529027  0.29707387  1.0
  C  C70  1  0.63238865  0.49389744  0.70257832  1.0
  C  C71  1  0.50412489  0.51995613  0.32635183  1.0
  C  C72  1  0.50635890  0.48014460  0.67355272  1.0
  C  C73  1  0.37789123  0.53217051  0.29710699  1.0
  N  N74  1  0.50704390  0.48967159  0.85129176  1.0
  N  N75  1  0.50277831  0.50905104  0.14863748  1.0
  N  N76  1  0.15472030  0.50047379  0.50019549  1.0
  N  N77  1  0.86787126  0.50042300  0.49982917  1.0
  O  O78  1  0.40079841  0.31661107  0.49035532  1.0
  O  O79  1  0.49159944  0.30079690  0.15124409  1.0
  O  O80  1  0.50500967  0.28117528  0.85255634  1.0
  O  O81  1  0.50122575  0.71754602  0.14736791  1.0
  O  O82  1  0.26069834  0.53868614  0.20540197  1.0
  O  O83  1  0.26446623  0.46115776  0.79497022  1.0
  O  O84  1  0.63679484  0.68543067  0.50898789  1.0
  O  O85  1  0.40025927  0.68518283  0.51003535  1.0
  O  O86  1  0.63736931  0.31534147  0.49026656  1.0
  O  O87  1  0.38491716  0.51972484  0.41407377  1.0
  O  O88  1  0.62222494  0.48369673  0.58530345  1.0
  O  O89  1  0.38570090  0.48182452  0.58620377  1.0
  O  O90  1  0.62142436  0.51693266  0.41424996  1.0
  O  O91  1  0.49802063  0.69802986  0.84869804  1.0
