# generated using pymatgen
data_Zn3H68C82(N3O10)2
_symmetry_space_group_name_H-M   'P 1'
_cell_length_a   9.50930688
_cell_length_b   17.12115237
_cell_length_c   19.60693283
_cell_angle_alpha   114.49466527
_cell_angle_beta   89.99964807
_cell_angle_gamma   89.99966797
_symmetry_Int_Tables_number   1
_chemical_formula_structural   Zn3H68C82(N3O10)2
_chemical_formula_sum   'Zn3 H68 C82 N6 O20'
_cell_volume   2904.91113018
_cell_formula_units_Z   1
loop_
 _symmetry_equiv_pos_site_id
 _symmetry_equiv_pos_as_xyz
  1  'x, y, z'
loop_
 _atom_site_type_symbol
 _atom_site_label
 _atom_site_symmetry_multiplicity
 _atom_site_fract_x
 _atom_site_fract_y
 _atom_site_fract_z
 _atom_site_occupancy
  Zn  Zn0  1  0.16192977  0.99999843  0.99999938  1.0
  Zn  Zn1  1  0.49530253  0.22828516  0.08125172  1.0
  Zn  Zn2  1  0.49530383  0.77172060  0.91875210  1.0
  H  H3  1  0.92584495  0.10036605  0.02157860  1.0
  H  H4  1  0.92585046  0.89963345  0.97842170  1.0
  H  H5  1  0.06647788  0.15636443  0.06054592  1.0
  H  H6  1  0.06648027  0.84363341  0.93944972  1.0
  H  H7  1  0.40678141  0.01831892  0.16230531  1.0
  H  H8  1  0.40678050  0.98168087  0.83769001  1.0
  H  H9  1  0.28573818  0.10302890  0.21211056  1.0
  H  H10  1  0.28573879  0.89696966  0.78788774  1.0
  H  H11  1  0.32673918  0.85341637  0.07624454  1.0
  H  H12  1  0.32673745  0.14658133  0.92375486  1.0
  H  H13  1  0.25123035  0.73809338  0.11490234  1.0
  H  H14  1  0.25122266  0.26190797  0.88510166  1.0
  H  H15  1  0.84432174  0.96973825  0.28877641  1.0
  H  H16  1  0.84432183  0.03026427  0.71122369  1.0
  H  H17  1  0.18654341  0.04664137  0.31638060  1.0
  H  H18  1  0.18655107  0.95334556  0.68361537  1.0
  H  H19  1  0.71441412  0.13959239  0.16444360  1.0
  H  H20  1  0.71441345  0.86041280  0.83556244  1.0
  H  H21  1  0.77376488  0.85602003  0.32912974  1.0
  H  H22  1  0.77377061  0.14398481  0.67087191  1.0
  H  H23  1  0.09548377  0.68843482  0.18887738  1.0
  H  H24  1  0.09547335  0.31156870  0.81113092  1.0
  H  H25  1  0.50383284  0.42888298  0.12716210  1.0
  H  H26  1  0.50384101  0.57112527  0.87283954  1.0
  H  H27  1  0.83206881  0.27372358  0.14589535  1.0
  H  H28  1  0.83207981  0.72628223  0.85411005  1.0
  H  H29  1  0.25255734  0.17029822  0.43341476  1.0
  H  H30  1  0.25255412  0.82968451  0.56658256  1.0
  H  H31  1  0.93454656  0.32575120  0.39305082  1.0
  H  H32  1  0.93453918  0.67424510  0.60696005  1.0
  H  H33  1  0.78283728  0.26311906  0.28123373  1.0
  H  H34  1  0.78283938  0.73688449  0.71877508  1.0
  H  H35  1  0.62951098  0.01556796  0.10180498  1.0
  H  H36  1  0.62951453  0.98443260  0.89820475  1.0
  H  H37  1  0.65988453  0.94361906  0.14537351  1.0
  H  H38  1  0.65986885  0.05637809  0.85463031  1.0
  H  H39  1  0.89847849  0.71519069  0.27916148  1.0
  H  H40  1  0.89847581  0.28481282  0.72084187  1.0
  H  H41  1  0.05747897  0.28928198  0.99784194  1.0
  H  H42  1  0.05747997  0.71072104  0.00215508  1.0
  H  H43  1  0.02846225  0.37106561  0.08929645  1.0
  H  H44  1  0.02846092  0.62893053  0.91070074  1.0
  H  H45  1  0.12805623  0.31063678  0.47184525  1.0
  H  H46  1  0.12804865  0.68935181  0.52815965  1.0
  H  H47  1  0.77589647  0.58138166  0.22387653  1.0
  H  H48  1  0.77590641  0.41862444  0.77612403  1.0
  H  H49  1  0.63912256  0.56353458  0.15743108  1.0
  H  H50  1  0.63912726  0.43647227  0.84256812  1.0
  H  H51  1  0.84088283  0.61177772  0.11290537  1.0
  H  H52  1  0.84087485  0.38822418  0.88709656  1.0
  H  H53  1  0.95619750  0.54035801  0.12809563  1.0
  H  H54  1  0.95620054  0.45963942  0.87190741  1.0
  H  H55  1  0.90994622  0.43117830  0.01321765  1.0
  H  H56  1  0.90994455  0.56882320  0.98678240  1.0
  H  H57  1  0.72690751  0.44509223  0.02262029  1.0
  H  H58  1  0.72690611  0.55491159  0.97738215  1.0
  H  H59  1  0.17083549  0.45460803  0.17212915  1.0
  H  H60  1  0.17084030  0.54539757  0.82786845  1.0
  H  H61  1  0.29068526  0.58565017  0.25824036  1.0
  H  H62  1  0.29068833  0.41435349  0.74175823  1.0
  H  H63  1  0.48354829  0.62003894  0.00400891  1.0
  H  H64  1  0.48354321  0.37995273  0.99598378  1.0
  H  H65  1  0.44069961  0.71189145  0.27968045  1.0
  H  H66  1  0.44069164  0.28810430  0.72031333  1.0
  H  H67  1  0.60771279  0.74928994  0.09082074  1.0
  H  H68  1  0.60771332  0.25070231  0.90917180  1.0
  H  H69  1  0.58757035  0.79608849  0.22908483  1.0
  H  H70  1  0.58756471  0.20390643  0.77090617  1.0
  C  C71  1  0.16625762  0.94170985  0.14254089  1.0
  C  C72  1  0.16625766  0.05828939  0.85745903  1.0
  C  C73  1  0.31962558  0.05730117  0.15603373  1.0
  C  C74  1  0.31962815  0.94269848  0.84396384  1.0
  C  C75  1  0.37053573  0.10634605  0.11195771  1.0
  C  C76  1  0.37053930  0.89365267  0.88803887  1.0
  C  C77  1  0.05512083  0.95975648  0.19221195  1.0
  C  C78  1  0.05511748  0.04024339  0.80778955  1.0
  C  C79  1  0.23931716  0.86294220  0.11486367  1.0
  C  C80  1  0.23931708  0.13705471  0.88513622  1.0
  C  C81  1  0.98221823  0.04415115  0.21870295  1.0
  C  C82  1  0.98221515  0.95585062  0.78130157  1.0
  C  C83  1  0.01144275  0.89489665  0.21571108  1.0
  C  C84  1  0.01144008  0.10510346  0.78429012  1.0
  C  C85  1  0.19749832  0.79982257  0.13673966  1.0
  C  C86  1  0.19749050  0.20017909  0.86326460  1.0
  C  C87  1  0.02275213  0.11472168  0.28629805  1.0
  C  C88  1  0.02275801  0.88527840  0.71370923  1.0
  C  C89  1  0.87248069  0.05456629  0.17658896  1.0
  C  C90  1  0.87248139  0.94543481  0.82341565  1.0
  C  C91  1  0.89865213  0.90805643  0.26682600  1.0
  C  C92  1  0.89864920  0.09194706  0.73317531  1.0
  C  C93  1  0.08360950  0.81384737  0.18723011  1.0
  C  C94  1  0.08360352  0.18615427  0.81277347  1.0
  C  C95  1  0.13216468  0.10790126  0.33292703  1.0
  C  C96  1  0.13216162  0.89209111  0.66707104  1.0
  C  C97  1  0.94972659  0.19511183  0.30915749  1.0
  C  C98  1  0.94973360  0.80488757  0.69084933  1.0
  C  C99  1  0.79939279  0.13341104  0.19909711  1.0
  C  C100  1  0.79939355  0.86659304  0.80090929  1.0
  C  C101  1  0.85944231  0.84452781  0.28907566  1.0
  C  C102  1  0.85944110  0.15547720  0.71092783  1.0
  C  C103  1  0.03979156  0.74968938  0.21081751  1.0
  C  C104  1  0.03977995  0.25031444  0.78918902  1.0
  C  C105  1  0.60522619  0.40614302  0.13699657  1.0
  C  C106  1  0.60523426  0.59386468  0.86300558  1.0
  C  C107  1  0.77342596  0.32895498  0.14783394  1.0
  C  C108  1  0.77343861  0.67105115  0.85217072  1.0
  C  C109  1  0.20903320  0.29069021  0.07847172  1.0
  C  C110  1  0.20903090  0.70930808  0.92151805  1.0
  C  C111  1  0.16870074  0.17702936  0.39826461  1.0
  C  C112  1  0.16869923  0.82295769  0.60173553  1.0
  C  C113  1  0.99044696  0.26489970  0.37646455  1.0
  C  C114  1  0.99044293  0.73509499  0.62354200  1.0
  C  C115  1  0.83816982  0.20199604  0.26389581  1.0
  C  C116  1  0.83817632  0.79800527  0.73611305  1.0
  C  C117  1  0.69589155  0.96214232  0.10067253  1.0
  C  C118  1  0.69588706  0.03785784  0.89933175  1.0
  C  C119  1  0.93031453  0.76466223  0.26082756  1.0
  C  C120  1  0.93031002  0.23534110  0.73917614  1.0
  C  C121  1  0.10951486  0.33804640  0.04717759  1.0
  C  C122  1  0.10951581  0.66195632  0.95281661  1.0
  C  C123  1  0.09782330  0.25640837  0.42024708  1.0
  C  C124  1  0.09781660  0.74358102  0.57975614  1.0
  C  C125  1  0.67276140  0.88778254  0.02498011  1.0
  C  C126  1  0.67275621  0.11222093  0.97502135  1.0
  C  C127  1  0.74291042  0.54128382  0.16616066  1.0
  C  C128  1  0.74291605  0.45872118  0.83384012  1.0
  C  C129  1  0.84919926  0.54620491  0.10958867  1.0
  C  C130  1  0.84920001  0.45379695  0.89041424  1.0
  C  C131  1  0.24310738  0.46556012  0.07085771  1.0
  C  C132  1  0.24310996  0.53443866  0.92913774  1.0
  C  C133  1  0.82670216  0.47994975  0.02836945  1.0
  C  C134  1  0.82669909  0.52005094  0.97163209  1.0
  C  C135  1  0.23277160  0.49194969  0.14958457  1.0
  C  C136  1  0.23277546  0.50805237  0.85041310  1.0
  C  C137  1  0.32142323  0.51322592  0.04121250  1.0
  C  C138  1  0.32142382  0.48677051  0.95878442  1.0
  C  C139  1  0.29991566  0.56546774  0.19780402  1.0
  C  C140  1  0.29991459  0.43452944  0.80218966  1.0
  C  C141  1  0.39344249  0.58840979  0.09083467  1.0
  C  C142  1  0.39343819  0.41158238  0.90915745  1.0
  C  C143  1  0.38181744  0.61562043  0.17053662  1.0
  C  C144  1  0.38181549  0.38437180  0.82945555  1.0
  C  C145  1  0.47759470  0.63855052  0.06414748  1.0
  C  C146  1  0.47758637  0.36144053  0.93584399  1.0
  C  C147  1  0.45227192  0.69140572  0.21929303  1.0
  C  C148  1  0.45226823  0.30858804  0.78069948  1.0
  C  C149  1  0.54646128  0.71112262  0.11291441  1.0
  C  C150  1  0.54645959  0.28887061  0.88707661  1.0
  C  C151  1  0.53347757  0.73818660  0.19131373  1.0
  C  C152  1  0.53347716  0.26180799  0.80867986  1.0
  N  N153  1  0.63423508  0.32633703  0.12936334  1.0
  N  N154  1  0.63424642  0.67367179  0.87064015  1.0
  N  N155  1  0.72210498  0.45380709  0.15919159  1.0
  N  N156  1  0.72211383  0.54620061  0.84081175  1.0
  N  N157  1  0.83057892  0.40585109  0.16654831  1.0
  N  N158  1  0.83058946  0.59415472  0.83345556  1.0
  O  O159  1  0.20503522  0.00318781  0.11629940  1.0
  O  O160  1  0.20503882  0.99681313  0.88369846  1.0
  O  O161  1  0.32248120  0.08962248  0.04763706  1.0
  O  O162  1  0.32248062  0.91037394  0.95235884  1.0
  O  O163  1  0.03035800  0.09868305  0.02683051  1.0
  O  O164  1  0.03036356  0.90131375  0.97317048  1.0
  O  O165  1  0.46383329  0.16400323  0.14431177  1.0
  O  O166  1  0.46383998  0.83599625  0.85568531  1.0
  O  O167  1  0.34123949  0.29873823  0.06894723  1.0
  O  O168  1  0.34123716  0.70126511  0.93104497  1.0
  O  O169  1  0.55683481  0.15266473  0.97839742  1.0
  O  O170  1  0.55684151  0.84733939  0.02160411  1.0
  O  O171  1  0.84054755  0.98544141  0.11060378  1.0
  O  O172  1  0.84054552  0.01456369  0.88939675  1.0
  O  O173  1  0.15328994  0.24823334  0.10996547  1.0
  O  O174  1  0.15328234  0.75175884  0.89002023  1.0
  O  O175  1  0.17552901  0.39497059  0.02029538  1.0
  O  O176  1  0.17553652  0.60503369  0.97969969  1.0
  O  O177  1  0.75686357  0.87150339  0.97164966  1.0
  O  O178  1  0.75685452  0.12850602  0.02835215  1.0
