# generated using pymatgen
data_Hf3H17C45O16
_symmetry_space_group_name_H-M   'P 1'
_cell_length_a   17.40239268
_cell_length_b   17.40777156
_cell_length_c   17.41324988
_cell_angle_alpha   93.60212357
_cell_angle_beta   93.54543564
_cell_angle_gamma   93.62568695
_symmetry_Int_Tables_number   1
_chemical_formula_structural   Hf3H17C45O16
_chemical_formula_sum   'Hf6 H34 C90 O32'
_cell_volume   5242.67425842
_cell_formula_units_Z   2
loop_
 _symmetry_equiv_pos_site_id
 _symmetry_equiv_pos_as_xyz
  1  'x, y, z'
loop_
 _atom_site_type_symbol
 _atom_site_label
 _atom_site_symmetry_multiplicity
 _atom_site_fract_x
 _atom_site_fract_y
 _atom_site_fract_z
 _atom_site_occupancy
  Hf  Hf0  1  0.01784719  0.19533526  0.14377545  1.0
  Hf  Hf1  1  0.13143904  0.23584969  0.98987619  1.0
  Hf  Hf2  1  0.98094869  0.00469585  0.06635209  1.0
  Hf  Hf3  1  0.17173600  0.08177385  0.10295526  1.0
  Hf  Hf4  1  0.94063147  0.15886014  0.95319230  1.0
  Hf  Hf5  1  0.09429797  0.04527487  0.91240884  1.0
  H  H6  1  0.71122899  0.07939457  0.38879199  1.0
  H  H7  1  0.74064089  0.08570598  0.63688446  1.0
  H  H8  1  0.93342936  0.04291985  0.49971512  1.0
  H  H9  1  0.17884304  0.18719425  0.56043463  1.0
  H  H10  1  0.36620850  0.13983655  0.41734911  1.0
  H  H11  1  0.40410219  0.15227112  0.66507081  1.0
  H  H12  1  0.41673952  0.77488171  0.98674735  1.0
  H  H13  1  0.66497086  0.80516609  0.99300260  1.0
  H  H14  1  0.52728650  0.99742702  0.95035904  1.0
  H  H15  1  0.58894462  0.24345598  0.09553641  1.0
  H  H16  1  0.44567781  0.43024991  0.04733168  1.0
  H  H17  1  0.69356014  0.46872512  0.06005455  1.0
  H  H18  1  0.01947839  0.48175132  0.68279286  1.0
  H  H19  1  0.03011059  0.72995717  0.71498563  1.0
  H  H20  1  0.97985643  0.59140944  0.90477566  1.0
  H  H21  1  0.09777222  0.75852819  0.37739325  1.0
  H  H22  1  0.08128518  0.51057856  0.34037853  1.0
  H  H23  1  0.12482544  0.65206779  0.15097598  1.0
  H  H24  1  0.17681103  0.24038386  0.14852134  1.0
  H  H25  1  0.87578034  0.11797007  0.09177875  1.0
  H  H26  1  0.11945945  0.93991817  0.02532341  1.0
  H  H27  1  0.05374250  0.18400291  0.84790808  1.0
  H  H28  1  0.97373202  0.71106273  0.59244794  1.0
  H  H29  1  0.11558754  0.51707587  0.60165438  1.0
  H  H30  1  0.14225297  0.52885801  0.46529815  1.0
  H  H31  1  0.00059182  0.72296764  0.45630846  1.0
  H  H32  1  0.65968716  0.58407040  0.11294804  1.0
  H  H33  1  0.46041866  0.51925412  0.95734964  1.0
  H  H34  1  0.44864177  0.65569667  0.93158586  1.0
  H  H35  1  0.64807800  0.72037287  0.08691670  1.0
  H  H36  1  0.59180973  0.02424746  0.42036976  1.0
  H  H37  1  0.65596421  0.17957060  0.61996332  1.0
  H  H38  1  0.51957338  0.20545641  0.63144069  1.0
  H  H39  1  0.45527847  0.04988735  0.43202409  1.0
  C  C40  1  0.82524145  0.05913321  0.43606692  1.0
  C  C41  1  0.74698694  0.07357061  0.44149166  1.0
  C  C42  1  0.71571431  0.08360047  0.51344796  1.0
  C  C43  1  0.76372790  0.07883939  0.58025991  1.0
  C  C44  1  0.84196461  0.06382171  0.57588745  1.0
  C  C45  1  0.87276046  0.05360339  0.50353832  1.0
  C  C46  1  0.28891827  0.17194994  0.62108824  1.0
  C  C47  1  0.23915031  0.17590005  0.55487493  1.0
  C  C48  1  0.26733609  0.16364856  0.48151226  1.0
  C  C49  1  0.34521861  0.14813392  0.47479033  1.0
  C  C50  1  0.39546624  0.14504136  0.54030961  1.0
  C  C51  1  0.36664270  0.15686775  0.61325803  1.0
  C  C52  1  0.46378973  0.88905108  0.96657104  1.0
  C  C53  1  0.46940737  0.81083333  0.98094702  1.0
  C  C54  1  0.54149220  0.77981911  0.99095660  1.0
  C  C55  1  0.60824884  0.82804918  0.98618046  1.0
  C  C56  1  0.60368134  0.90624290  0.97118304  1.0
  C  C57  1  0.53122225  0.93679349  0.96105335  1.0
  C  C58  1  0.64958024  0.35353594  0.07993428  1.0
  C  C59  1  0.58333981  0.30366803  0.08398073  1.0
  C  C60  1  0.50990861  0.33161410  0.07153678  1.0
  C  C61  1  0.50315813  0.40939941  0.05576036  1.0
  C  C62  1  0.56870183  0.45977188  0.05265441  1.0
  C  C63  1  0.64172552  0.43117458  0.06465816  1.0
  C  C64  1  0.99954394  0.52842786  0.79714545  1.0
  C  C65  1  0.01562239  0.53435199  0.71938573  1.0
  C  C66  1  0.02578860  0.60654033  0.68861384  1.0
  C  C67  1  0.01991775  0.67309755  0.73677280  1.0
  C  C68  1  0.00281165  0.66818219  0.81437438  1.0
  C  C69  1  0.99230679  0.59561170  0.84461112  1.0
  C  C70  1  0.11175936  0.71362557  0.26108684  1.0
  C  C71  1  0.09912971  0.70645661  0.33943967  1.0
  C  C72  1  0.08876375  0.63374144  0.36901773  1.0
  C  C73  1  0.09155355  0.56774411  0.31928170  1.0
  C  C74  1  0.10507162  0.57383209  0.24085559  1.0
  C  C75  1  0.11537961  0.64700065  0.21174124  1.0
  C  C76  1  0.92003695  0.06868552  0.22923311  1.0
  C  C77  1  0.09579760  0.36353913  0.12501385  1.0
  C  C78  1  0.15240094  0.15871495  0.27134665  1.0
  C  C79  1  0.85884797  0.26341363  0.07738224  1.0
  C  C80  1  0.19897956  0.16929582  0.83049339  1.0
  C  C81  1  0.00851856  0.87935591  0.92730752  1.0
  C  C82  1  0.29973303  0.21629185  0.06663875  1.0
  C  C83  1  0.00550376  0.32164304  0.89213026  1.0
  C  C84  1  0.81505489  0.01973797  0.98056442  1.0
  C  C85  1  0.10535796  0.92255968  0.17043755  1.0
  C  C86  1  0.25707728  0.98399864  0.97629067  1.0
  C  C87  1  0.95511037  0.07307960  0.78721265  1.0
  C  C88  1  0.11750412  0.78799014  0.23204160  1.0
  C  C89  1  0.11781837  0.85192489  0.20729045  1.0
  C  C90  1  0.10330815  0.44173381  0.15810683  1.0
  C  C91  1  0.10558374  0.50472321  0.19320771  1.0
  C  C92  1  0.99913723  0.80153929  0.89357946  1.0
  C  C93  1  0.99903732  0.73793953  0.86011314  1.0
  C  C94  1  0.99269506  0.39235237  0.85566840  1.0
  C  C95  1  0.99349415  0.45497501  0.82810185  1.0
  C  C96  1  0.01175507  0.67166959  0.56511563  1.0
  C  C97  1  0.04251316  0.61311786  0.60710046  1.0
  C  C98  1  0.08920011  0.56162371  0.56963226  1.0
  C  C99  1  0.10438365  0.56835062  0.49276358  1.0
  C  C100  1  0.07348698  0.62684888  0.45082542  1.0
  C  C101  1  0.02697410  0.67844415  0.48834847  1.0
  C  C102  1  0.72422049  0.32525371  0.08724039  1.0
  C  C103  1  0.78827518  0.30068624  0.08921510  1.0
  C  C104  1  0.44106469  0.28386251  0.07371361  1.0
  C  C105  1  0.37810606  0.24884541  0.07279807  1.0
  C  C106  1  0.67365782  0.95206436  0.96864045  1.0
  C  C107  1  0.73733445  0.98569756  0.97020978  1.0
  C  C108  1  0.32778576  0.94780650  0.96258795  1.0
  C  C109  1  0.39043136  0.92037792  0.96206662  1.0
  C  C110  1  0.61402283  0.59937332  0.07204729  1.0
  C  C111  1  0.56116962  0.54142920  0.03690457  1.0
  C  C112  1  0.50114360  0.56328161  0.98684518  1.0
  C  C113  1  0.49444988  0.64029987  0.97228364  1.0
  C  C114  1  0.54760406  0.69810952  0.00710095  1.0
  C  C115  1  0.60740359  0.67631511  0.05742808  1.0
  C  C116  1  0.26053102  0.17916764  0.69570063  1.0
  C  C117  1  0.23606753  0.18110978  0.75979855  1.0
  C  C118  1  0.18489484  0.16483676  0.34969547  1.0
  C  C119  1  0.21974379  0.16578107  0.41265735  1.0
  C  C120  1  0.92101170  0.06274461  0.70958292  1.0
  C  C121  1  0.88757529  0.06126896  0.64590097  1.0
  C  C122  1  0.85670290  0.05455990  0.36276295  1.0
  C  C123  1  0.88403533  0.05502411  0.30006619  1.0
  C  C124  1  0.57628390  0.06494898  0.46616313  1.0
  C  C125  1  0.63396987  0.09976051  0.51942075  1.0
  C  C126  1  0.61200575  0.15004968  0.57921773  1.0
  C  C127  1  0.53501649  0.16461174  0.58574704  1.0
  C  C128  1  0.47719147  0.12943353  0.53282781  1.0
  C  C129  1  0.49921038  0.07945073  0.47277718  1.0
  O  O130  1  0.92196673  0.01326549  0.17824018  1.0
  O  O131  1  0.12957271  0.34668772  0.06392205  1.0
  O  O132  1  0.09156008  0.19285862  0.25456131  1.0
  O  O133  1  0.90846235  0.25981421  0.13362519  1.0
  O  O134  1  0.86290354  0.23480110  0.00827824  1.0
  O  O135  1  0.19054807  0.11865652  0.22442705  1.0
  O  O136  1  0.05509103  0.31681426  0.16281136  1.0
  O  O137  1  0.94679922  0.13840165  0.22501272  1.0
  O  O138  1  0.02344333  0.21576328  0.02934475  1.0
  O  O139  1  0.05716294  0.08735504  0.12341374  1.0
  O  O140  1  0.14231258  0.20614750  0.11413605  1.0
  O  O141  1  0.92709122  0.11901554  0.07300564  1.0
  O  O142  1  0.19573357  0.22556736  0.88019741  1.0
  O  O143  1  0.97664589  0.89600216  0.98962229  1.0
  O  O144  1  0.28276859  0.15545037  0.10074291  1.0
  O  O145  1  0.94981331  0.27094692  0.89414315  1.0
  O  O146  1  0.83181448  0.08222362  0.94903186  1.0
  O  O147  1  0.16151756  0.97245323  0.16704363  1.0
  O  O148  1  0.20606504  0.98602646  0.92096632  1.0
  O  O149  1  0.01748704  0.04132354  0.80379970  1.0
  O  O150  1  0.25294340  0.01081497  0.04597474  1.0
  O  O151  1  0.91856278  0.11594844  0.83305247  1.0
  O  O152  1  0.25288901  0.25444915  0.02655829  1.0
  O  O153  1  0.03616045  0.92648461  0.14204507  1.0
  O  O154  1  0.86078119  0.98297068  0.02326278  1.0
  O  O155  1  0.07509623  0.31729556  0.91921372  1.0
  O  O156  1  0.17019364  0.10022457  0.83449495  1.0
  O  O157  1  0.05092976  0.92534589  0.89042766  1.0
  O  O158  1  0.99283664  0.05727134  0.96497670  1.0
  O  O159  1  0.15155828  0.12128926  0.99513198  1.0
  O  O160  1  0.10075290  0.99122148  0.02651902  1.0
  O  O161  1  0.05483626  0.16524216  0.89917456  1.0
