# generated using pymatgen
data_Zn4H24C24N12O13
_symmetry_space_group_name_H-M   'P 1'
_cell_length_a   18.57287291
_cell_length_b   18.57257799
_cell_length_c   18.57267304
_cell_angle_alpha   120.00097884
_cell_angle_beta   120.00138777
_cell_angle_gamma   59.99847232
_symmetry_Int_Tables_number   1
_chemical_formula_structural   Zn4H24C24N12O13
_chemical_formula_sum   'Zn8 H48 C48 N24 O26'
_cell_volume   4529.99696631
_cell_formula_units_Z   2
loop_
 _symmetry_equiv_pos_site_id
 _symmetry_equiv_pos_as_xyz
  1  'x, y, z'
loop_
 _atom_site_type_symbol
 _atom_site_label
 _atom_site_symmetry_multiplicity
 _atom_site_fract_x
 _atom_site_fract_y
 _atom_site_fract_z
 _atom_site_occupancy
  Zn  Zn0  1  0.95732345  0.45732747  0.04267902  1.0
  Zn  Zn1  1  0.12804319  0.45730983  0.04267502  1.0
  Zn  Zn2  1  0.95732342  0.62799712  0.04264761  1.0
  Zn  Zn3  1  0.95732195  0.45733778  0.87199221  1.0
  Zn  Zn4  1  0.54265783  0.04266053  0.45730333  1.0
  Zn  Zn5  1  0.54265755  0.87198901  0.45730521  1.0
  Zn  Zn6  1  0.37197709  0.04267936  0.45731253  1.0
  Zn  Zn7  1  0.54264696  0.04269981  0.62800479  1.0
  H  H8  1  0.84835621  0.32720242  0.70559803  1.0
  H  H9  1  0.81513913  0.24586689  0.61082392  1.0
  H  H10  1  0.67279131  0.15164581  0.79442066  1.0
  H  H11  1  0.75411530  0.18484921  0.88918572  1.0
  H  H12  1  0.65164339  0.17276734  0.53003461  1.0
  H  H13  1  0.68488295  0.25406813  0.54981787  1.0
  H  H14  1  0.82723832  0.34832696  0.96998921  1.0
  H  H15  1  0.74592490  0.31511274  0.95020182  1.0
  H  H16  1  0.03002181  0.79440840  0.17277092  1.0
  H  H17  1  0.04977303  0.88916451  0.25406010  1.0
  H  H18  1  0.46994710  0.70561423  0.34834773  1.0
  H  H19  1  0.45018007  0.61086431  0.31513172  1.0
  H  H20  1  0.20557364  0.96999200  0.32722164  1.0
  H  H21  1  0.11081140  0.95019986  0.24588208  1.0
  H  H22  1  0.29438231  0.53002896  0.15165328  1.0
  H  H23  1  0.38915079  0.54981286  0.18486494  1.0
  H  H24  1  0.82722986  0.79441535  0.15165211  1.0
  H  H25  1  0.74592307  0.88916411  0.18487118  1.0
  H  H26  1  0.65165503  0.70560876  0.32720886  1.0
  H  H27  1  0.68487557  0.61083121  0.24590365  1.0
  H  H28  1  0.67277174  0.96998752  0.34832504  1.0
  H  H29  1  0.75411599  0.95018893  0.31512812  1.0
  H  H30  1  0.84834170  0.53003461  0.17277079  1.0
  H  H31  1  0.81512676  0.54981352  0.25409142  1.0
  H  H32  1  0.03004330  0.34833876  0.70559095  1.0
  H  H33  1  0.04980734  0.31512592  0.61082546  1.0
  H  H34  1  0.46997810  0.17278658  0.79441452  1.0
  H  H35  1  0.45020741  0.25410061  0.88917498  1.0
  H  H36  1  0.20561396  0.15165574  0.53003600  1.0
  H  H37  1  0.11086559  0.18486777  0.54981590  1.0
  H  H38  1  0.29441666  0.32722491  0.96997452  1.0
  H  H39  1  0.38916577  0.24590577  0.95019964  1.0
  H  H40  1  0.29439189  0.34833803  0.17276826  1.0
  H  H41  1  0.38914990  0.31514301  0.25408643  1.0
  H  H42  1  0.20562755  0.17276943  0.34837212  1.0
  H  H43  1  0.11085333  0.25407596  0.31513858  1.0
  H  H44  1  0.46996907  0.15162945  0.32721686  1.0
  H  H45  1  0.45019706  0.18485479  0.24590264  1.0
  H  H46  1  0.03004369  0.32722120  0.15168155  1.0
  H  H47  1  0.04979787  0.24589444  0.18485376  1.0
  H  H48  1  0.84833179  0.79443577  0.96998384  1.0
  H  H49  1  0.81511559  0.88918875  0.95018567  1.0
  H  H50  1  0.67277667  0.70558330  0.53002852  1.0
  H  H51  1  0.75410718  0.61083068  0.54981721  1.0
  H  H52  1  0.65164750  0.96998301  0.79441175  1.0
  H  H53  1  0.68489085  0.95019588  0.88916687  1.0
  H  H54  1  0.82723257  0.53001829  0.70562529  1.0
  H  H55  1  0.74592277  0.54981956  0.61085195  1.0
  C  C56  1  0.13913076  0.36085193  0.13914343  1.0
  C  C57  1  0.13913509  0.63915991  0.13915281  1.0
  C  C58  1  0.86085590  0.63915085  0.13915520  1.0
  C  C59  1  0.86084787  0.63917212  0.86088340  1.0
  C  C60  1  0.86086995  0.36084317  0.86087006  1.0
  C  C61  1  0.13913773  0.36086237  0.86084524  1.0
  C  C62  1  0.63913253  0.86086155  0.36085023  1.0
  C  C63  1  0.36083236  0.86087443  0.36084002  1.0
  C  C64  1  0.36085188  0.13913242  0.36084397  1.0
  C  C65  1  0.36087032  0.13913936  0.63916143  1.0
  C  C66  1  0.63913189  0.13913740  0.63915251  1.0
  C  C67  1  0.63914537  0.86086719  0.63914988  1.0
  C  C68  1  0.80474051  0.30469659  0.80474170  1.0
  C  C69  1  0.69526966  0.19526862  0.69527033  1.0
  C  C70  1  0.77833673  0.27549219  0.71086212  1.0
  C  C71  1  0.72450563  0.22166563  0.78917037  1.0
  C  C72  1  0.72165022  0.22447836  0.65699945  1.0
  C  C73  1  0.77551264  0.27833620  0.84301652  1.0
  C  C74  1  0.19524729  0.69529787  0.19527128  1.0
  C  C75  1  0.30471620  0.80472497  0.30469648  1.0
  C  C76  1  0.15697125  0.78916106  0.22447672  1.0
  C  C77  1  0.34299113  0.71084664  0.27831939  1.0
  C  C78  1  0.21083375  0.84298510  0.27547805  1.0
  C  C79  1  0.28913965  0.65702185  0.22166533  1.0
  C  C80  1  0.80472570  0.69527747  0.19528918  1.0
  C  C81  1  0.69527229  0.80472402  0.30469186  1.0
  C  C82  1  0.77551688  0.78916016  0.22166305  1.0
  C  C83  1  0.72165767  0.71086299  0.27550017  1.0
  C  C84  1  0.72451520  0.84298923  0.27832725  1.0
  C  C85  1  0.77833623  0.65700338  0.22449006  1.0
  C  C86  1  0.19530216  0.30471290  0.80471062  1.0
  C  C87  1  0.30471950  0.19529599  0.69528617  1.0
  C  C88  1  0.15702464  0.27833609  0.71085204  1.0
  C  C89  1  0.34299394  0.22449653  0.78916981  1.0
  C  C90  1  0.21085405  0.22166067  0.65700895  1.0
  C  C91  1  0.28915622  0.27550889  0.84300628  1.0
  C  C92  1  0.19526302  0.30470875  0.19525801  1.0
  C  C93  1  0.30473545  0.19526774  0.30473203  1.0
  C  C94  1  0.28914141  0.27833557  0.22448112  1.0
  C  C95  1  0.21084483  0.22448349  0.27832475  1.0
  C  C96  1  0.34299207  0.22165965  0.27549294  1.0
  C  C97  1  0.15699808  0.27549681  0.22165161  1.0
  C  C98  1  0.80472967  0.69530461  0.80474310  1.0
  C  C99  1  0.69529198  0.80472004  0.69529216  1.0
  C  C100  1  0.77833529  0.78917376  0.84300077  1.0
  C  C101  1  0.72450896  0.71085212  0.65700747  1.0
  C  C102  1  0.72166771  0.84300687  0.78915728  1.0
  C  C103  1  0.77550634  0.65703031  0.71086014  1.0
  N  N104  1  0.80229749  0.29665970  0.66554044  1.0
  N  N105  1  0.70333265  0.19770339  0.83449006  1.0
  N  N106  1  0.69768189  0.20331573  0.56657606  1.0
  N  N107  1  0.79668498  0.30229719  0.93344715  1.0
  N  N108  1  0.06655464  0.83446122  0.20331210  1.0
  N  N109  1  0.43341889  0.66555975  0.30230246  1.0
  N  N110  1  0.16553189  0.93343210  0.29666199  1.0
  N  N111  1  0.33444358  0.56657050  0.19769988  1.0
  N  N112  1  0.79669034  0.83446334  0.19769679  1.0
  N  N113  1  0.69770482  0.66555228  0.29666906  1.0
  N  N114  1  0.70334274  0.93343969  0.30230411  1.0
  N  N115  1  0.80231279  0.56657332  0.20333430  1.0
  N  N116  1  0.06657381  0.30230148  0.66553598  1.0
  N  N117  1  0.43344599  0.20333013  0.83447467  1.0
  N  N118  1  0.16556390  0.19768515  0.56657546  1.0
  N  N119  1  0.33445940  0.29667170  0.93343778  1.0
  N  N120  1  0.33444630  0.30230353  0.20331626  1.0
  N  N121  1  0.16555807  0.20331092  0.30231005  1.0
  N  N122  1  0.43343050  0.19768431  0.29667152  1.0
  N  N123  1  0.06656267  0.29666990  0.19770666  1.0
  N  N124  1  0.80230060  0.83448044  0.93343220  1.0
  N  N125  1  0.70334883  0.66554217  0.56657211  1.0
  N  N126  1  0.69769243  0.93344652  0.83445382  1.0
  N  N127  1  0.79667368  0.56657284  0.66557281  1.0
  O  O128  1  0.00002504  0.49998602  0.00001825  1.0
  O  O129  1  0.05461245  0.38733491  0.11797019  1.0
  O  O130  1  0.17596621  0.55461732  0.11794839  1.0
  O  O131  1  0.88736651  0.67596835  0.11794078  1.0
  O  O132  1  0.17597235  0.38203809  0.11265614  1.0
  O  O133  1  0.88203423  0.55461627  0.11264347  1.0
  O  O134  1  0.05459845  0.67599828  0.11263750  1.0
  O  O135  1  0.88203393  0.67605342  0.94542464  1.0
  O  O136  1  0.88206842  0.38731733  0.82399779  1.0
  O  O137  1  0.88734039  0.55462250  0.82401323  1.0
  O  O138  1  0.88735253  0.38201213  0.94541390  1.0
  O  O139  1  0.17597253  0.38736878  0.94536877  1.0
  O  O140  1  0.05460600  0.38207688  0.82400434  1.0
  O  O141  1  0.49998432  0.00000568  0.49998762  1.0
  O  O142  1  0.61263983  0.94539610  0.38201648  1.0
  O  O143  1  0.44538581  0.82399264  0.38203431  1.0
  O  O144  1  0.32396908  0.11265529  0.38203660  1.0
  O  O145  1  0.61791708  0.82398608  0.38729339  1.0
  O  O146  1  0.44540579  0.11794558  0.38733826  1.0
  O  O147  1  0.32396084  0.94542501  0.38733380  1.0
  O  O148  1  0.32403370  0.11795634  0.55462343  1.0
  O  O149  1  0.61266267  0.11796413  0.67605311  1.0
  O  O150  1  0.44540812  0.11267245  0.67602802  1.0
  O  O151  1  0.61794615  0.11265378  0.55461001  1.0
  O  O152  1  0.61265115  0.82402971  0.55461188  1.0
  O  O153  1  0.61794189  0.94539804  0.67599305  1.0
