# generated using pymatgen
data_ZnH12C32N7O8
_symmetry_space_group_name_H-M   'P 1'
_cell_length_a   18.48240818
_cell_length_b   19.16006750
_cell_length_c   19.65353924
_cell_angle_alpha   88.76756143
_cell_angle_beta   89.99036109
_cell_angle_gamma   89.93495015
_symmetry_Int_Tables_number   1
_chemical_formula_structural   ZnH12C32N7O8
_chemical_formula_sum   'Zn2 H24 C64 N14 O16'
_cell_volume   6958.17904041
_cell_formula_units_Z   2
loop_
 _symmetry_equiv_pos_site_id
 _symmetry_equiv_pos_as_xyz
  1  'x, y, z'
loop_
 _atom_site_type_symbol
 _atom_site_label
 _atom_site_symmetry_multiplicity
 _atom_site_fract_x
 _atom_site_fract_y
 _atom_site_fract_z
 _atom_site_occupancy
  Zn  Zn0  1  0.42287418  0.49976249  0.49863175  1.0
  Zn  Zn1  1  0.57728967  0.49962900  0.49900551  1.0
  H  H2  1  0.38352302  0.28007599  0.51059986  1.0
  H  H3  1  0.61588323  0.71868337  0.50792076  1.0
  H  H4  1  0.38373679  0.71908258  0.50797907  1.0
  H  H5  1  0.61571862  0.28014538  0.50982879  1.0
  H  H6  1  0.38338848  0.14994820  0.52635607  1.0
  H  H7  1  0.61636314  0.84809790  0.52470723  1.0
  H  H8  1  0.38344190  0.84849168  0.52484028  1.0
  H  H9  1  0.61633234  0.15002319  0.52564155  1.0
  H  H10  1  0.45779025  0.39094413  0.05387986  1.0
  H  H11  1  0.54029845  0.61354380  0.94388309  1.0
  H  H12  1  0.45722533  0.40442069  0.92774969  1.0
  H  H13  1  0.54195273  0.59971016  0.07001265  1.0
  H  H14  1  0.16872506  0.58282321  0.42267929  1.0
  H  H15  1  0.83156289  0.41691640  0.57555515  1.0
  H  H16  1  0.16869909  0.41739819  0.57600417  1.0
  H  H17  1  0.83103922  0.58292262  0.42278426  1.0
  H  H18  1  0.06660624  0.48073854  0.60770922  1.0
  H  H19  1  0.93335115  0.51907654  0.39024277  1.0
  H  H20  1  0.06669336  0.51907156  0.39027911  1.0
  H  H21  1  0.93330087  0.48065855  0.60766724  1.0
  H  H22  1  0.69281962  0.43904502  0.08135956  1.0
  H  H23  1  0.27832988  0.46467366  0.87061891  1.0
  H  H24  1  0.71296388  0.57935604  0.87727428  1.0
  H  H25  1  0.30024423  0.53419879  0.09068961  1.0
  C  C26  1  0.50091715  0.50583163  0.63264005  1.0
  C  C27  1  0.50062573  0.49449712  0.36554391  1.0
  C  C28  1  0.50061881  0.48801614  0.14511437  1.0
  C  C29  1  0.49896090  0.51571515  0.85278928  1.0
  C  C30  1  0.50081736  0.48771468  0.28934724  1.0
  C  C31  1  0.50022958  0.51425277  0.70864720  1.0
  C  C32  1  0.47538290  0.43979689  0.02975644  1.0
  C  C33  1  0.52309760  0.56455219  0.96804362  1.0
  C  C34  1  0.47476211  0.44745382  0.95920481  1.0
  C  C35  1  0.52388559  0.55687831  0.03860237  1.0
  C  C36  1  0.49865225  0.50976251  0.92807737  1.0
  C  C37  1  0.50005769  0.49451960  0.06977051  1.0
  C  C38  1  0.27109056  0.54440544  0.45865326  1.0
  C  C39  1  0.72910570  0.45554999  0.54012534  1.0
  C  C40  1  0.27106209  0.45606954  0.54052985  1.0
  C  C41  1  0.72879942  0.54433765  0.45868207  1.0
  C  C42  1  0.19548186  0.54535343  0.45667297  1.0
  C  C43  1  0.80471620  0.45444825  0.54170400  1.0
  C  C44  1  0.19544399  0.45483898  0.54203718  1.0
  C  C45  1  0.80440589  0.54531765  0.45666923  1.0
  C  C46  1  0.15589892  0.49998679  0.49917777  1.0
  C  C47  1  0.84410603  0.49982197  0.49902920  1.0
  C  C48  1  0.03757602  0.48798638  0.55975246  1.0
  C  C49  1  0.96239818  0.51178718  0.43818831  1.0
  C  C50  1  0.03762890  0.51179002  0.43821233  1.0
  C  C51  1  0.96239455  0.48794313  0.55973708  1.0
  C  C52  1  0.92380942  0.49982644  0.49894658  1.0
  C  C53  1  0.07620214  0.49988552  0.49899416  1.0
  C  C54  1  0.49941535  0.36529125  0.50253564  1.0
  C  C55  1  0.49977789  0.63398204  0.50155227  1.0
  C  C56  1  0.43402195  0.25090264  0.51330423  1.0
  C  C57  1  0.56549139  0.74775624  0.51194095  1.0
  C  C58  1  0.43417934  0.74798961  0.51192232  1.0
  C  C59  1  0.56531341  0.25094019  0.51283646  1.0
  C  C60  1  0.43398196  0.17878720  0.52211150  1.0
  C  C61  1  0.56571046  0.81945224  0.52098142  1.0
  C  C62  1  0.43405267  0.81968127  0.52102536  1.0
  C  C63  1  0.56562347  0.17882119  0.52167734  1.0
  C  C64  1  0.49987269  0.14216258  0.52698227  1.0
  C  C65  1  0.49990700  0.85593114  0.52635906  1.0
  C  C66  1  0.49959937  0.28749093  0.50903596  1.0
  C  C67  1  0.49980821  0.71148689  0.50804093  1.0
  C  C68  1  0.49996920  0.93135164  0.53759196  1.0
  C  C69  1  0.49996742  0.06621033  0.53791743  1.0
  C  C70  1  0.56660786  0.48733251  0.25289713  1.0
  C  C71  1  0.43410549  0.51545171  0.74443813  1.0
  C  C72  1  0.56555538  0.51887646  0.74530710  1.0
  C  C73  1  0.43512103  0.48366307  0.25315583  1.0
  C  C74  1  0.56615449  0.48823911  0.18114139  1.0
  C  C75  1  0.43378602  0.51490932  0.81624031  1.0
  C  C76  1  0.56452184  0.52005343  0.81707400  1.0
  C  C77  1  0.43544511  0.48365679  0.18145159  1.0
  C  C78  1  0.63581704  0.48279656  0.28567339  1.0
  C  C79  1  0.36539607  0.52069656  0.71078946  1.0
  C  C80  1  0.63504757  0.52183483  0.71290613  1.0
  C  C81  1  0.36573777  0.48032905  0.28570981  1.0
  C  C82  1  0.63606566  0.49202733  0.14185343  1.0
  C  C83  1  0.36353123  0.51725199  0.85487190  1.0
  C  C84  1  0.63441059  0.52018605  0.85645574  1.0
  C  C85  1  0.36549526  0.47842572  0.14261782  1.0
  C  C86  1  0.30773162  0.59423662  0.41536631  1.0
  C  C87  1  0.69267760  0.40591310  0.58376968  1.0
  C  C88  1  0.30752733  0.40679108  0.58462865  1.0
  C  C89  1  0.69193667  0.59460388  0.41598792  1.0
  N  N90  1  0.56419393  0.03283510  0.54590244  1.0
  N  N91  1  0.43582144  0.96431995  0.54621185  1.0
  N  N92  1  0.56418967  0.96418731  0.54575037  1.0
  N  N93  1  0.43581164  0.03295884  0.54638835  1.0
  N  N94  1  0.30926400  0.50021762  0.49962339  1.0
  N  N95  1  0.69079034  0.49988240  0.49943469  1.0
  N  N96  1  0.69572588  0.47569938  0.30353057  1.0
  N  N97  1  0.30559925  0.52872612  0.69291955  1.0
  N  N98  1  0.69560439  0.52600387  0.69617578  1.0
  N  N99  1  0.30522956  0.47622629  0.30260051  1.0
  N  N100  1  0.32968584  0.63800539  0.37876344  1.0
  N  N101  1  0.67100064  0.36246443  0.62088932  1.0
  N  N102  1  0.32896288  0.36373720  0.62236016  1.0
  N  N103  1  0.66961205  0.63891158  0.38016348  1.0
  O  O104  1  0.43968219  0.50245619  0.60405391  1.0
  O  O105  1  0.56189734  0.49819864  0.39397296  1.0
  O  O106  1  0.43907266  0.49691517  0.39372418  1.0
  O  O107  1  0.56251703  0.50176419  0.60490271  1.0
  O  O108  1  0.43803763  0.39573048  0.50048759  1.0
  O  O109  1  0.56107153  0.60346134  0.50044333  1.0
  O  O110  1  0.43846325  0.60373543  0.49895917  1.0
  O  O111  1  0.56063538  0.39586422  0.49993214  1.0
  O  O112  1  0.67535160  0.54293873  0.13976631  1.0
  O  O113  1  0.64850094  0.43218352  0.10822123  1.0
  O  O114  1  0.34455247  0.56619979  0.88912636  1.0
  O  O115  1  0.32447268  0.45820966  0.84686709  1.0
  O  O116  1  0.65844486  0.46960765  0.88740698  1.0
  O  O117  1  0.66666667  0.58365803  0.85315882  1.0
  O  O118  1  0.33309291  0.42398043  0.13451521  1.0
  O  O119  1  0.34457013  0.54142905  0.11712056  1.0
