# generated using pymatgen
data_ZnH34C28N11O4
_symmetry_space_group_name_H-M   'P 1'
_cell_length_a   10.94408938
_cell_length_b   16.35859104
_cell_length_c   17.48421579
_cell_angle_alpha   89.90813556
_cell_angle_beta   89.38520570
_cell_angle_gamma   88.78260149
_symmetry_Int_Tables_number   1
_chemical_formula_structural   ZnH34C28N11O4
_chemical_formula_sum   'Zn2 H68 C56 N22 O8'
_cell_volume   3129.30742402
_cell_formula_units_Z   2
loop_
 _symmetry_equiv_pos_site_id
 _symmetry_equiv_pos_as_xyz
  1  'x, y, z'
loop_
 _atom_site_type_symbol
 _atom_site_label
 _atom_site_symmetry_multiplicity
 _atom_site_fract_x
 _atom_site_fract_y
 _atom_site_fract_z
 _atom_site_occupancy
  Zn  Zn0  1  0.52024624  0.58503308  0.48847185  1.0
  Zn  Zn1  1  0.52617600  0.41520293  0.50008807  1.0
  H  H2  1  0.41589607  0.71295706  0.38868613  1.0
  H  H3  1  0.93941040  0.82948850  0.57308969  1.0
  H  H4  1  0.07239289  0.89170282  0.57692280  1.0
  H  H5  1  0.07844909  0.78887426  0.61049909  1.0
  H  H6  1  0.21962904  0.21424303  0.46510223  1.0
  H  H7  1  0.01755989  0.09875943  0.48827696  1.0
  H  H8  1  0.14898176  0.09201836  0.42841365  1.0
  H  H9  1  0.02355084  0.15783158  0.40272663  1.0
  H  H10  1  0.95836226  0.81024840  0.35365229  1.0
  H  H11  1  0.80629327  0.84372796  0.46155931  1.0
  H  H12  1  0.71957437  0.76478887  0.42036953  1.0
  H  H13  1  0.41288108  0.29761956  0.60591052  1.0
  H  H14  1  0.74977506  0.85410255  0.36605655  1.0
  H  H15  1  0.79124617  0.66584175  0.33311357  1.0
  H  H16  1  0.73547409  0.54717696  0.27410176  1.0
  H  H17  1  0.79954968  0.48508703  0.34627857  1.0
  H  H18  1  0.89835468  0.53513519  0.28024402  1.0
  H  H19  1  0.31614531  0.36417790  0.44334500  1.0
  H  H20  1  0.14702095  0.29607557  0.33103040  1.0
  H  H21  1  0.29569870  0.33600593  0.31399662  1.0
  H  H22  1  0.17042965  0.40337729  0.33751095  1.0
  H  H23  1  0.23595729  0.73188001  0.54969197  1.0
  H  H24  1  0.60692900  0.70802780  0.59171769  1.0
  H  H25  1  0.30345765  0.65305813  0.65555718  1.0
  H  H26  1  0.21916550  0.56904510  0.62463199  1.0
  H  H27  1  0.13950303  0.65437322  0.66552506  1.0
  H  H28  1  0.77179766  0.42770649  0.60283810  1.0
  H  H29  1  0.70040291  0.27991725  0.65633907  1.0
  H  H30  1  0.72567555  0.36737027  0.71250711  1.0
  H  H31  1  0.84538912  0.29203318  0.70003685  1.0
  H  H32  1  0.64789726  0.63331300  0.88619407  1.0
  H  H33  1  0.56459158  0.59228533  0.96102513  1.0
  H  H34  1  0.63775866  0.37658761  0.09851525  1.0
  H  H35  1  0.62254367  0.28202061  0.40783924  1.0
  H  H36  1  0.53113039  0.39571765  0.03213323  1.0
  H  H37  1  0.24677725  0.65943411  0.16042481  1.0
  H  H38  1  0.24297393  0.60750711  0.07736021  1.0
  H  H39  1  0.24295232  0.40823547  0.91117216  1.0
  H  H40  1  0.24024349  0.35950523  0.82593217  1.0
  H  H41  1  0.72463306  0.58303963  0.77096647  1.0
  H  H42  1  0.64802523  0.60641341  0.69278683  1.0
  H  H43  1  0.59529618  0.32356149  0.21220761  1.0
  H  H44  1  0.59237905  0.36752308  0.29880068  1.0
  H  H45  1  0.21198332  0.60708633  0.27698867  1.0
  H  H46  1  0.99798919  0.16753209  0.59228770  1.0
  H  H47  1  0.31457514  0.59207956  0.34548762  1.0
  H  H48  1  0.32291654  0.42248083  0.64293760  1.0
  H  H49  1  0.21704966  0.41655253  0.71157794  1.0
  H  H50  1  0.36146240  0.93725474  0.39262702  1.0
  H  H51  1  0.26400951  0.88478606  0.28749967  1.0
  H  H52  1  0.23132766  0.80244069  0.35204839  1.0
  H  H53  1  0.35920847  0.79533585  0.28873201  1.0
  H  H54  1  0.35283708  0.07618474  0.61358188  1.0
  H  H55  1  0.25230502  0.13902415  0.71534550  1.0
  H  H56  1  0.22116309  0.21507502  0.64387692  1.0
  H  H57  1  0.83128864  0.15210852  0.49619047  1.0
  H  H58  1  0.34573498  0.22640280  0.70759846  1.0
  H  H59  1  0.59994856  0.93298889  0.61697461  1.0
  H  H60  1  0.69973473  0.87457376  0.71960636  1.0
  H  H61  1  0.75711588  0.80000778  0.65337918  1.0
  H  H62  1  0.62005607  0.78211378  0.70618343  1.0
  H  H63  1  0.61172120  0.05599498  0.39554779  1.0
  H  H64  1  0.77110209  0.18426536  0.35636777  1.0
  H  H65  1  0.64185218  0.19637587  0.29571983  1.0
  H  H66  1  0.72819063  0.10306591  0.29479386  1.0
  H  H67  1  0.74292289  0.21655171  0.55747523  1.0
  H  H68  1  0.79303555  0.11924202  0.59119116  1.0
  H  H69  1  0.04784520  0.84178025  0.45052099  1.0
  C  C70  1  0.49268525  0.49304391  0.34722735  1.0
  C  C71  1  0.56076845  0.16267095  0.44700666  1.0
  C  C72  1  0.45296383  0.74935838  0.43466976  1.0
  C  C73  1  0.45319258  0.25696726  0.56292405  1.0
  C  C74  1  0.56132094  0.74665611  0.54973772  1.0
  C  C75  1  0.57033429  0.24805063  0.44998597  1.0
  C  C76  1  0.49162358  0.87728206  0.49931383  1.0
  C  C77  1  0.49305857  0.12370782  0.50626769  1.0
  C  C78  1  0.48527824  0.96309512  0.50268851  1.0
  C  C79  1  0.48468144  0.03809686  0.50622214  1.0
  C  C80  1  0.75651614  0.49549306  0.48758375  1.0
  C  C81  1  0.51154838  0.50692846  0.64266881  1.0
  C  C82  1  0.28448601  0.50135922  0.49628768  1.0
  C  C83  1  0.90472510  0.62737553  0.41318778  1.0
  C  C84  1  0.14185585  0.34419157  0.48072064  1.0
  C  C85  1  0.11568941  0.65539951  0.50421115  1.0
  C  C86  1  0.91051855  0.35683319  0.55925986  1.0
  C  C87  1  0.95275436  0.70604779  0.41911140  1.0
  C  C88  1  0.08066914  0.27485190  0.50637513  1.0
  C  C89  1  0.04852944  0.72069897  0.47140527  1.0
  C  C90  1  0.97078104  0.28065293  0.55141449  1.0
  C  C91  1  0.07894722  0.57359435  0.48762513  1.0
  C  C92  1  0.41380865  0.50697781  0.88017447  1.0
  C  C93  1  0.95977993  0.42553282  0.51554255  1.0
  C  C94  1  0.95596515  0.56408513  0.46070969  1.0
  C  C95  1  0.08900920  0.42291550  0.49713069  1.0
  C  C96  1  0.14939771  0.49924620  0.49455292  1.0
  C  C97  1  0.89384260  0.49370732  0.48726519  1.0
  C  C98  1  0.51084504  0.55676220  0.85403530  1.0
  C  C99  1  0.48633658  0.43781263  0.13747581  1.0
  C  C100  1  0.33661097  0.54947956  0.16135349  1.0
  C  C101  1  0.34685267  0.45967240  0.82818859  1.0
  C  C102  1  0.54345757  0.55536047  0.77614943  1.0
  C  C103  1  0.39955841  0.49609355  0.11008916  1.0
  C  C104  1  0.51194794  0.43465776  0.21577894  1.0
  C  C105  1  0.36543801  0.54818357  0.23958098  1.0
  C  C106  1  0.37706402  0.46034640  0.74979098  1.0
  C  C107  1  0.47687079  0.50703979  0.72559664  1.0
  C  C108  1  0.45560757  0.49212569  0.26537342  1.0
  C  C109  1  0.81923945  0.17222105  0.55636608  1.0
  C  C110  1  0.04010278  0.82954975  0.56651506  1.0
  C  C111  1  0.07830477  0.13435522  0.45120751  1.0
  C  C112  1  0.78872864  0.81065631  0.40772193  1.0
  C  C113  1  0.81225471  0.54144065  0.31361238  1.0
  C  C114  1  0.39048939  0.50266784  0.95969848  1.0
  C  C115  1  0.21217764  0.34246535  0.34901112  1.0
  C  C116  1  0.21805331  0.63601766  0.62824742  1.0
  C  C117  1  0.76983519  0.32462288  0.67205177  1.0
  C  C118  1  0.30466525  0.83779277  0.32467414  1.0
  C  C119  1  0.29395939  0.18171268  0.67487473  1.0
  C  C120  1  0.67321208  0.82951259  0.67690431  1.0
  C  C121  1  0.69285398  0.15236061  0.33171202  1.0
  C  C122  1  0.38520461  0.50317469  0.02997650  1.0
  C  C123  1  0.43957628  0.83502449  0.43686213  1.0
  C  C124  1  0.43782518  0.17175719  0.56550403  1.0
  C  C125  1  0.55329409  0.83211275  0.55755637  1.0
  N  N126  1  0.51244158  0.70868141  0.48996354  1.0
  N  N127  1  0.81316528  0.37211738  0.60737425  1.0
  N  N128  1  0.57080073  0.60635382  0.90469074  1.0
  N  N129  1  0.54639937  0.38202119  0.08817064  1.0
  N  N130  1  0.24440390  0.60322380  0.13549639  1.0
  N  N131  1  0.24750618  0.41410429  0.85323398  1.0
  N  N132  1  0.64252107  0.60451156  0.75101448  1.0
  N  N133  1  0.60052239  0.37729144  0.24135728  1.0
  N  N134  1  0.30321579  0.60400438  0.28849460  1.0
  N  N135  1  0.30850976  0.41164478  0.70006272  1.0
  N  N136  1  0.38041059  0.87761468  0.38052989  1.0
  N  N137  1  0.51763078  0.29173021  0.50656785  1.0
  N  N138  1  0.37394187  0.13539230  0.62320593  1.0
  N  N139  1  0.60265141  0.87102459  0.61827423  1.0
  N  N140  1  0.61481225  0.11761079  0.38998895  1.0
  N  N141  1  0.92768065  0.20912434  0.58868879  1.0
  N  N142  1  0.08212425  0.80211598  0.49024452  1.0
  N  N143  1  0.13964138  0.19893272  0.49286171  1.0
  N  N144  1  0.89714847  0.76957496  0.37435036  1.0
  N  N145  1  0.81048474  0.61368881  0.36294182  1.0
  N  N146  1  0.24334362  0.32971500  0.42980616  1.0
  N  N147  1  0.21216171  0.67228977  0.55238142  1.0
  O  O148  1  0.53197424  0.55982856  0.37330838  1.0
  O  O149  1  0.55312386  0.43995429  0.61444865  1.0
  O  O150  1  0.49584097  0.57376745  0.60645268  1.0
  O  O151  1  0.48280096  0.42619453  0.38489404  1.0
  O  O152  1  0.70239219  0.56054304  0.51090054  1.0
  O  O153  1  0.34400014  0.44232866  0.52953004  1.0
  O  O154  1  0.33818077  0.56142580  0.46523682  1.0
  O  O155  1  0.70323340  0.43065613  0.46681304  1.0
