# generated using pymatgen
data_Zn2H11C26Br2N2O8F3
_symmetry_space_group_name_H-M   'P 1'
_cell_length_a   12.76194028
_cell_length_b   13.89758260
_cell_length_c   16.07108864
_cell_angle_alpha   89.96647241
_cell_angle_beta   87.33616154
_cell_angle_gamma   85.73282165
_symmetry_Int_Tables_number   1
_chemical_formula_structural   Zn2H11C26Br2N2O8F3
_chemical_formula_sum   'Zn2 H11 C26 Br2 N2 O8 F3'
_cell_volume   2839.38538375
_cell_formula_units_Z   1
loop_
 _symmetry_equiv_pos_site_id
 _symmetry_equiv_pos_as_xyz
  1  'x, y, z'
loop_
 _atom_site_type_symbol
 _atom_site_label
 _atom_site_symmetry_multiplicity
 _atom_site_fract_x
 _atom_site_fract_y
 _atom_site_fract_z
 _atom_site_occupancy
  Zn  Zn0  1  0.60867871  0.50626820  0.49571059  1.0
  Zn  Zn1  1  0.39287714  0.49253274  0.50472969  1.0
  H  H2  1  0.61791813  0.38092379  0.06897249  1.0
  H  H3  1  0.33501540  0.48132771  0.07661783  1.0
  H  H4  1  0.55305529  0.64870801  0.92544526  1.0
  H  H5  1  0.67169269  0.49503881  0.06817694  1.0
  H  H6  1  0.40862729  0.64005780  0.06962386  1.0
  H  H7  1  0.62017553  0.97481341  0.49374722  1.0
  H  H8  1  0.37989110  0.02423234  0.50576084  1.0
  H  H9  1  0.00390193  0.57779039  0.43244848  1.0
  H  H10  1  0.33989910  0.47965864  0.93064375  1.0
  H  H11  1  0.42141205  0.37130220  0.93010338  1.0
  H  H12  1  0.41815546  0.37397590  0.07635821  1.0
  C  C13  1  0.54279711  0.31310711  0.49821028  1.0
  C  C14  1  0.45340176  0.97833003  0.50199861  1.0
  C  C15  1  0.54668804  0.02075033  0.49738787  1.0
  C  C16  1  0.50040470  0.50001793  0.66205059  1.0
  C  C17  1  0.55174808  0.12120786  0.49724685  1.0
  C  C18  1  0.44853493  0.87783037  0.50199877  1.0
  C  C19  1  0.55292318  0.20895987  0.49724579  1.0
  C  C20  1  0.96790174  0.52976629  0.47717742  1.0
  C  C21  1  0.02984175  0.47208417  0.52515645  1.0
  C  C22  1  0.14152374  0.47071678  0.51995161  1.0
  C  C23  1  0.85762690  0.52885955  0.48308500  1.0
  C  C24  1  0.60717971  0.45540506  0.04640707  1.0
  C  C25  1  0.45895939  0.68590722  0.50096812  1.0
  C  C26  1  0.49465674  0.49876559  0.33834905  1.0
  C  C27  1  0.60795657  0.45265243  0.95103213  1.0
  C  C28  1  0.41236605  0.44513508  0.95459790  1.0
  C  C29  1  0.40979006  0.44717976  0.05063225  1.0
  C  C30  1  0.49552660  0.50003087  0.24817704  1.0
  C  C31  1  0.50455215  0.50124770  0.91761708  1.0
  C  C32  1  0.50130355  0.50329244  0.08217183  1.0
  C  C33  1  0.48546867  0.60696897  0.04745893  1.0
  C  C34  1  0.49032965  0.60632760  0.95164304  1.0
  C  C35  1  0.49866399  0.50304495  0.17260758  1.0
  C  C36  1  0.50545104  0.50113928  0.82734938  1.0
  C  C37  1  0.50196353  0.50046169  0.75205172  1.0
  C  C38  1  0.44787394  0.79002565  0.50174139  1.0
  Br  Br39  1  0.73277618  0.51242885  0.90181490  1.0
  Br  Br40  1  0.58674911  0.69319448  0.09007431  1.0
  N  N41  1  0.76665808  0.52814842  0.48709748  1.0
  N  N42  1  0.23243090  0.47082576  0.51434686  1.0
  O  O43  1  0.62650213  0.35774831  0.49625798  1.0
  O  O44  1  0.44819260  0.35060106  0.50095178  1.0
  O  O45  1  0.58875632  0.50522661  0.62273224  1.0
  O  O46  1  0.41108259  0.49441658  0.63084079  1.0
  O  O47  1  0.55361014  0.64898413  0.49585770  1.0
  O  O48  1  0.37550259  0.64066151  0.50531835  1.0
  O  O49  1  0.58381445  0.50071288  0.37043753  1.0
  O  O50  1  0.40524440  0.49593443  0.37667871  1.0
  F  F51  1  0.99095240  0.41154443  0.58124616  1.0
  F  F52  1  0.61740325  0.35700505  0.92382144  1.0
  F  F53  1  0.39438829  0.64946728  0.92445951  1.0
