# generated using pymatgen
data_Zn2H10C27Br2(N4Cl)2
_symmetry_space_group_name_H-M   'P 1'
_cell_length_a   18.57553355
_cell_length_b   18.77765272
_cell_length_c   18.84619745
_cell_angle_alpha   103.61194374
_cell_angle_beta   110.14520061
_cell_angle_gamma   109.83677639
_symmetry_Int_Tables_number   1
_chemical_formula_structural   Zn2H10C27Br2(N4Cl)2
_chemical_formula_sum   'Zn4 H20 C54 Br4 N16 Cl4'
_cell_volume   5323.59493774
_cell_formula_units_Z   2
loop_
 _symmetry_equiv_pos_site_id
 _symmetry_equiv_pos_as_xyz
  1  'x, y, z'
loop_
 _atom_site_type_symbol
 _atom_site_label
 _atom_site_symmetry_multiplicity
 _atom_site_fract_x
 _atom_site_fract_y
 _atom_site_fract_z
 _atom_site_occupancy
  Zn  Zn98  1  0.08805311  0.60674851  0.48908458  1.0
  Zn  Zn99  1  0.08528284  0.48888964  0.60579978  1.0
  Zn  Zn100  1  0.87418977  0.40241008  0.51444274  1.0
  Zn  Zn101  1  0.87607657  0.51584627  0.40344638  1.0
  H  H62  1  0.41392041  0.91532687  0.00988962  1.0
  H  H63  1  0.42307192  0.01920520  0.94938756  1.0
  H  H64  1  0.45970232  0.01906702  0.87435963  1.0
  H  H65  1  0.49522751  0.88299400  0.02731454  1.0
  H  H66  1  0.60317016  0.11886678  0.97322869  1.0
  H  H67  1  0.57828224  0.00913065  0.14586348  1.0
  H  H68  1  0.83554082  0.51083600  0.64237439  1.0
  H  H69  1  0.83860807  0.64129340  0.51281356  1.0
  H  H70  1  0.24980022  0.63396522  0.77610153  1.0
  H  H71  1  0.27174782  0.77099728  0.62354271  1.0
  H  H72  1  0.12639301  0.50635973  0.35988472  1.0
  H  H73  1  0.13313953  0.36416648  0.51077450  1.0
  H  H74  1  0.82214126  0.23250643  0.37871104  1.0
  H  H75  1  0.82098302  0.37905700  0.23213352  1.0
  H  H76  1  0.83090647  0.54107391  0.22801370  1.0
  H  H77  1  0.82911205  0.22469868  0.53754138  1.0
  H  H78  1  0.10639267  0.32135327  0.63421682  1.0
  H  H79  1  0.10837998  0.63969583  0.32496143  1.0
  H  H80  1  0.51268180  0.05329396  0.10403329  1.0
  H  H81  1  0.55290099  0.14405629  0.03293643  1.0
  C  C4  1  0.04213296  0.74066698  0.55767039  1.0
  C  C5  1  0.03655357  0.54728775  0.74160376  1.0
  C  C6  1  0.89991188  0.56434186  0.26473746  1.0
  C  C7  1  0.89800038  0.26139152  0.56048233  1.0
  C  C8  1  0.03993715  0.31113955  0.60988587  1.0
  C  C9  1  0.04193511  0.61477636  0.31455891  1.0
  C  C10  1  0.15153349  0.42212709  0.42210458  1.0
  C  C11  1  0.79766278  0.27346851  0.27317581  1.0
  C  C12  1  0.96629803  0.59086079  0.24222449  1.0
  C  C13  1  0.96466900  0.23871828  0.58639161  1.0
  C  C14  1  0.47964730  0.93241223  0.01755717  1.0
  C  C15  1  0.47619689  0.01913639  0.93602566  1.0
  C  C16  1  0.56284093  0.09402556  0.00111871  1.0
  C  C17  1  0.54485506  0.01654507  0.08976079  1.0
  C  C18  1  0.73844666  0.20133721  0.20098238  1.0
  C  C19  1  0.47949039  0.93752588  0.93658897  1.0
  C  C20  1  0.61202547  0.06814663  0.06684199  1.0
  C  C21  1  0.90208788  0.52140858  0.66655819  1.0
  C  C22  1  0.90585196  0.66542092  0.52584459  1.0
  C  C23  1  0.64494425  0.01149683  0.02632993  1.0
  C  C24  1  0.56719491  0.94299371  0.93946998  1.0
  C  C25  1  0.68280772  0.14001673  0.13934927  1.0
  C  C26  1  0.40709607  0.86674294  0.86436804  1.0
  C  C27  1  0.35161512  0.80586330  0.80229418  1.0
  C  C28  1  0.95511228  0.56328691  0.82133164  1.0
  C  C29  1  0.96011034  0.82085187  0.57161441  1.0
  C  C30  1  0.95371205  0.57387240  0.88774117  1.0
  C  C31  1  0.95781460  0.88696686  0.58011282  1.0
  C  C32  1  0.95274264  0.58228116  0.95994768  1.0
  C  C33  1  0.95573196  0.95864723  0.58570640  1.0
  C  C34  1  0.95365545  0.58726903  0.02690471  1.0
  C  C35  1  0.95532401  0.02483945  0.58777874  1.0
  C  C36  1  0.95620338  0.59048778  0.09956037  1.0
  C  C37  1  0.95656251  0.09677072  0.58848707  1.0
  C  C38  1  0.69012357  0.46541768  0.38893123  1.0
  C  C39  1  0.68910133  0.38983313  0.46205031  1.0
  C  C40  1  0.95969906  0.59154103  0.16623102  1.0
  C  C41  1  0.95888957  0.16291223  0.58787533  1.0
  C  C42  1  0.20829919  0.40055383  0.40006585  1.0
  C  C43  1  0.26765458  0.39181092  0.39065741  1.0
  C  C44  1  0.33769734  0.38922189  0.38732834  1.0
  C  C45  1  0.40599642  0.39200261  0.38954157  1.0
  C  C46  1  0.48250070  0.39900033  0.39615664  1.0
  C  C47  1  0.55431848  0.40804615  0.40502087  1.0
  C  C48  1  0.24360221  0.65472434  0.72633616  1.0
  C  C49  1  0.25494393  0.72489101  0.64838330  1.0
  C  C50  1  0.96802219  0.74810892  0.55563260  1.0
  C  C51  1  0.96295853  0.54712656  0.74887919  1.0
  C  C52  1  0.63653462  0.41972165  0.41715484  1.0
  C  C53  1  0.28872540  0.73423878  0.73107562  1.0
  C  C54  1  0.12067040  0.47779774  0.40281356  1.0
  C  C55  1  0.12421325  0.40506392  0.48021514  1.0
  C  C56  1  0.82998111  0.28083235  0.35544439  1.0
  C  C57  1  0.82942169  0.35584560  0.28045759  1.0
  Br  Br0  1  0.56454496  0.83413768  0.91651650  1.0
  Br  Br1  1  0.57317268  0.96823077  0.84431815  1.0
  Br  Br2  1  0.68972824  0.96470861  0.10563759  1.0
  Br  Br3  1  0.74699409  0.07850622  0.01842833  1.0
  N  N82  1  0.02516898  0.66113770  0.53201552  1.0
  N  N83  1  0.02081990  0.52529164  0.66276693  1.0
  N  N84  1  0.93722887  0.50797998  0.61602928  1.0
  N  N85  1  0.94049128  0.61443722  0.51128911  1.0
  N  N86  1  0.76548212  0.46248519  0.41440105  1.0
  N  N87  1  0.76481828  0.41516205  0.46016543  1.0
  N  N88  1  0.18690391  0.60283707  0.64770973  1.0
  N  N89  1  0.19386905  0.64676742  0.59881266  1.0
  N  N90  1  0.08128013  0.49396960  0.44798119  1.0
  N  N91  1  0.08345977  0.44926355  0.49549439  1.0
  N  N92  1  0.87520858  0.36131361  0.40688141  1.0
  N  N93  1  0.87482762  0.40738015  0.36074147  1.0
  N  N94  1  0.93353963  0.57191693  0.34323578  1.0
  N  N95  1  0.93123928  0.34011843  0.56827383  1.0
  N  N96  1  0.01940706  0.37092092  0.59883231  1.0
  N  N97  1  0.02177601  0.60315324  0.37411017  1.0
  Cl  Cl58  1  0.13822960  0.81880053  0.58247066  1.0
  Cl  Cl59  1  0.13039925  0.56537537  0.81877993  1.0
  Cl  Cl60  1  0.66910975  0.51957857  0.33073654  1.0
  Cl  Cl61  1  0.66666667  0.33005996  0.51431145  1.0
