# generated using pymatgen
data_ZnH12C17Br2NO4
_symmetry_space_group_name_H-M   'P 1'
_cell_length_a   14.04524071
_cell_length_b   18.28136796
_cell_length_c   19.26049165
_cell_angle_alpha   109.71943168
_cell_angle_beta   91.40431474
_cell_angle_gamma   91.17104787
_symmetry_Int_Tables_number   1
_chemical_formula_structural   ZnH12C17Br2NO4
_chemical_formula_sum   'Zn4 H48 C68 Br8 N4 O16'
_cell_volume   4651.85971364
_cell_formula_units_Z   4
loop_
 _symmetry_equiv_pos_site_id
 _symmetry_equiv_pos_as_xyz
  1  'x, y, z'
loop_
 _atom_site_type_symbol
 _atom_site_label
 _atom_site_symmetry_multiplicity
 _atom_site_fract_x
 _atom_site_fract_y
 _atom_site_fract_z
 _atom_site_occupancy
  Zn  Zn0  1  0.60632820  0.99811916  0.50807384  1.0
  Zn  Zn1  1  0.40821535  0.00096044  0.49253836  1.0
  Zn  Zn2  1  0.39275339  0.49123225  0.99970383  1.0
  Zn  Zn3  1  0.59092449  0.50701289  0.99880363  1.0
  H  H4  1  0.95405785  0.04528538  0.62285010  1.0
  H  H5  1  0.05958136  0.99471719  0.38280691  1.0
  H  H6  1  0.26821578  0.00995655  0.59548510  1.0
  H  H7  1  0.09293355  0.00558385  0.61050437  1.0
  H  H8  1  0.74585183  0.95296065  0.40042349  1.0
  H  H9  1  0.92116155  0.94905847  0.38443188  1.0
  H  H10  1  0.54029547  0.13084738  0.75394527  1.0
  H  H11  1  0.41616989  0.13724515  0.74091921  1.0
  H  H12  1  0.41405579  0.24610644  0.84827680  1.0
  H  H13  1  0.53779744  0.23856212  0.86211771  1.0
  H  H14  1  0.35417511  0.33057701  0.77630233  1.0
  H  H15  1  0.43598036  0.37750180  0.73641642  1.0
  H  H16  1  0.35258044  0.21940280  0.66980025  1.0
  H  H17  1  0.43104116  0.26849123  0.62912757  1.0
  H  H18  1  0.65489848  0.20191805  0.69540304  1.0
  H  H19  1  0.60954997  0.25992553  0.64669940  1.0
  H  H20  1  0.61402014  0.36655553  0.75653642  1.0
  H  H21  1  0.65461045  0.30735418  0.80598127  1.0
  H  H22  1  0.53253652  0.87097542  0.24529356  1.0
  H  H23  1  0.41151939  0.85571933  0.26090031  1.0
  H  H24  1  0.40407468  0.74984947  0.15055451  1.0
  H  H25  1  0.52722239  0.76119899  0.13859372  1.0
  H  H26  1  0.34880315  0.67031500  0.22731158  1.0
  H  H27  1  0.43054960  0.61856740  0.26202692  1.0
  H  H28  1  0.36593376  0.77424540  0.33936471  1.0
  H  H29  1  0.45481859  0.72485985  0.37070924  1.0
  H  H30  1  0.65958506  0.80265206  0.29420145  1.0
  H  H31  1  0.62840422  0.74731445  0.34979987  1.0
  H  H32  1  0.60852284  0.63540408  0.24512793  1.0
  H  H33  1  0.64706879  0.68965939  0.19044894  1.0
  H  H34  1  0.67834695  0.24201532  0.29637629  1.0
  H  H35  1  0.38707475  0.31968311  0.26286939  1.0
  H  H36  1  0.64825025  0.31859359  0.09455626  1.0
  H  H37  1  0.65816761  0.23554501  0.17343021  1.0
  H  H38  1  0.38408056  0.11891004  0.34780169  1.0
  H  H39  1  0.37564721  0.19419345  0.26194426  1.0
  H  H40  1  0.60249251  0.72331174  0.67751909  1.0
  H  H41  1  0.31574822  0.70423391  0.76354124  1.0
  H  H42  1  0.61374190  0.65996955  0.88383147  1.0
  H  H43  1  0.61954575  0.74016790  0.80223408  1.0
  H  H44  1  0.34805486  0.90484137  0.67147161  1.0
  H  H45  1  0.33824278  0.83099467  0.75867117  1.0
  H  H46  1  0.04466187  0.37285975  0.94340797  1.0
  H  H47  1  0.93824517  0.62562213  0.00975937  1.0
  H  H48  1  0.73227128  0.39840088  0.98815424  1.0
  H  H49  1  0.90815405  0.38305578  0.99059419  1.0
  H  H50  1  0.25316208  0.60416315  0.05270965  1.0
  H  H51  1  0.07745757  0.62110455  0.05840129  1.0
  C  C52  1  0.51356149  0.87439789  0.38568728  1.0
  C  C53  1  0.52910290  0.08486182  0.41668792  1.0
  C  C54  1  0.49960602  0.12408451  0.61403871  1.0
  C  C55  1  0.48588466  0.91183198  0.58258990  1.0
  C  C56  1  0.48694892  0.61277189  0.12355538  1.0
  C  C57  1  0.47049355  0.59098333  0.92228109  1.0
  C  C58  1  0.50128434  0.38572913  0.87641773  1.0
  C  C59  1  0.50978103  0.40813119  0.07855794  1.0
  C  C60  1  0.81300616  0.01969469  0.57454590  1.0
  C  C61  1  0.91205099  0.02290027  0.57152820  1.0
  C  C62  1  0.20080261  0.99676511  0.42830753  1.0
  C  C63  1  0.10170986  0.99666866  0.43152663  1.0
  C  C64  1  0.21820067  0.00585036  0.55010235  1.0
  C  C65  1  0.12049001  0.00430588  0.55782854  1.0
  C  C66  1  0.79575025  0.97212250  0.44772172  1.0
  C  C67  1  0.89351987  0.97120054  0.43969992  1.0
  C  C68  1  0.95444377  0.99800506  0.50274540  1.0
  C  C69  1  0.05937504  0.99974288  0.49748831  1.0
  C  C70  1  0.48409767  0.17059708  0.75020910  1.0
  C  C71  1  0.48311538  0.24236044  0.82171062  1.0
  C  C72  1  0.50169968  0.31773168  0.80375934  1.0
  C  C73  1  0.42289718  0.32397741  0.74923986  1.0
  C  C74  1  0.42126144  0.25150861  0.67818441  1.0
  C  C75  1  0.50127834  0.19668654  0.68289940  1.0
  C  C76  1  0.59745721  0.24147743  0.69459080  1.0
  C  C77  1  0.59861599  0.31204500  0.76703352  1.0
  C  C78  1  0.48030998  0.82722008  0.24984243  1.0
  C  C79  1  0.47477566  0.75568158  0.17814092  1.0
  C  C80  1  0.49408416  0.68084002  0.19618430  1.0
  C  C81  1  0.42093779  0.67365495  0.25179636  1.0
  C  C82  1  0.43305170  0.74394806  0.32442208  1.0
  C  C83  1  0.50947095  0.80238579  0.31638904  1.0
  C  C84  1  0.60515341  0.76181547  0.30125464  1.0
  C  C85  1  0.59508793  0.68822648  0.23159874  1.0
  C  C86  1  0.53447211  0.13404068  0.36789213  1.0
  C  C87  1  0.51124950  0.36235586  0.13041571  1.0
  C  C88  1  0.61713499  0.16919479  0.35194489  1.0
  C  C89  1  0.61333725  0.21333540  0.30530799  1.0
  C  C90  1  0.43785935  0.36139786  0.17841092  1.0
  C  C91  1  0.44370785  0.31689004  0.22447286  1.0
  C  C92  1  0.59077001  0.31724828  0.13114405  1.0
  C  C93  1  0.59667292  0.27167465  0.17592998  1.0
  C  C94  1  0.44822865  0.14548913  0.33483230  1.0
  C  C95  1  0.44372903  0.18835630  0.28772833  1.0
  C  C96  1  0.52673210  0.22341349  0.27223646  1.0
  C  C97  1  0.52270905  0.27074414  0.22349049  1.0
  C  C98  1  0.48193744  0.85984053  0.62860766  1.0
  C  C99  1  0.46306975  0.63926052  0.87273545  1.0
  C  C100  1  0.55310697  0.80784063  0.63115637  1.0
  C  C101  1  0.54746397  0.76473779  0.67840297  1.0
  C  C102  1  0.37927971  0.65353894  0.83858921  1.0
  C  C103  1  0.38163038  0.69691228  0.79122647  1.0
  C  C104  1  0.54876487  0.67138323  0.85768599  1.0
  C  C105  1  0.55183745  0.71516894  0.81140109  1.0
  C  C106  1  0.40396539  0.86529816  0.67414388  1.0
  C  C107  1  0.39813175  0.82335368  0.72218641  1.0
  C  C108  1  0.47067803  0.77273873  0.72551088  1.0
  C  C109  1  0.46784489  0.72822999  0.77674705  1.0
  C  C110  1  0.18593657  0.42235361  0.97192954  1.0
  C  C111  1  0.08688990  0.42599185  0.96969219  1.0
  C  C112  1  0.79738806  0.57656255  0.00658787  1.0
  C  C113  1  0.89654016  0.57362170  0.00618941  1.0
  C  C114  1  0.78168917  0.44685010  0.99341998  1.0
  C  C115  1  0.87953636  0.43897595  0.99394934  1.0
  C  C116  1  0.20320062  0.55492398  0.02983281  1.0
  C  C117  1  0.10538555  0.56357542  0.03181892  1.0
  C  C118  1  0.04458227  0.49794173  0.00055839  1.0
  C  C119  1  0.93966568  0.50349178  0.00020748  1.0
  Br  Br120  1  0.75858955  0.04865167  0.66833101  1.0
  Br  Br121  1  0.25526372  0.98865237  0.33728179  1.0
  Br  Br122  1  0.73981158  0.16484334  0.39547351  1.0
  Br  Br123  1  0.32907856  0.42473814  0.18885098  1.0
  Br  Br124  1  0.65838257  0.78819378  0.56717242  1.0
  Br  Br125  1  0.25669034  0.61155927  0.84887444  1.0
  Br  Br126  1  0.24026548  0.32366403  0.93430684  1.0
  Br  Br127  1  0.74152955  0.67294495  0.01766948  1.0
  N  N128  1  0.75540335  0.99622938  0.51437129  1.0
  N  N129  1  0.25853749  0.00163754  0.48592004  1.0
  N  N130  1  0.24352475  0.48512259  0.00024588  1.0
  N  N131  1  0.74051561  0.51494360  0.99995261  1.0
  O  O132  1  0.59196105  0.89387050  0.42254700  1.0
  O  O133  1  0.43607288  0.91079617  0.40136787  1.0
  O  O134  1  0.44776796  0.08096436  0.44345409  1.0
  O  O135  1  0.60300248  0.05013889  0.42629292  1.0
  O  O136  1  0.41959183  0.08799191  0.59307873  1.0
  O  O137  1  0.57825903  0.10340309  0.58290155  1.0
  O  O138  1  0.56674467  0.94297539  0.57990503  1.0
  O  O139  1  0.40813746  0.92217084  0.55243901  1.0
  O  O140  1  0.40771803  0.57556717  0.10366620  1.0
  O  O141  1  0.56231044  0.59950200  0.08623902  1.0
  O  O142  1  0.55226692  0.56322910  0.92586158  1.0
  O  O143  1  0.39761056  0.58179028  0.95657123  1.0
  O  O144  1  0.58005434  0.40479785  0.91332713  1.0
  O  O145  1  0.42215896  0.41759773  0.89649874  1.0
  O  O146  1  0.43041985  0.40997185  0.04612257  1.0
  O  O147  1  0.58821982  0.43991227  0.07058714  1.0
