# generated using pymatgen
data_BaH16C14SO10
_symmetry_space_group_name_H-M   'P 1'
_cell_length_a   6.00795725
_cell_length_b   13.76549270
_cell_length_c   14.21915399
_cell_angle_alpha   66.05057970
_cell_angle_beta   88.85921647
_cell_angle_gamma   86.59412898
_symmetry_Int_Tables_number   1
_chemical_formula_structural   BaH16C14SO10
_chemical_formula_sum   'Ba2 H32 C28 S2 O20'
_cell_volume   1072.80462434
_cell_formula_units_Z   2
loop_
 _symmetry_equiv_pos_site_id
 _symmetry_equiv_pos_as_xyz
  1  'x, y, z'
loop_
 _atom_site_type_symbol
 _atom_site_label
 _atom_site_symmetry_multiplicity
 _atom_site_fract_x
 _atom_site_fract_y
 _atom_site_fract_z
 _atom_site_occupancy
  Ba  Ba0  1  0.25988601  0.01340055  0.37163644  1.0
  Ba  Ba1  1  0.74010825  0.98660096  0.62836518  1.0
  H  H2  1  0.77035892  0.27355018  0.64420128  1.0
  H  H3  1  0.22963498  0.72644192  0.35579662  1.0
  H  H4  1  0.88670252  0.46046994  0.56293332  1.0
  H  H5  1  0.11328272  0.53952684  0.43706216  1.0
  H  H6  1  0.27607606  0.56908687  0.66145036  1.0
  H  H7  1  0.72394900  0.43090205  0.33855856  1.0
  H  H8  1  0.15759709  0.38155517  0.74413318  1.0
  H  H9  1  0.84240732  0.61844479  0.25586854  1.0
  H  H10  1  0.19777958  0.21851703  0.94159089  1.0
  H  H11  1  0.80221934  0.78149071  0.05840609  1.0
  H  H12  1  0.34776274  0.18511046  0.11346753  1.0
  H  H13  1  0.65222475  0.81489852  0.88652475  1.0
  H  H14  1  0.96532618  0.05637558  0.04133941  1.0
  H  H15  1  0.03466426  0.94362670  0.95866753  1.0
  H  H16  1  0.81316937  0.08706282  0.86768045  1.0
  H  H17  1  0.18683516  0.91293703  0.13231974  1.0
  H  H18  1  0.76088951  0.89732848  0.44301355  1.0
  H  H19  1  0.23910842  0.10267039  0.55698736  1.0
  H  H20  1  0.59292197  0.82661565  0.52325421  1.0
  H  H21  1  0.40708102  0.17338046  0.47674984  1.0
  H  H22  1  0.77179462  0.11658274  0.35587312  1.0
  H  H23  1  0.22819468  0.88341578  0.64413232  1.0
  H  H24  1  0.86360385  0.18824996  0.40785763  1.0
  H  H25  1  0.13638697  0.81175200  0.59214472  1.0
  H  H26  1  0.94273032  0.76933654  0.44967288  1.0
  H  H27  1  0.05727596  0.23066256  0.55032733  1.0
  H  H28  1  0.94809604  0.84616643  0.33176158  1.0
  H  H29  1  0.05190503  0.15383522  0.66823779  1.0
  H  H30  1  0.33356823  0.27065758  0.31504745  1.0
  H  H31  1  0.66643579  0.72934436  0.68495654  1.0
  H  H32  1  0.42415040  0.22282835  0.23996673  1.0
  H  H33  1  0.57584564  0.77717105  0.76003646  1.0
  C  C34  1  0.66552667  0.33838059  0.64931277  1.0
  C  C35  1  0.33447793  0.66161549  0.35066987  1.0
  C  C36  1  0.72910160  0.44297739  0.60377098  1.0
  C  C37  1  0.27089824  0.55702291  0.39622458  1.0
  C  C38  1  0.59158727  0.52560268  0.61045849  1.0
  C  C39  1  0.40841627  0.47439728  0.38953250  1.0
  C  C40  1  0.38436169  0.50353971  0.65977389  1.0
  C  C41  1  0.61564189  0.49645889  0.34021866  1.0
  C  C42  1  0.31819535  0.39941558  0.70572830  1.0
  C  C43  1  0.68181925  0.60057980  0.29427740  1.0
  C  C44  1  0.46229410  0.31775922  0.70107436  1.0
  C  C45  1  0.53771187  0.68224646  0.29892041  1.0
  C  C46  1  0.49799800  0.15447207  0.89589798  1.0
  C  C47  1  0.50198782  0.84553160  0.10410200  1.0
  C  C48  1  0.36579790  0.18294257  0.96378629  1.0
  C  C49  1  0.63419294  0.81706137  0.03621297  1.0
  C  C50  1  0.45185735  0.16412007  0.06025349  1.0
  C  C51  1  0.54813966  0.83588789  0.93974654  1.0
  C  C52  1  0.66881101  0.11855304  0.08807535  1.0
  C  C53  1  0.33118512  0.88144761  0.91192476  1.0
  C  C54  1  0.79757036  0.09123847  0.01832103  1.0
  C  C55  1  0.20242989  0.90877187  0.98167669  1.0
  C  C56  1  0.71360238  0.10836516  0.92202783  1.0
  C  C57  1  0.28639093  0.89163343  0.07796846  1.0
  C  C58  1  0.66703752  0.63787410  0.56614459  1.0
  C  C59  1  0.33298262  0.36212311  0.43385117  1.0
  C  C60  1  0.76854321  0.09720947  0.19174157  1.0
  C  C61  1  0.23144502  0.90278624  0.80826007  1.0
  S  S62  1  0.39701844  0.18359607  0.77054475  1.0
  S  S63  1  0.60301599  0.81640592  0.22945336  1.0
  O  O64  1  0.63123146  0.90433779  0.48489324  1.0
  O  O65  1  0.36876979  0.09565907  0.51511079  1.0
  O  O66  1  0.85144711  0.65526607  0.51910650  1.0
  O  O67  1  0.14856656  0.34472472  0.48089619  1.0
  O  O68  1  0.85916865  0.11426008  0.41713974  1.0
  O  O69  1  0.14082049  0.88573990  0.58286568  1.0
  O  O70  1  0.53841847  0.70731913  0.58243603  1.0
  O  O71  1  0.46160485  0.29267252  0.41756978  1.0
  O  O72  1  0.63902619  0.11462667  0.25750815  1.0
  O  O73  1  0.36096947  0.88537838  0.74249190  1.0
  O  O74  1  0.98967714  0.84254378  0.39986699  1.0
  O  O75  1  0.01032916  0.15745563  0.60013246  1.0
  O  O76  1  0.96918883  0.06361228  0.20873362  1.0
  O  O77  1  0.03079676  0.93639358  0.79126634  1.0
  O  O78  1  0.28285197  0.24124702  0.26673134  1.0
  O  O79  1  0.71714861  0.75875705  0.73327106  1.0
  O  O80  1  0.52563402  0.11703021  0.72918860  1.0
  O  O81  1  0.47435458  0.88297323  0.27081907  1.0
  O  O82  1  0.15477253  0.17813887  0.77635783  1.0
  O  O83  1  0.84523605  0.82185803  0.22363707  1.0
