# generated using pymatgen
data_Cu3H12C21N7O3
_symmetry_space_group_name_H-M   'P 1'
_cell_length_a   21.87196198
_cell_length_b   24.78876509
_cell_length_c   27.58806776
_cell_angle_alpha   91.70998404
_cell_angle_beta   90.25054205
_cell_angle_gamma   95.34798987
_symmetry_Int_Tables_number   1
_chemical_formula_structural   Cu3H12C21N7O3
_chemical_formula_sum   'Cu12 H48 C84 N28 O12'
_cell_volume   14885.54133631
_cell_formula_units_Z   4
loop_
 _symmetry_equiv_pos_site_id
 _symmetry_equiv_pos_as_xyz
  1  'x, y, z'
loop_
 _atom_site_type_symbol
 _atom_site_label
 _atom_site_symmetry_multiplicity
 _atom_site_fract_x
 _atom_site_fract_y
 _atom_site_fract_z
 _atom_site_occupancy
  Cu  Cu0  1  0.16574299  0.16672298  0.90621539  1.0
  Cu  Cu1  1  0.10118958  0.20012593  0.80972688  1.0
  Cu  Cu2  1  0.18253360  0.10000722  0.80891771  1.0
  Cu  Cu3  1  0.64801998  0.85100987  0.59458073  1.0
  Cu  Cu4  1  0.58868000  0.81411186  0.69350920  1.0
  Cu  Cu5  1  0.67074704  0.92750303  0.68567061  1.0
  Cu  Cu6  1  0.33512512  0.64986912  0.10484522  1.0
  Cu  Cu7  1  0.44624842  0.69390447  0.17659705  1.0
  Cu  Cu8  1  0.37720061  0.58550403  0.19916255  1.0
  Cu  Cu9  1  0.77881918  0.31294451  0.38612933  1.0
  Cu  Cu10  1  0.89630243  0.33271388  0.31790213  1.0
  Cu  Cu11  1  0.77936568  0.39185693  0.29837273  1.0
  H  H12  1  0.13430258  0.26288721  0.97819770  1.0
  H  H13  1  0.05582439  0.31316965  0.84424210  1.0
  H  H14  1  0.27440880  0.01559146  0.84454754  1.0
  H  H15  1  0.23486125  0.09744344  0.98023944  1.0
  H  H16  1  0.03178766  0.17881449  0.70759634  1.0
  H  H17  1  0.15063172  0.04827581  0.70556489  1.0
  H  H18  1  0.61148644  0.74758927  0.52744778  1.0
  H  H19  1  0.55908995  0.68650240  0.66832158  1.0
  H  H20  1  0.78208899  0.01068659  0.64678194  1.0
  H  H21  1  0.72951820  0.91445959  0.51689206  1.0
  H  H22  1  0.51415874  0.83745087  0.79005781  1.0
  H  H23  1  0.62693729  0.98964590  0.77780114  1.0
  H  H24  1  0.35167058  0.74128715  0.02289841  1.0
  H  H25  1  0.50342169  0.79184495  0.12035711  1.0
  H  H26  1  0.28675726  0.48295867  0.19148704  1.0
  H  H27  1  0.21695507  0.56961474  0.07214813  1.0
  H  H28  1  0.53370565  0.71553593  0.27002348  1.0
  H  H29  1  0.44147911  0.55781972  0.30050024  1.0
  H  H30  1  0.82819314  0.22965899  0.45959961  1.0
  H  H31  1  0.99302194  0.27494269  0.37807647  1.0
  H  H32  1  0.67382007  0.46435555  0.33212598  1.0
  H  H33  1  0.65446237  0.33880320  0.43840485  1.0
  H  H34  1  0.97222834  0.35776852  0.22031519  1.0
  H  H35  1  0.80156607  0.42606414  0.18905657  1.0
  H  H36  1  0.03408606  0.48152713  0.97308079  1.0
  H  H37  1  0.05474359  0.41858434  0.89205335  1.0
  H  H38  1  0.57086882  0.50733273  0.54577384  1.0
  H  H39  1  0.58440737  0.57958369  0.62319212  1.0
  H  H40  1  0.55139336  0.92774182  0.98077179  1.0
  H  H41  1  0.55813407  0.84699648  0.04640782  1.0
  H  H42  1  0.07199868  0.14714521  0.51569974  1.0
  H  H43  1  0.05946127  0.22807186  0.45128305  1.0
  H  H44  1  0.37490281  0.94368106  0.03695591  1.0
  H  H45  1  0.28190334  0.00988327  0.02770932  1.0
  H  H46  1  0.46909310  0.46946666  0.47632886  1.0
  H  H47  1  0.52130915  0.37863371  0.44268690  1.0
  H  H48  1  0.90492774  0.05796148  0.45138277  1.0
  H  H49  1  0.80320240  0.98628915  0.46422367  1.0
  H  H50  1  0.09373984  0.34984834  0.13579270  1.0
  H  H51  1  0.19906896  0.40218404  0.17600437  1.0
  H  H52  1  0.01466760  0.00483984  0.54493968  1.0
  H  H53  1  0.08984740  0.00499923  0.62509619  1.0
  H  H54  1  0.63510252  0.66666667  0.44004562  1.0
  H  H55  1  0.60477531  0.70806550  0.35286680  1.0
  H  H56  1  0.92553695  0.43272601  0.01780695  1.0
  H  H57  1  0.83736198  0.41959806  0.08812360  1.0
  H  H58  1  0.47531455  0.03508851  0.92126311  1.0
  H  H59  1  0.54968991  0.03578110  0.84121517  1.0
  C  C60  1  0.11782946  0.26696499  0.94148494  1.0
  C  C61  1  0.08801851  0.30916671  0.92176595  1.0
  C  C62  1  0.07818890  0.29310357  0.87288678  1.0
  C  C63  1  0.25865333  0.04131836  0.87349723  1.0
  C  C64  1  0.26952338  0.04044964  0.92369903  1.0
  C  C65  1  0.23789572  0.08292879  0.94292499  1.0
  C  C66  1  0.06515775  0.15021614  0.71460802  1.0
  C  C67  1  0.07986356  0.10504924  0.68655217  1.0
  C  C68  1  0.12586390  0.08337793  0.71354946  1.0
  C  C69  1  0.60040208  0.74164917  0.56530921  1.0
  C  C70  1  0.58086039  0.69362819  0.58876183  1.0
  C  C71  1  0.57419282  0.71024755  0.63745862  1.0
  C  C72  1  0.76188913  0.98190452  0.61953479  1.0
  C  C73  1  0.77521049  0.97679138  0.56988622  1.0
  C  C74  1  0.73467793  0.93289778  0.55300790  1.0
  C  C75  1  0.54670751  0.87102049  0.78028931  1.0
  C  C76  1  0.55707097  0.92321179  0.80177064  1.0
  C  C77  1  0.60418280  0.94893069  0.77387380  1.0
  C  C78  1  0.38549442  0.74651755  0.05193248  1.0
  C  C79  1  0.43654533  0.78510655  0.05770600  1.0
  C  C80  1  0.46336123  0.77200937  0.10163515  1.0
  C  C81  1  0.27772367  0.51105003  0.16349769  1.0
  C  C82  1  0.23061868  0.50760303  0.12852311  1.0
  C  C83  1  0.24195541  0.55545293  0.10258626  1.0
  C  C84  1  0.50581366  0.67700703  0.27008281  1.0
  C  C85  1  0.50263588  0.63633011  0.30467207  1.0
  C  C86  1  0.45842962  0.59636180  0.28568642  1.0
  C  C87  1  0.86275745  0.24595437  0.43455809  1.0
  C  C88  1  0.92572868  0.23898114  0.43275523  1.0
  C  C89  1  0.94715978  0.26933254  0.39304540  1.0
  C  C90  1  0.67736674  0.42941220  0.35437047  1.0
  C  C91  1  0.64198511  0.41211432  0.39431913  1.0
  C  C92  1  0.66692088  0.36474374  0.40834718  1.0
  C  C93  1  0.92705936  0.37244716  0.22062542  1.0
  C  C94  1  0.89603452  0.39684000  0.18361255  1.0
  C  C95  1  0.83964890  0.40712318  0.20447459  1.0
  C  C96  1  0.05467728  0.40923097  0.01083586  1.0
  C  C97  1  0.04618770  0.44007481  0.97157429  1.0
  C  C98  1  0.05660450  0.40714139  0.92963365  1.0
  C  C99  1  0.07147723  0.35799050  0.94584573  1.0
  C  C100  1  0.56283328  0.58132489  0.50534862  1.0
  C  C101  1  0.57012022  0.55091727  0.54539656  1.0
  C  C102  1  0.57643461  0.58879214  0.58562677  1.0
  C  C103  1  0.57316496  0.63954726  0.56799081  1.0
  C  C104  1  0.45631992  0.89223802  0.97385508  1.0
  C  C105  1  0.51530819  0.89746348  0.99129269  1.0
  C  C106  1  0.51832421  0.85579473  0.02552308  1.0
  C  C107  1  0.46087311  0.82825967  0.02745720  1.0
  C  C108  1  0.97152857  0.14359246  0.51613440  1.0
  C  C109  1  0.02992013  0.16205658  0.50300909  1.0
  C  C110  1  0.02298939  0.20394005  0.46941287  1.0
  C  C111  1  0.96120754  0.20784978  0.46358958  1.0
  C  C112  1  0.37959788  0.95167098  0.95806994  1.0
  C  C113  1  0.35822317  0.96019048  0.00401183  1.0
  C  C114  1  0.30985331  0.99468508  0.99889407  1.0
  C  C115  1  0.30526161  0.00555230  0.95057492  1.0
  C  C116  1  0.55078076  0.51127047  0.44446326  1.0
  C  C117  1  0.51186370  0.46762061  0.45690807  1.0
  C  C118  1  0.53947140  0.42064439  0.43986507  1.0
  C  C119  1  0.59333323  0.43852792  0.41751092  1.0
  C  C120  1  0.90096838  0.06602247  0.53056522  1.0
  C  C121  1  0.88299469  0.04664551  0.48521697  1.0
  C  C122  1  0.83011837  0.00947235  0.49214779  1.0
  C  C123  1  0.81954987  0.00788856  0.54120393  1.0
  C  C124  1  0.09731273  0.42150042  0.09159079  1.0
  C  C125  1  0.11659533  0.38880919  0.12645995  1.0
  C  C126  1  0.17111202  0.41615863  0.14720414  1.0
  C  C127  1  0.18247640  0.46406588  0.12334673  1.0
  C  C128  1  0.99266484  0.08214097  0.57731742  1.0
  C  C129  1  0.02129849  0.03541926  0.57389565  1.0
  C  C130  1  0.06030133  0.03582714  0.61542817  1.0
  C  C131  1  0.05344074  0.08302452  0.64157390  1.0
  C  C132  1  0.56127268  0.60419273  0.41993506  1.0
  C  C133  1  0.59982817  0.65037387  0.41456311  1.0
  C  C134  1  0.58376967  0.67166137  0.36920098  1.0
  C  C135  1  0.53703224  0.63698246  0.34926195  1.0
  C  C136  1  0.98665824  0.41730527  0.07797030  1.0
  C  C137  1  0.93200207  0.42428615  0.05565422  1.0
  C  C138  1  0.88639761  0.41761434  0.09261381  1.0
  C  C139  1  0.91577888  0.40747637  0.13491713  1.0
  C  C140  1  0.46566379  0.94768938  0.90542455  1.0
  C  C141  1  0.48678725  0.00070466  0.89903956  1.0
  C  C142  1  0.52546103  0.00078936  0.85757759  1.0
  C  C143  1  0.52624820  0.94778089  0.84149205  1.0
  N  N144  1  0.55268586  0.56656334  0.45644858  1.0
  N  N145  1  0.04663225  0.41737887  0.06051962  1.0
  N  N146  1  0.94917220  0.10303085  0.54739830  1.0
  N  N147  1  0.42694338  0.92243939  0.94008214  1.0
  N  N148  1  0.10065507  0.24492563  0.86426996  1.0
  N  N149  1  0.12525946  0.22874672  0.90673828  1.0
  N  N150  1  0.21001496  0.10701043  0.90686758  1.0
  N  N151  1  0.22291543  0.08134976  0.86385072  1.0
  N  N152  1  0.13739229  0.11329306  0.75469042  1.0
  N  N153  1  0.09988806  0.15475252  0.75539597  1.0
  N  N154  1  0.58925164  0.76417775  0.64254987  1.0
  N  N155  1  0.60545098  0.78359377  0.59785761  1.0
  N  N156  1  0.69985066  0.91348062  0.58983109  1.0
  N  N157  1  0.71666305  0.94365421  0.63109022  1.0
  N  N158  1  0.62028099  0.91473872  0.73829874  1.0
  N  N159  1  0.58475525  0.86637692  0.74223274  1.0
  N  N160  1  0.43105876  0.72878915  0.12039809  1.0
  N  N161  1  0.38264087  0.71285473  0.08974636  1.0
  N  N162  1  0.29221175  0.58508370  0.12105257  1.0
  N  N163  1  0.31416570  0.55741978  0.15882668  1.0
  N  N164  1  0.43716396  0.61231543  0.24290834  1.0
  N  N165  1  0.46646104  0.66215740  0.23332664  1.0
  N  N166  1  0.90039770  0.29275888  0.37291016  1.0
  N  N167  1  0.84804798  0.27824235  0.39853066  1.0
  N  N168  1  0.71377923  0.35460105  0.37881329  1.0
  N  N169  1  0.72003000  0.39464419  0.34529983  1.0
  N  N170  1  0.83738331  0.38991542  0.25039610  1.0
  N  N171  1  0.89147152  0.36846767  0.26047393  1.0
  O  O172  1  0.07002517  0.35851400  0.99577538  1.0
  O  O173  1  0.56432676  0.63502377  0.51779467  1.0
  O  O174  1  0.42217828  0.84994254  0.99482154  1.0
  O  O175  1  0.92888777  0.17114721  0.49338557  1.0
  O  O176  1  0.34772391  0.97786253  0.92477343  1.0
  O  O177  1  0.60102344  0.49451444  0.42034978  1.0
  O  O178  1  0.86272496  0.04351333  0.56530208  1.0
  O  O179  1  0.13712666  0.46825316  0.08925396  1.0
  O  O180  1  0.01130036  0.11185360  0.61853786  1.0
  O  O181  1  0.52229513  0.59522637  0.38071104  1.0
  O  O182  1  0.97841575  0.40686239  0.12586175  1.0
  O  O183  1  0.48865354  0.91454331  0.87054956  1.0
