# generated using pymatgen
data_ZnH2C9N5O12
_symmetry_space_group_name_H-M   'P 1'
_cell_length_a   10.56907607
_cell_length_b   11.05264499
_cell_length_c   11.75958944
_cell_angle_alpha   89.71861447
_cell_angle_beta   89.54136868
_cell_angle_gamma   89.95015797
_symmetry_Int_Tables_number   1
_chemical_formula_structural   ZnH2C9N5O12
_chemical_formula_sum   'Zn2 H4 C18 N10 O24'
_cell_volume   1373.65004013
_cell_formula_units_Z   2
loop_
 _symmetry_equiv_pos_site_id
 _symmetry_equiv_pos_as_xyz
  1  'x, y, z'
loop_
 _atom_site_type_symbol
 _atom_site_label
 _atom_site_symmetry_multiplicity
 _atom_site_fract_x
 _atom_site_fract_y
 _atom_site_fract_z
 _atom_site_occupancy
  Zn  Zn0  1  0.63292408  0.49999398  0.49724953  1.0
  Zn  Zn1  1  0.37351175  0.50213525  0.50398426  1.0
  H  H2  1  0.40444027  0.09234664  0.64795193  1.0
  H  H3  1  0.30749512  0.11598984  0.53068699  1.0
  H  H4  1  0.36721415  0.88650941  0.62321599  1.0
  H  H5  1  0.30529074  0.90856826  0.48799189  1.0
  C  C6  1  0.50099708  0.50287232  0.28371984  1.0
  C  C7  1  0.50146318  0.49434023  0.94344749  1.0
  C  C8  1  0.50236651  0.26441060  0.49445343  1.0
  C  C9  1  0.49919210  0.73660388  0.49650257  1.0
  C  C10  1  0.06731401  0.50323755  0.50208539  1.0
  C  C11  1  0.93809805  0.50335497  0.49945418  1.0
  C  C12  1  0.50611880  0.49418692  0.71751034  1.0
  C  C13  1  0.49564612  0.50014908  0.16181106  1.0
  C  C14  1  0.62513487  0.07245098  0.55782818  1.0
  C  C15  1  0.49652324  0.07292212  0.36497808  1.0
  C  C16  1  0.62408062  0.93072253  0.55571897  1.0
  C  C17  1  0.50393753  0.93224812  0.36135761  1.0
  C  C18  1  0.49831916  0.49686580  0.05796086  1.0
  C  C19  1  0.39306077  0.06957815  0.55848067  1.0
  C  C20  1  0.38426522  0.93290957  0.54245420  1.0
  C  C21  1  0.50803012  0.12267028  0.49122533  1.0
  C  C22  1  0.50628971  0.88013232  0.48630540  1.0
  C  C23  1  0.50499573  0.49293485  0.83952807  1.0
  N  N24  1  0.17700722  0.50299083  0.50463255  1.0
  N  N25  1  0.82841134  0.50338844  0.49752855  1.0
  N  N26  1  0.62832199  0.12275426  0.68743563  1.0
  N  N27  1  0.35462794  0.12363993  0.31971675  1.0
  N  N28  1  0.60551345  0.87085668  0.68076840  1.0
  N  N29  1  0.38541185  0.87785717  0.28874762  1.0
  N  N30  1  0.75677030  0.12439916  0.51144711  1.0
  N  N31  1  0.57784367  0.13771929  0.26874813  1.0
  N  N32  1  0.76453103  0.88464148  0.52628837  1.0
  N  N33  1  0.61403416  0.87502013  0.28097565  1.0
  O  O34  1  0.60882913  0.48423660  0.32731060  1.0
  O  O35  1  0.39701284  0.52343744  0.33694062  1.0
  O  O36  1  0.60525019  0.31844568  0.51199090  1.0
  O  O37  1  0.39433525  0.31061815  0.48087055  1.0
  O  O38  1  0.59905199  0.67975447  0.47248485  1.0
  O  O39  1  0.39688047  0.69178940  0.53298773  1.0
  O  O40  1  0.61142026  0.51552929  0.66807193  1.0
  O  O41  1  0.39991661  0.47450012  0.66957248  1.0
  O  O42  1  0.71172752  0.07892392  0.74589329  1.0
  O  O43  1  0.55367951  0.20261852  0.71391676  1.0
  O  O44  1  0.35723513  0.21408280  0.26060976  1.0
  O  O45  1  0.26127591  0.06841792  0.35354479  1.0
  O  O46  1  0.66651982  0.77926463  0.69982322  1.0
  O  O47  1  0.52413517  0.91658032  0.74196258  1.0
  O  O48  1  0.37514217  0.92160912  0.19360661  1.0
  O  O49  1  0.32262111  0.79687907  0.33147752  1.0
  O  O50  1  0.78330211  0.08790818  0.41579755  1.0
  O  O51  1  0.81836080  0.19362189  0.56935835  1.0
  O  O52  1  0.63726370  0.22762782  0.29638135  1.0
  O  O53  1  0.56473530  0.09737403  0.17295441  1.0
  O  O54  1  0.78340986  0.82172173  0.44322587  1.0
  O  O55  1  0.84346085  0.91928520  0.59505171  1.0
  O  O56  1  0.70862436  0.93377533  0.26006099  1.0
  O  O57  1  0.59021528  0.77187253  0.25017125  1.0
