# generated using pymatgen
data_Cu4H24C29N8
_symmetry_space_group_name_H-M   'P 1'
_cell_length_a   25.95788603
_cell_length_b   25.98877826
_cell_length_c   26.13851125
_cell_angle_alpha   89.90865406
_cell_angle_beta   90.01553597
_cell_angle_gamma   89.60180777
_symmetry_Int_Tables_number   1
_chemical_formula_structural   Cu4H24C29N8
_chemical_formula_sum   'Cu12 H72 C87 N24'
_cell_volume   17632.94999059
_cell_formula_units_Z   3
loop_
 _symmetry_equiv_pos_site_id
 _symmetry_equiv_pos_as_xyz
  1  'x, y, z'
loop_
 _atom_site_type_symbol
 _atom_site_label
 _atom_site_symmetry_multiplicity
 _atom_site_fract_x
 _atom_site_fract_y
 _atom_site_fract_z
 _atom_site_occupancy
  Cu  Cu0  1  0.78801677  0.78591066  0.86867040  1.0
  Cu  Cu1  1  0.87293732  0.78356508  0.78181459  1.0
  Cu  Cu2  1  0.78624662  0.87122924  0.78198963  1.0
  Cu  Cu3  1  0.77957250  0.21679202  0.13201753  1.0
  Cu  Cu4  1  0.86466395  0.21782311  0.21908402  1.0
  Cu  Cu5  1  0.77899214  0.13089883  0.21811964  1.0
  Cu  Cu6  1  0.21288918  0.78543713  0.13154915  1.0
  Cu  Cu7  1  0.12757437  0.78618380  0.21848975  1.0
  Cu  Cu8  1  0.21612383  0.87040679  0.21801065  1.0
  Cu  Cu9  1  0.21559310  0.21918176  0.86511449  1.0
  Cu  Cu10  1  0.12806033  0.22186063  0.78040528  1.0
  Cu  Cu11  1  0.21171336  0.13131437  0.78174482  1.0
  H  H12  1  0.82418474  0.69072735  0.93642361  1.0
  H  H13  1  0.93935834  0.68652003  0.81647489  1.0
  H  H14  1  0.68770677  0.93610068  0.81483819  1.0
  H  H15  1  0.69179301  0.82115812  0.93512337  1.0
  H  H16  1  0.93807521  0.81691063  0.68542283  1.0
  H  H17  1  0.82350243  0.93890057  0.68802305  1.0
  H  H18  1  0.81431781  0.31265260  0.06563814  1.0
  H  H19  1  0.92864630  0.31604400  0.18642755  1.0
  H  H20  1  0.68412680  0.06380753  0.18221849  1.0
  H  H21  1  0.68650125  0.17983768  0.06294604  1.0
  H  H22  1  0.93299222  0.17988911  0.31313977  1.0
  H  H23  1  0.81326170  0.06450811  0.31382221  1.0
  H  H24  1  0.17622361  0.69060213  0.06540025  1.0
  H  H25  1  0.06204854  0.68861791  0.18633637  1.0
  H  H26  1  0.31275796  0.93511199  0.18235471  1.0
  H  H27  1  0.30707170  0.82021493  0.06250734  1.0
  H  H28  1  0.05991034  0.82616134  0.31198257  1.0
  H  H29  1  0.18371233  0.93717222  0.31377682  1.0
  H  H30  1  0.18492170  0.31608731  0.93101999  1.0
  H  H31  1  0.06222602  0.31857370  0.81861053  1.0
  H  H32  1  0.30720416  0.06245060  0.81580285  1.0
  H  H33  1  0.31112396  0.18152922  0.93159680  1.0
  H  H34  1  0.06240490  0.19032423  0.68353062  1.0
  H  H35  1  0.17143741  0.06348879  0.68948206  1.0
  H  H36  1  0.97308707  0.60617945  0.86017817  1.0
  H  H37  1  0.01308340  0.53649364  0.90593017  1.0
  H  H38  1  0.89742810  0.61624847  0.95020986  1.0
  H  H39  1  0.93816787  0.55769929  0.99488084  1.0
  H  H40  1  0.96263922  0.39327654  0.14401765  1.0
  H  H41  1  0.00997711  0.45639385  0.09874501  1.0
  H  H42  1  0.88961586  0.38594094  0.05171549  1.0
  H  H43  1  0.93004785  0.45265712  0.01212601  1.0
  H  H44  1  0.02796554  0.60971535  0.14434817  1.0
  H  H45  1  0.98248102  0.54514145  0.09808822  1.0
  H  H46  1  0.10134704  0.61763158  0.05233522  1.0
  H  H47  1  0.06824677  0.54774157  0.01701751  1.0
  H  H48  1  0.14366321  0.39591715  0.96689736  1.0
  H  H49  1  0.09971382  0.46348407  0.01129957  1.0
  H  H50  1  0.05076134  0.39066311  0.89408334  1.0
  H  H51  1  0.00727530  0.44659942  0.93977765  1.0
  H  H52  1  0.60845649  0.96976188  0.85734248  1.0
  H  H53  1  0.54190813  0.01385382  0.90247876  1.0
  H  H54  1  0.61724295  0.89561781  0.94872826  1.0
  H  H55  1  0.55008507  0.93245181  0.98771633  1.0
  H  H56  1  0.38702731  0.02733781  0.85799951  1.0
  H  H57  1  0.45386521  0.98336249  0.90290829  1.0
  H  H58  1  0.38214643  0.10464562  0.94678947  1.0
  H  H59  1  0.44681661  0.06537461  0.98739754  1.0
  H  H60  1  0.60692215  0.02932636  0.13858849  1.0
  H  H61  1  0.54255768  0.98381020  0.09269076  1.0
  H  H62  1  0.61493991  0.10353241  0.04722489  1.0
  H  H63  1  0.54821839  0.06599551  0.00810916  1.0
  H  H64  1  0.38956444  0.96863713  0.13852187  1.0
  H  H65  1  0.45457048  0.01358585  0.09282904  1.0
  H  H66  1  0.38069361  0.89496540  0.04707330  1.0
  H  H67  1  0.44803552  0.93191768  0.00810578  1.0
  H  H68  1  0.96968522  0.85793090  0.60376121  1.0
  H  H69  1  0.01233143  0.90408754  0.53631760  1.0
  H  H70  1  0.89847124  0.95219545  0.61556516  1.0
  H  H71  1  0.93548209  0.99307009  0.55391613  1.0
  H  H72  1  0.14372213  0.96987335  0.39569799  1.0
  H  H73  1  0.09778183  0.01457702  0.46236396  1.0
  H  H74  1  0.04782270  0.90200746  0.38379450  1.0
  H  H75  1  0.00919077  0.93784242  0.44715571  1.0
  H  H76  1  0.03009031  0.14888694  0.60085245  1.0
  H  H77  1  0.98576627  0.10129268  0.53536764  1.0
  H  H78  1  0.09635284  0.05175532  0.61751459  1.0
  H  H79  1  0.06397580  0.01333147  0.55244298  1.0
  H  H80  1  0.85399659  0.03276636  0.39597689  1.0
  H  H81  1  0.90021488  0.99021349  0.46380270  1.0
  H  H82  1  0.94725615  0.10436928  0.38492323  1.0
  H  H83  1  0.98900641  0.06605960  0.44550281  1.0
  C  C84  1  0.84842423  0.69680754  0.90313924  1.0
  C  C85  1  0.89221472  0.66890706  0.88714867  1.0
  C  C86  1  0.90720766  0.69429262  0.84189549  1.0
  C  C87  1  0.69549054  0.90406698  0.84041574  1.0
  C  C88  1  0.66989418  0.88906420  0.88555194  1.0
  C  C89  1  0.69789687  0.84544658  0.90186716  1.0
  C  C90  1  0.90583730  0.84269990  0.69256799  1.0
  C  C91  1  0.89115284  0.88828873  0.66703201  1.0
  C  C92  1  0.84746984  0.90509046  0.69435425  1.0
  C  C93  1  0.83836338  0.30653850  0.09913156  1.0
  C  C94  1  0.88185596  0.33409599  0.11547517  1.0
  C  C95  1  0.89664288  0.30856826  0.16086798  1.0
  C  C96  1  0.69118378  0.09626657  0.15709863  1.0
  C  C97  1  0.66604126  0.11097214  0.11148526  1.0
  C  C98  1  0.69268885  0.15540413  0.09614096  1.0
  C  C99  1  0.89964728  0.15583053  0.30637731  1.0
  C  C100  1  0.88354849  0.11171741  0.33313756  1.0
  C  C101  1  0.83841816  0.09701567  0.30717694  1.0
  C  C102  1  0.15222323  0.69713114  0.09881110  1.0
  C  C103  1  0.10859209  0.66995159  0.11544872  1.0
  C  C104  1  0.09401328  0.69579756  0.16061704  1.0
  C  C105  1  0.30477727  0.90307663  0.15708183  1.0
  C  C106  1  0.32934833  0.88815343  0.11129681  1.0
  C  C107  1  0.30156659  0.84452159  0.09583365  1.0
  C  C108  1  0.09413236  0.84906693  0.30548415  1.0
  C  C109  1  0.11162393  0.89242089  0.33246753  1.0
  C  C110  1  0.15743774  0.90563438  0.30687197  1.0
  C  C111  1  0.15869473  0.31004897  0.89931026  1.0
  C  C112  1  0.11346482  0.33707642  0.88570920  1.0
  C  C113  1  0.09606888  0.31092995  0.84190620  1.0
  C  C114  1  0.30155650  0.09573085  0.84020940  1.0
  C  C115  1  0.32870028  0.11100265  0.88432134  1.0
  C  C116  1  0.30319231  0.15650448  0.89936083  1.0
  C  C117  1  0.09341231  0.16327171  0.69146587  1.0
  C  C118  1  0.10623807  0.11663945  0.66698440  1.0
  C  C119  1  0.14897258  0.09842875  0.69500797  1.0
  C  C120  1  0.99922497  0.00259672  0.49975666  1.0
  C  C121  1  0.99979822  0.50020014  0.00410020  1.0
  C  C122  1  0.49831415  0.99881397  0.99766782  1.0
  C  C123  1  0.91519308  0.62562690  0.91343347  1.0
  C  C124  1  0.95601802  0.59707603  0.89735107  1.0
  C  C125  1  0.98075270  0.55538968  0.92533919  1.0
  C  C126  1  0.96908286  0.53917968  0.97307470  1.0
  C  C127  1  0.90593051  0.37650751  0.08921181  1.0
  C  C128  1  0.94709877  0.40336401  0.10636997  1.0
  C  C129  1  0.97506228  0.44326010  0.07954033  1.0
  C  C130  1  0.96423480  0.46442491  0.03353183  1.0
  C  C131  1  0.08489432  0.62709794  0.08971764  1.0
  C  C132  1  0.04427707  0.59950738  0.10707286  1.0
  C  C133  1  0.01826564  0.55821679  0.08042475  1.0
  C  C134  1  0.03286130  0.53563881  0.03611017  1.0
  C  C135  1  0.08814811  0.37994318  0.91043288  1.0
  C  C136  1  0.10573218  0.40625938  0.95161410  1.0
  C  C137  1  0.07865111  0.44673793  0.97917614  1.0
  C  C138  1  0.03004069  0.46342483  0.97067897  1.0
  C  C139  1  0.62665801  0.91247297  0.91153884  1.0
  C  C140  1  0.59861076  0.95333223  0.89463206  1.0
  C  C141  1  0.55694341  0.97932240  0.92136305  1.0
  C  C142  1  0.53594366  0.96627594  0.96688902  1.0
  C  C143  1  0.37143861  0.08678262  0.91047071  1.0
  C  C144  1  0.39789993  0.04452194  0.89461194  1.0
  C  C145  1  0.43936037  0.01822519  0.92149177  1.0
  C  C146  1  0.46071076  0.03139548  0.96679052  1.0
  C  C147  1  0.62416086  0.08674994  0.08456298  1.0
  C  C148  1  0.59708988  0.04545056  0.10110678  1.0
  C  C149  1  0.55649390  0.01872442  0.07401700  1.0
  C  C150  1  0.53509786  0.03173164  0.02856794  1.0
  C  C151  1  0.37168440  0.91169629  0.08442281  1.0
  C  C152  1  0.39932147  0.95252648  0.10107005  1.0
  C  C153  1  0.44025833  0.97891042  0.07411649  1.0
  C  C154  1  0.46144207  0.96597727  0.02861684  1.0
  C  C155  1  0.91459304  0.91415883  0.62418947  1.0
  C  C156  1  0.95415492  0.89622677  0.59521898  1.0
  C  C157  1  0.97941272  0.92374900  0.55393998  1.0
  C  C158  1  0.96736369  0.97141977  0.53682126  1.0
  C  C159  1  0.08627445  0.91672388  0.37526654  1.0
  C  C160  1  0.10512221  0.95555697  0.40425728  1.0
  C  C161  1  0.07805811  0.98159650  0.44549575  1.0
  C  C162  1  0.03067381  0.97001177  0.46330837  1.0
  C  C163  1  0.08217783  0.09086550  0.62449330  1.0
  C  C164  1  0.04422885  0.10975916  0.59395833  1.0
  C  C165  1  0.01895686  0.08197531  0.55293017  1.0
  C  C166  1  0.03143207  0.03444737  0.53586644  1.0
  C  C167  1  0.90953312  0.08810723  0.37603403  1.0
  C  C168  1  0.89204773  0.04832868  0.40471484  1.0
  C  C169  1  0.91976017  0.02284002  0.44597724  1.0
  C  C170  1  0.96749015  0.03448141  0.46280341  1.0
  N  N171  1  0.87484475  0.73385314  0.83214696  1.0
  N  N172  1  0.83824063  0.73545022  0.87016075  1.0
  N  N173  1  0.73689310  0.83548381  0.86924861  1.0
  N  N174  1  0.73538560  0.87201257  0.83113551  1.0
  N  N175  1  0.83695559  0.87212415  0.73273129  1.0
  N  N176  1  0.87337973  0.83345203  0.73165769  1.0
  N  N177  1  0.86461368  0.26913632  0.17027856  1.0
  N  N178  1  0.82828062  0.26789682  0.13199920  1.0
  N  N179  1  0.73041664  0.16613632  0.12982253  1.0
  N  N180  1  0.72948634  0.12930448  0.16762115  1.0
  N  N181  1  0.82875828  0.12986457  0.26837634  1.0
  N  N182  1  0.86668865  0.16656807  0.26790913  1.0
  N  N183  1  0.12639073  0.73502280  0.16970179  1.0
  N  N184  1  0.16269303  0.73578595  0.13139780  1.0
  N  N185  1  0.26369710  0.83445803  0.12957960  1.0
  N  N186  1  0.26570530  0.87092541  0.16756716  1.0
  N  N187  1  0.16621476  0.87266283  0.26808542  1.0
  N  N188  1  0.12698741  0.83734942  0.26725715  1.0
  N  N189  1  0.12828186  0.27170771  0.83047150  1.0
  N  N190  1  0.16712144  0.27120298  0.86626866  1.0
  N  N191  1  0.26423399  0.16732288  0.86692457  1.0
  N  N192  1  0.26318126  0.12943403  0.83028538  1.0
  N  N193  1  0.16066759  0.13155123  0.73279212  1.0
  N  N194  1  0.12595158  0.17173493  0.73067527  1.0
