# generated using pymatgen
data_Al2H31C36N2O10F
_symmetry_space_group_name_H-M   'P 1'
_cell_length_a   6.76107621
_cell_length_b   23.39160802
_cell_length_c   26.10244745
_cell_angle_alpha   78.12154729
_cell_angle_beta   88.77212296
_cell_angle_gamma   88.99458680
_symmetry_Int_Tables_number   1
_chemical_formula_structural   Al2H31C36N2O10F
_chemical_formula_sum   'Al4 H62 C72 N4 O20 F2'
_cell_volume   4038.47554914
_cell_formula_units_Z   2
loop_
 _symmetry_equiv_pos_site_id
 _symmetry_equiv_pos_as_xyz
  1  'x, y, z'
loop_
 _atom_site_type_symbol
 _atom_site_label
 _atom_site_symmetry_multiplicity
 _atom_site_fract_x
 _atom_site_fract_y
 _atom_site_fract_z
 _atom_site_occupancy
  Al  Al0  1  0.88288024  0.49941565  0.49930963  1.0
  Al  Al1  1  0.38291634  0.49857029  0.49819817  1.0
  Al  Al2  1  0.30137311  0.99799999  0.99888211  1.0
  Al  Al3  1  0.80196407  0.00183111  0.00061566  1.0
  H  H4  1  0.35573770  0.20267276  0.13724935  1.0
  H  H5  1  0.87662585  0.81516209  0.83641238  1.0
  H  H6  1  0.75258347  0.09282653  0.12094337  1.0
  H  H7  1  0.26135695  0.90069640  0.89175061  1.0
  H  H8  1  0.94250127  0.15726139  0.26629000  1.0
  H  H9  1  0.30495717  0.81826081  0.75189265  1.0
  H  H10  1  0.24635016  0.35328439  0.22288784  1.0
  H  H11  1  0.84261704  0.67114182  0.75245307  1.0
  H  H12  1  0.21673047  0.29573073  0.15365920  1.0
  H  H13  1  0.82870042  0.72882679  0.82120812  1.0
  H  H14  1  0.42700434  0.34765549  0.30726009  1.0
  H  H15  1  0.90277668  0.68549843  0.65765078  1.0
  H  H16  1  0.44218174  0.41024671  0.37391691  1.0
  H  H17  1  0.92049203  0.62023847  0.59299686  1.0
  H  H18  1  0.83153022  0.37532682  0.41498358  1.0
  H  H19  1  0.29770169  0.58879784  0.61419821  1.0
  H  H20  1  0.81638970  0.31049906  0.35051773  1.0
  H  H21  1  0.27805990  0.65262725  0.67978151  1.0
  H  H22  1  0.33380673  0.23956474  0.67551866  1.0
  H  H23  1  0.83089630  0.75979222  0.32150026  1.0
  H  H24  1  0.24062001  0.15856856  0.74062759  1.0
  H  H25  1  0.73358888  0.84076948  0.25709194  1.0
  H  H26  1  0.77018122  0.22478079  0.77969363  1.0
  H  H27  1  0.27167660  0.77462920  0.22144829  1.0
  H  H28  1  0.86183350  0.16654307  0.75197454  1.0
  H  H29  1  0.35588216  0.83284501  0.24852821  1.0
  H  H30  1  0.95521071  0.22930351  0.67292177  1.0
  H  H31  1  0.45134962  0.77005294  0.32688354  1.0
  H  H32  1  0.79864977  0.28138662  0.69404468  1.0
  H  H33  1  0.30109331  0.71800181  0.30687764  1.0
  H  H34  1  0.25154229  0.26828597  0.82525888  1.0
  H  H35  1  0.75968923  0.73112683  0.17221054  1.0
  H  H36  1  0.99361530  0.27261027  0.83653432  1.0
  H  H37  1  0.50266669  0.72688175  0.16290199  1.0
  H  H38  1  0.20216148  0.35042371  0.75740270  1.0
  H  H39  1  0.71474970  0.64897599  0.24041929  1.0
  H  H40  1  0.39691927  0.18773947  0.78182980  1.0
  H  H41  1  0.89505466  0.81157890  0.21471699  1.0
  H  H42  1  0.42503566  0.27760608  0.72169512  1.0
  H  H43  1  0.92884296  0.72171707  0.27467866  1.0
  H  H44  1  0.94425922  0.33974699  0.75715167  1.0
  H  H45  1  0.45576462  0.65975723  0.24261990  1.0
  H  H46  1  0.40392535  0.09532613  0.05592010  1.0
  H  H47  1  0.66652918  0.16144394  0.03516223  1.0
  H  H48  1  0.55831976  0.20876022  0.07293318  1.0
  H  H49  1  0.44887479  0.20319765  0.01267033  1.0
  H  H50  1  0.94039889  0.91378464  0.92056920  1.0
  H  H51  1  0.12597065  0.83558128  0.97130928  1.0
  H  H52  1  0.96756924  0.78556317  0.94959599  1.0
  H  H53  1  0.86906634  0.83233304  0.99013628  1.0
  H  H54  1  0.59473528  0.14136072  0.17814606  1.0
  H  H55  1  0.50343628  0.22834351  0.20466481  1.0
  H  H56  1  0.61088766  0.25042232  0.14042163  1.0
  H  H57  1  0.74924728  0.25310850  0.19667945  1.0
  H  H58  1  0.09965372  0.83506021  0.86519093  1.0
  H  H59  1  0.17152401  0.73456883  0.81848635  1.0
  H  H60  1  0.04895971  0.73828651  0.87893237  1.0
  H  H61  1  0.31033089  0.72858724  0.87634895  1.0
  H  H62  1  0.63558624  0.42401428  0.52438700  1.0
  H  H63  1  0.13222442  0.57451868  0.47453842  1.0
  H  H64  1  0.54699307  0.07097327  0.96730297  1.0
  H  H65  1  0.04772624  0.92684904  0.02862894  1.0
  C  C66  1  0.55008177  0.92181608  0.07602413  1.0
  C  C67  1  0.05699388  0.07769918  0.92298949  1.0
  C  C68  1  0.63951137  0.57479076  0.42068417  1.0
  C  C69  1  0.12719463  0.42358513  0.57701296  1.0
  C  C70  1  0.61787909  0.56309830  0.56015284  1.0
  C  C71  1  0.14355429  0.43443082  0.43772785  1.0
  C  C72  1  0.23289458  0.13740991  0.10064462  1.0
  C  C73  1  0.75195309  0.86786046  0.88742148  1.0
  C  C74  1  0.22329711  0.17849550  0.13324818  1.0
  C  C75  1  0.74094479  0.83093223  0.85183503  1.0
  C  C76  1  0.05868637  0.18637414  0.16413979  1.0
  C  C77  1  0.56354156  0.81503383  0.83236832  1.0
  C  C78  1  0.88133606  0.15641897  0.15868004  1.0
  C  C79  1  0.38653950  0.83690506  0.85163069  1.0
  C  C80  1  0.88709659  0.11598318  0.12621639  1.0
  C  C81  1  0.39787336  0.88099738  0.88046468  1.0
  C  C82  1  0.05810101  0.10460496  0.09805476  1.0
  C  C83  1  0.57582307  0.89633844  0.89966275  1.0
  C  C84  1  0.01162865  0.19988793  0.25597183  1.0
  C  C85  1  0.42425384  0.78610951  0.75306396  1.0
  C  C86  1  0.02693518  0.23339697  0.29361834  1.0
  C  C87  1  0.43341537  0.75211191  0.71544945  1.0
  C  C88  1  0.11039269  0.28923324  0.28370993  1.0
  C  C89  1  0.58200675  0.71005154  0.71309012  1.0
  C  C90  1  0.18166085  0.30989480  0.23235269  1.0
  C  C91  1  0.72578683  0.70398992  0.75208038  1.0
  C  C92  1  0.16525173  0.27751075  0.19344545  1.0
  C  C93  1  0.71819977  0.73676829  0.79082880  1.0
  C  C94  1  0.07851776  0.22211090  0.20448388  1.0
  C  C95  1  0.56745064  0.77866020  0.79232034  1.0
  C  C96  1  0.29601688  0.35379079  0.33080830  1.0
  C  C97  1  0.77048624  0.66347679  0.64886539  1.0
  C  C98  1  0.30547173  0.38865541  0.36795000  1.0
  C  C99  1  0.78093501  0.62751629  0.61251683  1.0
  C  C100  1  0.13758291  0.39653496  0.39829490  1.0
  C  C101  1  0.60999860  0.60075475  0.59978378  1.0
  C  C102  1  0.96139643  0.36841670  0.39142642  1.0
  C  C103  1  0.42903085  0.61025327  0.62419022  1.0
  C  C104  1  0.95360206  0.33249660  0.35525109  1.0
  C  C105  1  0.41881676  0.64606594  0.66054510  1.0
  C  C106  1  0.12044154  0.32504681  0.32401338  1.0
  C  C107  1  0.58937063  0.67331207  0.67345034  1.0
  C  C108  1  0.26650862  0.19745689  0.75696749  1.0
  C  C109  1  0.76417977  0.80188348  0.24052857  1.0
  C  C110  1  0.89582925  0.21051952  0.75770025  1.0
  C  C111  1  0.39470676  0.78887194  0.24253367  1.0
  C  C112  1  0.92905198  0.25310296  0.70467921  1.0
  C  C113  1  0.42931693  0.74626249  0.29529778  1.0
  C  C114  1  0.12769245  0.37782085  0.62338483  1.0
  C  C115  1  0.63747830  0.62112260  0.37470935  1.0
  C  C116  1  0.08388288  0.20771204  0.79115093  1.0
  C  C117  1  0.58432883  0.79172447  0.20765911  1.0
  C  C118  1  0.29947888  0.25202666  0.71308823  1.0
  C  C119  1  0.80013299  0.74730592  0.28416547  1.0
  C  C120  1  0.11146398  0.29155217  0.70774770  1.0
  C  C121  1  0.61571450  0.70781282  0.29083514  1.0
  C  C122  1  0.08867127  0.31728640  0.75786495  1.0
  C  C123  1  0.59809801  0.68216324  0.24082771  1.0
  C  C124  1  0.10693687  0.26773177  0.80688959  1.0
  C  C125  1  0.61406244  0.73171397  0.19168757  1.0
  C  C126  1  0.12340248  0.33841380  0.66183236  1.0
  C  C127  1  0.63055261  0.66081403  0.33653185  1.0
  C  C128  1  0.06966655  0.16182840  0.83766788  1.0
  C  C129  1  0.56796252  0.83764929  0.16123792  1.0
  C  C130  1  0.06019665  0.12349231  0.87688118  1.0
  C  C131  1  0.55563762  0.87595927  0.12209323  1.0
  C  C132  1  0.56678261  0.93750753  0.93607744  1.0
  C  C133  1  0.04572356  0.06286427  0.06295225  1.0
  C  C134  1  0.52495601  0.17829178  0.04758578  1.0
  C  C135  1  0.97601446  0.82951986  0.95806278  1.0
  C  C136  1  0.63944762  0.22758699  0.18127977  1.0
  C  C137  1  0.18278421  0.75094238  0.85495146  1.0
  N  N138  1  0.40915339  0.12922726  0.07495477  1.0
  N  N139  1  0.93785035  0.87385495  0.91028639  1.0
  N  N140  1  0.70624470  0.16710691  0.18547262  1.0
  N  N141  1  0.20261524  0.81430335  0.84551277  1.0
  O  O142  1  0.45286552  0.54471053  0.54767011  1.0
  O  O143  1  0.97776554  0.44523247  0.45825379  1.0
  O  O144  1  0.80800313  0.55425278  0.43671788  1.0
  O  O145  1  0.29437764  0.43770445  0.55501137  1.0
  O  O146  1  0.78777068  0.55292564  0.54132741  1.0
  O  O147  1  0.31202351  0.45242896  0.44825308  1.0
  O  O148  1  0.95863382  0.44516055  0.56207382  1.0
  O  O149  1  0.47123264  0.55915650  0.44125433  1.0
  O  O150  1  0.21056723  0.04577866  0.04528077  1.0
  O  O151  1  0.72964799  0.95735920  0.94900820  1.0
  O  O152  1  0.63515081  0.46339849  0.50345132  1.0
  O  O153  1  0.13166661  0.53448385  0.49401303  1.0
  O  O154  1  0.38075853  0.93973903  0.05845336  1.0
  O  O155  1  0.88848178  0.06265402  0.94385236  1.0
  O  O156  1  0.54778510  0.03682967  0.99575750  1.0
  O  O157  1  0.05087367  0.96322719  0.00277851  1.0
  O  O158  1  0.71735386  0.94036138  0.05651926  1.0
  O  O159  1  0.22447407  0.05623141  0.93920347  1.0
  O  O160  1  0.39560770  0.94957226  0.95311367  1.0
  O  O161  1  0.87552144  0.04712332  0.05063296  1.0
  F  F162  1  0.95907214  0.20994003  0.34305309  1.0
  F  F163  1  0.29011533  0.76143494  0.67820392  1.0
