# generated using pymatgen
data_Zn4H8C24S4O13
_symmetry_space_group_name_H-M   'P 1'
_cell_length_a   19.65350836
_cell_length_b   19.66211546
_cell_length_c   33.33657278
_cell_angle_alpha   79.28813208
_cell_angle_beta   79.31504055
_cell_angle_gamma   64.02543736
_symmetry_Int_Tables_number   1
_chemical_formula_structural   Zn4H8C24S4O13
_chemical_formula_sum   'Zn16 H32 C96 S16 O52'
_cell_volume   11300.02846660
_cell_formula_units_Z   4
loop_
 _symmetry_equiv_pos_site_id
 _symmetry_equiv_pos_as_xyz
  1  'x, y, z'
loop_
 _atom_site_type_symbol
 _atom_site_label
 _atom_site_symmetry_multiplicity
 _atom_site_fract_x
 _atom_site_fract_y
 _atom_site_fract_z
 _atom_site_occupancy
  Zn  Zn0  1  0.05559090  0.40095193  0.47827580  1.0
  Zn  Zn1  1  0.98327717  0.48318655  0.56023975  1.0
  Zn  Zn2  1  0.06017631  0.56044017  0.48310853  1.0
  Zn  Zn3  1  0.90102210  0.55527728  0.47834381  1.0
  Zn  Zn4  1  0.69434165  0.34908621  0.27170722  1.0
  Zn  Zn5  1  0.68977398  0.18957773  0.26685796  1.0
  Zn  Zn6  1  0.76695633  0.26675218  0.18966959  1.0
  Zn  Zn7  1  0.84873289  0.19477119  0.27173872  1.0
  Zn  Zn8  1  0.26674084  0.76681765  0.68975669  1.0
  Zn  Zn9  1  0.34897369  0.69468538  0.77167481  1.0
  Zn  Zn10  1  0.19437078  0.84904626  0.77174725  1.0
  Zn  Zn11  1  0.18980194  0.68955479  0.76690259  1.0
  Zn  Zn12  1  0.56020725  0.06041889  0.98315229  1.0
  Zn  Zn13  1  0.40127402  0.05518937  0.97827026  1.0
  Zn  Zn14  1  0.55561877  0.90091187  0.97831589  1.0
  Zn  Zn15  1  0.48305041  0.98326141  0.06032559  1.0
  H  H16  1  0.79607474  0.50214237  0.39913473  1.0
  H  H17  1  0.95392254  0.24786848  0.35088106  1.0
  H  H18  1  0.74782851  0.45389307  0.35085375  1.0
  H  H19  1  0.00219913  0.29611513  0.39914925  1.0
  H  H20  1  0.15236139  0.65241324  0.54934611  1.0
  H  H21  1  0.09764190  0.59757953  0.70066855  1.0
  H  H22  1  0.20065775  0.70067166  0.59762070  1.0
  H  H23  1  0.04934099  0.54931575  0.65239622  1.0
  H  H24  1  0.28628723  0.51078079  0.40925118  1.0
  H  H25  1  0.46367559  0.23920749  0.34072945  1.0
  H  H26  1  0.77154809  0.54706245  0.64855797  1.0
  H  H27  1  0.47849957  0.70294340  0.60142881  1.0
  H  H28  1  0.04708841  0.27149241  0.64856189  1.0
  H  H29  1  0.20293028  0.97854012  0.60142642  1.0
  H  H30  1  0.80065150  0.77919822  0.40221209  1.0
  H  H31  1  0.94929768  0.97080689  0.34780947  1.0
  H  H32  1  0.70069122  0.20064907  0.09762147  1.0
  H  H33  1  0.54930721  0.04933675  0.15239533  1.0
  H  H34  1  0.65237887  0.15241333  0.04935215  1.0
  H  H35  1  0.59762354  0.09757601  0.20066414  1.0
  H  H36  1  0.70296544  0.47852508  0.10143189  1.0
  H  H37  1  0.54705154  0.77150704  0.14855718  1.0
  H  H38  1  0.08702350  0.10855216  0.21002532  1.0
  H  H39  1  0.16296948  0.14145440  0.03994612  1.0
  H  H40  1  0.24782640  0.95389224  0.85085034  1.0
  H  H41  1  0.50219576  0.79611420  0.89914499  1.0
  H  H42  1  0.29609856  0.00214105  0.89911841  1.0
  H  H43  1  0.45394439  0.74786859  0.85086447  1.0
  H  H44  1  0.44931751  0.47080309  0.84779354  1.0
  H  H45  1  0.30067020  0.27919645  0.90219577  1.0
  H  H46  1  0.96367218  0.73920963  0.84073476  1.0
  H  H47  1  0.78628466  0.01078146  0.90925659  1.0
  C  C48  1  0.06125120  0.31595950  0.56167825  1.0
  C  C49  1  0.06942038  0.56943059  0.56942201  1.0
  C  C50  1  0.18425241  0.43899478  0.43858730  1.0
  C  C51  1  0.93810995  0.68422904  0.43857855  1.0
  C  C52  1  0.93057562  0.43057817  0.43059563  1.0
  C  C53  1  0.81596801  0.56125017  0.56167167  1.0
  C  C54  1  0.56566872  0.31100556  0.31142322  1.0
  C  C55  1  0.68061646  0.18057857  0.18055320  1.0
  C  C56  1  0.68880773  0.43405007  0.18833624  1.0
  C  C57  1  0.93449090  0.18840914  0.18876368  1.0
  C  C58  1  0.81943650  0.31941667  0.31941909  1.0
  C  C59  1  0.81184869  0.06570475  0.31144972  1.0
  C  C60  1  0.43405220  0.68879549  0.68833507  1.0
  C  C61  1  0.31943896  0.81942122  0.81940861  1.0
  C  C62  1  0.18880392  0.93404685  0.68833116  1.0
  C  C63  1  0.06565236  0.81101898  0.81141681  1.0
  C  C64  1  0.18061262  0.68058880  0.68055208  1.0
  C  C65  1  0.31185627  0.56570715  0.81144011  1.0
  C  C66  1  0.43811608  0.18423610  0.93856953  1.0
  C  C67  1  0.43057751  0.93057880  0.93058683  1.0
  C  C68  1  0.68423934  0.93900307  0.93858369  1.0
  C  C69  1  0.56124282  0.81595863  0.06167365  1.0
  C  C70  1  0.56941738  0.06944395  0.06941682  1.0
  C  C71  1  0.31551376  0.06167876  0.06121923  1.0
  C  C72  1  0.90189556  0.40188439  0.40182860  1.0
  C  C73  1  0.84820664  0.34821245  0.34810662  1.0
  C  C74  1  0.83011958  0.44662607  0.38832795  1.0
  C  C75  1  0.91994729  0.30344349  0.36162872  1.0
  C  C76  1  0.80342340  0.41992147  0.36161111  1.0
  C  C77  1  0.94664804  0.33014464  0.38834514  1.0
  C  C78  1  0.09815405  0.59814616  0.59815391  1.0
  C  C79  1  0.15184359  0.65183815  0.65185117  1.0
  C  C80  1  0.14077553  0.64078454  0.58252383  1.0
  C  C81  1  0.10922662  0.60920507  0.66749279  1.0
  C  C82  1  0.16748770  0.66749237  0.60922601  1.0
  C  C83  1  0.08251273  0.58249950  0.64079295  1.0
  C  C84  1  0.30359417  0.45390497  0.40121492  1.0
  C  C85  1  0.44630768  0.29608956  0.34877280  1.0
  C  C86  1  0.25901573  0.41364979  0.41364301  1.0
  C  C87  1  0.49088718  0.33634365  0.33637232  1.0
  C  C88  1  0.37811878  0.33874580  0.37239047  1.0
  C  C89  1  0.37175180  0.41120642  0.37760068  1.0
  C  C90  1  0.72637398  0.57613303  0.62879182  1.0
  C  C91  1  0.52365879  0.67391106  0.62120384  1.0
  C  C92  1  0.74096888  0.58634972  0.58638165  1.0
  C  C93  1  0.50906055  0.66365232  0.66361080  1.0
  C  C94  1  0.60270743  0.64209423  0.60847247  1.0
  C  C95  1  0.64733951  0.60795057  0.64154258  1.0
  C  C96  1  0.07614294  0.22635286  0.62878943  1.0
  C  C97  1  0.17391531  0.02366717  0.62120740  1.0
  C  C98  1  0.08635325  0.24095120  0.58637498  1.0
  C  C99  1  0.16365832  0.00906557  0.66361733  1.0
  C  C100  1  0.14209236  0.10271261  0.60847998  1.0
  C  C101  1  0.10796068  0.14732450  0.64153597  1.0
  C  C102  1  0.84485210  0.79993736  0.39756517  1.0
  C  C103  1  0.90513413  0.95001809  0.35246826  1.0
  C  C104  1  0.91360351  0.75901598  0.41364477  1.0
  C  C105  1  0.83637304  0.99091811  0.33639771  1.0
  C  C106  1  0.90838971  0.88046073  0.37471670  1.0
  C  C107  1  0.84171582  0.86941521  0.37526476  1.0
  C  C108  1  0.65184116  0.15183831  0.15185064  1.0
  C  C109  1  0.59815561  0.09814466  0.09815314  1.0
  C  C110  1  0.66749665  0.16749190  0.10922882  1.0
  C  C111  1  0.58250177  0.08249754  0.14078908  1.0
  C  C112  1  0.64078506  0.14078228  0.08252618  1.0
  C  C113  1  0.60921509  0.10920490  0.16748968  1.0
  C  C114  1  0.67392401  0.52366018  0.12120732  1.0
  C  C115  1  0.57613226  0.72636068  0.12878894  1.0
  C  C116  1  0.66365562  0.50906437  0.16361755  1.0
  C  C117  1  0.58635568  0.74095459  0.08637386  1.0
  C  C118  1  0.60795570  0.64732839  0.14153498  1.0
  C  C119  1  0.64209764  0.60270755  0.10848156  1.0
  C  C120  1  0.07996942  0.12485529  0.17755231  1.0
  C  C121  1  0.17002872  0.12512739  0.07241965  1.0
  C  C122  1  0.00906964  0.16362653  0.16361852  1.0
  C  C123  1  0.24093013  0.08640980  0.08635017  1.0
  C  C124  1  0.11136233  0.13915980  0.10555511  1.0
  C  C125  1  0.13861481  0.11077734  0.14441262  1.0
  C  C126  1  0.34820739  0.84819956  0.84810450  1.0
  C  C127  1  0.40189346  0.90187061  0.90182748  1.0
  C  C128  1  0.30341958  0.91991203  0.86160881  1.0
  C  C129  1  0.44664309  0.83013464  0.88834272  1.0
  C  C130  1  0.33012261  0.94661483  0.88832211  1.0
  C  C131  1  0.41995090  0.80343150  0.86162199  1.0
  C  C132  1  0.40513910  0.45003130  0.85246260  1.0
  C  C133  1  0.34485820  0.29995009  0.89756184  1.0
  C  C134  1  0.33637914  0.49093343  0.83639470  1.0
  C  C135  1  0.41360847  0.25903280  0.91364352  1.0
  C  C136  1  0.34171225  0.36942940  0.87526021  1.0
  C  C137  1  0.40838670  0.38047572  0.87471260  1.0
  C  C138  1  0.94630257  0.79609502  0.84877494  1.0
  C  C139  1  0.80358963  0.95390864  0.90121629  1.0
  C  C140  1  0.99088436  0.83634869  0.83637066  1.0
  C  C141  1  0.75901348  0.91365303  0.91364148  1.0
  C  C142  1  0.87174783  0.91120985  0.87760232  1.0
  C  C143  1  0.87811424  0.83874842  0.87239255  1.0
  S  S144  1  0.29950324  0.32402462  0.39682288  1.0
  S  S145  1  0.45038426  0.42594202  0.35321319  1.0
  S  S146  1  0.65905284  0.63454210  0.56180233  1.0
  S  S147  1  0.59097082  0.61547677  0.68820423  1.0
  S  S148  1  0.13453984  0.15908065  0.56180801  1.0
  S  S149  1  0.11548934  0.09093128  0.68819853  1.0
  S  S150  1  0.97460055  0.80453590  0.40182911  1.0
  S  S151  1  0.77545533  0.94533419  0.34818892  1.0
  S  S152  1  0.61547753  0.59093596  0.18819759  1.0
  S  S153  1  0.63455310  0.65907486  0.06180881  1.0
  S  S154  1  0.01319575  0.18315387  0.11037269  1.0
  S  S155  1  0.23679323  0.06685693  0.13959932  1.0
  S  S156  1  0.27545231  0.44535124  0.84818550  1.0
  S  S157  1  0.47459582  0.30455469  0.90182750  1.0
  S  S158  1  0.95037915  0.92594592  0.85321580  1.0
  S  S159  1  0.79949814  0.82402749  0.89682470  1.0
  O  O160  1  0.00003186  0.49994653  0.49997231  1.0
  O  O161  1  0.07741820  0.31581777  0.52266195  1.0
  O  O162  1  0.03097822  0.53102906  0.58569290  1.0
  O  O163  1  0.15690824  0.50541052  0.44998548  1.0
  O  O164  1  0.02574998  0.37422351  0.58121601  1.0
  O  O165  1  0.15339135  0.39181876  0.44660388  1.0
  O  O166  1  0.08565751  0.58565228  0.53099559  1.0
  O  O167  1  0.00474427  0.65688463  0.45000103  1.0
  O  O168  1  0.88698238  0.49631012  0.44168138  1.0
  O  O169  1  0.89109036  0.65341627  0.44658666  1.0
  O  O170  1  0.99630426  0.38701394  0.44172131  1.0
  O  O171  1  0.87427503  0.52571645  0.58120232  1.0
  O  O172  1  0.81575779  0.57746408  0.52265178  1.0
  O  O173  1  0.74990757  0.25009970  0.24999259  1.0
  O  O174  1  0.59652859  0.35818770  0.30342111  1.0
  O  O175  1  0.66438959  0.16433911  0.21898674  1.0
  O  O176  1  0.72430893  0.37576270  0.16881570  1.0
  O  O177  1  0.59302659  0.24460280  0.30001256  1.0
  O  O178  1  0.67261105  0.43422641  0.22735680  1.0
  O  O179  1  0.71905973  0.21898581  0.16428817  1.0
  O  O180  1  0.87605015  0.22402697  0.16916007  1.0
  O  O181  1  0.86304280  0.25365170  0.30836069  1.0
  O  O182  1  0.93464554  0.17224480  0.22768583  1.0
  O  O183  1  0.75368682  0.36291248  0.30831536  1.0
  O  O184  1  0.74524867  0.09309458  0.30000554  1.0
  O  O185  1  0.85891216  0.09649456  0.30344175  1.0
  O  O186  1  0.24995946  0.75005901  0.75003866  1.0
  O  O187  1  0.37574347  0.72433097  0.66880081  1.0
  O  O188  1  0.36301965  0.75366284  0.80834236  1.0
  O  O189  1  0.17261186  0.93418352  0.72734740  1.0
  O  O190  1  0.43425332  0.67256207  0.72735774  1.0
  O  O191  1  0.22431256  0.87578081  0.66878862  1.0
  O  O192  1  0.25368922  0.86295791  0.80830587  1.0
  O  O193  1  0.09652022  0.85819780  0.80341029  1.0
  O  O194  1  0.16438399  0.66438422  0.71898444  1.0
  O  O195  1  0.09300854  0.74461591  0.79999946  1.0
  O  O196  1  0.21905824  0.71898740  0.66426793  1.0
  O  O197  1  0.35888328  0.59652566  0.80342518  1.0
  O  O198  1  0.24524893  0.59304780  0.79999363  1.0
  O  O199  1  0.50007581  0.99990446  0.00001061  1.0
  O  O200  1  0.50474523  0.15684253  0.94998877  1.0
  O  O201  1  0.38695638  0.99631933  0.94166476  1.0
  O  O202  1  0.65338343  0.89182389  0.94659556  1.0
  O  O203  1  0.39106401  0.15345089  0.94656917  1.0
  O  O204  1  0.65689318  0.00542116  0.94997046  1.0
  O  O205  1  0.49630381  0.88705694  0.94171209  1.0
  O  O206  1  0.57741673  0.81577575  0.02265354  1.0
  O  O207  1  0.53097872  0.03103331  0.08566612  1.0
  O  O208  1  0.52573936  0.87424593  0.08118994  1.0
  O  O209  1  0.58566072  0.08570081  0.03098984  1.0
  O  O210  1  0.31535176  0.07780582  0.02229890  1.0
  O  O211  1  0.37395223  0.02606448  0.08082120  1.0
