# generated using pymatgen
data_ZnH17C28NO5
_symmetry_space_group_name_H-M   'P 1'
_cell_length_a   16.16587497
_cell_length_b   16.49603208
_cell_length_c   17.82069976
_cell_angle_alpha   89.88465752
_cell_angle_beta   89.68099079
_cell_angle_gamma   89.93365441
_symmetry_Int_Tables_number   1
_chemical_formula_structural   ZnH17C28NO5
_chemical_formula_sum   'Zn2 H34 C56 N2 O10'
_cell_volume   4752.20934785
_cell_formula_units_Z   2
loop_
 _symmetry_equiv_pos_site_id
 _symmetry_equiv_pos_as_xyz
  1  'x, y, z'
loop_
 _atom_site_type_symbol
 _atom_site_label
 _atom_site_symmetry_multiplicity
 _atom_site_fract_x
 _atom_site_fract_y
 _atom_site_fract_z
 _atom_site_occupancy
  Zn  Zn0  1  0.49440423  0.58409130  0.50000843  1.0
  Zn  Zn1  1  0.49748507  0.41538334  0.50000475  1.0
  H  H2  1  0.04842491  0.42161384  0.60632207  1.0
  H  H3  1  0.94387507  0.57914377  0.39378277  1.0
  H  H4  1  0.59501043  0.71042596  0.42780348  1.0
  H  H5  1  0.39801069  0.28644476  0.57187396  1.0
  H  H6  1  0.60248065  0.86299487  0.42416563  1.0
  H  H7  1  0.39531559  0.13378053  0.57626635  1.0
  H  H8  1  0.53744260  0.63060476  0.12233654  1.0
  H  H9  1  0.53942800  0.36928477  0.87685910  1.0
  H  H10  1  0.51741383  0.62981380  0.26177856  1.0
  H  H11  1  0.52073563  0.37038679  0.73743872  1.0
  H  H12  1  0.51769095  0.37001722  0.26225250  1.0
  H  H13  1  0.52004740  0.63016679  0.73743080  1.0
  H  H14  1  0.53770010  0.36921693  0.12281038  1.0
  H  H15  1  0.53913315  0.63072131  0.87682640  1.0
  H  H16  1  0.39189295  0.86667383  0.57528662  1.0
  H  H17  1  0.60636196  0.13542561  0.42563311  1.0
  H  H18  1  0.39305271  0.71398074  0.57107386  1.0
  H  H19  1  0.60078606  0.28805579  0.42951505  1.0
  H  H20  1  0.02470095  0.63780540  0.66303251  1.0
  H  H21  1  0.02585745  0.53638214  0.70014457  1.0
  H  H22  1  0.94907111  0.60739595  0.73176509  1.0
  H  H23  1  0.96595711  0.46429328  0.30013313  1.0
  H  H24  1  0.96733189  0.36287435  0.33729103  1.0
  H  H25  1  0.04267521  0.39330648  0.26832427  1.0
  H  H26  1  0.07880258  0.29806801  0.48890862  1.0
  H  H27  1  0.05033975  0.15108579  0.47626522  1.0
  H  H28  1  0.90487139  0.10153971  0.46901883  1.0
  H  H29  1  0.78845498  0.20069295  0.47477094  1.0
  H  H30  1  0.81673533  0.34762712  0.48678539  1.0
  H  H31  1  0.91501754  0.70467713  0.51118979  1.0
  H  H32  1  0.94610311  0.85116775  0.52362623  1.0
  H  H33  1  0.09236819  0.89834945  0.53057200  1.0
  H  H34  1  0.20710662  0.79718473  0.52486615  1.0
  H  H35  1  0.17612091  0.65077487  0.51323792  1.0
  C  C36  1  0.50512303  0.50047349  0.64652920  1.0
  C  C37  1  0.50308120  0.49991505  0.35327751  1.0
  C  C38  1  0.52215458  0.57330371  0.23050033  1.0
  C  C39  1  0.52443445  0.42680702  0.76891379  1.0
  C  C40  1  0.51593495  0.49991566  0.27001308  1.0
  C  C41  1  0.51792304  0.50029489  0.72964897  1.0
  C  C42  1  0.52230553  0.42652886  0.23076716  1.0
  C  C43  1  0.52407083  0.57362327  0.76890969  1.0
  C  C44  1  0.53344425  0.42618797  0.15346088  1.0
  C  C45  1  0.53483460  0.57380384  0.84614558  1.0
  C  C46  1  0.53824986  0.49990359  0.11317536  1.0
  C  C47  1  0.53936686  0.49998953  0.88627310  1.0
  C  C48  1  0.54452263  0.49989521  0.03399231  1.0
  C  C49  1  0.54489057  0.49989378  0.96544592  1.0
  C  C50  1  0.43764367  0.83422145  0.54177681  1.0
  C  C51  1  0.55955817  0.16667169  0.45893043  1.0
  C  C52  1  0.43808508  0.75013193  0.53985254  1.0
  C  C53  1  0.55661888  0.25072569  0.46053819  1.0
  C  C54  1  0.55139638  0.74821333  0.45892737  1.0
  C  C55  1  0.44293804  0.24983940  0.54104587  1.0
  C  C56  1  0.55531624  0.83221650  0.45742029  1.0
  C  C57  1  0.44158258  0.16577392  0.54295461  1.0
  C  C58  1  0.33378936  0.49754153  0.50376544  1.0
  C  C59  1  0.65882985  0.50122868  0.49650409  1.0
  C  C60  1  0.49748913  0.87709447  0.49979783  1.0
  C  C61  1  0.50081980  0.12233661  0.50085885  1.0
  C  C62  1  0.49937529  0.96275611  0.50022575  1.0
  C  C63  1  0.50069144  0.03663532  0.50052664  1.0
  C  C64  1  0.96520459  0.53194439  0.56404820  1.0
  C  C65  1  0.02718953  0.46885548  0.43602542  1.0
  C  C66  1  0.02461338  0.45710280  0.55924164  1.0
  C  C67  1  0.96779245  0.54369703  0.44085383  1.0
  C  C68  1  0.24443574  0.49725354  0.50410145  1.0
  C  C69  1  0.74810737  0.50206001  0.49615547  1.0
  C  C70  1  0.02190588  0.58060398  0.50537857  1.0
  C  C71  1  0.97056553  0.42018237  0.49470659  1.0
  C  C72  1  0.08170173  0.50391622  0.50162391  1.0
  C  C73  1  0.91079120  0.49677854  0.49847192  1.0
  C  C74  1  0.16918195  0.50138454  0.50298818  1.0
  C  C75  1  0.82336849  0.49883052  0.49717302  1.0
  C  C76  1  0.53330453  0.57362659  0.15319169  1.0
  C  C77  1  0.53504717  0.42633138  0.84616653  1.0
  C  C78  1  0.98595050  0.58747950  0.68346321  1.0
  C  C79  1  0.00595955  0.41323339  0.31672659  1.0
  C  C80  1  0.94973704  0.33319002  0.48869881  1.0
  C  C81  1  0.01503324  0.27660773  0.48593185  1.0
  C  C82  1  0.99898716  0.19401220  0.47866748  1.0
  C  C83  1  0.91741240  0.16621355  0.47446521  1.0
  C  C84  1  0.85233089  0.22186287  0.47751812  1.0
  C  C85  1  0.86804798  0.30479094  0.48441838  1.0
  C  C86  1  0.04350130  0.66741166  0.51134973  1.0
  C  C87  1  0.97916629  0.72502791  0.51409789  1.0
  C  C88  1  0.99668552  0.80737417  0.52121376  1.0
  C  C89  1  0.07872974  0.83388453  0.52526377  1.0
  C  C90  1  0.14284500  0.77716909  0.52226674  1.0
  C  C91  1  0.12563084  0.69453078  0.51554967  1.0
  N  N92  1  0.49394925  0.70815448  0.49933340  1.0
  N  N93  1  0.49930293  0.29130700  0.50061518  1.0
  O  O94  1  0.49804501  0.56925507  0.61442202  1.0
  O  O95  1  0.49831174  0.43111244  0.38576163  1.0
  O  O96  1  0.50249532  0.43174913  0.61397930  1.0
  O  O97  1  0.49818304  0.56866977  0.38557818  1.0
  O  O98  1  0.36796654  0.56721465  0.50265446  1.0
  O  O99  1  0.62501729  0.43143443  0.49562302  1.0
  O  O100  1  0.37009315  0.42897791  0.50436268  1.0
  O  O101  1  0.62234991  0.56967965  0.49787213  1.0
  O  O102  1  0.92793868  0.56272499  0.62714962  1.0
  O  O103  1  0.06421871  0.43806459  0.37282099  1.0
