# generated using pymatgen
data_ZnH16C26NO4
_symmetry_space_group_name_H-M   'P 1'
_cell_length_a   10.90164174
_cell_length_b   18.25325683
_cell_length_c   19.45843254
_cell_angle_alpha   89.82493327
_cell_angle_beta   88.77078623
_cell_angle_gamma   89.94048808
_symmetry_Int_Tables_number   1
_chemical_formula_structural   ZnH16C26NO4
_chemical_formula_sum   'Zn2 H32 C52 N2 O8'
_cell_volume   3871.13161308
_cell_formula_units_Z   2
loop_
 _symmetry_equiv_pos_site_id
 _symmetry_equiv_pos_as_xyz
  1  'x, y, z'
loop_
 _atom_site_type_symbol
 _atom_site_label
 _atom_site_symmetry_multiplicity
 _atom_site_fract_x
 _atom_site_fract_y
 _atom_site_fract_z
 _atom_site_occupancy
  Zn  Zn0  1  0.50017338  0.42405881  0.50039489  1.0
  Zn  Zn1  1  0.49986551  0.57605083  0.49958007  1.0
  H  H2  1  0.09209816  0.75297191  0.53822824  1.0
  H  H3  1  0.90771392  0.24697954  0.46205826  1.0
  H  H4  1  0.90571508  0.75327736  0.46315423  1.0
  H  H5  1  0.09461929  0.24667400  0.53672304  1.0
  H  H6  1  0.52891885  0.61794387  0.84194381  1.0
  H  H7  1  0.47068300  0.38192367  0.15810922  1.0
  H  H8  1  0.44746997  0.61758848  0.15596934  1.0
  H  H9  1  0.55226096  0.38228415  0.84395030  1.0
  H  H10  1  0.64559684  0.41107862  0.94659894  1.0
  H  H11  1  0.35409158  0.58875611  0.05338782  1.0
  H  H12  1  0.61166661  0.41104215  0.07233785  1.0
  H  H13  1  0.38799348  0.58877727  0.92764346  1.0
  H  H14  1  0.66261567  0.30741377  0.55273748  1.0
  H  H15  1  0.33734860  0.69264594  0.44730534  1.0
  H  H16  1  0.33732888  0.30787929  0.44715379  1.0
  H  H17  1  0.66275260  0.69217621  0.55275314  1.0
  H  H18  1  0.67090455  0.17050976  0.55455437  1.0
  H  H19  1  0.32905718  0.82956860  0.44547610  1.0
  H  H20  1  0.32924033  0.17103844  0.44524638  1.0
  H  H21  1  0.67082669  0.82902357  0.55469764  1.0
  H  H22  1  0.42304252  0.06778834  0.39885658  1.0
  H  H23  1  0.57696668  0.93227088  0.60113765  1.0
  H  H24  1  0.57704228  0.06718423  0.60106753  1.0
  H  H25  1  0.42294936  0.93287773  0.39893400  1.0
  H  H26  1  0.19531640  0.36304958  0.56300824  1.0
  H  H27  1  0.80514246  0.63694201  0.43668627  1.0
  H  H28  1  0.80610336  0.36343237  0.43628956  1.0
  H  H29  1  0.19360493  0.63653320  0.56410085  1.0
  H  H30  1  0.54460456  0.61676402  0.71385587  1.0
  H  H31  1  0.45504757  0.38318786  0.28620290  1.0
  H  H32  1  0.43034018  0.61744433  0.28396427  1.0
  H  H33  1  0.56960714  0.38250546  0.71595855  1.0
  C  C34  1  0.44497166  0.50089215  0.36967513  1.0
  C  C35  1  0.55498736  0.49915890  0.63030503  1.0
  C  C36  1  0.55744680  0.49961505  0.70723452  1.0
  C  C37  1  0.44239757  0.50032372  0.29274857  1.0
  C  C38  1  0.58002324  0.44950187  0.96967159  1.0
  C  C39  1  0.41964777  0.55032083  0.03031427  1.0
  C  C40  1  0.56064728  0.44932854  0.04057901  1.0
  C  C41  1  0.43900265  0.55048430  0.95940648  1.0
  C  C42  1  0.48005363  0.49969261  0.07247122  1.0
  C  C43  1  0.51960274  0.50012625  0.92751269  1.0
  C  C44  1  0.59088082  0.27442002  0.52985917  1.0
  C  C45  1  0.40910246  0.72565234  0.47014754  1.0
  C  C46  1  0.40910237  0.27469894  0.47006637  1.0
  C  C47  1  0.59094045  0.72536415  0.52989630  1.0
  C  C48  1  0.59405580  0.19835396  0.53086924  1.0
  C  C49  1  0.40591179  0.80170580  0.46914272  1.0
  C  C50  1  0.40604140  0.19864795  0.46896025  1.0
  C  C51  1  0.59400133  0.80140856  0.53100757  1.0
  C  C52  1  0.50005571  0.15844695  0.49991361  1.0
  C  C53  1  0.49996088  0.84161884  0.50007800  1.0
  C  C54  1  0.45526384  0.03827287  0.44382106  1.0
  C  C55  1  0.54476374  0.96178142  0.55617203  1.0
  C  C56  1  0.54481664  0.03795008  0.55612261  1.0
  C  C57  1  0.45518520  0.96210256  0.44387322  1.0
  C  C58  1  0.49996417  0.92242867  0.50005139  1.0
  C  C59  1  0.50006339  0.07764150  0.49994220  1.0
  C  C60  1  0.26343621  0.50023751  0.53032498  1.0
  C  C61  1  0.73661700  0.49990278  0.46966835  1.0
  C  C62  1  0.11106170  0.36316950  0.53449424  1.0
  C  C63  1  0.88919018  0.63678792  0.46537890  1.0
  C  C64  1  0.89025458  0.36341645  0.46488833  1.0
  C  C65  1  0.10961034  0.63653722  0.53536854  1.0
  C  C66  1  0.05488694  0.29819740  0.51916424  1.0
  C  C67  1  0.94530478  0.70175499  0.48078689  1.0
  C  C68  1  0.94699530  0.29835274  0.47987961  1.0
  C  C69  1  0.05292494  0.70159773  0.52031320  1.0
  C  C70  1  0.93946091  0.43267618  0.48557213  1.0
  C  C71  1  0.06054116  0.56728804  0.51456156  1.0
  C  C72  1  0.06123635  0.43259825  0.51419081  1.0
  C  C73  1  0.93888349  0.56736337  0.48582601  1.0
  C  C74  1  0.87531961  0.50000430  0.47639922  1.0
  C  C75  1  0.12472461  0.49996499  0.52363913  1.0
  C  C76  1  0.54679865  0.56584495  0.74316900  1.0
  C  C77  1  0.45292305  0.43408504  0.25684980  1.0
  C  C78  1  0.43790779  0.56618280  0.25560803  1.0
  C  C79  1  0.56198955  0.43375272  0.74433875  1.0
  C  C80  1  0.53687027  0.56605616  0.81451998  1.0
  C  C81  1  0.46278179  0.43383114  0.18549623  1.0
  C  C82  1  0.44704573  0.56585531  0.18419527  1.0
  C  C83  1  0.55273323  0.43404465  0.81575487  1.0
  C  C84  1  0.53775673  0.50009304  0.85215305  1.0
  C  C85  1  0.46195731  0.49977127  0.14783609  1.0
  N  N86  1  0.49996923  0.31185973  0.49996494  1.0
  N  N87  1  0.50005496  0.68822910  0.50001168  1.0
  O  O88  1  0.44793583  0.43895094  0.40017194  1.0
  O  O89  1  0.55080708  0.56114521  0.59998728  1.0
  O  O90  1  0.55348905  0.43689642  0.60079119  1.0
  O  O91  1  0.44781766  0.56321579  0.39898531  1.0
  O  O92  1  0.32012975  0.43912625  0.53139108  1.0
  O  O93  1  0.68024670  0.56113072  0.46955962  1.0
  O  O94  1  0.68077883  0.43857863  0.47052844  1.0
  O  O95  1  0.31893178  0.56165598  0.52845592  1.0
