# generated using pymatgen
data_Zn2H29C52Br3(NO4)2
_symmetry_space_group_name_H-M   'P 1'
_cell_length_a   13.61485361
_cell_length_b   18.31348589
_cell_length_c   19.64669019
_cell_angle_alpha   91.11641646
_cell_angle_beta   91.98357619
_cell_angle_gamma   111.81787221
_symmetry_Int_Tables_number   1
_chemical_formula_structural   Zn2H29C52Br3(NO4)2
_chemical_formula_sum   'Zn2 H29 C52 Br3 N2 O8'
_cell_volume   4542.23954564
_cell_formula_units_Z   1
loop_
 _symmetry_equiv_pos_site_id
 _symmetry_equiv_pos_as_xyz
  1  'x, y, z'
loop_
 _atom_site_type_symbol
 _atom_site_label
 _atom_site_symmetry_multiplicity
 _atom_site_fract_x
 _atom_site_fract_y
 _atom_site_fract_z
 _atom_site_occupancy
  Zn  Zn0  1  0.93740980  0.41807226  0.49849188  1.0
  Zn  Zn1  1  0.06858034  0.58046889  0.50853059  1.0
  H  H2  1  0.83758581  0.68414296  0.55912940  1.0
  H  H3  1  0.08737132  0.62778826  0.16184589  1.0
  H  H4  1  0.91500423  0.37711323  0.15654869  1.0
  H  H5  1  0.92226138  0.37937071  0.28365342  1.0
  H  H6  1  0.02454226  0.39333122  0.06385942  1.0
  H  H7  1  0.01717526  0.39064382  0.93824600  1.0
  H  H8  1  0.95522443  0.60482346  0.94115025  1.0
  H  H9  1  0.96422643  0.60805471  0.06683311  1.0
  H  H10  1  0.05687701  0.62196922  0.84736719  1.0
  H  H11  1  0.05467631  0.61833220  0.72045890  1.0
  H  H12  1  0.90636572  0.36683469  0.71653612  1.0
  H  H13  1  0.48311636  0.65080742  0.60227188  1.0
  H  H14  1  0.90518504  0.36916643  0.84345029  1.0
  H  H15  1  0.71806442  0.35101885  0.54243685  1.0
  H  H16  1  0.56614262  0.22074512  0.53777950  1.0
  H  H17  1  0.75983103  0.12793152  0.42119337  1.0
  H  H18  1  0.67959328  0.03533411  0.51959023  1.0
  H  H19  1  0.54924430  0.89921642  0.52587625  1.0
  H  H20  1  0.30537226  0.97442717  0.44375991  1.0
  H  H21  1  0.25083412  0.83881877  0.39642728  1.0
  H  H22  1  0.40135386  0.83130222  0.59221419  1.0
  H  H23  1  0.65280993  0.45917692  0.46847976  1.0
  H  H24  1  0.16006230  0.32944064  0.42305114  1.0
  H  H25  1  0.31466147  0.30927761  0.37328033  1.0
  H  H26  1  0.30702922  0.55192688  0.57242505  1.0
  H  H27  1  0.90387313  0.26220366  0.43180127  1.0
  H  H28  1  0.67090859  0.70240003  0.59161024  1.0
  H  H29  1  0.12166458  0.70313318  0.41647270  1.0
  H  H30  1  0.09329584  0.62877561  0.28883258  1.0
  C  C31  1  0.98470882  0.49095281  0.63485210  1.0
  C  C32  1  0.45253373  0.47047915  0.47793194  1.0
  C  C33  1  0.36108854  0.48251515  0.50357163  1.0
  C  C34  1  0.55776748  0.52487667  0.50229767  1.0
  C  C35  1  0.56690225  0.59341378  0.54262092  1.0
  C  C36  1  0.47427751  0.60125098  0.56754809  1.0
  C  C37  1  0.37653281  0.54656307  0.55111180  1.0
  C  C38  1  0.65313002  0.51334805  0.49182394  1.0
  C  C39  1  0.75941710  0.64061747  0.54487426  1.0
  C  C40  1  0.25606725  0.43204267  0.48236618  1.0
  C  C41  1  0.05385095  0.57399695  0.25926478  1.0
  C  C42  1  0.15889653  0.44843230  0.49939636  1.0
  C  C43  1  0.04970920  0.57320185  0.18836565  1.0
  C  C44  1  0.00017740  0.50236986  0.15008284  1.0
  C  C45  1  0.95518550  0.43240069  0.18539076  1.0
  C  C46  1  0.95859884  0.43328018  0.25619864  1.0
  C  C47  1  0.00797725  0.50409339  0.29396761  1.0
  C  C48  1  0.00781724  0.43934254  0.03706509  1.0
  C  C49  1  0.00336182  0.43772957  0.96620754  1.0
  C  C50  1  0.98539685  0.49742217  0.92996924  1.0
  C  C51  1  0.97230219  0.55891163  0.96784040  1.0
  C  C52  1  0.97739632  0.56074884  0.03874732  1.0
  C  C53  1  0.01053336  0.50410716  0.37025927  1.0
  C  C54  1  0.99521395  0.50098011  0.07489744  1.0
  C  C55  1  0.02241280  0.56580495  0.81898159  1.0
  C  C56  1  0.02223911  0.56418651  0.74819524  1.0
  C  C57  1  0.98124947  0.49238597  0.71093328  1.0
  C  C58  1  0.93905394  0.42232274  0.74595287  1.0
  C  C59  1  0.93954840  0.42402540  0.81679473  1.0
  C  C60  1  0.98192249  0.49573071  0.85475844  1.0
  C  C61  1  0.72306450  0.29947794  0.51643231  1.0
  C  C62  1  0.63918655  0.22712766  0.51318343  1.0
  C  C63  1  0.65089016  0.16296141  0.47930158  1.0
  C  C64  1  0.84931969  0.55244663  0.50190904  1.0
  C  C65  1  0.74741585  0.17558649  0.44902364  1.0
  C  C66  1  0.82744644  0.24978304  0.45428500  1.0
  C  C67  1  0.59726432  0.02153036  0.50279272  1.0
  C  C68  1  0.52381983  0.94529243  0.50703923  1.0
  C  C69  1  0.41747130  0.92717242  0.48604389  1.0
  C  C70  1  0.38748990  0.98704203  0.46013300  1.0
  C  C71  1  0.46163791  0.06362964  0.45709421  1.0
  C  C72  1  0.56816342  0.08288792  0.47885606  1.0
  C  C73  1  0.25670617  0.81007343  0.44357664  1.0
  C  C74  1  0.18454562  0.73491299  0.45414412  1.0
  C  C75  1  0.66768144  0.65063620  0.56167260  1.0
  C  C76  1  0.26495635  0.73042504  0.55814462  1.0
  C  C77  1  0.34162765  0.80533551  0.55140322  1.0
  C  C78  1  0.33811965  0.84705238  0.49303512  1.0
  C  C79  1  0.75149854  0.56955342  0.51193789  1.0
  C  C80  1  0.24058384  0.36814746  0.43839233  1.0
  C  C81  1  0.32709000  0.35654347  0.41106128  1.0
  C  C82  1  0.42985975  0.40719608  0.42902832  1.0
  Br  Br83  1  0.41461949  0.14099141  0.41992699  1.0
  Br  Br84  1  0.27016481  0.67837113  0.63973703  1.0
  Br  Br85  1  0.53288724  0.38513935  0.37639878  1.0
  N  N86  1  0.81562910  0.31040101  0.48777289  1.0
  N  N87  1  0.18772530  0.69491915  0.51091725  1.0
  O  O88  1  0.93931088  0.42500476  0.60291323  1.0
  O  O89  1  0.03397544  0.55649900  0.60778528  1.0
  O  O90  1  0.07200136  0.38968054  0.50188378  1.0
  O  O91  1  0.16958732  0.52040222  0.50646274  1.0
  O  O92  1  0.96499826  0.43791417  0.39722022  1.0
  O  O93  1  0.05774584  0.56972726  0.40248691  1.0
  O  O94  1  0.83695892  0.48018219  0.49479584  1.0
  O  O95  1  0.93734082  0.61081651  0.50268772  1.0
