# generated using pymatgen
data_AlH9C21(ClO2)3
_symmetry_space_group_name_H-M   'P 1'
_cell_length_a   4.02663582
_cell_length_b   24.65264829
_cell_length_c   24.65250355
_cell_angle_alpha   60.00027091
_cell_angle_beta   89.99963119
_cell_angle_gamma   89.99916119
_symmetry_Int_Tables_number   1
_chemical_formula_structural   AlH9C21(ClO2)3
_chemical_formula_sum   'Al2 H18 C42 Cl6 O12'
_cell_volume   2119.33094625
_cell_formula_units_Z   2
loop_
 _symmetry_equiv_pos_site_id
 _symmetry_equiv_pos_as_xyz
  1  'x, y, z'
loop_
 _atom_site_type_symbol
 _atom_site_label
 _atom_site_symmetry_multiplicity
 _atom_site_fract_x
 _atom_site_fract_y
 _atom_site_fract_z
 _atom_site_occupancy
  Al  Al0  1  0.99785253  0.00000300  0.49999966  1.0
  Al  Al1  1  0.99865723  0.66667098  0.16666808  1.0
  H  H2  1  0.24362805  0.17252200  0.33762020  1.0
  H  H3  1  0.24356965  0.49424481  0.32922382  1.0
  H  H4  1  0.77536146  0.49263837  0.17875571  1.0
  H  H5  1  0.75141732  0.37660120  0.23622622  1.0
  H  H6  1  0.77450746  0.17393222  0.48827347  1.0
  H  H7  1  0.75082872  0.28998021  0.43088803  1.0
  H  H8  1  0.24364450  0.83762547  0.48986170  1.0
  H  H9  1  0.24355901  0.82922892  0.17653117  1.0
  H  H10  1  0.77538120  0.67876326  0.32860693  1.0
  H  H11  1  0.75143950  0.73623723  0.38717269  1.0
  H  H12  1  0.77447862  0.98828225  0.33779081  1.0
  H  H13  1  0.75080489  0.93089922  0.27912647  1.0
  H  H14  1  0.24365182  0.98986073  0.67252031  1.0
  H  H15  1  0.24355978  0.67652979  0.99424794  1.0
  H  H16  1  0.77540171  0.82860403  0.99263025  1.0
  H  H17  1  0.75146084  0.88716639  0.87659119  1.0
  H  H18  1  0.77445628  0.83779120  0.67392699  1.0
  H  H19  1  0.75077427  0.77912211  0.78997441  1.0
  C  C20  1  0.49912379  0.95145261  0.59605117  1.0
  C  C21  1  0.49911039  0.09605572  0.45249527  1.0
  C  C22  1  0.49910914  0.95250075  0.45145086  1.0
  C  C23  1  0.49984454  0.57061253  0.21439248  1.0
  C  C24  1  0.49984082  0.71439608  0.21499971  1.0
  C  C25  1  0.49985351  0.71500160  0.07060895  1.0
  C  C26  1  0.50440281  0.16574932  0.41718487  1.0
  C  C27  1  0.50474177  0.50091236  0.24974308  1.0
  C  C28  1  0.36016304  0.19824943  0.35777986  1.0
  C  C29  1  0.36955085  0.26347836  0.32396190  1.0
  C  C30  1  0.36012502  0.46846744  0.30912227  1.0
  C  C31  1  0.36941781  0.40324316  0.34299347  1.0
  C  C32  1  0.65359501  0.46737470  0.22423294  1.0
  C  C33  1  0.64097871  0.40238794  0.25676726  1.0
  C  C34  1  0.65306592  0.19924912  0.44276245  1.0
  C  C35  1  0.64048998  0.26422890  0.41029938  1.0
  C  C36  1  0.49960778  0.29855196  0.35011594  1.0
  C  C37  1  0.49973208  0.36811488  0.31691773  1.0
  C  C38  1  0.50440110  0.91719183  0.41706677  1.0
  C  C39  1  0.50472609  0.74974900  0.24934395  1.0
  C  C40  1  0.36017604  0.85778793  0.44396702  1.0
  C  C41  1  0.36956559  0.82396989  0.41256125  1.0
  C  C42  1  0.36012280  0.80912845  0.22241339  1.0
  C  C43  1  0.36939150  0.84299798  0.25376136  1.0
  C  C44  1  0.65360304  0.72424237  0.30839541  1.0
  C  C45  1  0.64097261  0.75677469  0.34083873  1.0
  C  C46  1  0.65305376  0.94277068  0.35798259  1.0
  C  C47  1  0.64046215  0.91030864  0.32547007  1.0
  C  C48  1  0.49960720  0.85012580  0.35132910  1.0
  C  C49  1  0.49974095  0.81692510  0.31496970  1.0
  C  C50  1  0.50438390  0.91706884  0.66574561  1.0
  C  C51  1  0.50474083  0.74934179  0.00091074  1.0
  C  C52  1  0.36017985  0.94396476  0.69824967  1.0
  C  C53  1  0.36955502  0.91255712  0.76347582  1.0
  C  C54  1  0.36012956  0.72241186  0.96846578  1.0
  C  C55  1  0.36939775  0.75375813  0.90324556  1.0
  C  C56  1  0.65362399  0.80839375  0.96736662  1.0
  C  C57  1  0.64099543  0.84083606  0.90238371  1.0
  C  C58  1  0.65304836  0.85798213  0.69924464  1.0
  C  C59  1  0.64043749  0.82546630  0.76422538  1.0
  C  C60  1  0.49960103  0.85132428  0.79854929  1.0
  C  C61  1  0.49974281  0.81496440  0.86811060  1.0
  Cl  Cl62  1  0.20880121  0.29875881  0.24846153  1.0
  Cl  Cl63  1  0.20831565  0.36801417  0.41846666  1.0
  Cl  Cl64  1  0.20882346  0.74846944  0.45278023  1.0
  Cl  Cl65  1  0.20830667  0.91847262  0.21351692  1.0
  Cl  Cl66  1  0.20884277  0.95277681  0.79875843  1.0
  Cl  Cl67  1  0.20829048  0.71351404  0.86801751  1.0
  O  O68  1  0.73171126  0.99211239  0.43974026  1.0
  O  O69  1  0.73169863  0.93974495  0.56815008  1.0
  O  O70  1  0.73169456  0.06815317  0.49210749  1.0
  O  O71  1  0.26241007  0.94077220  0.49025309  1.0
  O  O72  1  0.26240053  0.06898232  0.44076690  1.0
  O  O73  1  0.26240145  0.99025735  0.56897833  1.0
  O  O74  1  0.73259763  0.72678358  0.09842314  1.0
  O  O75  1  0.73261658  0.59842642  0.17479757  1.0
  O  O76  1  0.73259491  0.67480069  0.22678063  1.0
  O  O77  1  0.26332967  0.67617264  0.09777893  1.0
  O  O78  1  0.26332353  0.72605638  0.17617061  1.0
  O  O79  1  0.26334299  0.59778116  0.22605321  1.0
