# generated using pymatgen
data_Hf3H16C45(Br5O4)4
_symmetry_space_group_name_H-M   'P 1'
_cell_length_a   11.59455294
_cell_length_b   20.49027243
_cell_length_c   34.67161883
_cell_angle_alpha   91.06141674
_cell_angle_beta   99.47935031
_cell_angle_gamma   90.19627102
_symmetry_Int_Tables_number   1
_chemical_formula_structural   Hf3H16C45(Br5O4)4
_chemical_formula_sum   'Hf6 H32 C90 Br40 O32'
_cell_volume   8123.08178854
_cell_formula_units_Z   2
loop_
 _symmetry_equiv_pos_site_id
 _symmetry_equiv_pos_as_xyz
  1  'x, y, z'
loop_
 _atom_site_type_symbol
 _atom_site_label
 _atom_site_symmetry_multiplicity
 _atom_site_fract_x
 _atom_site_fract_y
 _atom_site_fract_z
 _atom_site_occupancy
  Hf  Hf0  1  0.05641712  0.89931242  0.04240576  1.0
  Hf  Hf1  1  0.01457440  0.08957341  0.96272899  1.0
  Hf  Hf2  1  0.91522217  0.04842168  0.04873627  1.0
  Hf  Hf3  1  0.16346061  0.94256688  0.95745676  1.0
  Hf  Hf4  1  0.85502146  0.94267750  0.96071473  1.0
  Hf  Hf5  1  0.22437778  0.04439101  0.04173318  1.0
  H  H6  1  0.00774887  0.83764783  0.96922425  1.0
  H  H7  1  0.77918509  0.06940375  0.96581021  1.0
  H  H8  1  0.25497728  0.06915790  0.96282935  1.0
  H  H9  1  0.11133629  0.99587762  0.10302750  1.0
  H  H10  1  0.65985094  0.91696119  0.99444742  1.0
  H  H11  1  0.96820310  0.08944293  0.12332759  1.0
  H  H12  1  0.25575398  0.10316433  0.11363554  1.0
  H  H13  1  0.82219468  0.87603875  0.89289698  1.0
  H  H14  1  0.12494889  0.83052353  0.91355335  1.0
  H  H15  1  0.38277113  0.95899766  0.93796935  1.0
  H  H16  1  0.38758374  0.99543096  0.99595630  1.0
  H  H17  1  0.77007948  0.98938449  0.89092124  1.0
  H  H18  1  0.86909097  0.17898300  0.92092951  1.0
  H  H19  1  0.23468069  0.83271711  0.09135970  1.0
  H  H20  1  0.33133453  0.98100696  0.10597566  1.0
  H  H21  1  0.99761845  0.87183838  0.90848783  1.0
  H  H22  1  0.93500989  0.13846571  0.89109426  1.0
  H  H23  1  0.68936379  0.08040154  0.03734434  1.0
  H  H24  1  0.69760370  0.99103575  0.00898219  1.0
  H  H25  1  0.43803628  0.00563559  0.04287027  1.0
  H  H26  1  0.11317866  0.11306556  0.09777118  1.0
  H  H27  1  0.14152026  0.85451202  0.11819404  1.0
  H  H28  1  0.31883396  0.49230820  0.99930601  1.0
  H  H29  1  0.74925039  0.49623859  0.02101208  1.0
  H  H30  1  0.65397840  0.94054242  0.27501855  1.0
  H  H31  1  0.87589626  0.98167865  0.38478780  1.0
  H  H32  1  0.02937459  0.94556888  0.28213464  1.0
  H  H33  1  0.24872402  0.06493421  0.71097909  1.0
  H  H34  1  0.01966143  0.05555431  0.60014901  1.0
  H  H35  1  0.87450419  0.05917558  0.70632474  1.0
  H  H36  1  0.24068617  0.02146280  0.49610187  1.0
  H  H37  1  0.66000608  0.01945192  0.48793741  1.0
  C  C38  1  0.84118415  0.80439239  0.00947059  1.0
  C  C39  1  0.22806770  0.80381864  0.00233817  1.0
  C  C40  1  0.90677870  0.93204054  0.11237664  1.0
  C  C41  1  0.86097121  0.19026819  0.00908572  1.0
  C  C42  1  0.22641847  0.18366215  0.00005493  1.0
  C  C43  1  0.12077891  0.04535588  0.88410496  1.0
  C  C44  1  0.47113763  0.55349600  0.00723178  1.0
  C  C45  1  0.59492987  0.55432479  0.01298682  1.0
  C  C46  1  0.65419086  0.49517297  0.01611599  1.0
  C  C47  1  0.59705110  0.43463930  0.01222465  1.0
  C  C48  1  0.47299297  0.43352213  0.00592393  1.0
  C  C49  1  0.41387390  0.49312724  0.00383312  1.0
  C  C50  1  0.84039170  0.94119417  0.27393298  1.0
  C  C51  1  0.74096615  0.94762636  0.29193404  1.0
  C  C52  1  0.75414352  0.96419459  0.33166615  1.0
  C  C53  1  0.86610894  0.97009169  0.35358971  1.0
  C  C54  1  0.96556845  0.96206122  0.33633105  1.0
  C  C55  1  0.95240234  0.94944692  0.29626662  1.0
  C  C56  1  0.06336175  0.06232287  0.71322181  1.0
  C  C57  1  0.16086544  0.06387337  0.69404094  1.0
  C  C58  1  0.14494084  0.06311746  0.65325306  1.0
  C  C59  1  0.03187368  0.05847527  0.63199686  1.0
  C  C60  1  0.93439567  0.05620223  0.65066755  1.0
  C  C61  1  0.95006751  0.05989818  0.69138387  1.0
  C  C62  1  0.36665414  0.00856940  0.45789693  1.0
  C  C63  1  0.48679673  0.00957984  0.45544816  1.0
  C  C64  1  0.56715179  0.01988168  0.48978702  1.0
  C  C65  1  0.53417944  0.02987971  0.52643080  1.0
  C  C66  1  0.41386685  0.03208321  0.52851840  1.0
  C  C67  1  0.33356596  0.02097349  0.49426464  1.0
  C  C68  1  0.74810361  0.10094610  0.61295180  1.0
  C  C69  1  0.82080885  0.04767204  0.62402807  1.0
  C  C70  1  0.79559994  0.98783938  0.60367025  1.0
  C  C71  1  0.70409663  0.98235142  0.57182425  1.0
  C  C72  1  0.62974661  0.03574053  0.56084315  1.0
  C  C73  1  0.65487466  0.09525163  0.58163423  1.0
  C  C74  1  0.24017706  0.11130598  0.60073058  1.0
  C  C75  1  0.23785359  0.06198191  0.62841833  1.0
  C  C76  1  0.30509335  0.00588761  0.62521051  1.0
  C  C77  1  0.36643270  0.99747977  0.59380799  1.0
  C  C78  1  0.36296509  0.04482812  0.56467889  1.0
  C  C79  1  0.29695294  0.10172966  0.56840685  1.0
  C  C80  1  0.14614429  0.02672771  0.36389190  1.0
  C  C81  1  0.07884180  0.96955578  0.36312464  1.0
  C  C82  1  0.10989847  0.92419047  0.39302918  1.0
  C  C83  1  0.20147229  0.93722558  0.42404315  1.0
  C  C84  1  0.27101867  0.99409992  0.42448100  1.0
  C  C85  1  0.24029881  0.03889740  0.39417978  1.0
  C  C86  1  0.65270585  0.04047801  0.37137651  1.0
  C  C87  1  0.65996963  0.97735750  0.35510979  1.0
  C  C88  1  0.59866593  0.92652685  0.36937812  1.0
  C  C89  1  0.53815648  0.93750391  0.40076873  1.0
  C  C90  1  0.53690929  0.99968396  0.41884352  1.0
  C  C91  1  0.59707928  0.05101442  0.40387908  1.0
  C  C92  1  0.31686867  0.63182324  0.97349715  1.0
  C  C93  1  0.40166914  0.61474486  0.00581458  1.0
  C  C94  1  0.41726214  0.65803457  0.03848943  1.0
  C  C95  1  0.36946469  0.72075953  0.03595602  1.0
  C  C96  1  0.28770094  0.73809348  0.00349958  1.0
  C  C97  1  0.25709867  0.69140166  0.97341479  1.0
  C  C98  1  0.71484303  0.26413812  0.03646016  1.0
  C  C99  1  0.79809902  0.25505520  0.01117245  1.0
  C  C100  1  0.82014978  0.30902301  0.98828532  1.0
  C  C101  1  0.75248727  0.36599761  0.98756472  1.0
  C  C102  1  0.67113182  0.37519448  0.01336680  1.0
  C  C103  1  0.66315942  0.32541384  0.04018081  1.0
  C  C104  1  0.32190091  0.35930022  0.02824587  1.0
  C  C105  1  0.40235952  0.37215702  0.00260157  1.0
  C  C106  1  0.41535906  0.32356076  0.97427746  1.0
  C  C107  1  0.36544796  0.26147564  0.97568200  1.0
  C  C108  1  0.28526139  0.24974102  0.00069259  1.0
  C  C109  1  0.26080063  0.29968453  0.02620061  1.0
  C  C110  1  0.73757916  0.64104434  0.04610840  1.0
  C  C111  1  0.66480344  0.61548064  0.01274882  1.0
  C  C112  1  0.66532618  0.64805991  0.97729051  1.0
  C  C113  1  0.72825350  0.70631327  0.97589328  1.0
  C  C114  1  0.78330041  0.73783577  0.01073629  1.0
  C  C115  1  0.78725133  0.70377505  0.04597420  1.0
  C  C116  1  0.03388090  0.00745775  0.81547236  1.0
  C  C117  1  0.10586405  0.05180537  0.83979714  1.0
  C  C118  1  0.16103012  0.10145650  0.82211030  1.0
  C  C119  1  0.14340585  0.10692923  0.78122948  1.0
  C  C120  1  0.07866626  0.05947643  0.75657652  1.0
  C  C121  1  0.02684830  0.00846127  0.77471849  1.0
  C  C122  1  0.90485597  0.87846158  0.21845506  1.0
  C  C123  1  0.83444743  0.92773266  0.23140372  1.0
  C  C124  1  0.76694399  0.96487496  0.20221146  1.0
  C  C125  1  0.77432952  0.95527318  0.16246113  1.0
  C  C126  1  0.86674014  0.91792129  0.15119782  1.0
  C  C127  1  0.92749347  0.87705632  0.17984366  1.0
  Br  Br128  1  0.57044521  0.17052441  0.56376364  1.0
  Br  Br129  1  0.78425806  0.18207377  0.63940525  1.0
  Br  Br130  1  0.68597598  0.90316750  0.54195837  1.0
  Br  Br131  1  0.89055054  0.91484710  0.61989999  1.0
  Br  Br132  1  0.27440575  0.16339969  0.52760955  1.0
  Br  Br133  1  0.16063717  0.19050189  0.60743582  1.0
  Br  Br134  1  0.44087103  0.91709395  0.58715142  1.0
  Br  Br135  1  0.30226384  0.93846424  0.66177763  1.0
  Br  Br136  1  0.31836452  0.12033381  0.39729400  1.0
  Br  Br137  1  0.10152499  0.08975806  0.32491871  1.0
  Br  Br138  1  0.22530311  0.87970768  0.46695975  1.0
  Br  Br139  1  0.02349993  0.84491125  0.39067908  1.0
  Br  Br140  1  0.61486672  0.13348994  0.43020175  1.0
  Br  Br141  1  0.72500192  0.11060650  0.34919938  1.0
  Br  Br142  1  0.47152378  0.86587570  0.42291364  1.0
  Br  Br143  1  0.60940785  0.84134483  0.34796634  1.0
  Br  Br144  1  0.12666063  0.70793983  0.93375300  1.0
  Br  Br145  1  0.27915811  0.57331173  0.93016089  1.0
  Br  Br146  1  0.42004912  0.78343585  0.07655792  1.0
  Br  Br147  1  0.49040660  0.62798561  0.08762826  1.0
  Br  Br148  1  0.58725033  0.34426290  0.08349409  1.0
  Br  Br149  1  0.65770132  0.19586398  0.06473237  1.0
  Br  Br150  1  0.76731941  0.43065084  0.94990455  1.0
  Br  Br151  1  0.94330257  0.30890126  0.95815857  1.0
  Br  Br152  1  0.14853802  0.28211906  0.05862199  1.0
  Br  Br153  1  0.29844140  0.42109411  0.06771372  1.0
  Br  Br154  1  0.40979022  0.19080381  0.94533147  1.0
  Br  Br155  1  0.49141785  0.34377483  0.93162129  1.0
  Br  Br156  1  0.85438554  0.74183637  0.09467087  1.0
  Br  Br157  1  0.77707545  0.58805746  0.09075325  1.0
  Br  Br158  1  0.74791619  0.73834112  0.92657005  1.0
  Br  Br159  1  0.58782718  0.60774050  0.93044645  1.0
  Br  Br160  1  0.95196939  0.93743936  0.74428422  1.0
  Br  Br161  1  0.94062245  0.94877939  0.83856516  1.0
  Br  Br162  1  0.20334713  0.18122239  0.75892829  1.0
  Br  Br163  1  0.25931310  0.16093881  0.85483170  1.0
  Br  Br164  1  0.04577551  0.81769529  0.16919771  1.0
  Br  Br165  1  0.96567392  0.81252642  0.25400466  1.0
  Br  Br166  1  0.65566846  0.98970218  0.12446067  1.0
  Br  Br167  1  0.66998890  0.03287023  0.21648924  1.0
  O  O168  1  0.18632316  0.86916581  0.09812430  1.0
  O  O169  1  0.93896644  0.81300875  0.03183882  1.0
  O  O170  1  0.96351580  0.88957893  0.09616410  1.0
  O  O171  1  0.23897908  0.84042045  0.97437371  1.0
  O  O172  1  0.88618177  0.98949490  0.10052442  1.0
  O  O173  1  0.17089575  0.81503784  0.03008707  1.0
  O  O174  1  0.79016794  0.84592650  0.98599504  1.0
  O  O175  1  0.92128552  0.95661537  0.02284545  1.0
  O  O176  1  0.01930146  0.88228299  0.97907648  1.0
  O  O177  1  0.09866882  0.99204031  0.07475733  1.0
  O  O178  1  0.17904437  0.95155265  0.01760427  1.0
  O  O179  1  0.34160295  0.95232002  0.95975149  1.0
  O  O180  1  0.68495364  0.95842048  0.98524461  1.0
  O  O181  1  0.00338969  0.99218639  0.94787459  1.0
  O  O182  1  0.85312715  0.05134373  0.97832028  1.0
  O  O183  1  0.05315869  0.07754077  0.02108094  1.0
  O  O184  1  0.19380816  0.04819016  0.97435620  1.0
  O  O185  1  0.73492539  0.04062541  0.04149303  1.0
  O  O186  1  0.86131517  0.15191133  0.03708722  1.0
  O  O187  1  0.90797131  0.17803794  0.97912629  1.0
  O  O188  1  0.34702485  0.01268879  0.08707484  1.0
  O  O189  1  0.13712435  0.17427508  0.97373301  1.0
  O  O190  1  0.98951613  0.10295358  0.09877539  1.0
  O  O191  1  0.19882024  0.11447617  0.09094474  1.0
  O  O192  1  0.39677356  0.02744916  0.01975277  1.0
  O  O193  1  0.27344405  0.14405221  0.02532142  1.0
  O  O194  1  0.88518787  0.13520505  0.91131397  1.0
  O  O195  1  0.09348239  0.87446004  0.90944931  1.0
  O  O196  1  0.07580923  0.09074650  0.90256181  1.0
  O  O197  1  0.17374154  0.99594948  0.89882007  1.0
  O  O198  1  0.88440491  0.87366889  0.91526720  1.0
  O  O199  1  0.74427157  0.97884381  0.91532680  1.0
