# generated using pymatgen
data_Zn4H16C40Br4O21
_symmetry_space_group_name_H-M   'P 1'
_cell_length_a   23.86119507
_cell_length_b   23.86145931
_cell_length_c   23.85985298
_cell_angle_alpha   66.85629082
_cell_angle_beta   72.33095887
_cell_angle_gamma   107.66643938
_symmetry_Int_Tables_number   1
_chemical_formula_structural   Zn4H16C40Br4O21
_chemical_formula_sum   'Zn8 H32 C80 Br8 O42'
_cell_volume   10424.99065937
_cell_formula_units_Z   2
loop_
 _symmetry_equiv_pos_site_id
 _symmetry_equiv_pos_as_xyz
  1  'x, y, z'
loop_
 _atom_site_type_symbol
 _atom_site_label
 _atom_site_symmetry_multiplicity
 _atom_site_fract_x
 _atom_site_fract_y
 _atom_site_fract_z
 _atom_site_occupancy
  Zn  Zn0  1  0.05778105  0.09958606  0.45818288  1.0
  Zn  Zn1  1  0.05777860  0.95818855  0.48402791  1.0
  Zn  Zn2  1  0.94221440  0.95817995  0.59959968  1.0
  Zn  Zn3  1  0.94223048  0.98403903  0.45817898  1.0
  Zn  Zn4  1  0.94221879  0.40041210  0.04181658  1.0
  Zn  Zn5  1  0.05778703  0.54181975  0.90040121  1.0
  Zn  Zn6  1  0.94221939  0.54180940  0.01596923  1.0
  Zn  Zn7  1  0.05776832  0.51596266  0.04182164  1.0
  H  H8  1  0.92336522  0.27104523  0.96420065  1.0
  H  H9  1  0.07663235  0.46420986  0.77100916  1.0
  H  H10  1  0.92336832  0.03579766  0.72898636  1.0
  H  H11  1  0.07658504  0.22897208  0.53578030  1.0
  H  H12  1  0.07664676  0.61246740  0.15230175  1.0
  H  H13  1  0.92337427  0.65236086  0.11240802  1.0
  H  H14  1  0.07658755  0.84761044  0.38761951  1.0
  H  H15  1  0.92336682  0.88756789  0.34766266  1.0
  H  H16  1  0.73523431  0.27103584  0.15236502  1.0
  H  H17  1  0.73522741  0.46420835  0.11241032  1.0
  H  H18  1  0.26477255  0.03578910  0.38759438  1.0
  H  H19  1  0.26476668  0.22894973  0.34770399  1.0
  H  H20  1  0.26477507  0.65238945  0.77102636  1.0
  H  H21  1  0.26475992  0.61240560  0.96422909  1.0
  H  H22  1  0.73524097  0.88759869  0.53577281  1.0
  H  H23  1  0.73522094  0.84767624  0.72896496  1.0
  H  H24  1  0.07988956  0.37931829  0.67798517  1.0
  H  H25  1  0.92009354  0.17801064  0.87932353  1.0
  H  H26  1  0.07983142  0.32201184  0.62065383  1.0
  H  H27  1  0.92012831  0.12067989  0.82201847  1.0
  H  H28  1  0.92010494  0.74211657  0.20056829  1.0
  H  H29  1  0.07990136  0.70060820  0.24207613  1.0
  H  H30  1  0.92012735  0.79945206  0.25786380  1.0
  H  H31  1  0.07983437  0.75782716  0.29948700  1.0
  H  H32  1  0.55731222  0.37932489  0.20053830  1.0
  H  H33  1  0.55731965  0.17799942  0.24215723  1.0
  H  H34  1  0.44268168  0.32197838  0.25793736  1.0
  H  H35  1  0.44268775  0.12067824  0.29944320  1.0
  H  H36  1  0.44267524  0.70053057  0.87934829  1.0
  H  H37  1  0.44269019  0.74218280  0.67799201  1.0
  H  H38  1  0.55730611  0.75791097  0.82199026  1.0
  H  H39  1  0.55732612  0.79944823  0.62065681  1.0
  C  C40  1  0.18268133  0.09132922  0.40866668  1.0
  C  C41  1  0.99999696  0.86347975  0.63651650  1.0
  C  C42  1  0.99998712  0.09133260  0.59134619  1.0
  C  C43  1  0.81732044  0.90867216  0.59132490  1.0
  C  C44  1  0.00000719  0.13651981  0.36347756  1.0
  C  C45  1  0.99999314  0.90865030  0.40866720  1.0
  C  C46  1  0.00000182  0.40867334  0.90865058  1.0
  C  C47  1  0.99999990  0.63651639  0.86348543  1.0
  C  C48  1  0.81731731  0.40866824  0.09134638  1.0
  C  C49  1  0.99999685  0.59135352  0.09132854  1.0
  C  C50  1  0.99999558  0.36348189  0.13652144  1.0
  C  C51  1  0.18267970  0.59134566  0.90867440  1.0
  C  C52  1  0.00000357  0.19478110  0.30522069  1.0
  C  C53  1  0.99999764  0.30522008  0.19477982  1.0
  C  C54  1  0.95692248  0.17996801  0.27695461  1.0
  C  C55  1  0.04307916  0.32003316  0.22304619  1.0
  C  C56  1  0.95692190  0.23387494  0.22304724  1.0
  C  C57  1  0.04308018  0.26612623  0.27695343  1.0
  C  C58  1  0.99999596  0.80521925  0.69478204  1.0
  C  C59  1  0.00000268  0.69477819  0.80521971  1.0
  C  C60  1  0.95692107  0.77695015  0.76613363  1.0
  C  C61  1  0.04307752  0.72304624  0.73386897  1.0
  C  C62  1  0.95692278  0.72304376  0.82004129  1.0
  C  C63  1  0.04307659  0.77695525  0.67996087  1.0
  C  C64  1  0.99999918  0.37111776  0.87109384  1.0
  C  C65  1  0.95668854  0.29936594  0.90846208  1.0
  C  C66  1  0.95666871  0.26446301  0.87359822  1.0
  C  C67  1  0.99999102  0.30084360  0.80082664  1.0
  C  C68  1  0.04331713  0.37361057  0.76443615  1.0
  C  C69  1  0.04330342  0.40847448  0.79933729  1.0
  C  C70  1  0.99999512  0.26546431  0.76544593  1.0
  C  C71  1  0.99999196  0.23455591  0.73453533  1.0
  C  C72  1  0.99997897  0.19917296  0.69915830  1.0
  C  C73  1  0.95666723  0.12640160  0.73555410  1.0
  C  C74  1  0.95668409  0.09153405  0.70065512  1.0
  C  C75  1  0.99997997  0.12889076  0.62889691  1.0
  C  C76  1  0.04327166  0.20064723  0.59152336  1.0
  C  C77  1  0.04328390  0.23555274  0.62638305  1.0
  C  C78  1  0.00000781  0.62892288  0.12886891  1.0
  C  C79  1  0.04332044  0.63487840  0.15730504  1.0
  C  C80  1  0.04333710  0.66975845  0.19218894  1.0
  C  C81  1  0.00001086  0.69919677  0.19913445  1.0
  C  C82  1  0.95668586  0.69225390  0.16969320  1.0
  C  C83  1  0.95670173  0.65736817  0.13481510  1.0
  C  C84  1  0.00000165  0.73455941  0.23453040  1.0
  C  C85  1  0.99999391  0.76545039  0.26545875  1.0
  C  C86  1  0.99997777  0.80081042  0.30085741  1.0
  C  C87  1  0.04328449  0.80773196  0.33031973  1.0
  C  C88  1  0.04327198  0.84261925  0.36519620  1.0
  C  C89  1  0.99998122  0.87108328  0.37112448  1.0
  C  C90  1  0.95668146  0.86514596  0.34266974  1.0
  C  C91  1  0.95666440  0.83026695  0.30778345  1.0
  C  C92  1  0.74220894  0.37111024  0.12889694  1.0
  C  C93  1  0.70781840  0.29935752  0.15735768  1.0
  C  C94  1  0.63805494  0.26445468  0.19224509  1.0
  C  C95  1  0.60166872  0.30083655  0.19917208  1.0
  C  C96  1  0.63804857  0.37360596  0.16971202  1.0
  C  C97  1  0.70781445  0.40847237  0.13482944  1.0
  C  C98  1  0.53091003  0.26545062  0.23455481  1.0
  C  C99  1  0.46909015  0.23453125  0.26547566  1.0
  C  C100  1  0.39833183  0.19914898  0.30087109  1.0
  C  C101  1  0.36194956  0.12638474  0.33031140  1.0
  C  C102  1  0.29218381  0.09152145  0.36518727  1.0
  C  C103  1  0.25779212  0.12888203  0.37112958  1.0
  C  C104  1  0.29218259  0.20062803  0.34269709  1.0
  C  C105  1  0.36194733  0.23552984  0.30781765  1.0
  C  C106  1  0.25778939  0.62890365  0.87111716  1.0
  C  C107  1  0.29218535  0.65737396  0.79935791  1.0
  C  C108  1  0.36194897  0.69226481  0.76445421  1.0
  C  C109  1  0.39832959  0.69918203  0.80084353  1.0
  C  C110  1  0.36194412  0.66971639  0.87361972  1.0
  C  C111  1  0.29217662  0.63483227  0.90848548  1.0
  C  C112  1  0.46908956  0.73455651  0.76545654  1.0
  C  C113  1  0.53090931  0.76547275  0.73453068  1.0
  C  C114  1  0.60166917  0.80086024  0.69914697  1.0
  C  C115  1  0.63805892  0.83030766  0.62637415  1.0
  C  C116  1  0.70782373  0.86518504  0.59151397  1.0
  C  C117  1  0.74221099  0.87112509  0.62887986  1.0
  C  C118  1  0.70781208  0.84267871  0.70063393  1.0
  C  C119  1  0.63804750  0.80779620  0.73553546  1.0
  Br  Br120  1  0.89621927  0.08733809  0.30888509  1.0
  Br  Br121  1  0.10378546  0.41266309  0.19111268  1.0
  Br  Br122  1  0.89622122  0.20510059  0.19111652  1.0
  Br  Br123  1  0.10378359  0.29490266  0.30888040  1.0
  Br  Br124  1  0.89621818  0.80887583  0.79492087  1.0
  Br  Br125  1  0.10377929  0.69112005  0.70508269  1.0
  Br  Br126  1  0.89622569  0.69111853  0.91268074  1.0
  Br  Br127  1  0.10377937  0.80888516  0.58732121  1.0
  O  O128  1  0.00000004  0.99999760  0.50000082  1.0
  O  O129  1  0.15366952  0.12741203  0.41397408  1.0
  O  O130  1  0.03980312  0.88598885  0.57421907  1.0
  O  O131  1  0.95859255  0.02623792  0.62743308  1.0
  O  O132  1  0.15366981  0.02624315  0.43235397  1.0
  O  O133  1  0.04138395  0.12740674  0.52625238  1.0
  O  O134  1  0.96017996  0.88596488  0.65382799  1.0
  O  O135  1  0.84632978  0.91397792  0.62741381  1.0
  O  O136  1  0.96021442  0.07422490  0.38597154  1.0
  O  O137  1  0.84633803  0.93237173  0.52623186  1.0
  O  O138  1  0.03980907  0.15382309  0.38597579  1.0
  O  O139  1  0.04138485  0.91396287  0.43236534  1.0
  O  O140  1  0.95860773  0.93236087  0.41396851  1.0
  O  O141  1  0.99999996  0.50000088  0.99999885  1.0
  O  O142  1  0.95860369  0.37259451  0.97374454  1.0
  O  O143  1  0.03982004  0.61403360  0.84617336  1.0
  O  O144  1  0.84632755  0.47375533  0.06765027  1.0
  O  O145  1  0.04140266  0.47376543  0.87256574  1.0
  O  O146  1  0.84633092  0.37258647  0.08603761  1.0
  O  O147  1  0.96019186  0.61400545  0.92578042  1.0
  O  O148  1  0.95860235  0.58603652  0.06763296  1.0
  O  O149  1  0.03978415  0.42577628  0.11403186  1.0
  O  O150  1  0.04138422  0.56764685  0.08602465  1.0
  O  O151  1  0.96019898  0.34617861  0.11401700  1.0
  O  O152  1  0.15367171  0.58603522  0.87258693  1.0
  O  O153  1  0.15366291  0.56764402  0.97376927  1.0
  O  O154  1  0.08591061  0.41101788  0.69456318  1.0
  O  O155  1  0.91407675  0.19459743  0.91101763  1.0
  O  O156  1  0.08586173  0.30542765  0.58895754  1.0
  O  O157  1  0.91409114  0.08898912  0.80543138  1.0
  O  O158  1  0.91408865  0.71952326  0.17488316  1.0
  O  O159  1  0.08592503  0.67493541  0.21946966  1.0
  O  O160  1  0.91409037  0.82510664  0.28048819  1.0
  O  O161  1  0.08586441  0.78043867  0.32515408  1.0
  O  O162  1  0.60559078  0.41101913  0.17487504  1.0
  O  O163  1  0.60559780  0.19458428  0.21953809  1.0
  O  O164  1  0.39440313  0.30539454  0.28054282  1.0
  O  O165  1  0.39440981  0.08897778  0.32512507  1.0
  O  O166  1  0.39439614  0.67487219  0.91104121  1.0
  O  O167  1  0.39441148  0.71956728  0.69457517  1.0
  O  O168  1  0.60558474  0.78051400  0.80540868  1.0
  O  O169  1  0.60560590  0.82512795  0.58895779  1.0
