# generated using pymatgen
data_CuH8C13N3O5
_symmetry_space_group_name_H-M   'P 1'
_cell_length_a   18.84789368
_cell_length_b   18.84789783
_cell_length_c   23.10461366
_cell_angle_alpha   111.04357781
_cell_angle_beta   111.04366504
_cell_angle_gamma   96.87395506
_symmetry_Int_Tables_number   1
_chemical_formula_structural   CuH8C13N3O5
_chemical_formula_sum   'Cu8 H64 C104 N24 O40'
_cell_volume   6852.05876095
_cell_formula_units_Z   8
loop_
 _symmetry_equiv_pos_site_id
 _symmetry_equiv_pos_as_xyz
  1  'x, y, z'
loop_
 _atom_site_type_symbol
 _atom_site_label
 _atom_site_symmetry_multiplicity
 _atom_site_fract_x
 _atom_site_fract_y
 _atom_site_fract_z
 _atom_site_occupancy
  Cu  Cu0  1  0.49622075  0.05303572  0.54923882  1.0
  Cu  Cu1  1  0.05303603  0.49622183  0.54924072  1.0
  Cu  Cu2  1  0.94697140  0.50378684  0.45076532  1.0
  Cu  Cu3  1  0.50378600  0.94697058  0.45076287  1.0
  Cu  Cu4  1  0.48736361  0.48736383  0.54550355  1.0
  Cu  Cu5  1  0.05811661  0.05811657  0.54551502  1.0
  Cu  Cu6  1  0.51263713  0.51263535  0.45449603  1.0
  Cu  Cu7  1  0.94190298  0.94190278  0.45449598  1.0
  H  H8  1  0.52346361  0.95194174  0.69023939  1.0
  H  H9  1  0.16677099  0.73828057  0.69020910  1.0
  H  H10  1  0.04805677  0.47653868  0.30976031  1.0
  H  H11  1  0.26171685  0.83322683  0.30978933  1.0
  H  H12  1  0.47653413  0.04805684  0.30976000  1.0
  H  H13  1  0.83322561  0.26171802  0.30978952  1.0
  H  H14  1  0.95194136  0.52345931  0.69023945  1.0
  H  H15  1  0.73828088  0.16677175  0.69020962  1.0
  H  H16  1  0.50889792  0.75614522  0.51413819  1.0
  H  H17  1  0.00523154  0.75795355  0.51410655  1.0
  H  H18  1  0.24385688  0.49110129  0.48585916  1.0
  H  H19  1  0.24206144  0.99478300  0.48589273  1.0
  H  H20  1  0.49110026  0.24385692  0.48585977  1.0
  H  H21  1  0.99478156  0.24206104  0.48589293  1.0
  H  H22  1  0.75614506  0.50889611  0.51413895  1.0
  H  H23  1  0.75795326  0.00522922  0.51410739  1.0
  H  H24  1  0.53088315  0.72554307  0.69530754  1.0
  H  H25  1  0.16437377  0.96975628  0.69529166  1.0
  H  H26  1  0.27445369  0.46911780  0.30468619  1.0
  H  H27  1  0.03024653  0.83564068  0.30471612  1.0
  H  H28  1  0.46911145  0.27445255  0.30468530  1.0
  H  H29  1  0.83564067  0.03024705  0.30471574  1.0
  H  H30  1  0.72554149  0.53087782  0.69530812  1.0
  H  H31  1  0.96975674  0.16437333  0.69529113  1.0
  H  H32  1  0.52253677  0.99042766  0.79088630  1.0
  H  H33  1  0.26831911  0.80043414  0.79085150  1.0
  H  H34  1  0.00956513  0.47746767  0.20911450  1.0
  H  H35  1  0.19955692  0.73167972  0.20914409  1.0
  H  H36  1  0.47746348  0.00956381  0.20911434  1.0
  H  H37  1  0.73167869  0.19955673  0.20914305  1.0
  H  H38  1  0.99042862  0.52253092  0.79088546  1.0
  H  H39  1  0.80043480  0.26831769  0.79085190  1.0
  H  H40  1  0.64574475  0.96797904  0.00002197  1.0
  H  H41  1  0.35425698  0.03200768  0.99997555  1.0
  H  H42  1  0.03200664  0.35425906  0.99997655  1.0
  H  H43  1  0.96797887  0.64574250  0.00002143  1.0
  H  H44  1  0.47846907  0.06360471  0.88941966  1.0
  H  H45  1  0.41093394  0.82577245  0.88938482  1.0
  H  H46  1  0.93637865  0.52153265  0.11057752  1.0
  H  H47  1  0.17421397  0.58906602  0.11061577  1.0
  H  H48  1  0.52153006  0.93638083  0.11057935  1.0
  H  H49  1  0.58906445  0.17421250  0.11061380  1.0
  H  H50  1  0.06360676  0.47846654  0.88942190  1.0
  H  H51  1  0.82577052  0.41093198  0.88938260  1.0
  H  H52  1  0.49696674  0.16848546  0.00000979  1.0
  H  H53  1  0.50303097  0.83149711  0.99998923  1.0
  H  H54  1  0.83149528  0.50303148  0.99998599  1.0
  H  H55  1  0.16848825  0.49696712  0.00001271  1.0
  H  H56  1  0.45263283  0.39772630  0.60525760  1.0
  H  H57  1  0.15255087  0.20745096  0.60516959  1.0
  H  H58  1  0.60225993  0.54735734  0.39471868  1.0
  H  H59  1  0.79255685  0.84745426  0.39482641  1.0
  H  H60  1  0.54735639  0.60226041  0.39472154  1.0
  H  H61  1  0.84745787  0.79255830  0.39483311  1.0
  H  H62  1  0.39772804  0.45263294  0.60526114  1.0
  H  H63  1  0.20745081  0.15255322  0.60517113  1.0
  H  H64  1  0.40921911  0.12793848  0.59868604  1.0
  H  H65  1  0.18942536  0.47083674  0.59835564  1.0
  H  H66  1  0.87205104  0.59078165  0.40131519  1.0
  H  H67  1  0.52915288  0.81057024  0.40163949  1.0
  H  H68  1  0.59078177  0.87205121  0.40131383  1.0
  H  H69  1  0.81057096  0.52915295  0.40164203  1.0
  H  H70  1  0.12793766  0.40921516  0.59868060  1.0
  H  H71  1  0.47083996  0.18942716  0.59836072  1.0
  C  C72  1  0.51619449  0.64745211  0.56541600  1.0
  C  C73  1  0.04919247  0.91795996  0.56538004  1.0
  C  C74  1  0.35254677  0.48380424  0.43457816  1.0
  C  C75  1  0.08205181  0.95083143  0.43462834  1.0
  C  C76  1  0.48380097  0.35254648  0.43457753  1.0
  C  C77  1  0.95083037  0.08205286  0.43462870  1.0
  C  C78  1  0.64745125  0.51619138  0.56541655  1.0
  C  C79  1  0.91795913  0.04919147  0.56537987  1.0
  C  C80  1  0.50797918  0.91023611  0.56181157  1.0
  C  C81  1  0.05383580  0.65153766  0.56181143  1.0
  C  C82  1  0.08976546  0.49202031  0.43818952  1.0
  C  C83  1  0.34846669  0.94616881  0.43818798  1.0
  C  C84  1  0.49201923  0.08976484  0.43818914  1.0
  C  C85  1  0.94616778  0.34846745  0.43818985  1.0
  C  C86  1  0.91023772  0.50797946  0.56181311  1.0
  C  C87  1  0.65153802  0.05383630  0.56181017  1.0
  C  C88  1  0.51482707  0.85885682  0.59880467  1.0
  C  C89  1  0.08396317  0.73991975  0.59878174  1.0
  C  C90  1  0.14114395  0.48517285  0.40119461  1.0
  C  C91  1  0.26008720  0.91604672  0.40121821  1.0
  C  C92  1  0.48516890  0.14114355  0.40119429  1.0
  C  C93  1  0.91604568  0.26008595  0.40121779  1.0
  C  C94  1  0.85885782  0.51482396  0.59880544  1.0
  C  C95  1  0.73991984  0.08396255  0.59878227  1.0
  C  C96  1  0.52217425  0.89017303  0.66621528  1.0
  C  C97  1  0.14404142  0.77603521  0.66619392  1.0
  C  C98  1  0.10982384  0.47782609  0.33378124  1.0
  C  C99  1  0.22396982  0.85596536  0.33380760  1.0
  C  C100  1  0.47782054  0.10982319  0.33378039  1.0
  C  C101  1  0.85596352  0.22396871  0.33380741  1.0
  C  C102  1  0.89017248  0.52216953  0.66621557  1.0
  C  C103  1  0.77603523  0.14404093  0.66619402  1.0
  C  C104  1  0.52861988  0.84222838  0.70090394  1.0
  C  C105  1  0.17225503  0.85867207  0.70087747  1.0
  C  C106  1  0.15776996  0.47138264  0.29909281  1.0
  C  C107  1  0.14133184  0.82775161  0.29912582  1.0
  C  C108  1  0.47137656  0.15776963  0.29909144  1.0
  C  C109  1  0.82774992  0.14133186  0.29912560  1.0
  C  C110  1  0.84222703  0.52861534  0.70090402  1.0
  C  C111  1  0.85867208  0.17225469  0.70087764  1.0
  C  C112  1  0.51440194  0.78033851  0.56641830  1.0
  C  C113  1  0.05198851  0.78604933  0.56639963  1.0
  C  C114  1  0.21966128  0.48559764  0.43357674  1.0
  C  C115  1  0.21395905  0.94802725  0.43359809  1.0
  C  C116  1  0.48559596  0.21966066  0.43357741  1.0
  C  C117  1  0.94802710  0.21395814  0.43359807  1.0
  C  C118  1  0.78033936  0.51439917  0.56641995  1.0
  C  C119  1  0.78604990  0.05198675  0.56640044  1.0
  C  C120  1  0.51981690  0.73251468  0.60120725  1.0
  C  C121  1  0.08133815  0.86867337  0.60117259  1.0
  C  C122  1  0.26748304  0.48018023  0.39878650  1.0
  C  C123  1  0.13133101  0.91867767  0.39882654  1.0
  C  C124  1  0.48017595  0.26748272  0.39878647  1.0
  C  C125  1  0.91867662  0.13133113  0.39882616  1.0
  C  C126  1  0.73251414  0.51981242  0.60120796  1.0
  C  C127  1  0.86867357  0.08133693  0.60117348  1.0
  C  C128  1  0.52666393  0.76292944  0.66837901  1.0
  C  C129  1  0.14168438  0.90544517  0.66834546  1.0
  C  C130  1  0.23706650  0.47333621  0.33161422  1.0
  C  C131  1  0.09456086  0.85832031  0.33166000  1.0
  C  C132  1  0.47333125  0.23706618  0.33161487  1.0
  C  C133  1  0.85831806  0.09455994  0.33165938  1.0
  C  C134  1  0.76292953  0.52666237  0.66838077  1.0
  C  C135  1  0.90544596  0.14168421  0.66834595  1.0
  C  C136  1  0.53530805  0.94612054  0.80940145  1.0
  C  C137  1  0.27406950  0.86326224  0.80937552  1.0
  C  C138  1  0.05387213  0.46469132  0.19059786  1.0
  C  C139  1  0.13672928  0.72593272  0.19062463  1.0
  C  C140  1  0.46469027  0.05387212  0.19059681  1.0
  C  C141  1  0.72593280  0.13673042  0.19062477  1.0
  C  C142  1  0.94612129  0.53530609  0.80940252  1.0
  C  C143  1  0.86326231  0.27406825  0.80937539  1.0
  C  C144  1  0.55356439  0.94697695  0.87328318  1.0
  C  C145  1  0.31972968  0.92627461  0.87326890  1.0
  C  C146  1  0.05301199  0.44644165  0.12671787  1.0
  C  C147  1  0.07371499  0.68027387  0.12673367  1.0
  C  C148  1  0.44643746  0.05301216  0.12671767  1.0
  C  C149  1  0.68027314  0.07371390  0.12673293  1.0
  C  C150  1  0.94697750  0.55355991  0.87328301  1.0
  C  C151  1  0.92627518  0.31973006  0.87326940  1.0
  C  C152  1  0.61387139  0.01252255  0.00001651  1.0
  C  C153  1  0.38613012  0.98746537  0.99998692  1.0
  C  C154  1  0.98746397  0.38613195  0.99998693  1.0
  C  C155  1  0.01252267  0.61386961  0.00001614  1.0
  C  C156  1  0.56249198  0.00969781  0.93739468  1.0
  C  C157  1  0.37490434  0.92763924  0.93737963  1.0
  C  C158  1  0.99028769  0.43751320  0.06260638  1.0
  C  C159  1  0.07235079  0.62509947  0.06262394  1.0
  C  C160  1  0.43751049  0.99028950  0.06260669  1.0
  C  C161  1  0.62509939  0.07235046  0.06262411  1.0
  C  C162  1  0.00969782  0.56248836  0.93739463  1.0
  C  C163  1  0.92763825  0.37490446  0.93737880  1.0
  C  C164  1  0.52116047  0.06699406  0.93774582  1.0
  C  C165  1  0.41655797  0.87067598  0.93772057  1.0
  C  C166  1  0.93298971  0.47884172  0.06225164  1.0
  C  C167  1  0.12930934  0.58343914  0.06227971  1.0
  C  C168  1  0.47883996  0.93299207  0.06225331  1.0
  C  C169  1  0.58343797  0.12930837  0.06227716  1.0
  C  C170  1  0.06699585  0.52115805  0.93774756  1.0
  C  C171  1  0.87067463  0.41655707  0.93771842  1.0
  C  C172  1  0.53156616  0.12613531  0.00000352  1.0
  C  C173  1  0.46843035  0.87384904  0.99999437  1.0
  C  C174  1  0.87384678  0.46843141  0.99999164  1.0
  C  C175  1  0.12613640  0.53156600  0.00000661  1.0
  N  N176  1  0.53810609  0.87368452  0.76965938  1.0
  N  N177  1  0.23153989  0.89596288  0.76963453  1.0
  N  N178  1  0.12631147  0.46189830  0.23033895  1.0
  N  N179  1  0.10403487  0.76846410  0.23036922  1.0
  N  N180  1  0.46189239  0.12630874  0.23033694  1.0
  N  N181  1  0.76846320  0.10403453  0.23036868  1.0
  N  N182  1  0.87368472  0.53810088  0.76965886  1.0
  N  N183  1  0.89596343  0.23154042  0.76963467  1.0
  N  N184  1  0.55699806  0.83097995  0.80738192  1.0
  N  N185  1  0.25038333  0.97638366  0.80736710  1.0
  N  N186  1  0.16901346  0.44300614  0.19261217  1.0
  N  N187  1  0.02361171  0.74962224  0.19263898  1.0
  N  N188  1  0.44299991  0.16901152  0.19261156  1.0
  N  N189  1  0.74962209  0.02361197  0.19263887  1.0
  N  N190  1  0.83097972  0.55699245  0.80738113  1.0
  N  N191  1  0.97638425  0.25038407  0.80736691  1.0
  N  N192  1  0.56626321  0.87506810  0.86913878  1.0
  N  N193  1  0.30288492  0.99404538  0.86912137  1.0
  N  N194  1  0.12492087  0.43374309  0.13085677  1.0
  N  N195  1  0.00594605  0.69711939  0.13088277  1.0
  N  N196  1  0.43373807  0.12492099  0.13085584  1.0
  N  N197  1  0.69711971  0.00594551  0.13088298  1.0
  N  N198  1  0.87506747  0.56625846  0.86913857  1.0
  N  N199  1  0.99404560  0.30288573  0.86912151  1.0
  O  O200  1  0.50256264  0.60228556  0.59244605  1.0
  O  O201  1  0.08987458  0.99015689  0.59245163  1.0
  O  O202  1  0.39771695  0.49743615  0.40755744  1.0
  O  O203  1  0.00985329  0.91014838  0.40755816  1.0
  O  O204  1  0.49743458  0.39771719  0.40755744  1.0
  O  O205  1  0.91014775  0.00985415  0.40755861  1.0
  O  O206  1  0.60228482  0.50256066  0.59244694  1.0
  O  O207  1  0.99015599  0.08987274  0.59245164  1.0
  O  O208  1  0.50164666  0.97906694  0.59199655  1.0
  O  O209  1  0.09041392  0.61293745  0.59200522  1.0
  O  O210  1  0.02093792  0.49835683  0.40800707  1.0
  O  O211  1  0.38706924  0.90959219  0.40799708  1.0
  O  O212  1  0.49835651  0.02093876  0.40800781  1.0
  O  O213  1  0.90959074  0.38706944  0.40799733  1.0
  O  O214  1  0.97906726  0.50164591  0.59199615  1.0
  O  O215  1  0.61293728  0.09041529  0.59200532  1.0
  O  O216  1  0.52582130  0.62669207  0.51025208  1.0
  O  O217  1  0.98441093  0.88356514  0.51020262  1.0
  O  O218  1  0.37329860  0.47417635  0.48974621  1.0
  O  O219  1  0.11645870  0.01561049  0.48980725  1.0
  O  O220  1  0.47417384  0.37329940  0.48974533  1.0
  O  O221  1  0.01560847  0.11645955  0.48980772  1.0
  O  O222  1  0.62669186  0.52581868  0.51025217  1.0
  O  O223  1  0.88356349  0.98441005  0.51020140  1.0
  O  O224  1  0.50915954  0.88166612  0.50299314  1.0
  O  O225  1  0.99378826  0.62128248  0.50301002  1.0
  O  O226  1  0.11833889  0.49084491  0.49701163  1.0
  O  O227  1  0.37872525  0.00621552  0.49698968  1.0
  O  O228  1  0.49084251  0.11833958  0.49701176  1.0
  O  O229  1  0.00621503  0.37872560  0.49698945  1.0
  O  O230  1  0.88166639  0.50916020  0.50299361  1.0
  O  O231  1  0.62128270  0.99378899  0.50301097  1.0
  O  O232  1  0.45320801  0.45320648  0.62013303  1.0
  O  O233  1  0.16690446  0.16690565  0.62011274  1.0
  O  O234  1  0.54678099  0.54678143  0.37985765  1.0
  O  O235  1  0.83311206  0.83310895  0.37989554  1.0
  O  O236  1  0.46577302  0.15533629  0.62081860  1.0
  O  O237  1  0.15533744  0.46576907  0.62081589  1.0
  O  O238  1  0.84466212  0.53422596  0.37918559  1.0
  O  O239  1  0.53422545  0.84466289  0.37918421  1.0
