# generated using pymatgen
data_AlH7(C7O3)2
_symmetry_space_group_name_H-M   'P 1'
_cell_length_a   6.69071459
_cell_length_b   19.39826943
_cell_length_c   21.50622567
_cell_angle_alpha   87.03091728
_cell_angle_beta   89.99964287
_cell_angle_gamma   89.99966156
_symmetry_Int_Tables_number   1
_chemical_formula_structural   AlH7(C7O3)2
_chemical_formula_sum   'Al4 H28 C56 O24'
_cell_volume   2787.50923359
_cell_formula_units_Z   4
loop_
 _symmetry_equiv_pos_site_id
 _symmetry_equiv_pos_as_xyz
  1  'x, y, z'
loop_
 _atom_site_type_symbol
 _atom_site_label
 _atom_site_symmetry_multiplicity
 _atom_site_fract_x
 _atom_site_fract_y
 _atom_site_fract_z
 _atom_site_occupancy
  Al  Al0  1  0.73373253  0.74862055  0.25039656  1.0
  Al  Al1  1  0.26631452  0.25138308  0.74963963  1.0
  Al  Al2  1  0.23373801  0.75138438  0.24963501  1.0
  Al  Al3  1  0.76631950  0.24862421  0.75039511  1.0
  H  H4  1  0.72439115  0.34585384  0.91626643  1.0
  H  H5  1  0.27559612  0.65414799  0.08376465  1.0
  H  H6  1  0.22445511  0.15415630  0.58375963  1.0
  H  H7  1  0.77566817  0.84586268  0.41625880  1.0
  H  H8  1  0.29555668  0.42609194  0.85563291  1.0
  H  H9  1  0.70444703  0.57390159  0.14440939  1.0
  H  H10  1  0.79562565  0.07392033  0.64439748  1.0
  H  H11  1  0.20451706  0.92611146  0.35562227  1.0
  H  H12  1  0.44489614  0.52528317  0.90565998  1.0
  H  H13  1  0.55509412  0.47471734  0.09437670  1.0
  H  H14  1  0.94502560  0.97475584  0.59434696  1.0
  H  H15  1  0.05523369  0.02532761  0.40563016  1.0
  H  H16  1  0.56385705  0.64049726  0.90218789  1.0
  H  H17  1  0.70341242  0.57672845  0.94773967  1.0
  H  H18  1  0.72165855  0.66588096  0.96488001  1.0
  H  H19  1  0.29658980  0.42327435  0.05231282  1.0
  H  H20  1  0.43615712  0.35949831  0.09785487  1.0
  H  H21  1  0.27831975  0.33412271  0.03516550  1.0
  H  H22  1  0.06416401  0.85955811  0.59780108  1.0
  H  H23  1  0.20356390  0.92336314  0.55223779  1.0
  H  H24  1  0.22194165  0.83421777  0.53508012  1.0
  H  H25  1  0.79675367  0.07681627  0.44767738  1.0
  H  H26  1  0.93645099  0.14055837  0.40213491  1.0
  H  H27  1  0.77860161  0.16598108  0.46480749  1.0
  H  H28  1  0.47846987  0.65964717  0.24572071  1.0
  H  H29  1  0.52156672  0.34037578  0.75420972  1.0
  H  H30  1  0.97847006  0.84036516  0.25425624  1.0
  H  H31  1  0.02157101  0.15964809  0.74572266  1.0
  C  C32  1  0.48557359  0.83446069  0.16269972  1.0
  C  C33  1  0.51448243  0.16554712  0.83732528  1.0
  C  C34  1  0.98555765  0.66555112  0.33732839  1.0
  C  C35  1  0.01450435  0.33446522  0.66270122  1.0
  C  C36  1  0.48598345  0.83241003  0.33054903  1.0
  C  C37  1  0.51409350  0.16759032  0.66949091  1.0
  C  C38  1  0.98593845  0.66758619  0.16949174  1.0
  C  C39  1  0.01407871  0.33240687  0.83054963  1.0
  C  C40  1  0.84653233  0.38200156  0.92190727  1.0
  C  C41  1  0.15346092  0.61799134  0.07812712  1.0
  C  C42  1  0.34659128  0.11800788  0.57812198  1.0
  C  C43  1  0.65354545  0.88201719  0.42189827  1.0
  C  C44  1  0.01034954  0.38181791  0.88131243  1.0
  C  C45  1  0.98965716  0.61817478  0.11872615  1.0
  C  C46  1  0.51039596  0.11818217  0.61872160  1.0
  C  C47  1  0.48971835  0.88182953  0.38130804  1.0
  C  C48  1  0.16895584  0.42787501  0.88741883  1.0
  C  C49  1  0.83104787  0.57212079  0.11261927  1.0
  C  C50  1  0.66902633  0.07213336  0.61260702  1.0
  C  C51  1  0.33113581  0.92789424  0.38740392  1.0
  C  C52  1  0.16504882  0.47674759  0.93325791  1.0
  C  C53  1  0.83495639  0.52324852  0.06678438  1.0
  C  C54  1  0.66515092  0.02327450  0.56676137  1.0
  C  C55  1  0.33505007  0.97677463  0.43323176  1.0
  C  C56  1  0.00099169  0.47617216  0.97597266  1.0
  C  C57  1  0.99900754  0.52382709  0.02406868  1.0
  C  C58  1  0.50109960  0.02385808  0.52404542  1.0
  C  C59  1  0.49912681  0.97619994  0.47594533  1.0
  C  C60  1  0.84228017  0.42767373  0.97021726  1.0
  C  C61  1  0.15771308  0.57232016  0.02981806  1.0
  C  C62  1  0.34239741  0.07234546  0.52980265  1.0
  C  C63  1  0.65783199  0.92770815  0.47019371  1.0
  C  C64  1  0.32188538  0.52618733  0.93872035  1.0
  C  C65  1  0.67811085  0.47381098  0.06131913  1.0
  C  C66  1  0.82200284  0.97384602  0.56128669  1.0
  C  C67  1  0.17824150  0.02622403  0.43869050  1.0
  C  C68  1  0.31902617  0.57247483  0.98488869  1.0
  C  C69  1  0.68095213  0.42752384  0.01514381  1.0
  C  C70  1  0.81915713  0.92755971  0.51511510  1.0
  C  C71  1  0.18110215  0.07252082  0.48485878  1.0
  C  C72  1  0.01103655  0.38450362  0.61072984  1.0
  C  C73  1  0.98904637  0.61550763  0.38929841  1.0
  C  C74  1  0.51106008  0.11549118  0.88928653  1.0
  C  C75  1  0.48903331  0.88448662  0.11072048  1.0
  C  C76  1  0.00743744  0.42878300  0.56791080  1.0
  C  C77  1  0.99265595  0.57123119  0.43212068  1.0
  C  C78  1  0.50750898  0.07120213  0.93210284  1.0
  C  C79  1  0.49270846  0.92875528  0.06788938  1.0
  C  C80  1  0.00263950  0.47746175  0.52132795  1.0
  C  C81  1  0.99746734  0.52255072  0.47870680  1.0
  C  C82  1  0.50272947  0.02251380  0.97868111  1.0
  C  C83  1  0.49754028  0.97743184  0.02129954  1.0
  C  C84  1  0.62150618  0.62579596  0.94899301  1.0
  C  C85  1  0.37848857  0.37420631  0.05104971  1.0
  C  C86  1  0.12172679  0.87427777  0.55098444  1.0
  C  C87  1  0.87871035  0.12587206  0.44893461  1.0
  O  O88  1  0.31578093  0.81595817  0.30899753  1.0
  O  O89  1  0.68427808  0.18404246  0.69103682  1.0
  O  O90  1  0.81578120  0.68403642  0.19104119  1.0
  O  O91  1  0.18425240  0.31596041  0.80899691  1.0
  O  O92  1  0.65496280  0.81440050  0.18357166  1.0
  O  O93  1  0.34507977  0.18560618  0.81646546  1.0
  O  O94  1  0.15498646  0.68560755  0.31646304  1.0
  O  O95  1  0.84508900  0.31441180  0.68357819  1.0
  O  O96  1  0.65446541  0.81097502  0.31179738  1.0
  O  O97  1  0.34558762  0.18901125  0.68824589  1.0
  O  O98  1  0.15446452  0.68901414  0.18824393  1.0
  O  O99  1  0.84557058  0.31097264  0.81179933  1.0
  O  O100  1  0.81358882  0.68354696  0.31715908  1.0
  O  O101  1  0.18647168  0.31645926  0.68286686  1.0
  O  O102  1  0.31356571  0.81646001  0.18286934  1.0
  O  O103  1  0.68647387  0.18355155  0.81715285  1.0
  O  O104  1  0.48239602  0.70886276  0.25109390  1.0
  O  O105  1  0.51765103  0.29114243  0.74893204  1.0
  O  O106  1  0.98240257  0.79114037  0.24893241  1.0
  O  O107  1  0.01764897  0.20886384  0.75109261  1.0
  O  O108  1  0.46180299  0.62094350  0.99324177  1.0
  O  O109  1  0.53817680  0.37905383  0.00679678  1.0
  O  O110  1  0.96196864  0.87910762  0.50675153  1.0
  O  O111  1  0.03836089  0.12100175  0.49320265  1.0
