# generated using pymatgen
data_AlH12C16N3O5
_symmetry_space_group_name_H-M   'P 1'
_cell_length_a   6.64825139
_cell_length_b   22.41749175
_cell_length_c   26.77025103
_cell_angle_alpha   100.62887172
_cell_angle_beta   89.99974791
_cell_angle_gamma   89.99814362
_symmetry_Int_Tables_number   1
_chemical_formula_structural   AlH12C16N3O5
_chemical_formula_sum   'Al4 H48 C64 N12 O20'
_cell_volume   3921.30692461
_cell_formula_units_Z   4
loop_
 _symmetry_equiv_pos_site_id
 _symmetry_equiv_pos_as_xyz
  1  'x, y, z'
loop_
 _atom_site_type_symbol
 _atom_site_label
 _atom_site_symmetry_multiplicity
 _atom_site_fract_x
 _atom_site_fract_y
 _atom_site_fract_z
 _atom_site_occupancy
  Al  Al0  1  0.77141384  0.75002246  0.24944771  1.0
  Al  Al1  1  0.22857288  0.24996675  0.75054883  1.0
  Al  Al2  1  0.27141620  0.74996447  0.25054609  1.0
  Al  Al3  1  0.72857352  0.25002778  0.74945009  1.0
  H  H4  1  0.72877224  0.00894164  0.56379269  1.0
  H  H5  1  0.27122199  0.99105090  0.43620690  1.0
  H  H6  1  0.22877126  0.49106158  0.93620930  1.0
  H  H7  1  0.77127562  0.50894242  0.06377515  1.0
  H  H8  1  0.26836061  0.11323608  0.83235589  1.0
  H  H9  1  0.73162461  0.88675906  0.16764334  1.0
  H  H10  1  0.76836763  0.38676157  0.66764787  1.0
  H  H11  1  0.23162360  0.61323520  0.33235895  1.0
  H  H12  1  0.28369225  0.04599094  0.89722731  1.0
  H  H13  1  0.71630349  0.95400534  0.10277306  1.0
  H  H14  1  0.78370420  0.45400640  0.60277527  1.0
  H  H15  1  0.21628101  0.54600342  0.39724034  1.0
  H  H16  1  0.70017500  0.11081144  0.95142670  1.0
  H  H17  1  0.29983428  0.88919247  0.04858015  1.0
  H  H18  1  0.20018956  0.38919817  0.54857957  1.0
  H  H19  1  0.79978512  0.61081871  0.45143151  1.0
  H  H20  1  0.56206135  0.93296354  0.51554086  1.0
  H  H21  1  0.55876843  0.92068543  0.41096336  1.0
  H  H22  1  0.42375642  0.87512613  0.44738650  1.0
  H  H23  1  0.66337492  0.85124776  0.42173091  1.0
  H  H24  1  0.43794943  0.06702868  0.48446140  1.0
  H  H25  1  0.44122881  0.07930821  0.58903928  1.0
  H  H26  1  0.33662985  0.14874665  0.57826907  1.0
  H  H27  1  0.57625286  0.12486512  0.55261536  1.0
  H  H28  1  0.06205157  0.56703546  0.98447003  1.0
  H  H29  1  0.05879339  0.57930332  0.08904546  1.0
  H  H30  1  0.92375524  0.62486628  0.05262930  1.0
  H  H31  1  0.16336973  0.64874561  0.07828257  1.0
  H  H32  1  0.93797426  0.43295698  0.01552083  1.0
  H  H33  1  0.94125951  0.42068884  0.91094198  1.0
  H  H34  1  0.83665610  0.35125223  0.92170641  1.0
  H  H35  1  0.07627360  0.37512499  0.94736231  1.0
  H  H36  1  0.67218376  0.23683654  0.89285867  1.0
  H  H37  1  0.54370400  0.17826885  0.85325844  1.0
  H  H38  1  0.52972985  0.18386024  0.92055029  1.0
  H  H39  1  0.32784356  0.76316327  0.10714361  1.0
  H  H40  1  0.47027792  0.81614457  0.07945657  1.0
  H  H41  1  0.45629474  0.82173332  0.14674651  1.0
  H  H42  1  0.17218712  0.26316766  0.60713855  1.0
  H  H43  1  0.04370006  0.32173402  0.64674064  1.0
  H  H44  1  0.02974507  0.31615044  0.57944962  1.0
  H  H45  1  0.82778606  0.73683884  0.39285958  1.0
  H  H46  1  0.97024164  0.68386097  0.42055271  1.0
  H  H47  1  0.95628214  0.67827054  0.35326090  1.0
  H  H48  1  0.52138043  0.82714498  0.27502219  1.0
  H  H49  1  0.47860929  0.17284176  0.72497738  1.0
  H  H50  1  0.02139631  0.67283775  0.22497456  1.0
  H  H51  1  0.97859642  0.32715231  0.77502389  1.0
  C  C52  1  0.52246528  0.68486703  0.31319435  1.0
  C  C53  1  0.47751693  0.31513127  0.68680716  1.0
  C  C54  1  0.02246391  0.81512804  0.18680586  1.0
  C  C55  1  0.97752882  0.18486804  0.81319565  1.0
  C  C56  1  0.52122115  0.67133340  0.17416789  1.0
  C  C57  1  0.47876707  0.32865730  0.82582524  1.0
  C  C58  1  0.02120813  0.82865517  0.32582698  1.0
  C  C59  1  0.97878912  0.17133745  0.67416882  1.0
  C  C60  1  0.84738431  0.00431323  0.53516776  1.0
  C  C61  1  0.15262346  0.99567883  0.46483373  1.0
  C  C62  1  0.34738698  0.49568804  0.96482934  1.0
  C  C63  1  0.65266742  0.50431734  0.03515322  1.0
  C  C64  1  0.01220632  0.04429047  0.54488927  1.0
  C  C65  1  0.98780446  0.95570216  0.45511071  1.0
  C  C66  1  0.51220976  0.45571476  0.95510155  1.0
  C  C67  1  0.48783562  0.54428981  0.04488138  1.0
  C  C68  1  0.17263386  0.04023926  0.50868136  1.0
  C  C69  1  0.82737091  0.95975263  0.49131937  1.0
  C  C70  1  0.67266208  0.45975997  0.99130520  1.0
  C  C71  1  0.32738329  0.54024367  0.00867963  1.0
  C  C72  1  0.00436124  0.08866300  0.58970474  1.0
  C  C73  1  0.99564051  0.91133148  0.41029144  1.0
  C  C74  1  0.50436198  0.41134907  0.91028042  1.0
  C  C75  1  0.49568339  0.58865352  0.08970781  1.0
  C  C76  1  0.01613666  0.87361030  0.37144894  1.0
  C  C77  1  0.98385156  0.12638390  0.62854801  1.0
  C  C78  1  0.51617718  0.62637415  0.12854327  1.0
  C  C79  1  0.48382909  0.37361825  0.87144113  1.0
  C  C80  1  0.14396710  0.11177548  0.85856588  1.0
  C  C81  1  0.85602263  0.88822063  0.14143373  1.0
  C  C82  1  0.64396940  0.38822345  0.64143747  1.0
  C  C83  1  0.35601280  0.61178140  0.35857166  1.0
  C  C84  1  0.15319228  0.07457042  0.89454033  1.0
  C  C85  1  0.84680496  0.92542728  0.10546042  1.0
  C  C86  1  0.65320170  0.42542840  0.60546261  1.0
  C  C87  1  0.34677900  0.57458113  0.39454958  1.0
  C  C88  1  0.99086219  0.07399411  0.92805059  1.0
  C  C89  1  0.00913506  0.92600501  0.07195055  1.0
  C  C90  1  0.49087178  0.42600843  0.57195296  1.0
  C  C91  1  0.50910892  0.57400669  0.42806039  1.0
  C  C92  1  0.82371723  0.11135753  0.92473560  1.0
  C  C93  1  0.17628302  0.88864179  0.07526857  1.0
  C  C94  1  0.32373485  0.38864620  0.57526841  1.0
  C  C95  1  0.67624886  0.61136563  0.42473999  1.0
  C  C96  1  0.81113024  0.14886141  0.88849338  1.0
  C  C97  1  0.18886851  0.85113483  0.11150889  1.0
  C  C98  1  0.31113928  0.35114027  0.61150914  1.0
  C  C99  1  0.68884442  0.64886795  0.38849697  1.0
  C  C100  1  0.97519150  0.14830105  0.85455868  1.0
  C  C101  1  0.02479672  0.85169433  0.14544168  1.0
  C  C102  1  0.47519287  0.35169888  0.64544490  1.0
  C  C103  1  0.52478482  0.64830646  0.35456234  1.0
  C  C104  1  0.00429882  0.96526698  0.03362532  1.0
  C  C105  1  0.99570143  0.03473178  0.96637620  1.0
  C  C106  1  0.50427946  0.53474662  0.46638602  1.0
  C  C107  1  0.49569974  0.46527213  0.53362963  1.0
  C  C108  1  0.57422320  0.89079383  0.43917386  1.0
  C  C109  1  0.42578157  0.10919884  0.56082840  1.0
  C  C110  1  0.07422945  0.60919933  0.06083911  1.0
  C  C111  1  0.92580389  0.39079624  0.93915176  1.0
  C  C112  1  0.62902473  0.18883142  0.88883983  1.0
  C  C113  1  0.37098154  0.81116940  0.11116511  1.0
  C  C114  1  0.12903474  0.31117496  0.61116054  1.0
  C  C115  1  0.87094897  0.68883236  0.38884139  1.0
  N  N116  1  0.84011734  0.03814132  0.99953791  1.0
  N  N117  1  0.15989044  0.96185910  0.00046513  1.0
  N  N118  1  0.34011028  0.46186735  0.50047063  1.0
  N  N119  1  0.65986891  0.53815323  0.49954730  1.0
  N  N120  1  0.84445184  0.00285117  0.03368959  1.0
  N  N121  1  0.15555593  0.99714978  0.96631384  1.0
  N  N122  1  0.34443619  0.49716422  0.46632339  1.0
  N  N123  1  0.65553999  0.50285980  0.53369607  1.0
  N  N124  1  0.66191116  0.92189865  0.48672743  1.0
  N  N125  1  0.33809361  0.07809199  0.51327368  1.0
  N  N126  1  0.16191542  0.57809678  0.01328113  1.0
  N  N127  1  0.83812243  0.42190073  0.98670633  1.0
  O  O128  1  0.35067995  0.68977224  0.19287947  1.0
  O  O129  1  0.64930677  0.31021790  0.80711517  1.0
  O  O130  1  0.85068651  0.81022171  0.30710692  1.0
  O  O131  1  0.14930923  0.18976831  0.69288925  1.0
  O  O132  1  0.69113703  0.69843726  0.29578591  1.0
  O  O133  1  0.30884818  0.30155926  0.70421560  1.0
  O  O134  1  0.19113499  0.80156791  0.20422488  1.0
  O  O135  1  0.80886075  0.19843085  0.79577663  1.0
  O  O136  1  0.69308885  0.68900625  0.19223134  1.0
  O  O137  1  0.30690389  0.31098340  0.80776520  1.0
  O  O138  1  0.19308346  0.81097442  0.30777138  1.0
  O  O139  1  0.80691529  0.18901771  0.69222631  1.0
  O  O140  1  0.85050538  0.80147616  0.20273269  1.0
  O  O141  1  0.14948585  0.19851805  0.79726843  1.0
  O  O142  1  0.35050460  0.69850314  0.29725403  1.0
  O  O143  1  0.64947760  0.30149042  0.70274405  1.0
  O  O144  1  0.52133732  0.78710785  0.25382244  1.0
  O  O145  1  0.47865391  0.21288192  0.74617258  1.0
  O  O146  1  0.02134165  0.71287800  0.24617014  1.0
  O  O147  1  0.97864657  0.28711336  0.75382604  1.0
