# generated using pymatgen
data_AlH12C27(BrO2)3
_symmetry_space_group_name_H-M   'P 1'
_cell_length_a   4.03087862
_cell_length_b   27.79608914
_cell_length_c   27.83290024
_cell_angle_alpha   60.10307524
_cell_angle_beta   88.91480885
_cell_angle_gamma   89.67514392
_symmetry_Int_Tables_number   1
_chemical_formula_structural   AlH12C27(BrO2)3
_chemical_formula_sum   'Al3 H36 C81 Br9 O18'
_cell_volume   2702.96639485
_cell_formula_units_Z   3
loop_
 _symmetry_equiv_pos_site_id
 _symmetry_equiv_pos_as_xyz
  1  'x, y, z'
loop_
 _atom_site_type_symbol
 _atom_site_label
 _atom_site_symmetry_multiplicity
 _atom_site_fract_x
 _atom_site_fract_y
 _atom_site_fract_z
 _atom_site_occupancy
  Al  Al0  1  0.00388790  0.50078850  0.49963986  1.0
  Al  Al1  1  0.94365428  0.16733137  0.16703290  1.0
  Al  Al2  1  0.05293395  0.83396469  0.83271268  1.0
  H  H3  1  0.52165424  0.92329910  0.07817904  1.0
  H  H4  1  0.50547857  0.74503566  0.16548827  1.0
  H  H5  1  0.51762666  0.83267453  0.25624017  1.0
  H  H6  1  0.72116893  0.07367072  0.09166349  1.0
  H  H7  1  0.76240635  0.98579133  0.09013264  1.0
  H  H8  1  0.22318850  0.90215142  0.24624109  1.0
  H  H9  1  0.28836527  0.91394759  0.01620723  1.0
  H  H10  1  0.79299490  0.75692619  0.00434387  1.0
  H  H11  1  0.79768648  0.75670018  0.09317866  1.0
  H  H12  1  0.78615907  0.68573809  0.23538555  1.0
  H  H13  1  0.22944114  0.66692580  0.40381802  1.0
  H  H14  1  0.22572945  0.75798489  0.31706243  1.0
  H  H15  1  0.49607122  0.50064740  0.92194095  1.0
  H  H16  1  0.51776807  0.41052801  0.83362614  1.0
  H  H17  1  0.50241082  0.58877130  0.74383326  1.0
  H  H18  1  0.28609989  0.66358697  0.91014049  1.0
  H  H19  1  0.25076393  0.57464879  0.91072669  1.0
  H  H20  1  0.78389671  0.64832715  0.75395896  1.0
  H  H21  1  0.73442533  0.42859323  0.98345375  1.0
  H  H22  1  0.20873578  0.26232809  0.99464430  1.0
  H  H23  1  0.21484158  0.35076237  0.90572575  1.0
  H  H24  1  0.23381140  0.42233863  0.76371023  1.0
  H  H25  1  0.78717261  0.57133804  0.59531081  1.0
  H  H26  1  0.79888516  0.57472450  0.68260805  1.0
  H  H27  1  0.49994436  0.07805934  0.49960640  1.0
  H  H28  1  0.47252519  0.16635447  0.58970188  1.0
  H  H29  1  0.48712308  0.25634314  0.41164723  1.0
  H  H30  1  0.69861537  0.09085249  0.33549557  1.0
  H  H31  1  0.73300318  0.08961038  0.42458325  1.0
  H  H32  1  0.21444079  0.24593215  0.35305966  1.0
  H  H33  1  0.27326412  0.01497889  0.57229598  1.0
  H  H34  1  0.78881682  0.00682186  0.73658924  1.0
  H  H35  1  0.77517965  0.09601298  0.64848485  1.0
  H  H36  1  0.75339714  0.23627804  0.57759231  1.0
  H  H37  1  0.22182879  0.40483575  0.43011071  1.0
  H  H38  1  0.20348212  0.31781857  0.42604765  1.0
  C  C39  1  0.50215328  0.42549559  0.50238512  1.0
  C  C40  1  0.50829135  0.57305600  0.42447961  1.0
  C  C41  1  0.49993734  0.49949761  0.57409928  1.0
  C  C42  1  0.44520271  0.09199914  0.16959055  1.0
  C  C43  1  0.45307717  0.24073461  0.09274906  1.0
  C  C44  1  0.43666196  0.16939414  0.23967667  1.0
  C  C45  1  0.54496187  0.83453485  0.90641992  1.0
  C  C46  1  0.55583463  0.76021105  0.83222645  1.0
  C  C47  1  0.55560376  0.90704241  0.75859402  1.0
  C  C48  1  0.52628079  0.83420301  0.11552173  1.0
  C  C49  1  0.51900990  0.88390059  0.11698998  1.0
  C  C50  1  0.50690515  0.88416871  0.16721391  1.0
  C  C51  1  0.50944745  0.83315180  0.21688719  1.0
  C  C52  1  0.51321730  0.78270356  0.21693726  1.0
  C  C53  1  0.51819844  0.78397024  0.16591020  1.0
  C  C54  1  0.61049086  0.03587750  0.12532666  1.0
  C  C55  1  0.63038101  0.98637314  0.12437968  1.0
  C  C56  1  0.49294490  0.93710084  0.16779319  1.0
  C  C57  1  0.34040419  0.93908618  0.21253462  1.0
  C  C58  1  0.32982262  0.98843267  0.21395931  1.0
  C  C59  1  0.45889485  0.03774977  0.17009622  1.0
  C  C60  1  0.40586009  0.87956871  0.01428136  1.0
  C  C61  1  0.41668039  0.88032309  0.96390068  1.0
  C  C62  1  0.54506652  0.83559058  0.95984297  1.0
  C  C63  1  0.67997419  0.79107872  0.00736457  1.0
  C  C64  1  0.67912470  0.79082953  0.05749123  1.0
  C  C65  1  0.53647307  0.83467612  0.06210773  1.0
  C  C66  1  0.66088747  0.68237070  0.27194487  1.0
  C  C67  1  0.66050418  0.63131026  0.32080263  1.0
  C  C68  1  0.51034816  0.62520479  0.36962002  1.0
  C  C69  1  0.35501587  0.67211086  0.36650728  1.0
  C  C70  1  0.35607816  0.72309672  0.31796078  1.0
  C  C71  1  0.51094025  0.72917082  0.26953805  1.0
  C  C72  1  0.49513492  0.44936064  0.88401405  1.0
  C  C73  1  0.50029116  0.50030691  0.88296339  1.0
  C  C74  1  0.51113151  0.55088102  0.83296539  1.0
  C  C75  1  0.51153963  0.54985614  0.78307581  1.0
  C  C76  1  0.51033698  0.49965954  0.78266390  1.0
  C  C77  1  0.50521035  0.44977201  0.83347052  1.0
  C  C78  1  0.39764716  0.65978653  0.87619103  1.0
  C  C79  1  0.38092476  0.60959464  0.87661769  1.0
  C  C80  1  0.51922254  0.60414131  0.83283003  1.0
  C  C81  1  0.66736021  0.65105294  0.78813369  1.0
  C  C82  1  0.67419158  0.70156177  0.78718325  1.0
  C  C83  1  0.54665115  0.70655009  0.83157917  1.0
  C  C84  1  0.61236990  0.39287234  0.98524678  1.0
  C  C85  1  0.59429026  0.34349578  0.03569951  1.0
  C  C86  1  0.46015807  0.29534892  0.03952807  1.0
  C  C87  1  0.32677622  0.29892279  0.99172025  1.0
  C  C88  1  0.33382348  0.34867787  0.94155696  1.0
  C  C89  1  0.48212465  0.39638497  0.93722627  1.0
  C  C90  1  0.35902024  0.45532928  0.72719413  1.0
  C  C91  1  0.35508339  0.45355020  0.67809865  1.0
  C  C92  1  0.50357238  0.49619011  0.62922283  1.0
  C  C93  1  0.66225667  0.53933994  0.63260321  1.0
  C  C94  1  0.66579573  0.54129821  0.68144341  1.0
  C  C95  1  0.51171391  0.49912678  0.72984764  1.0
  C  C96  1  0.49868256  0.11605454  0.55081650  1.0
  C  C97  1  0.49328121  0.11706960  0.49994662  1.0
  C  C98  1  0.48019946  0.16705801  0.44947813  1.0
  C  C99  1  0.47865579  0.21700776  0.45053701  1.0
  C  C100  1  0.48018779  0.21744869  0.50064456  1.0
  C  C101  1  0.48578058  0.16659191  0.55045073  1.0
  C  C102  1  0.59074035  0.12458902  0.33983519  1.0
  C  C103  1  0.60666729  0.12382304  0.39011688  1.0
  C  C104  1  0.47217140  0.16730759  0.39621791  1.0
  C  C105  1  0.32829061  0.21202789  0.34982679  1.0
  C  C106  1  0.32308043  0.21340219  0.29921119  1.0
  C  C107  1  0.44699984  0.16934765  0.29357701  1.0
  C  C108  1  0.39453361  0.01391974  0.60743153  1.0
  C  C109  1  0.41862175  0.96340844  0.65643232  1.0
  C  C110  1  0.55089695  0.96023073  0.70405361  1.0
  C  C111  1  0.67538770  0.00899283  0.70029249  1.0
  C  C112  1  0.66329757  0.05930642  0.65076167  1.0
  C  C113  1  0.51727358  0.06283989  0.60361439  1.0
  C  C114  1  0.63249414  0.27279962  0.54497852  1.0
  C  C115  1  0.63949556  0.32170605  0.54719355  1.0
  C  C116  1  0.49692935  0.37060551  0.50503920  1.0
  C  C117  1  0.34151426  0.36746007  0.46181780  1.0
  C  C118  1  0.33439152  0.31875988  0.45949103  1.0
  C  C119  1  0.48185464  0.27027024  0.50128767  1.0
  Br  Br120  1  0.13877050  0.98721374  0.27755136  1.0
  Br  Br121  1  0.25284558  0.94398572  0.90018713  1.0
  Br  Br122  1  0.85447546  0.57151576  0.31541040  1.0
  Br  Br123  1  0.85612053  0.76423687  0.72351631  1.0
  Br  Br124  1  0.75120902  0.34326600  0.09965020  1.0
  Br  Br125  1  0.15818476  0.38913582  0.68323183  1.0
  Br  Br126  1  0.14786060  0.27725860  0.23720647  1.0
  Br  Br127  1  0.27021492  0.89851816  0.65686794  1.0
  Br  Br128  1  0.83244853  0.31616196  0.61156525  1.0
  O  O129  1  0.73366046  0.52694300  0.53954243  1.0
  O  O130  1  0.73703069  0.43553016  0.52602993  1.0
  O  O131  1  0.74602223  0.53927740  0.43459845  1.0
  O  O132  1  0.26132865  0.47606569  0.56438195  1.0
  O  O133  1  0.27075912  0.56654730  0.45830285  1.0
  O  O134  1  0.27189315  0.45964658  0.47518427  1.0
  O  O135  1  0.67173909  0.19412726  0.20500226  1.0
  O  O136  1  0.67512324  0.10208611  0.19386239  1.0
  O  O137  1  0.68750550  0.20679570  0.10029940  1.0
  O  O138  1  0.19738039  0.14368989  0.23304092  1.0
  O  O139  1  0.21058497  0.23175755  0.12587064  1.0
  O  O140  1  0.20808637  0.12461336  0.14351080  1.0
  O  O141  1  0.79509575  0.87401595  0.76758740  1.0
  O  O142  1  0.78339826  0.85900721  0.87250353  1.0
  O  O143  1  0.79067921  0.76721726  0.85816286  1.0
  O  O144  1  0.31811362  0.89959937  0.79255911  1.0
  O  O145  1  0.32330790  0.79430275  0.80784430  1.0
  O  O146  1  0.30912926  0.80848456  0.89942557  1.0
