# generated using pymatgen
data_Al4H16C47(SO16)2
_symmetry_space_group_name_H-M   'P 1'
_cell_length_a   6.67525263
_cell_length_b   20.60023596
_cell_length_c   22.77036541
_cell_angle_alpha   93.09967662
_cell_angle_beta   91.25442387
_cell_angle_gamma   90.17439506
_symmetry_Int_Tables_number   1
_chemical_formula_structural   Al4H16C47(SO16)2
_chemical_formula_sum   'Al4 H16 C47 S2 O32'
_cell_volume   3125.83509650
_cell_formula_units_Z   1
loop_
 _symmetry_equiv_pos_site_id
 _symmetry_equiv_pos_as_xyz
  1  'x, y, z'
loop_
 _atom_site_type_symbol
 _atom_site_label
 _atom_site_symmetry_multiplicity
 _atom_site_fract_x
 _atom_site_fract_y
 _atom_site_fract_z
 _atom_site_occupancy
  Al  Al0  1  0.87083182  0.49051872  0.49075350  1.0
  Al  Al1  1  0.37205926  0.49037790  0.49073554  1.0
  Al  Al2  1  0.34699921  0.02121293  0.01764061  1.0
  Al  Al3  1  0.84689980  0.02175352  0.01777816  1.0
  H  H4  1  0.36627904  0.16990447  0.76712772  1.0
  H  H5  1  0.28843760  0.71015851  0.28787684  1.0
  H  H6  1  0.28618519  0.79801043  0.21627906  1.0
  H  H7  1  0.93178430  0.79949906  0.21943531  1.0
  H  H8  1  0.93384593  0.71169153  0.29105345  1.0
  H  H9  1  0.35744228  0.67090005  0.74038460  1.0
  H  H10  1  0.33773454  0.75492574  0.82323060  1.0
  H  H11  1  0.12549178  0.88474677  0.83587215  1.0
  H  H12  1  0.09459765  0.84590684  0.68325732  1.0
  H  H13  1  0.51701443  0.23860189  0.59454554  1.0
  H  H14  1  0.95855859  0.42735401  0.69833312  1.0
  H  H15  1  0.72591507  0.30470910  0.91263566  1.0
  H  H16  1  0.62244344  0.41142967  0.51364433  1.0
  H  H17  1  0.12392115  0.57174483  0.51429023  1.0
  H  H18  1  0.59599225  0.10281231  0.00120560  1.0
  H  H19  1  0.09638097  0.94031652  0.03455316  1.0
  C  C20  1  0.61740498  0.56637598  0.41435011  1.0
  C  C21  1  0.62673093  0.57148892  0.57240833  1.0
  C  C22  1  0.12614168  0.41476223  0.56947215  1.0
  C  C23  1  0.11544306  0.41066381  0.40967617  1.0
  C  C24  1  0.11158435  0.36347732  0.36060314  1.0
  C  C25  1  0.11056713  0.32222349  0.31967492  1.0
  C  C26  1  0.11007596  0.27691061  0.27508422  1.0
  C  C27  1  0.11051668  0.23492360  0.23432825  1.0
  C  C28  1  0.10990912  0.18963026  0.18975099  1.0
  C  C29  1  0.10845201  0.14842293  0.14877766  1.0
  C  C30  1  0.25584413  0.24255955  0.71132961  1.0
  C  C31  1  0.10962670  0.29131301  0.70310285  1.0
  C  C32  1  0.95378585  0.29900943  0.74463320  1.0
  C  C33  1  0.94496540  0.26080819  0.79317321  1.0
  C  C34  1  0.09505252  0.21327221  0.80120633  1.0
  C  C35  1  0.24822150  0.20520882  0.76035366  1.0
  C  C36  1  0.12095027  0.33409553  0.65677924  1.0
  C  C37  1  0.09162145  0.17362798  0.84997297  1.0
  C  C38  1  0.09071457  0.13864233  0.89134694  1.0
  C  C39  1  0.12686569  0.37326763  0.61861668  1.0
  C  C40  1  0.42698528  0.77869327  0.23283691  1.0
  C  C41  1  0.60882190  0.80417763  0.21322066  1.0
  C  C42  1  0.79194635  0.77951022  0.23458024  1.0
  C  C43  1  0.79310627  0.73081264  0.27425059  1.0
  C  C44  1  0.61127727  0.70520720  0.29379644  1.0
  C  C45  1  0.42818906  0.72995189  0.27247376  1.0
  C  C46  1  0.60723195  0.85353874  0.17244701  1.0
  C  C47  1  0.61277274  0.65583256  0.33459830  1.0
  C  C48  1  0.61448139  0.61376704  0.37016808  1.0
  C  C49  1  0.60508981  0.89582633  0.13704798  1.0
  C  C50  1  0.46547271  0.75340598  0.79423621  1.0
  C  C51  1  0.61719409  0.80058637  0.80327021  1.0
  C  C52  1  0.78374761  0.80029264  0.76527302  1.0
  C  C53  1  0.79148759  0.75393668  0.71822176  1.0
  C  C54  1  0.63697128  0.70651395  0.70939632  1.0
  C  C55  1  0.47630024  0.70675789  0.74843913  1.0
  C  C56  1  0.60048860  0.84947415  0.84891784  1.0
  C  C57  1  0.63742958  0.65928980  0.66207266  1.0
  C  C58  1  0.63058350  0.61803042  0.62181841  1.0
  C  C59  1  0.58962407  0.89216358  0.88782264  1.0
  C  C60  1  0.59079139  0.94030472  0.93623158  1.0
  C  C61  1  0.60168660  0.94361757  0.09345924  1.0
  C  C62  1  0.10380635  0.10181394  0.09927577  1.0
  C  C63  1  0.09284488  0.09636754  0.93955706  1.0
  C  C64  1  0.93529462  0.85394234  0.77720783  1.0
  C  C65  1  0.42638508  0.22798927  0.67101487  1.0
  C  C66  1  0.78265880  0.26466716  0.83849507  1.0
  S  S67  1  0.98461350  0.74875564  0.66398544  1.0
  S  S68  1  0.76200821  0.35847672  0.73278560  1.0
  O  O69  1  0.45398091  0.55248289  0.55359811  1.0
  O  O70  1  0.78901433  0.54711634  0.43137442  1.0
  O  O71  1  0.94680846  0.42790693  0.43007235  1.0
  O  O72  1  0.79605138  0.55447206  0.55201020  1.0
  O  O73  1  0.95353179  0.43190040  0.55123575  1.0
  O  O74  1  0.44844212  0.54891607  0.43309349  1.0
  O  O75  1  0.62131144  0.45087408  0.49220142  1.0
  O  O76  1  0.29555551  0.42924461  0.54924931  1.0
  O  O77  1  0.28776484  0.42970563  0.42842238  1.0
  O  O78  1  0.12206801  0.52905606  0.49401560  1.0
  O  O79  1  0.77068456  0.96190402  0.07504656  1.0
  O  O80  1  0.42073586  0.95734913  0.95595351  1.0
  O  O81  1  0.26439576  0.07827125  0.95784577  1.0
  O  O82  1  0.42981391  0.96275384  0.07618013  1.0
  O  O83  1  0.27279603  0.08458003  0.07890818  1.0
  O  O84  1  0.76317151  0.95965754  0.95470473  1.0
  O  O85  1  0.59703725  0.06030345  0.01753150  1.0
  O  O86  1  0.93060897  0.08348273  0.08040456  1.0
  O  O87  1  0.92381421  0.08097165  0.95981032  1.0
  O  O88  1  0.09621941  0.98234262  0.01731437  1.0
  O  O89  1  0.95757385  0.89970676  0.74579105  1.0
  O  O90  1  0.03848050  0.84655271  0.82786543  1.0
  O  O91  1  0.08426856  0.68759446  0.66839474  1.0
  O  O92  1  0.89622641  0.76807223  0.60962171  1.0
  O  O93  1  0.14800771  0.80160865  0.68714731  1.0
  O  O94  1  0.57916840  0.20067582  0.68659781  1.0
  O  O95  1  0.39179617  0.24613295  0.61549806  1.0
  O  O96  1  0.67832084  0.34685594  0.67444696  1.0
  O  O97  1  0.63617097  0.36270357  0.78301033  1.0
  O  O98  1  0.88670303  0.42527482  0.73564995  1.0
  O  O99  1  0.63311319  0.23073969  0.83587026  1.0
  O  O100  1  0.83537088  0.30576552  0.88462658  1.0
