# generated using pymatgen
data_Zn3H63C91N7O13
_symmetry_space_group_name_H-M   'P 1'
_cell_length_a   19.43386371
_cell_length_b   20.75573651
_cell_length_c   21.81780371
_cell_angle_alpha   116.12726508
_cell_angle_beta   99.66247645
_cell_angle_gamma   100.32023091
_symmetry_Int_Tables_number   1
_chemical_formula_structural   Zn3H63C91N7O13
_chemical_formula_sum   'Zn6 H126 C182 N14 O26'
_cell_volume   7464.00506089
_cell_formula_units_Z   2
loop_
 _symmetry_equiv_pos_site_id
 _symmetry_equiv_pos_as_xyz
  1  'x, y, z'
loop_
 _atom_site_type_symbol
 _atom_site_label
 _atom_site_symmetry_multiplicity
 _atom_site_fract_x
 _atom_site_fract_y
 _atom_site_fract_z
 _atom_site_occupancy
  Zn  Zn0  1  0.76576154  0.20248246  0.09572729  1.0
  Zn  Zn1  1  0.23423744  0.79751848  0.90427429  1.0
  Zn  Zn2  1  0.59278814  0.12959801  0.09192717  1.0
  Zn  Zn3  1  0.40721464  0.87040351  0.90807338  1.0
  Zn  Zn4  1  0.92320026  0.15992917  0.04928005  1.0
  Zn  Zn5  1  0.07680476  0.84007292  0.95072061  1.0
  H  H6  1  0.55508528  0.32435004  0.19450404  1.0
  H  H7  1  0.44491419  0.67565480  0.80548917  1.0
  H  H8  1  0.54118379  0.44951668  0.27244616  1.0
  H  H9  1  0.45881176  0.55048534  0.72754162  1.0
  H  H10  1  0.77457889  0.54235933  0.34210290  1.0
  H  H11  1  0.22541722  0.45764270  0.65789185  1.0
  H  H12  1  0.78743459  0.41629863  0.26567170  1.0
  H  H13  1  0.21256412  0.58370341  0.73432160  1.0
  H  H14  1  0.56708106  0.54889337  0.39770992  1.0
  H  H15  1  0.43291095  0.45110136  0.60227843  1.0
  H  H16  1  0.72792878  0.63069304  0.31530797  1.0
  H  H17  1  0.27207526  0.36931688  0.68469766  1.0
  H  H18  1  0.60983952  0.95269654  0.14496577  1.0
  H  H19  1  0.39015589  0.04729711  0.85502995  1.0
  H  H20  1  0.61084866  0.87767144  0.20708110  1.0
  H  H21  1  0.38914997  0.12232446  0.79291649  1.0
  H  H22  1  0.62977551  0.07392459  0.40318683  1.0
  H  H23  1  0.37022292  0.92607634  0.59680917  1.0
  H  H24  1  0.62931624  0.14822826  0.33955740  1.0
  H  H25  1  0.37067782  0.85176816  0.66043517  1.0
  H  H26  1  0.55306233  0.82069110  0.25565324  1.0
  H  H27  1  0.44692852  0.17930868  0.74434897  1.0
  H  H28  1  0.55397437  0.74651252  0.31809876  1.0
  H  H29  1  0.44601934  0.25349007  0.68190689  1.0
  H  H30  1  0.68763886  0.01713735  0.44889212  1.0
  H  H31  1  0.31235926  0.98286246  0.55110474  1.0
  H  H32  1  0.52758541  0.00951164  0.86350226  1.0
  H  H33  1  0.47241642  0.99048820  0.13650296  1.0
  H  H34  1  0.51480375  0.93483466  0.73477115  1.0
  H  H35  1  0.48519403  0.06515791  0.26523501  1.0
  H  H36  1  0.74589454  0.96060403  0.78209893  1.0
  H  H37  1  0.25410394  0.03938741  0.21790045  1.0
  H  H38  1  0.75786333  0.03424149  0.91055434  1.0
  H  H39  1  0.24214011  0.96575668  0.08944719  1.0
  H  H40  1  0.54268691  0.94820839  0.64086655  1.0
  H  H41  1  0.45730479  0.05178302  0.35913549  1.0
  H  H42  1  0.53893652  0.88573398  0.51365340  1.0
  H  H43  1  0.46105206  0.11426523  0.48634457  1.0
  H  H44  1  0.69687937  0.77882691  0.55626706  1.0
  H  H45  1  0.30311742  0.22117178  0.44373189  1.0
  H  H46  1  0.70168176  0.84207806  0.68384659  1.0
  H  H47  1  0.29831473  0.15791951  0.31615277  1.0
  H  H48  1  0.68711542  0.94315451  0.51139784  1.0
  H  H49  1  0.31288290  0.05684977  0.48860231  1.0
  H  H50  1  0.71115789  0.75671977  0.37539558  1.0
  H  H51  1  0.28884605  0.24328961  0.62461897  1.0
  H  H52  1  0.55066538  0.67575856  0.45846606  1.0
  H  H53  1  0.44932703  0.32423562  0.54152716  1.0
  H  H54  1  0.45625537  0.04545545  0.96862921  1.0
  H  H55  1  0.54374716  0.95454327  0.03136830  1.0
  H  H56  1  0.50197059  0.18850012  0.18478429  1.0
  H  H57  1  0.49803110  0.81149356  0.81521328  1.0
  H  H58  1  0.36950701  0.18636991  0.17408591  1.0
  H  H59  1  0.63049610  0.81362323  0.82591209  1.0
  H  H60  1  0.32294738  0.03501494  0.94913543  1.0
  H  H61  1  0.67705440  0.96498489  0.05086197  1.0
  H  H62  1  0.79393534  0.21657457  0.96277805  1.0
  H  H63  1  0.20606278  0.78343475  0.03722371  1.0
  H  H64  1  0.60725275  0.23478240  0.86676863  1.0
  H  H65  1  0.39274448  0.76522187  0.13322538  1.0
  H  H66  1  0.60356765  0.20570112  0.93271067  1.0
  H  H67  1  0.39642838  0.79430258  0.06728248  1.0
  H  H68  1  0.58617473  0.13731921  0.84129677  1.0
  H  H69  1  0.41382472  0.86268171  0.15869572  1.0
  H  H70  1  0.78366324  0.18336076  0.85319470  1.0
  H  H71  1  0.21633753  0.81665249  0.14681047  1.0
  H  H72  1  0.71868190  0.21305049  0.81120414  1.0
  H  H73  1  0.28132190  0.78696053  0.18879870  1.0
  H  H74  1  0.69770871  0.11847584  0.79533307  1.0
  H  H75  1  0.30229717  0.88153519  0.20466733  1.0
  H  H76  1  0.00163780  0.05367303  0.96746615  1.0
  H  H77  1  0.99836511  0.94632514  0.03253302  1.0
  H  H78  1  0.12660849  0.03336692  0.98328107  1.0
  H  H79  1  0.87339337  0.96662733  0.01671952  1.0
  H  H80  1  0.06151479  0.23688823  0.16825313  1.0
  H  H81  1  0.93849181  0.76310996  0.83175117  1.0
  H  H82  1  0.18875113  0.22376037  0.19422938  1.0
  H  H83  1  0.81125296  0.77623054  0.80577243  1.0
  H  H84  1  0.94241298  0.03388500  0.14579262  1.0
  H  H85  1  0.05758927  0.96611260  0.85420805  1.0
  H  H86  1  0.94519133  0.95650628  0.20446851  1.0
  H  H87  1  0.05480763  0.04349075  0.79553098  1.0
  H  H88  1  0.96208545  0.91932123  0.27255194  1.0
  H  H89  1  0.03791500  0.08068309  0.72745677  1.0
  H  H90  1  0.75488831  0.94502732  0.30991982  1.0
  H  H91  1  0.24510974  0.05497977  0.69008421  1.0
  H  H92  1  0.00787614  0.40880888  0.24819429  1.0
  H  H93  1  0.99212401  0.59118872  0.75180607  1.0
  H  H94  1  0.99590596  0.53662304  0.31654144  1.0
  H  H95  1  0.00409607  0.46337568  0.68345967  1.0
  H  H96  1  0.79539043  0.47635954  0.15824721  1.0
  H  H97  1  0.20461317  0.52364310  0.84175301  1.0
  H  H98  1  0.80727064  0.34926143  0.09162777  1.0
  H  H99  1  0.19273057  0.65074008  0.90837255  1.0
  H  H100  1  0.94144103  0.61079433  0.38633668  1.0
  H  H101  1  0.05856273  0.38920888  0.61366518  1.0
  H  H102  1  0.88942350  0.96498194  0.84061254  1.0
  H  H103  1  0.11058425  0.03501291  0.15938824  1.0
  H  H104  1  0.88468353  0.88936839  0.71396681  1.0
  H  H105  1  0.11532378  0.11062868  0.28603299  1.0
  H  H106  1  0.88942597  0.08366072  0.68667522  1.0
  H  H107  1  0.11057989  0.91633859  0.31332898  1.0
  H  H108  1  0.90284108  0.16009189  0.81572188  1.0
  H  H109  1  0.09716582  0.83990742  0.18428293  1.0
  H  H110  1  0.82625303  0.82929941  0.60267790  1.0
  H  H111  1  0.17374803  0.17070155  0.39732308  1.0
  H  H112  1  0.81690463  0.75616504  0.47595137  1.0
  H  H113  1  0.18309449  0.24383646  0.52404864  1.0
  H  H114  1  0.92719807  0.95717066  0.47813766  1.0
  H  H115  1  0.07280210  0.04283085  0.52186296  1.0
  H  H116  1  0.93647311  0.02981716  0.60438563  1.0
  H  H117  1  0.06353026  0.97018269  0.39561568  1.0
  H  H118  1  0.96351796  0.84201817  0.33152107  1.0
  H  H119  1  0.03647686  0.15798276  0.66848404  1.0
  H  H120  1  0.75948238  0.87180385  0.37251751  1.0
  H  H121  1  0.24051257  0.12819763  0.62748326  1.0
  H  H122  1  0.93037638  0.73746305  0.45231567  1.0
  H  H123  1  0.06962431  0.26253845  0.54768458  1.0
  H  H124  1  0.83007962  0.59471118  0.18968039  1.0
  H  H125  1  0.16992683  0.40529036  0.81032162  1.0
  H  H126  1  0.81571735  0.71998150  0.25572496  1.0
  H  H127  1  0.18428571  0.28001722  0.74427447  1.0
  H  H128  1  0.76773620  0.10485743  0.22740742  1.0
  H  H129  1  0.23227373  0.89514917  0.77260134  1.0
  H  H130  1  0.77077959  0.03021681  0.28947867  1.0
  H  H131  1  0.22922660  0.96978753  0.71052722  1.0
  C  C132  1  0.67901128  0.28942204  0.17369346  1.0
  C  C133  1  0.32098750  0.71057832  0.82630052  1.0
  C  C134  1  0.67201281  0.36310478  0.22459358  1.0
  C  C135  1  0.32798807  0.63689950  0.77539869  1.0
  C  C136  1  0.60275210  0.37238536  0.22798970  1.0
  C  C137  1  0.39724683  0.62761947  0.77200114  1.0
  C  C138  1  0.59533083  0.44219012  0.27169320  1.0
  C  C139  1  0.40466541  0.55781247  0.72829768  1.0
  C  C140  1  0.65692094  0.50483643  0.31201258  1.0
  C  C141  1  0.34307672  0.49516560  0.68797965  1.0
  C  C142  1  0.72629037  0.49452536  0.31006360  1.0
  C  C143  1  0.27370677  0.50547667  0.68992993  1.0
  C  C144  1  0.73384669  0.42439559  0.26742392  1.0
  C  C145  1  0.26615203  0.57560645  0.73256984  1.0
  C  C146  1  0.64849029  0.58031075  0.35173079  1.0
  C  C147  1  0.35150845  0.41969130  0.64826619  1.0
  C  C148  1  0.59859618  0.59433690  0.39244246  1.0
  C  C149  1  0.40139539  0.40566006  0.60754676  1.0
  C  C150  1  0.68905930  0.64021973  0.34677410  1.0
  C  C151  1  0.31094415  0.35978796  0.65323325  1.0
  C  C152  1  0.61421616  0.10074225  0.20091842  1.0
  C  C153  1  0.38577834  0.89925195  0.79907465  1.0
  C  C154  1  0.61944608  0.05534414  0.23836468  1.0
  C  C155  1  0.38054768  0.94465117  0.76162921  1.0
  C  C156  1  0.61387371  0.97883915  0.20154336  1.0
  C  C157  1  0.38612313  0.02115786  0.79845260  1.0
  C  C158  1  0.61372282  0.93676168  0.23663745  1.0
  C  C159  1  0.38627216  0.06323420  0.76335961  1.0
  C  C160  1  0.61967495  0.96973231  0.30997645  1.0
  C  C161  1  0.38032229  0.03026805  0.69002097  1.0
  C  C162  1  0.62624293  0.04696237  0.34663701  1.0
  C  C163  1  0.37375446  0.95303855  0.65335975  1.0
  C  C164  1  0.62590907  0.08889971  0.31148020  1.0
  C  C165  1  0.37408597  0.91109841  0.68851413  1.0
  C  C166  1  0.61961052  0.92530797  0.34729484  1.0
  C  C167  1  0.38038687  0.07469296  0.65270376  1.0
  C  C168  1  0.58335862  0.84807067  0.31165713  1.0
  C  C169  1  0.41663416  0.15192856  0.68834330  1.0
  C  C170  1  0.58309889  0.80604211  0.34664449  1.0
  C  C171  1  0.41689571  0.19395993  0.65335968  1.0
  C  C172  1  0.65639496  0.95820352  0.42001760  1.0
  C  C173  1  0.34360385  0.04179686  0.57998144  1.0
  C  C174  1  0.65075011  0.07270718  0.97224833  1.0
  C  C175  1  0.34925231  0.92729490  0.02775470  1.0
  C  C176  1  0.64334680  0.02698831  0.89518778  1.0
  C  C177  1  0.35665533  0.97301265  0.10481611  1.0
  C  C178  1  0.57513331  0.99874506  0.84501293  1.0
  C  C179  1  0.42486919  0.00125534  0.15499078  1.0
  C  C180  1  0.56838181  0.95730018  0.77290053  1.0
  C  C181  1  0.43161664  0.04269685  0.22710256  1.0
  C  C182  1  0.62952869  0.94242594  0.74884424  1.0
  C  C183  1  0.37046787  0.05756996  0.25115626  1.0
  C  C184  1  0.69758155  0.97017185  0.79968688  1.0
  C  C185  1  0.30241628  0.02982293  0.20031288  1.0
  C  C186  1  0.70465384  0.01219632  0.87186529  1.0
  C  C187  1  0.29534795  0.98779961  0.12813506  1.0
  C  C188  1  0.62346111  0.90093709  0.67235046  1.0
  C  C189  1  0.37653352  0.09905935  0.32764999  1.0
  C  C190  1  0.57673216  0.91105979  0.62269096  1.0
  C  C191  1  0.42326233  0.08893610  0.37731199  1.0
  C  C192  1  0.57441109  0.87609714  0.55114640  1.0
  C  C193  1  0.42558169  0.12390209  0.44885495  1.0
  C  C194  1  0.61892190  0.82929978  0.52668999  1.0
  C  C195  1  0.38107305  0.17070169  0.47331077  1.0
  C  C196  1  0.66345376  0.81629500  0.57525186  1.0
  C  C197  1  0.33654184  0.18370313  0.42474760  1.0
  C  C198  1  0.66586871  0.85197873  0.64675765  1.0
  C  C199  1  0.33412410  0.14801491  0.35324136  1.0
  C  C200  1  0.61974765  0.83978666  0.41937246  1.0
  C  C201  1  0.38024820  0.16021427  0.58063050  1.0
  C  C202  1  0.65691235  0.91668516  0.45550714  1.0
  C  C203  1  0.34308288  0.08331352  0.54449204  1.0
  C  C204  1  0.67948485  0.71111582  0.38021677  1.0
  C  C205  1  0.32051658  0.28889018  0.61979233  1.0
  C  C206  1  0.58916222  0.66537718  0.42663100  1.0
  C  C207  1  0.41083262  0.33462205  0.57336515  1.0
  C  C208  1  0.43486614  0.07569494  0.01262971  1.0
  C  C209  1  0.56513548  0.92430433  0.98736653  1.0
  C  C210  1  0.45993681  0.15667232  0.13403336  1.0
  C  C211  1  0.54006570  0.84332249  0.86596389  1.0
  C  C212  1  0.38752574  0.15483907  0.12798341  1.0
  C  C213  1  0.61247588  0.84515629  0.87201394  1.0
  C  C214  1  0.33712111  0.11054650  0.06063855  1.0
  C  C215  1  0.66288126  0.88945166  0.93935870  1.0
  C  C216  1  0.36106033  0.07058521  0.00180134  1.0
  C  C217  1  0.63894166  0.92941350  0.99819380  1.0
  C  C218  1  0.16722071  0.13010883  0.08910319  1.0
  C  C219  1  0.83278228  0.86988376  0.91090053  1.0
  C  C220  1  0.73695288  0.21764443  0.96066742  1.0
  C  C221  1  0.26304315  0.78236487  0.03933449  1.0
  C  C222  1  0.61850302  0.19389339  0.88340840  1.0
  C  C223  1  0.38149436  0.80611144  0.11658542  1.0
  C  C224  1  0.72547765  0.17724079  0.83555213  1.0
  C  C225  1  0.27452390  0.82276966  0.16444923  1.0
  C  C226  1  0.62930196  0.72452552  0.42046748  1.0
  C  C227  1  0.37069703  0.27547543  0.57953594  1.0
  C  C228  1  0.04550921  0.09018992  0.01624406  1.0
  C  C229  1  0.95449266  0.90980824  0.98375725  1.0
  C  C230  1  0.11418327  0.07950855  0.02477383  1.0
  C  C231  1  0.88582001  0.92048515  0.97522811  1.0
  C  C232  1  0.07856857  0.19269291  0.12958057  1.0
  C  C233  1  0.92143361  0.80730247  0.87042374  1.0
  C  C234  1  0.14835573  0.18547472  0.14339713  1.0
  C  C235  1  0.85164643  0.81451675  0.85660646  1.0
  C  C236  1  0.85078330  0.11680067  0.14286056  1.0
  C  C237  1  0.14922181  0.88319975  0.85714400  1.0
  C  C238  1  0.85408115  0.07327329  0.18194195  1.0
  C  C239  1  0.14592645  0.92673050  0.81806392  1.0
  C  C240  1  0.90446577  0.03184663  0.17685472  1.0
  C  C241  1  0.09553814  0.96815322  0.82314805  1.0
  C  C242  1  0.90600816  0.98883975  0.21070015  1.0
  C  C243  1  0.09399455  0.01115954  0.78930312  1.0
  C  C244  1  0.85751245  0.98606011  0.25139573  1.0
  C  C245  1  0.14248945  0.01394197  0.74860676  1.0
  C  C246  1  0.85849124  0.93931164  0.28650320  1.0
  C  C247  1  0.14150737  0.06068986  0.71349903  1.0
  C  C248  1  0.91635729  0.90824535  0.29275890  1.0
  C  C249  1  0.08363893  0.09175502  0.70724251  1.0
  C  C250  1  0.80183778  0.92414714  0.31520236  1.0
  C  C251  1  0.19816055  0.07585715  0.68480053  1.0
  C  C252  1  0.91757300  0.29544733  0.12575777  1.0
  C  C253  1  0.08242378  0.70455136  0.87423981  1.0
  C  C254  1  0.90878701  0.37103804  0.16540333  1.0
  C  C255  1  0.09121465  0.62896124  0.83459795  1.0
  C  C256  1  0.96143271  0.42441951  0.22922619  1.0
  C  C257  1  0.03856708  0.57557864  0.77077664  1.0
  C  C258  1  0.95420784  0.49571479  0.26730796  1.0
  C  C259  1  0.04579465  0.50428561  0.73269392  1.0
  C  C260  1  0.84300201  0.46264812  0.17783106  1.0
  C  C261  1  0.15700076  0.53735340  0.82216766  1.0
  C  C262  1  0.84926284  0.39085814  0.14020038  1.0
  C  C263  1  0.15073807  0.60914225  0.85979988  1.0
  C  C264  1  0.88697305  0.59212153  0.28241883  1.0
  C  C265  1  0.11302861  0.40787775  0.71758291  1.0
  C  C266  1  0.91436939  0.63452706  0.35691649  1.0
  C  C267  1  0.08563391  0.36547446  0.64308459  1.0
  C  C268  1  0.90140807  0.11357821  0.91278452  1.0
  C  C269  1  0.09859493  0.88641828  0.08721809  1.0
  C  C270  1  0.89571714  0.06714249  0.83585402  1.0
  C  C271  1  0.10429056  0.93285403  0.16414836  1.0
  C  C272  1  0.89002853  0.99050620  0.80634754  1.0
  C  C273  1  0.10998156  0.00949146  0.19365520  1.0
  C  C274  1  0.88612942  0.94813389  0.73496632  1.0
  C  C275  1  0.11387799  0.05186542  0.26503719  1.0
  C  C276  1  0.88595404  0.98033009  0.68998622  1.0
  C  C277  1  0.11404956  0.01966864  0.31001604  1.0
  C  C278  1  0.89103908  0.05730503  0.72028735  1.0
  C  C279  1  0.10896872  0.94269373  0.27971782  1.0
  C  C280  1  0.89710204  0.10021373  0.79208601  1.0
  C  C281  1  0.10290799  0.89978560  0.20791835  1.0
  C  C282  1  0.88148437  0.93589949  0.61429374  1.0
  C  C283  1  0.11851796  0.06410035  0.38570788  1.0
  C  C284  1  0.84959689  0.85784049  0.57610246  1.0
  C  C285  1  0.15040140  0.14215988  0.42389696  1.0
  C  C286  1  0.84427269  0.81602523  0.50437127  1.0
  C  C287  1  0.15572769  0.18397515  0.49562846  1.0
  C  C288  1  0.87180340  0.85106627  0.46756727  1.0
  C  C289  1  0.12819684  0.14893355  0.53243312  1.0
  C  C290  1  0.90468807  0.92898500  0.50532971  1.0
  C  C291  1  0.09531284  0.07101539  0.49467009  1.0
  C  C292  1  0.90895033  0.97001294  0.57673815  1.0
  C  C293  1  0.09105042  0.02998689  0.42326232  1.0
  C  C294  1  0.86195442  0.85221854  0.35608973  1.0
  C  C295  1  0.13803976  0.14778013  0.64390975  1.0
  C  C296  1  0.91806826  0.86521608  0.32664277  1.0
  C  C297  1  0.08192551  0.13478484  0.67336034  1.0
  C  C298  1  0.80347766  0.88168201  0.34976354  1.0
  C  C299  1  0.19651630  0.11831777  0.65023409  1.0
  C  C300  1  0.87186080  0.73839104  0.35904573  1.0
  C  C301  1  0.12814146  0.26161048  0.64095566  1.0
  C  C302  1  0.90749546  0.70611485  0.39479546  1.0
  C  C303  1  0.09250680  0.29388666  0.60520547  1.0
  C  C304  1  0.85119492  0.62497566  0.24745119  1.0
  C  C305  1  0.14880645  0.37502641  0.75254984  1.0
  C  C306  1  0.84327988  0.69601656  0.28451799  1.0
  C  C307  1  0.15672432  0.30398440  0.71548207  1.0
  C  C308  1  0.80638016  0.07209333  0.22314874  1.0
  C  C309  1  0.19362977  0.92791327  0.77685956  1.0
  C  C310  1  0.89494507  0.51659766  0.24234274  1.0
  C  C311  1  0.10505844  0.48340275  0.75765700  1.0
  C  C312  1  0.80829659  0.02939724  0.25742475  1.0
  C  C313  1  0.19170849  0.97060877  0.74258260  1.0
  N  N314  1  0.48310603  0.11783117  0.07720219  1.0
  N  N315  1  0.51689656  0.88216587  0.92279416  1.0
  N  N316  1  0.26208819  0.10600911  0.04743012  1.0
  N  N317  1  0.73791577  0.89398907  0.95257012  1.0
  N  N318  1  0.24094824  0.13040658  0.10295849  1.0
  N  N319  1  0.75905735  0.86958601  0.89704286  1.0
  N  N320  1  0.02838174  0.14658902  0.06672876  1.0
  N  N321  1  0.97162244  0.85340804  0.93327287  1.0
  N  N322  1  0.69556236  0.19857503  0.89604891  1.0
  N  N323  1  0.30443594  0.80143316  0.10394736  1.0
  N  N324  1  0.61970589  0.79694944  0.45473638  1.0
  N  N325  1  0.38028959  0.20305204  0.54526538  1.0
  N  N326  1  0.86547237  0.81136540  0.39432201  1.0
  N  N327  1  0.13452219  0.18863272  0.60567776  1.0
  O  O328  1  0.61991983  0.23850315  0.13243474  1.0
  O  O329  1  0.38007747  0.76149554  0.86756200  1.0
  O  O330  1  0.74289562  0.28256666  0.17337728  1.0
  O  O331  1  0.25709980  0.71743089  0.82661825  1.0
  O  O332  1  0.61912653  0.06925441  0.13560510  1.0
  O  O333  1  0.38087472  0.93074541  0.86439040  1.0
  O  O334  1  0.71424765  0.09931569  0.01554727  1.0
  O  O335  1  0.28575497  0.90068526  0.98445073  1.0
  O  O336  1  0.59243136  0.08181566  0.99041319  1.0
  O  O337  1  0.40757121  0.91818698  0.00959010  1.0
  O  O338  1  0.60341860  0.16336201  0.23108043  1.0
  O  O339  1  0.39657156  0.83663160  0.76891039  1.0
  O  O340  1  0.71421526  0.23508302  0.01465714  1.0
  O  O341  1  0.28578196  0.76491734  0.98533799  1.0
  O  O342  1  0.81203253  0.16186811  0.15691531  1.0
  O  O343  1  0.18797123  0.83813118  0.84308858  1.0
  O  O344  1  0.86133606  0.23984166  0.07784396  1.0
  O  O345  1  0.13865971  0.76016093  0.92215648  1.0
  O  O346  1  0.97832048  0.28314537  0.13608743  1.0
  O  O347  1  0.02167693  0.71684996  0.86390517  1.0
  O  O348  1  0.88854670  0.07732074  0.94735864  1.0
  O  O349  1  0.11145340  0.92267853  0.05264470  1.0
  O  O350  1  0.88784020  0.10411250  0.09765323  1.0
  O  O351  1  0.11216718  0.89589241  0.90235354  1.0
  O  O352  1  0.91897434  0.18378344  0.94181256  1.0
  O  O353  1  0.08102955  0.81621250  0.05818948  1.0
