# generated using pymatgen
data_CdH8C12(NO2)2
_symmetry_space_group_name_H-M   'P 1'
_cell_length_a   6.84689030
_cell_length_b   15.53559198
_cell_length_c   15.53558300
_cell_angle_alpha   89.99234898
_cell_angle_beta   89.99996297
_cell_angle_gamma   89.99995972
_symmetry_Int_Tables_number   1
_chemical_formula_structural   CdH8C12(NO2)2
_chemical_formula_sum   'Cd4 H32 C48 N8 O16'
_cell_volume   1652.52762406
_cell_formula_units_Z   4
loop_
 _symmetry_equiv_pos_site_id
 _symmetry_equiv_pos_as_xyz
  1  'x, y, z'
loop_
 _atom_site_type_symbol
 _atom_site_label
 _atom_site_symmetry_multiplicity
 _atom_site_fract_x
 _atom_site_fract_y
 _atom_site_fract_z
 _atom_site_occupancy
  Cd  Cd0  1  0.24999853  0.26649661  0.26649713  1.0
  Cd  Cd1  1  0.74999999  0.73350324  0.73350338  1.0
  Cd  Cd2  1  0.99999995  0.76647128  0.23352828  1.0
  Cd  Cd3  1  0.50000074  0.23352785  0.76647216  1.0
  H  H4  1  0.83360363  0.30275990  0.20579268  1.0
  H  H5  1  0.33360364  0.69723993  0.79420780  1.0
  H  H6  1  0.58357740  0.70580212  0.19726983  1.0
  H  H7  1  0.08357804  0.29419715  0.80273009  1.0
  H  H8  1  0.91642051  0.19726994  0.70580219  1.0
  H  H9  1  0.41642108  0.80273050  0.29419698  1.0
  H  H10  1  0.16639634  0.79420830  0.69723943  1.0
  H  H11  1  0.66639488  0.20579158  0.30276046  1.0
  H  H12  1  0.61107643  0.29498116  0.07836255  1.0
  H  H13  1  0.11107770  0.70501809  0.92163800  1.0
  H  H14  1  0.36117288  0.57832339  0.20501223  1.0
  H  H15  1  0.86117329  0.42167643  0.79498825  1.0
  H  H16  1  0.13882671  0.20501243  0.57832411  1.0
  H  H17  1  0.63882707  0.79498810  0.42167579  1.0
  H  H18  1  0.38892207  0.92163900  0.70501817  1.0
  H  H19  1  0.88892229  0.07836210  0.29498230  1.0
  H  H20  1  0.09604500  0.19798505  0.92980158  1.0
  H  H21  1  0.59604439  0.80201614  0.07019768  1.0
  H  H22  1  0.84614784  0.42977792  0.30203485  1.0
  H  H23  1  0.34614819  0.57022191  0.69796563  1.0
  H  H24  1  0.65385179  0.30203434  0.42977791  1.0
  H  H25  1  0.15385359  0.69796490  0.57022262  1.0
  H  H26  1  0.90395211  0.07019788  0.80201563  1.0
  H  H27  1  0.40395553  0.92980193  0.19798419  1.0
  H  H28  1  0.30104234  0.20814941  0.06235612  1.0
  H  H29  1  0.80104486  0.79185043  0.93764502  1.0
  H  H30  1  0.05110945  0.56235880  0.29180571  1.0
  H  H31  1  0.55110849  0.43764047  0.70819422  1.0
  H  H32  1  0.44889004  0.29180576  0.56235878  1.0
  H  H33  1  0.94889197  0.70819403  0.43764167  1.0
  H  H34  1  0.69895617  0.93764413  0.79185062  1.0
  H  H35  1  0.19895805  0.06235509  0.20814926  1.0
  C  C36  1  0.88653137  0.27932558  0.14392723  1.0
  C  C37  1  0.38652979  0.72067359  0.85607259  1.0
  C  C38  1  0.63652994  0.64392263  0.22066091  1.0
  C  C39  1  0.13652905  0.35607726  0.77933835  1.0
  C  C40  1  0.86346949  0.22066103  0.64392269  1.0
  C  C41  1  0.36347001  0.77933879  0.35607714  1.0
  C  C42  1  0.11346859  0.85607307  0.72067311  1.0
  C  C43  1  0.61346873  0.14392683  0.27932679  1.0
  C  C44  1  0.76285484  0.27472734  0.07320926  1.0
  C  C45  1  0.26285607  0.72527186  0.92679060  1.0
  C  C46  1  0.51298194  0.57318349  0.22522679  1.0
  C  C47  1  0.01298386  0.42681708  0.77477250  1.0
  C  C48  1  0.98701614  0.22522751  0.57318347  1.0
  C  C49  1  0.48701656  0.77477227  0.42681697  1.0
  C  C50  1  0.23714366  0.92679164  0.72527136  1.0
  C  C51  1  0.73714392  0.07320950  0.27472851  1.0
  C  C52  1  0.83619552  0.24465342  0.99483744  1.0
  C  C53  1  0.33619659  0.75534834  0.00516240  1.0
  C  C54  1  0.58636420  0.49481111  0.25530684  1.0
  C  C55  1  0.08636458  0.50518815  0.74469243  1.0
  C  C56  1  0.91363541  0.25530757  0.49481171  1.0
  C  C57  1  0.41363869  0.74469223  0.50518811  1.0
  C  C58  1  0.16380159  0.00516336  0.75534722  1.0
  C  C59  1  0.66380480  0.99483781  0.24465267  1.0
  C  C60  1  0.03295206  0.22047840  0.99019048  1.0
  C  C61  1  0.53295158  0.77952281  0.00981073  1.0
  C  C62  1  0.78306078  0.49015499  0.27950898  1.0
  C  C63  1  0.28306411  0.50984486  0.72049087  1.0
  C  C64  1  0.71693588  0.27950911  0.49015500  1.0
  C  C65  1  0.21693919  0.72049075  0.50984487  1.0
  C  C66  1  0.96704505  0.00980965  0.77952162  1.0
  C  C67  1  0.46704689  0.99019013  0.22047754  1.0
  C  C68  1  0.14703518  0.22606044  0.06413344  1.0
  C  C69  1  0.64703481  0.77394073  0.93586710  1.0
  C  C70  1  0.89708913  0.56411197  0.27389626  1.0
  C  C71  1  0.39708965  0.43588784  0.72610356  1.0
  C  C72  1  0.60290888  0.27389642  0.56411206  1.0
  C  C73  1  0.10290937  0.72610347  0.43588785  1.0
  C  C74  1  0.85296186  0.93586681  0.77394022  1.0
  C  C75  1  0.35296371  0.06413237  0.22605961  1.0
  C  C76  1  0.70551728  0.23993013  0.91722820  1.0
  C  C77  1  0.20551530  0.76006974  0.08277168  1.0
  C  C78  1  0.45570056  0.41721801  0.26007787  1.0
  C  C79  1  0.95570078  0.58278178  0.73992129  1.0
  C  C80  1  0.04429920  0.26007807  0.41721803  1.0
  C  C81  1  0.54430233  0.73992120  0.58278061  1.0
  C  C82  1  0.29448274  0.08277255  0.76006924  1.0
  C  C83  1  0.79448609  0.91722793  0.23992997  1.0
  N  N84  1  0.07520395  0.25475918  0.13965236  1.0
  N  N85  1  0.57520666  0.74523944  0.86034820  1.0
  N  N86  1  0.82522435  0.63964176  0.24522220  1.0
  N  N87  1  0.32522203  0.36035872  0.75477700  1.0
  N  N88  1  0.67477651  0.24522236  0.63964187  1.0
  N  N89  1  0.17477706  0.75477687  0.36035866  1.0
  N  N90  1  0.92479309  0.86034858  0.74523954  1.0
  N  N91  1  0.42479478  0.13965122  0.25475963  1.0
  O  O92  1  0.52254953  0.24567952  0.92706268  1.0
  O  O93  1  0.02254758  0.75432105  0.07293725  1.0
  O  O94  1  0.27273866  0.42708995  0.25431627  1.0
  O  O95  1  0.77273889  0.57290989  0.74568359  1.0
  O  O96  1  0.22726109  0.25431578  0.42709056  1.0
  O  O97  1  0.72726276  0.74568409  0.57290866  1.0
  O  O98  1  0.47745049  0.07293743  0.75432048  1.0
  O  O99  1  0.97745381  0.92706300  0.24567932  1.0
  O  O100  1  0.78865581  0.23097044  0.84377676  1.0
  O  O101  1  0.28865371  0.76903004  0.15622374  1.0
  O  O102  1  0.53873977  0.34375254  0.26910850  1.0
  O  O103  1  0.03873847  0.65624802  0.73089143  1.0
  O  O104  1  0.96126151  0.26910792  0.34375240  1.0
  O  O105  1  0.46126459  0.73089187  0.65624676  1.0
  O  O106  1  0.21134421  0.15622395  0.76903021  1.0
  O  O107  1  0.71134622  0.84377592  0.23097031  1.0
