# generated using pymatgen
data_Zn2H29C36N8F3
_symmetry_space_group_name_H-M   'P 1'
_cell_length_a   14.46325156
_cell_length_b   15.40190333
_cell_length_c   17.13541544
_cell_angle_alpha   107.21797144
_cell_angle_beta   102.15140478
_cell_angle_gamma   113.06796231
_symmetry_Int_Tables_number   1
_chemical_formula_structural   Zn2H29C36N8F3
_chemical_formula_sum   'Zn4 H58 C72 N16 F6'
_cell_volume   3114.44180958
_cell_formula_units_Z   2
loop_
 _symmetry_equiv_pos_site_id
 _symmetry_equiv_pos_as_xyz
  1  'x, y, z'
loop_
 _atom_site_type_symbol
 _atom_site_label
 _atom_site_symmetry_multiplicity
 _atom_site_fract_x
 _atom_site_fract_y
 _atom_site_fract_z
 _atom_site_occupancy
  Zn  Zn0  1  0.52804551  0.86337352  0.90816375  1.0
  Zn  Zn1  1  0.45413187  0.15974090  0.13021958  1.0
  Zn  Zn2  1  0.62794375  0.11745288  0.00787538  1.0
  Zn  Zn3  1  0.33447967  0.94112412  0.00601867  1.0
  H  H4  1  0.72382009  0.84430889  0.97045474  1.0
  H  H5  1  0.27129414  0.11289575  0.96668112  1.0
  H  H6  1  0.25395680  0.22294285  0.13744902  1.0
  H  H7  1  0.12141183  0.73218076  0.85851071  1.0
  H  H8  1  0.53926039  0.18629940  0.87888859  1.0
  H  H9  1  0.44195788  0.41295426  0.78001817  1.0
  H  H10  1  0.27064811  0.30347013  0.04414765  1.0
  H  H11  1  0.55522282  0.13437810  0.31332346  1.0
  H  H12  1  0.41336813  0.35767384  0.09763822  1.0
  H  H13  1  0.29690677  0.47476633  0.04920063  1.0
  H  H14  1  0.43954727  0.52937980  0.10307841  1.0
  H  H15  1  0.75173073  0.14313783  0.70177276  1.0
  H  H16  1  0.41100740  0.75724016  0.39106879  1.0
  H  H17  1  0.76059377  0.15956343  0.56454603  1.0
  H  H18  1  0.75486027  0.37812837  0.44320522  1.0
  H  H19  1  0.81067072  0.22549000  0.18864615  1.0
  H  H20  1  0.97038805  0.38683086  0.30248634  1.0
  H  H21  1  0.83116387  0.46633359  0.60677661  1.0
  H  H22  1  0.12847508  0.49044290  0.44270578  1.0
  H  H23  1  0.98905013  0.58799938  0.74419885  1.0
  H  H24  1  0.04525313  0.15076427  0.04980311  1.0
  H  H25  1  0.16177073  0.16551019  0.94821391  1.0
  H  H26  1  0.77754028  0.93689397  0.71819695  1.0
  H  H27  1  0.80555465  0.83204430  0.68049844  1.0
  H  H28  1  0.71179840  0.87713522  0.82233196  1.0
  H  H29  1  0.41722641  0.63547770  0.04088975  1.0
  H  H30  1  0.63529007  0.37139727  0.29303133  1.0
  H  H31  1  0.49585848  0.60669982  0.80705697  1.0
  H  H32  1  0.45283388  0.83197487  0.10963105  1.0
  H  H33  1  0.35444782  0.72342420  0.73930102  1.0
  H  H34  1  0.89284844  0.67241790  0.93445404  1.0
  H  H35  1  0.96715641  0.64381317  0.87077878  1.0
  H  H36  1  0.97745075  0.62099863  0.96682338  1.0
  H  H37  1  0.14227782  0.78510405  0.00213005  1.0
  H  H38  1  0.06458102  0.81395201  0.06069961  1.0
  H  H39  1  0.97693791  0.85313331  0.94015249  1.0
  H  H40  1  0.06577640  0.83912903  0.88900483  1.0
  H  H41  1  0.22008951  0.65490375  0.05912217  1.0
  H  H42  1  0.17164096  0.58640624  0.12149345  1.0
  H  H43  1  0.11378081  0.66051952  0.09294626  1.0
  H  H44  1  0.23983197  0.75963476  0.25061796  1.0
  H  H45  1  0.29169197  0.82556268  0.18856427  1.0
  H  H46  1  0.41157951  0.74147800  0.17845590  1.0
  H  H47  1  0.35827600  0.67863548  0.24152992  1.0
  H  H48  1  0.71808784  0.55572893  0.79044583  1.0
  H  H49  1  0.64153935  0.52231029  0.68037512  1.0
  H  H50  1  0.76921960  0.52672768  0.70645012  1.0
  H  H51  1  0.78630382  0.68599622  0.68609399  1.0
  H  H52  1  0.86219244  0.72016894  0.79535382  1.0
  H  H53  1  0.70330560  0.72021539  0.83738309  1.0
  H  H54  1  0.63490115  0.69540679  0.72862125  1.0
  H  H55  1  0.00203005  0.42281538  0.10784784  1.0
  H  H56  1  0.96950942  0.37398070  0.99220038  1.0
  H  H57  1  0.89790238  0.43116077  0.03976979  1.0
  H  H58  1  0.78585476  0.23707039  0.96799197  1.0
  H  H59  1  0.81723793  0.28811475  0.08329002  1.0
  H  H60  1  0.96883462  0.24582108  0.10449390  1.0
  H  H61  1  0.94113408  0.19985923  0.99088510  1.0
  C  C62  1  0.74738119  0.92604359  0.99006373  1.0
  C  C63  1  0.51462820  0.96735109  0.24267443  1.0
  C  C64  1  0.76111899  0.32271570  0.27836130  1.0
  C  C65  1  0.44104007  0.57235842  0.91410029  1.0
  C  C66  1  0.31123897  0.74017222  0.78103413  1.0
  C  C67  1  0.34457004  0.12374738  0.95436232  1.0
  C  C68  1  0.63394807  0.07367533  0.80053443  1.0
  C  C69  1  0.13875766  0.97235305  0.01233337  1.0
  C  C70  1  0.22773300  0.14132881  0.10035564  1.0
  C  C71  1  0.56161047  0.90712669  0.74789367  1.0
  C  C72  1  0.19217808  0.74343233  0.84199276  1.0
  C  C73  1  0.52381341  0.06526533  0.25317537  1.0
  C  C74  1  0.47987104  0.15875228  0.90763878  1.0
  C  C75  1  0.19953682  0.68877670  0.76406782  1.0
  C  C76  1  0.39381459  0.17964773  0.91039527  1.0
  C  C77  1  0.60140905  0.98799217  0.72114946  1.0
  C  C78  1  0.12548609  0.06171732  0.03789011  1.0
  C  C79  1  0.37859958  0.42811447  0.96036850  1.0
  C  C80  1  0.41115551  0.46591912  0.90027618  1.0
  C  C81  1  0.41959741  0.39385166  0.83207487  1.0
  C  C82  1  0.40543093  0.29879041  0.83153702  1.0
  C  C83  1  0.38018314  0.26321988  0.89519802  1.0
  C  C84  1  0.75461668  0.25390413  0.19979706  1.0
  C  C85  1  0.36385620  0.33230088  0.95756307  1.0
  C  C86  1  0.35025792  0.35374387  0.04564724  1.0
  C  C87  1  0.36667075  0.46216768  0.04877012  1.0
  C  C88  1  0.61029739  0.98979898  0.63838793  1.0
  C  C89  1  0.53383080  0.93918748  0.31718382  1.0
  C  C90  1  0.46779689  0.83053834  0.39311251  1.0
  C  C91  1  0.46300243  0.84118132  0.31525145  1.0
  C  C92  1  0.61349909  0.01473883  0.39843511  1.0
  C  C93  1  0.62141856  0.00720442  0.47940133  1.0
  C  C94  1  0.54199791  0.91298723  0.47593912  1.0
  C  C95  1  0.44195198  0.64644037  0.98742166  1.0
  C  C96  1  0.53929915  0.90899398  0.55673910  1.0
  C  C97  1  0.69266065  0.07977072  0.63858814  1.0
  C  C98  1  0.69825939  0.08901933  0.56209645  1.0
  C  C99  1  0.85136481  0.37804619  0.36318397  1.0
  C  C100  1  0.10925722  0.60533991  0.68415463  1.0
  C  C101  1  0.91267918  0.49525504  0.60584365  1.0
  C  C102  1  0.00114293  0.56335412  0.68242333  1.0
  C  C103  1  0.12037465  0.56680625  0.60468884  1.0
  C  C104  1  0.03272070  0.49790069  0.52371194  1.0
  C  C105  1  0.92526602  0.46383793  0.52385951  1.0
  C  C106  1  0.66473171  0.32700902  0.25357683  1.0
  C  C107  1  0.83646927  0.40374763  0.44257264  1.0
  C  C108  1  0.95848247  0.40803355  0.36474571  1.0
  C  C109  1  0.04684797  0.46599001  0.44257472  1.0
  C  C110  1  0.88189885  0.92325067  0.87428444  1.0
  C  C111  1  0.92178834  0.99681200  0.96026951  1.0
  C  C112  1  0.03637940  0.08248668  0.99781791  1.0
  C  C113  1  0.07630192  0.10842056  0.92264180  1.0
  C  C114  1  0.01664297  0.04568804  0.83838023  1.0
  C  C115  1  0.92243694  0.95634404  0.81177749  1.0
  C  C116  1  0.81152357  0.89121373  0.73915570  1.0
  C  C117  1  0.48225000  0.63052623  0.86800471  1.0
  C  C118  1  0.76765228  0.85018948  0.80476217  1.0
  C  C119  1  0.46927756  0.90914198  0.15070139  1.0
  C  C120  1  0.82841468  0.09640224  0.02521657  1.0
  C  C121  1  0.84293174  0.00753886  0.99754595  1.0
  C  C122  1  0.05796999  0.86080979  0.95377883  1.0
  C  C123  1  0.06470650  0.78530787  0.99377470  1.0
  C  C124  1  0.97076216  0.67475812  0.93868894  1.0
  C  C125  1  0.37836524  0.74977138  0.23060596  1.0
  C  C126  1  0.27329577  0.75403966  0.19837478  1.0
  C  C127  1  0.19016375  0.65892951  0.11336239  1.0
  C  C128  1  0.71630228  0.73330514  0.77973729  1.0
  C  C129  1  0.77885830  0.67963928  0.74707274  1.0
  C  C130  1  0.72417785  0.56498155  0.73017311  1.0
  C  C131  1  0.90216221  0.20551836  0.03952212  1.0
  C  C132  1  0.85190981  0.27533348  0.03254664  1.0
  C  C133  1  0.93492716  0.38163777  0.04356339  1.0
  N  N134  1  0.67879482  0.96067009  0.00929447  1.0
  N  N135  1  0.40183734  0.07834564  0.98204508  1.0
  N  N136  1  0.61704079  0.04837731  0.86567244  1.0
  N  N137  1  0.24291651  0.99967500  0.05508237  1.0
  N  N138  1  0.29797276  0.10449981  0.10991327  1.0
  N  N139  1  0.57098689  0.94122919  0.83191606  1.0
  N  N140  1  0.29120361  0.82027122  0.89995515  1.0
  N  N141  1  0.48445660  0.09974388  0.95097821  1.0
  N  N142  1  0.48507392  0.06385628  0.17461562  1.0
  N  N143  1  0.66276153  0.22029782  0.13346801  1.0
  N  N144  1  0.48054928  0.73995103  0.98639224  1.0
  N  N145  1  0.60595451  0.26610199  0.16616987  1.0
  N  N146  1  0.50582576  0.72991355  0.91245134  1.0
  N  N147  1  0.45153539  0.96800213  0.11075614  1.0
  N  N148  1  0.73001666  0.06577869  0.03162502  1.0
  N  N149  1  0.36517968  0.81838924  0.86222009  1.0
  F  F150  1  0.67612090  0.17502787  0.81458672  1.0
  F  F151  1  0.52175252  0.80441222  0.70168469  1.0
  F  F152  1  0.42225074  0.23719006  0.76598008  1.0
  F  F153  1  0.45767201  0.82161442  0.55209426  1.0
  F  F154  1  0.68750113  0.10722024  0.40322990  1.0
  F  F155  1  0.22183939  0.60081666  0.60182914  1.0
