# generated using pymatgen
data_ZnH5(C5O2)3
_symmetry_space_group_name_H-M   'P 1'
_cell_length_a   16.53520004
_cell_length_b   16.92328385
_cell_length_c   17.03678637
_cell_angle_alpha   113.00962607
_cell_angle_beta   118.29983343
_cell_angle_gamma   96.27102911
_symmetry_Int_Tables_number   1
_chemical_formula_structural   ZnH5(C5O2)3
_chemical_formula_sum   'Zn6 H30 C90 O36'
_cell_volume   3599.42116540
_cell_formula_units_Z   6
loop_
 _symmetry_equiv_pos_site_id
 _symmetry_equiv_pos_as_xyz
  1  'x, y, z'
loop_
 _atom_site_type_symbol
 _atom_site_label
 _atom_site_symmetry_multiplicity
 _atom_site_fract_x
 _atom_site_fract_y
 _atom_site_fract_z
 _atom_site_occupancy
  Zn  Zn0  1  0.97579877  0.98656245  0.55541482  1.0
  Zn  Zn1  1  0.02402600  0.01310736  0.44437340  1.0
  Zn  Zn2  1  0.58134389  0.99907365  0.56394099  1.0
  Zn  Zn3  1  0.41878028  0.00110711  0.43608572  1.0
  Zn  Zn4  1  0.98033010  0.42223401  0.99358466  1.0
  Zn  Zn5  1  0.01971831  0.57776753  0.00646834  1.0
  H  H6  1  0.94024068  0.63015254  0.66875540  1.0
  H  H7  1  0.61549831  0.65659267  0.76602282  1.0
  H  H8  1  0.70098599  0.06822226  0.98916381  1.0
  H  H9  1  0.29900364  0.93203068  0.01075380  1.0
  H  H10  1  0.98067632  0.25880089  0.72557638  1.0
  H  H11  1  0.01923891  0.74082876  0.27438865  1.0
  H  H12  1  0.69524098  0.93435819  0.40038149  1.0
  H  H13  1  0.30460372  0.06564469  0.59945334  1.0
  H  H14  1  0.72786941  0.28295879  0.74758725  1.0
  H  H15  1  0.27251052  0.71734885  0.25255932  1.0
  H  H16  1  0.86509797  0.58060293  0.73026712  1.0
  H  H17  1  0.05992076  0.36962347  0.33143464  1.0
  H  H18  1  0.13511721  0.41923057  0.26997974  1.0
  H  H19  1  0.79344415  0.88367841  0.09330052  1.0
  H  H20  1  0.20640279  0.11641228  0.90651346  1.0
  H  H21  1  0.50790200  0.16954693  0.31489203  1.0
  H  H22  1  0.49211101  0.83051691  0.68515444  1.0
  H  H23  1  0.12658499  0.85728709  0.70016628  1.0
  H  H24  1  0.87327243  0.14254159  0.29980589  1.0
  H  H25  1  0.30411979  0.36000789  0.09784181  1.0
  H  H26  1  0.69575365  0.64002941  0.90214425  1.0
  H  H27  1  0.72071506  0.15370764  0.92287682  1.0
  H  H28  1  0.70905655  0.95549910  0.01899562  1.0
  H  H29  1  0.27922014  0.84645423  0.07697748  1.0
  H  H30  1  0.29094747  0.04475125  0.98099277  1.0
  H  H31  1  0.45731335  0.28547586  0.30501883  1.0
  H  H32  1  0.54257818  0.71452904  0.69499465  1.0
  H  H33  1  0.05063340  0.72489671  0.67858940  1.0
  H  H34  1  0.94933098  0.27490563  0.32147709  1.0
  H  H35  1  0.38430852  0.34341537  0.23394137  1.0
  C  C36  1  0.95442010  0.56592332  0.64924632  1.0
  C  C37  1  0.61441553  0.58954282  0.71992193  1.0
  C  C38  1  0.62291902  0.05840533  0.94511875  1.0
  C  C39  1  0.37706875  0.94185796  0.05483141  1.0
  C  C40  1  0.18290367  0.05609400  0.64909621  1.0
  C  C41  1  0.81694838  0.94378421  0.35069289  1.0
  C  C42  1  0.42139737  0.83216633  0.44600135  1.0
  C  C43  1  0.57897265  0.16800971  0.55418134  1.0
  C  C44  1  0.01521476  0.57456413  0.17485383  1.0
  C  C45  1  0.98473521  0.42499202  0.82517425  1.0
  C  C46  1  0.81525056  0.45897057  0.87176921  1.0
  C  C47  1  0.04573329  0.43385452  0.35093784  1.0
  C  C48  1  0.18491358  0.54144824  0.12829557  1.0
  C  C49  1  0.52575588  0.94404764  0.35070146  1.0
  C  C50  1  0.47408755  0.05611203  0.64912423  1.0
  C  C51  1  0.98248016  0.16002468  0.56335666  1.0
  C  C52  1  0.01739210  0.83965017  0.43658642  1.0
  C  C53  1  0.93289544  0.51081901  0.68371712  1.0
  C  C54  1  0.06723722  0.48894913  0.31645466  1.0
  C  C55  1  0.70563741  0.92552295  0.12793934  1.0
  C  C56  1  0.29431006  0.07466919  0.87198871  1.0
  C  C57  1  0.54041553  0.27575714  0.43869310  1.0
  C  C58  1  0.67452399  0.95860486  0.06070659  1.0
  C  C59  1  0.45961792  0.72433231  0.56134594  1.0
  C  C60  1  0.06370216  0.74628771  0.56923577  1.0
  C  C61  1  0.93626992  0.25346566  0.43080728  1.0
  C  C62  1  0.33454000  0.45222296  0.22839197  1.0
  C  C63  1  0.66539895  0.54785895  0.77160962  1.0
  C  C64  1  0.59028993  0.09007765  0.87668446  1.0
  C  C65  1  0.40966284  0.91014246  0.12322379  1.0
  C  C66  1  0.97696616  0.44332465  0.53553951  1.0
  C  C67  1  0.02316948  0.55646386  0.46462712  1.0
  C  C68  1  0.53311038  0.96677544  0.07018027  1.0
  C  C69  1  0.32546874  0.04164178  0.93927146  1.0
  C  C70  1  0.46690562  0.03351411  0.92981100  1.0
  C  C71  1  0.55240800  0.45622230  0.55284500  1.0
  C  C72  1  0.44750196  0.54381846  0.44714280  1.0
  C  C73  1  0.98752803  0.40501023  0.45175518  1.0
  C  C74  1  0.01256537  0.59476694  0.54839121  1.0
  C  C75  1  0.43977361  0.97711264  0.03186708  1.0
  C  C76  1  0.56024880  0.02319201  0.96813586  1.0
  C  C77  1  0.55840797  0.54708725  0.61059005  1.0
  C  C78  1  0.44147359  0.45293787  0.38940256  1.0
  C  C79  1  0.01588055  0.46304369  0.41982482  1.0
  C  C80  1  0.49378067  0.32002280  0.38854529  1.0
  C  C81  1  0.98426336  0.53674403  0.58035704  1.0
  C  C82  1  0.50555877  0.59114758  0.55752437  1.0
  C  C83  1  0.49432018  0.40887547  0.44246428  1.0
  C  C84  1  0.40871811  0.01458795  0.96518664  1.0
  C  C85  1  0.59129836  0.98570035  0.03480203  1.0
  C  C86  1  0.95461034  0.42741561  0.66370754  1.0
  C  C87  1  0.04542820  0.57231308  0.33637909  1.0
  C  C88  1  0.66528019  0.93176640  0.18808744  1.0
  C  C89  1  0.33466907  0.06839682  0.81184256  1.0
  C  C90  1  0.58930755  0.31710624  0.54836418  1.0
  C  C91  1  0.50614614  0.68001420  0.61147584  1.0
  C  C92  1  0.41079975  0.68300845  0.45168717  1.0
  C  C93  1  0.04473530  0.70533842  0.46735777  1.0
  C  C94  1  0.95524515  0.29439010  0.53268110  1.0
  C  C95  1  0.33289251  0.54084420  0.28292384  1.0
  C  C96  1  0.66713550  0.45928848  0.71707689  1.0
  C  C97  1  0.48685270  0.07431084  0.81353150  1.0
  C  C98  1  0.51309618  0.92589106  0.18637815  1.0
  C  C99  1  0.96416450  0.38028621  0.71909769  1.0
  C  C100  1  0.03578457  0.61937348  0.28092587  1.0
  C  C101  1  0.71024668  0.92847408  0.28090660  1.0
  C  C102  1  0.03996633  0.69182028  0.60324594  1.0
  C  C103  1  0.28963881  0.07156752  0.71895141  1.0
  C  C104  1  0.62491571  0.26925356  0.60186763  1.0
  C  C105  1  0.37534822  0.73092561  0.39823387  1.0
  C  C106  1  0.03661361  0.75155883  0.41138599  1.0
  C  C107  1  0.96333289  0.24814492  0.58861760  1.0
  C  C108  1  0.27844709  0.58571047  0.23373651  1.0
  C  C109  1  0.72172748  0.41453240  0.76631173  1.0
  C  C110  1  0.43882498  0.07385601  0.71879472  1.0
  C  C111  1  0.56108000  0.92628115  0.28108225  1.0
  C  C112  1  0.96907158  0.29268719  0.68052329  1.0
  C  C113  1  0.96003967  0.30795902  0.39683756  1.0
  C  C114  1  0.03085948  0.70697056  0.31946998  1.0
  C  C115  1  0.65755365  0.92870584  0.32509579  1.0
  C  C116  1  0.34232554  0.07135115  0.67476494  1.0
  C  C117  1  0.69417936  0.31923777  0.70809302  1.0
  C  C118  1  0.30609897  0.68100278  0.29201193  1.0
  C  C119  1  0.96175271  0.38833799  0.57684548  1.0
  C  C120  1  0.03831335  0.61141564  0.42326192  1.0
  C  C121  1  0.57012872  0.94047514  0.14734580  1.0
  C  C122  1  0.42985182  0.05976234  0.85260101  1.0
  C  C123  1  0.60377270  0.41158345  0.60615402  1.0
  C  C124  1  0.38544948  0.41049532  0.28006530  1.0
  C  C125  1  0.39622817  0.58850935  0.39385620  1.0
  O  O126  1  0.11974556  0.02756195  0.66419132  1.0
  O  O127  1  0.55125168  0.03586306  0.67213436  1.0
  O  O128  1  0.02226556  0.14143890  0.51357253  1.0
  O  O129  1  0.97757413  0.85821793  0.48634159  1.0
  O  O130  1  0.96161549  0.11107760  0.59782771  1.0
  O  O131  1  0.03823305  0.88859514  0.40209850  1.0
  O  O132  1  0.58117629  0.94354476  0.43415829  1.0
  O  O133  1  0.41859241  0.05658645  0.56566574  1.0
  O  O134  1  0.83688948  0.40756491  0.91137443  1.0
  O  O135  1  0.16334195  0.59299842  0.08888809  1.0
  O  O136  1  0.03203272  0.62795009  0.14302306  1.0
  O  O137  1  0.88012549  0.97222385  0.33557382  1.0
  O  O138  1  0.96783736  0.37153896  0.85692536  1.0
  O  O139  1  0.36768076  0.87341191  0.40732294  1.0
  O  O140  1  0.63272680  0.12680350  0.59289678  1.0
  O  O141  1  0.16184356  0.06691429  0.57235658  1.0
  O  O142  1  0.83798734  0.93287400  0.42737247  1.0
  O  O143  1  0.88434695  0.52834738  0.73086634  1.0
  O  O144  1  0.11583986  0.47146684  0.26935503  1.0
  O  O145  1  0.76995750  0.88019989  0.13500824  1.0
  O  O146  1  0.22990430  0.11990016  0.86481784  1.0
  O  O147  1  0.54739698  0.19385438  0.38918829  1.0
  O  O148  1  0.51361468  0.86786876  0.51566197  1.0
  O  O149  1  0.45269673  0.80627039  0.61086693  1.0
  O  O150  1  0.11154417  0.83928432  0.63160337  1.0
  O  O151  1  0.88838202  0.16048239  0.36838186  1.0
  O  O152  1  0.28889633  0.41443503  0.12420476  1.0
  O  O153  1  0.71100684  0.58562463  0.87578336  1.0
  O  O154  1  0.65337961  0.14264083  0.87098155  1.0
  O  O155  1  0.34656057  0.85750900  0.12885297  1.0
  O  O156  1  0.48675590  0.13227330  0.48454419  1.0
  O  O157  1  0.97885407  0.48691707  0.12152386  1.0
  O  O158  1  0.02119968  0.51260757  0.87860251  1.0
  O  O159  1  0.87266761  0.54016439  0.90993668  1.0
  O  O160  1  0.12743731  0.46023970  0.09000922  1.0
  O  O161  1  0.44860772  0.96433283  0.32767040  1.0
