# generated using pymatgen
data_AlH11C14N4O5
_symmetry_space_group_name_H-M   'P 1'
_cell_length_a   6.68899594
_cell_length_b   16.88203273
_cell_length_c   16.88210365
_cell_angle_alpha   84.91200924
_cell_angle_beta   83.85642001
_cell_angle_gamma   83.85810268
_symmetry_Int_Tables_number   1
_chemical_formula_structural   AlH11C14N4O5
_chemical_formula_sum   'Al2 H22 C28 N8 O10'
_cell_volume   1878.80272665
_cell_formula_units_Z   2
loop_
 _symmetry_equiv_pos_site_id
 _symmetry_equiv_pos_as_xyz
  1  'x, y, z'
loop_
 _atom_site_type_symbol
 _atom_site_label
 _atom_site_symmetry_multiplicity
 _atom_site_fract_x
 _atom_site_fract_y
 _atom_site_fract_z
 _atom_site_occupancy
  Al  Al0  1  0.50058941  0.50187348  0.49640196  1.0
  Al  Al1  1  0.99941008  0.50359439  0.49812282  1.0
  H  H2  1  0.74999014  0.42389138  0.57610912  1.0
  H  H3  1  0.25001301  0.58091778  0.41908215  1.0
  H  H4  1  0.38776449  0.73960119  0.46130346  1.0
  H  H5  1  0.31657723  0.88887447  0.45970622  1.0
  H  H6  1  0.90407334  0.90125215  0.53655979  1.0
  H  H7  1  0.07128141  0.09924535  0.53080548  1.0
  H  H8  1  0.69748450  0.12152308  0.45315449  1.0
  H  H9  1  0.62658543  0.27108641  0.45128505  1.0
  H  H10  1  0.87341014  0.54870945  0.72891389  1.0
  H  H11  1  0.80250684  0.54684546  0.87847629  1.0
  H  H12  1  0.42870743  0.46920412  0.90074944  1.0
  H  H13  1  0.59592564  0.46343420  0.09875436  1.0
  H  H14  1  0.18342736  0.54029738  0.11111684  1.0
  H  H15  1  0.11224833  0.53869823  0.26039050  1.0
  H  H16  1  0.04805008  0.68671642  0.54197796  1.0
  H  H17  1  0.11850067  0.78059207  0.55897055  1.0
  H  H18  1  0.92485932  0.31306704  0.52029001  1.0
  H  H19  1  0.84403658  0.21778498  0.54255155  1.0
  H  H20  1  0.57514106  0.47971381  0.68692988  1.0
  H  H21  1  0.65595339  0.45745825  0.78221083  1.0
  H  H22  1  0.45196323  0.45802294  0.31328777  1.0
  H  H23  1  0.38149721  0.44102909  0.21942099  1.0
  C  C24  1  0.21094897  0.50544456  0.64260562  1.0
  C  C25  1  0.28903306  0.35739278  0.49454358  1.0
  C  C26  1  0.79071261  0.50019432  0.35218885  1.0
  C  C27  1  0.70930893  0.64780815  0.49980656  1.0
  C  C28  1  0.68113323  0.73535793  0.50179628  1.0
  C  C29  1  0.49752703  0.77593946  0.47940958  1.0
  C  C30  1  0.45671346  0.85783803  0.47856370  1.0
  C  C31  1  0.60711039  0.90228277  0.50035287  1.0
  C  C32  1  0.79113961  0.86449625  0.52133319  1.0
  C  C33  1  0.83304178  0.78041561  0.52374516  1.0
  C  C34  1  0.19218343  0.13802853  0.51458542  1.0
  C  C35  1  0.38712174  0.10282793  0.49549151  1.0
  C  C36  1  0.54829510  0.15023739  0.47165906  1.0
  C  C37  1  0.50779080  0.23220614  0.47063277  1.0
  C  C38  1  0.31333529  0.26974446  0.49268799  1.0
  C  C39  1  0.14938259  0.22187969  0.51375273  1.0
  C  C40  1  0.18666138  0.50730648  0.73025255  1.0
  C  C41  1  0.99219899  0.52936303  0.76779241  1.0
  C  C42  1  0.95169682  0.52833946  0.84975974  1.0
  C  C43  1  0.11286040  0.50451411  0.89716700  1.0
  C  C44  1  0.30780564  0.48542006  0.86196530  1.0
  C  C45  1  0.35060608  0.48624912  0.77811521  1.0
  C  C46  1  0.70885577  0.47866196  0.13550871  1.0
  C  C47  1  0.89289147  0.49964756  0.09771721  1.0
  C  C48  1  0.04328823  0.52143590  0.14215553  1.0
  C  C49  1  0.00249198  0.52059036  0.22405622  1.0
  C  C50  1  0.81887789  0.49820232  0.26464200  1.0
  C  C51  1  0.66696355  0.47625239  0.21958852  1.0
  N  N52  1  0.58698306  0.98659457  0.50044978  1.0
  N  N53  1  0.40693359  0.01836801  0.49922538  1.0
  N  N54  1  0.09305863  0.50078066  0.98162562  1.0
  N  N55  1  0.91301192  0.49954793  0.01340496  1.0
  N  N56  1  0.01183219  0.74602306  0.54775049  1.0
  N  N57  1  0.95737386  0.25377856  0.53503831  1.0
  N  N58  1  0.54261989  0.46496282  0.74621632  1.0
  N  N59  1  0.48817260  0.45224239  0.25398715  1.0
  O  O60  1  0.39044370  0.50372823  0.60630600  1.0
  O  O61  1  0.10955271  0.39369008  0.49625701  1.0
  O  O62  1  0.94528744  0.50695569  0.38866791  1.0
  O  O63  1  0.55472138  0.61132815  0.49304288  1.0
  O  O64  1  0.61147357  0.49600968  0.38743727  1.0
  O  O65  1  0.88854264  0.61256155  0.50399076  1.0
  O  O66  1  0.05141514  0.50450499  0.60744031  1.0
  O  O67  1  0.44857911  0.39255691  0.49548445  1.0
  O  O68  1  0.75000451  0.46634969  0.53364307  1.0
  O  O69  1  0.25000406  0.53846038  0.46153781  1.0
