# generated using pymatgen
data_Zn2H13C36N6Cl7O8
_symmetry_space_group_name_H-M   'P 1'
_cell_length_a   13.26862560
_cell_length_b   13.59318561
_cell_length_c   14.36887118
_cell_angle_alpha   82.81315155
_cell_angle_beta   64.57066873
_cell_angle_gamma   77.25629769
_symmetry_Int_Tables_number   1
_chemical_formula_structural   Zn2H13C36N6Cl7O8
_chemical_formula_sum   'Zn2 H13 C36 N6 Cl7 O8'
_cell_volume   2281.51077100
_cell_formula_units_Z   1
loop_
 _symmetry_equiv_pos_site_id
 _symmetry_equiv_pos_as_xyz
  1  'x, y, z'
loop_
 _atom_site_type_symbol
 _atom_site_label
 _atom_site_symmetry_multiplicity
 _atom_site_fract_x
 _atom_site_fract_y
 _atom_site_fract_z
 _atom_site_occupancy
  Zn  Zn0  1  0.62882873  0.49443886  0.46009199  1.0
  Zn  Zn1  1  0.39663448  0.47800577  0.56813935  1.0
  H  H2  1  0.81093180  0.45106390  0.52133244  1.0
  H  H3  1  0.06434518  0.30696833  0.66741311  1.0
  H  H4  1  0.69378341  0.24749481  0.30100396  1.0
  H  H5  1  0.57443473  0.97301175  0.31789245  1.0
  H  H6  1  0.45351685  0.19635075  0.66039036  1.0
  H  H7  1  0.23921417  0.70310969  0.64219780  1.0
  H  H8  1  0.15247807  0.79637934  0.73455192  1.0
  H  H9  1  0.92134939  0.68647211  0.14768099  1.0
  H  H10  1  0.04549013  0.69800996  0.15740196  1.0
  H  H11  1  0.65163579  0.86793112  0.39560873  1.0
  H  H12  1  0.61573193  0.74896327  0.41490261  1.0
  H  H13  1  0.70553160  0.17115457  0.15104830  1.0
  H  H14  1  0.66348954  0.06097877  0.15807456  1.0
  C  C15  1  0.57847947  0.29782285  0.49140508  1.0
  C  C16  1  0.47396783  0.45885230  0.25546008  1.0
  C  C17  1  0.29065941  0.92105161  0.67235051  1.0
  C  C18  1  0.41372269  0.79021102  0.54906076  1.0
  C  C19  1  0.64662684  0.18880824  0.34585817  1.0
  C  C20  1  0.64019651  0.10841011  0.29668579  1.0
  C  C21  1  0.58174255  0.03323781  0.35676508  1.0
  C  C22  1  0.52494293  0.03723261  0.46533621  1.0
  C  C23  1  0.52068961  0.12522939  0.51319579  1.0
  C  C24  1  0.46207848  0.96037029  0.52810187  1.0
  C  C25  1  0.37196531  0.98446906  0.62794493  1.0
  C  C26  1  0.51626858  0.48242919  0.69490588  1.0
  C  C27  1  0.37730387  0.07073187  0.67409872  1.0
  C  C28  1  0.45100499  0.13490593  0.62034069  1.0
  C  C29  1  0.48958463  0.85820053  0.49663962  1.0
  C  C30  1  0.30559725  0.82772027  0.63049070  1.0
  C  C31  1  0.58531284  0.19903132  0.45144435  1.0
  C  C32  1  0.94042233  0.61320875  0.27347144  1.0
  C  C33  1  0.13367680  0.44504212  0.61465362  1.0
  C  C34  1  0.06807193  0.37551358  0.61905475  1.0
  C  C35  1  0.00976496  0.39641004  0.55619645  1.0
  C  C36  1  0.01938017  0.48418582  0.48946311  1.0
  C  C37  1  0.44653813  0.68210970  0.52579662  1.0
  C  C38  1  0.10019347  0.54029876  0.48557682  1.0
  C  C39  1  0.95844861  0.51888955  0.42485243  1.0
  C  C40  1  0.00076934  0.58756498  0.33864610  1.0
  C  C41  1  0.09565467  0.63046806  0.32785564  1.0
  C  C42  1  0.13618912  0.61503376  0.40361232  1.0
  C  C43  1  0.85264024  0.49305083  0.45064095  1.0
  C  C44  1  0.83651558  0.57912913  0.30743295  1.0
  C  C45  1  0.47437057  0.46799346  0.35433523  1.0
  C  C46  1  0.52213970  0.47219257  0.79387769  1.0
  C  C47  1  0.51642695  0.46490403  0.88196254  1.0
  C  C48  1  0.50689066  0.45892022  0.97918143  1.0
  C  C49  1  0.49508106  0.45581067  0.06950419  1.0
  C  C50  1  0.48337252  0.45600520  0.16695106  1.0
  N  N51  1  0.79260615  0.52459618  0.39440734  1.0
  N  N52  1  0.15085449  0.52351188  0.55140130  1.0
  N  N53  1  0.22102853  0.77360504  0.66905638  1.0
  N  N54  1  0.97382572  0.66910378  0.18414020  1.0
  N  N55  1  0.59090606  0.82559092  0.41576620  1.0
  N  N56  1  0.69332189  0.10401541  0.18974907  1.0
  Cl  Cl57  1  0.16197683  0.70724518  0.22350336  1.0
  Cl  Cl58  1  0.20467255  0.42427801  0.69592764  1.0
  Cl  Cl59  1  0.93577731  0.30620393  0.55813716  1.0
  Cl  Cl60  1  0.23581218  0.67769567  0.39949915  1.0
  Cl  Cl61  1  0.30175381  0.09168020  0.80556905  1.0
  Cl  Cl62  1  0.15957122  0.95839234  0.77441514  1.0
  Cl  Cl63  1  0.75827249  0.61310055  0.23514752  1.0
  O  O64  1  0.66359974  0.34211256  0.44657882  1.0
  O  O65  1  0.48469097  0.33563880  0.56376874  1.0
  O  O66  1  0.60873821  0.48034518  0.61449822  1.0
  O  O67  1  0.41618549  0.49303416  0.69984819  1.0
  O  O68  1  0.55271000  0.64283147  0.48229687  1.0
  O  O69  1  0.36847289  0.62906021  0.55158879  1.0
  O  O70  1  0.56192376  0.49503669  0.35026967  1.0
  O  O71  1  0.38859875  0.44918862  0.43504662  1.0
