# generated using pymatgen
data_Zn4H16C48O29F4
_symmetry_space_group_name_H-M   'P 1'
_cell_length_a   23.64764314
_cell_length_b   23.64812304
_cell_length_c   23.64607380
_cell_angle_alpha   67.07771131
_cell_angle_beta   72.22246196
_cell_angle_gamma   107.77197520
_symmetry_Int_Tables_number   1
_chemical_formula_structural   Zn4H16C48O29F4
_chemical_formula_sum   'Zn8 H32 C96 O58 F8'
_cell_volume   10151.26470000
_cell_formula_units_Z   2
loop_
 _symmetry_equiv_pos_site_id
 _symmetry_equiv_pos_as_xyz
  1  'x, y, z'
loop_
 _atom_site_type_symbol
 _atom_site_label
 _atom_site_symmetry_multiplicity
 _atom_site_fract_x
 _atom_site_fract_y
 _atom_site_fract_z
 _atom_site_occupancy
  Zn  Zn0  1  0.05847976  0.10114034  0.45238690  1.0
  Zn  Zn1  1  0.05848000  0.95734378  0.48912555  1.0
  Zn  Zn2  1  0.94150820  0.95238674  0.60115901  1.0
  Zn  Zn3  1  0.94152117  0.98913071  0.45733927  1.0
  Zn  Zn4  1  0.94646929  0.39886382  0.04266010  1.0
  Zn  Zn5  1  0.05353913  0.54267364  0.89884506  1.0
  Zn  Zn6  1  0.94645943  0.54760244  0.01088405  1.0
  Zn  Zn7  1  0.05352682  0.51087509  0.04761454  1.0
  H  H8  1  0.94172984  0.20485428  0.90283129  1.0
  H  H9  1  0.05826753  0.40285010  0.70480320  1.0
  H  H10  1  0.90656187  0.10320092  0.78256106  1.0
  H  H11  1  0.09339348  0.28255086  0.60316687  1.0
  H  H12  1  0.05825369  0.65544482  0.23690787  1.0
  H  H13  1  0.94171976  0.73690701  0.15542251  1.0
  H  H14  1  0.09339096  0.81083556  0.30342521  1.0
  H  H15  1  0.90659388  0.80342796  0.31085147  1.0
  H  H16  1  0.61427251  0.21744844  0.18915908  1.0
  H  H17  1  0.61425488  0.39680999  0.19659611  1.0
  H  H18  1  0.39232229  0.09714724  0.34459838  1.0
  H  H19  1  0.39234650  0.29516014  0.26311219  1.0
  H  H20  1  0.38574522  0.68915998  0.71742522  1.0
  H  H21  1  0.38571994  0.69658922  0.89682146  1.0
  H  H22  1  0.60768765  0.84459093  0.59713930  1.0
  H  H23  1  0.60763378  0.76311205  0.79518504  1.0
  H  H24  1  0.85468987  0.25994935  0.01218951  1.0
  H  H25  1  0.14530373  0.51217928  0.75994338  1.0
  H  H26  1  0.92119406  0.98338777  0.78947853  1.0
  H  H27  1  0.07876813  0.28945602  0.48334640  1.0
  H  H28  1  0.14530048  0.63313096  0.09474595  1.0
  H  H29  1  0.85469257  0.59474961  0.13312581  1.0
  H  H30  1  0.07876905  0.78930495  0.43786741  1.0
  H  H31  1  0.92122201  0.93784532  0.28930559  1.0
  H  H32  1  0.72715603  0.21053099  0.21069560  1.0
  H  H33  1  0.72715320  0.51662335  0.06215164  1.0
  H  H34  1  0.22787984  0.98783226  0.36687853  1.0
  H  H35  1  0.22785860  0.24004591  0.40526261  1.0
  H  H36  1  0.27284493  0.71069673  0.71051000  1.0
  H  H37  1  0.27282300  0.56215961  0.01663026  1.0
  H  H38  1  0.77213982  0.86688792  0.48780740  1.0
  H  H39  1  0.77209817  0.90526640  0.74006533  1.0
  C  C40  1  0.18283202  0.09141532  0.40858509  1.0
  C  C41  1  0.99999764  0.86202813  0.63798654  1.0
  C  C42  1  0.99997735  0.08798861  0.58799841  1.0
  C  C43  1  0.81716216  0.90858641  0.59142554  1.0
  C  C44  1  0.00000446  0.13798201  0.36201754  1.0
  C  C45  1  0.99999931  0.91200933  0.41201291  1.0
  C  C46  1  0.00000854  0.40859642  0.90857577  1.0
  C  C47  1  0.00000113  0.63798374  0.86202104  1.0
  C  C48  1  0.82401582  0.41200511  0.08799509  1.0
  C  C49  1  0.99999109  0.59141318  0.09142589  1.0
  C  C50  1  0.00000117  0.36202539  0.13797808  1.0
  C  C51  1  0.17597909  0.58799815  0.91200162  1.0
  C  C52  1  0.00000761  0.19518285  0.30481858  1.0
  C  C53  1  0.00000318  0.30483087  0.19517595  1.0
  C  C54  1  0.95718563  0.18033013  0.27650525  1.0
  C  C55  1  0.04316430  0.31967721  0.22314790  1.0
  C  C56  1  0.95683891  0.23369701  0.22348523  1.0
  C  C57  1  0.04282332  0.26631716  0.27685294  1.0
  C  C58  1  0.99999460  0.80482466  0.69518353  1.0
  C  C59  1  0.99999541  0.69518031  0.80482836  1.0
  C  C60  1  0.95716845  0.77685026  0.76632868  1.0
  C  C61  1  0.04316504  0.72349858  0.73368388  1.0
  C  C62  1  0.95682412  0.72314115  0.81969089  1.0
  C  C63  1  0.04281954  0.77651954  0.68031967  1.0
  C  C64  1  0.00001130  0.37099106  0.87095182  1.0
  C  C65  1  0.96612017  0.29691497  0.90925042  1.0
  C  C66  1  0.96634298  0.26191729  0.87354301  1.0
  C  C67  1  0.00000066  0.29973868  0.79970464  1.0
  C  C68  1  0.03365989  0.37356739  0.76187323  1.0
  C  C69  1  0.03389687  0.40927719  0.79687006  1.0
  C  C70  1  0.99998941  0.26384547  0.76381402  1.0
  C  C71  1  0.99997756  0.23288197  0.73285994  1.0
  C  C72  1  0.99997419  0.19701679  0.69700603  1.0
  C  C73  1  0.94758222  0.12803571  0.72972865  1.0
  C  C74  1  0.94724008  0.09284995  0.69421386  1.0
  C  C75  1  0.99997409  0.12568760  0.62569149  1.0
  C  C76  1  0.05271043  0.19420671  0.59283388  1.0
  C  C77  1  0.05236488  0.22972782  0.62801452  1.0
  C  C78  1  0.99999299  0.62903422  0.12903128  1.0
  C  C79  1  0.03387583  0.62463378  0.16922388  1.0
  C  C80  1  0.03364503  0.66011451  0.20444641  1.0
  C  C81  1  0.99998087  0.70028443  0.20028072  1.0
  C  C82  1  0.96632972  0.70444969  0.16010092  1.0
  C  C83  1  0.96610038  0.66921934  0.12462264  1.0
  C  C84  1  0.99998834  0.73618334  0.23616878  1.0
  C  C85  1  0.99998852  0.76713897  0.26713288  1.0
  C  C86  1  0.99999354  0.80299055  0.30299712  1.0
  C  C87  1  0.05237257  0.82264842  0.31960519  1.0
  C  C88  1  0.05272203  0.85851072  0.35444116  1.0
  C  C89  1  0.99999684  0.87431137  0.37431821  1.0
  C  C90  1  0.94726929  0.85443432  0.35852648  1.0
  C  C91  1  0.94761510  0.81960127  0.32266084  1.0
  C  C92  1  0.74862678  0.37431449  0.12569001  1.0
  C  C93  1  0.71295645  0.30579532  0.14148318  1.0
  C  C94  1  0.64225705  0.27027731  0.17734995  1.0
  C  C95  1  0.60598136  0.30298835  0.19702094  1.0
  C  C96  1  0.64224794  0.37197160  0.18041575  1.0
  C  C97  1  0.71294625  0.40715687  0.14557308  1.0
  C  C98  1  0.53426547  0.26712575  0.23288397  1.0
  C  C99  1  0.47234425  0.23615639  0.26384821  1.0
  C  C100  1  0.40056057  0.20026745  0.29974302  1.0
  C  C101  1  0.36454689  0.12643505  0.33991865  1.0
  C  C102  1  0.29383960  0.09072886  0.37539310  1.0
  C  C103  1  0.25805792  0.12902175  0.37098039  1.0
  C  C104  1  0.29384713  0.20309676  0.33079383  1.0
  C  C105  1  0.36455348  0.23809188  0.29557464  1.0
  C  C106  1  0.25137003  0.62569666  0.87430809  1.0
  C  C107  1  0.28705210  0.64149363  0.80577537  1.0
  C  C108  1  0.35775156  0.67735651  0.77025956  1.0
  C  C109  1  0.39401216  0.69701861  0.80298192  1.0
  C  C110  1  0.35773463  0.68041739  0.87197360  1.0
  C  C111  1  0.28703890  0.64557855  0.90715698  1.0
  C  C112  1  0.46572940  0.73287649  0.76712160  1.0
  C  C113  1  0.52764911  0.76384167  0.73616327  1.0
  C  C114  1  0.59943437  0.79974167  0.70027547  1.0
  C  C115  1  0.63545601  0.83991177  0.62643934  1.0
  C  C116  1  0.70616390  0.87538944  0.59073510  1.0
  C  C117  1  0.74193515  0.87097476  0.62903855  1.0
  C  C118  1  0.70613610  0.83078690  0.70312189  1.0
  C  C119  1  0.63542959  0.79557117  0.73811435  1.0
  C  C120  1  0.93711976  0.25073160  0.98790928  1.0
  C  C121  1  0.06291334  0.48792408  0.75066697  1.0
  C  C122  1  0.88685548  0.02177416  0.72852649  1.0
  C  C123  1  0.11310037  0.22850440  0.52175216  1.0
  C  C124  1  0.06288662  0.57499460  0.18641206  1.0
  C  C125  1  0.93710334  0.68640087  0.07497705  1.0
  C  C126  1  0.11310861  0.88459184  0.36512726  1.0
  C  C127  1  0.88688923  0.86513293  0.38460818  1.0
  C  C128  1  0.74973231  0.27149488  0.11539573  1.0
  C  C129  1  0.74971318  0.47823076  0.13488234  1.0
  C  C130  1  0.26137197  0.01208510  0.42503516  1.0
  C  C131  1  0.26140096  0.24930000  0.31359468  1.0
  C  C132  1  0.25028489  0.61541235  0.77146893  1.0
  C  C133  1  0.25025393  0.63487954  0.97824122  1.0
  C  C134  1  0.73863466  0.92503143  0.51208290  1.0
  C  C135  1  0.73857030  0.81359698  0.74933906  1.0
  O  O136  1  0.99999424  0.99999991  0.50000981  1.0
  O  O137  1  0.15355254  0.12502751  0.42286440  1.0
  O  O138  1  0.05320883  0.89944984  0.57831321  1.0
  O  O139  1  0.97424515  0.02168153  0.62590169  1.0
  O  O140  1  0.15356199  0.02853427  0.42357596  1.0
  O  O141  1  0.02571772  0.12588370  0.52168194  1.0
  O  O142  1  0.94678481  0.86848602  0.65379624  1.0
  O  O143  1  0.84643385  0.92285109  0.62504981  1.0
  O  O144  1  0.94680199  0.07831089  0.39942586  1.0
  O  O145  1  0.84644297  0.92358748  0.52853310  1.0
  O  O146  1  0.05321643  0.15378091  0.36847730  1.0
  O  O147  1  0.02573006  0.89984360  0.45259455  1.0
  O  O148  1  0.97427298  0.95258931  0.39984143  1.0
  O  O149  1  0.00000128  0.50000535  0.00000051  1.0
  O  O150  1  0.95211253  0.37498361  0.97146536  1.0
  O  O151  1  0.02226094  0.60057417  0.84622131  1.0
  O  O152  1  0.85243272  0.47831954  0.04741406  1.0
  O  O153  1  0.04789490  0.47148936  0.87495084  1.0
  O  O154  1  0.85242731  0.37411079  0.10016245  1.0
  O  O155  1  0.97773511  0.63151217  0.92170302  1.0
  O  O156  1  0.95209979  0.57713240  0.07643198  1.0
  O  O157  1  0.02225611  0.42169510  0.13152003  1.0
  O  O158  1  0.04788397  0.57641744  0.07714517  1.0
  O  O159  1  0.97774259  0.34623096  0.10056891  1.0
  O  O160  1  0.14757236  0.60016241  0.87410185  1.0
  O  O161  1  0.14756549  0.54741489  0.97831976  1.0
  O  O162  1  0.87250517  0.22915583  0.03179137  1.0
  O  O163  1  0.97058049  0.22775785  0.00983184  1.0
  O  O164  1  0.12751624  0.53178990  0.72912281  1.0
  O  O165  1  0.02947970  0.50985105  0.72764569  1.0
  O  O166  1  0.88028011  0.96860704  0.78495986  1.0
  O  O167  1  0.84376278  0.01236708  0.71012783  1.0
  O  O168  1  0.11968246  0.28493213  0.46857143  1.0
  O  O169  1  0.15617900  0.21008603  0.51236994  1.0
  O  O170  1  0.12749658  0.59573221  0.14336191  1.0
  O  O171  1  0.02943609  0.51961893  0.24285966  1.0
  O  O172  1  0.87249808  0.64335438  0.09571014  1.0
  O  O173  1  0.97055465  0.74284012  0.01959992  1.0
  O  O174  1  0.11968257  0.83473950  0.41172802  1.0
  O  O175  1  0.15619501  0.94608269  0.33142876  1.0
  O  O176  1  0.88030840  0.91171699  0.33474680  1.0
  O  O177  1  0.84380110  0.83144605  0.44611053  1.0
  O  O178  1  0.74646399  0.21505818  0.16525385  1.0
  O  O179  1  0.77754420  0.28991174  0.05389355  1.0
  O  O180  1  0.74645154  0.53139951  0.08828847  1.0
  O  O181  1  0.77751020  0.48762693  0.16857799  1.0
  O  O182  1  0.23906890  0.96821802  0.40429531  1.0
  O  O183  1  0.26242753  0.99015356  0.48041762  1.0
  O  O184  1  0.23907804  0.27085818  0.35664519  1.0
  O  O185  1  0.26248206  0.27229950  0.25714336  1.0
  O  O186  1  0.25354644  0.66526359  0.71503265  1.0
  O  O187  1  0.22248553  0.55392244  0.78987614  1.0
  O  O188  1  0.25351539  0.58828888  0.03141479  1.0
  O  O189  1  0.22244659  0.66856691  0.98764083  1.0
  O  O190  1  0.76094656  0.90430003  0.46820118  1.0
  O  O191  1  0.73758195  0.98041211  0.49015714  1.0
  O  O192  1  0.76089418  0.85665948  0.77088062  1.0
  O  O193  1  0.73749252  0.75715338  0.77235219  1.0
  F  F194  1  0.91567103  0.11410144  0.29837323  1.0
  F  F195  1  0.08752181  0.38590640  0.19843415  1.0
  F  F196  1  0.91248089  0.21404984  0.20161681  1.0
  F  F197  1  0.08433949  0.28595753  0.30156928  1.0
  F  F198  1  0.91564701  0.80155970  0.78598020  1.0
  F  F199  1  0.08752728  0.70162906  0.71402909  1.0
  F  F200  1  0.91246256  0.69842234  0.88592647  1.0
  F  F201  1  0.08433915  0.79839212  0.61408173  1.0
