# generated using pymatgen
data_AlH9C24(OF)6
_symmetry_space_group_name_H-M   'P 1'
_cell_length_a   3.97549116
_cell_length_b   28.68740812
_cell_length_c   28.68742304
_cell_angle_alpha   59.99985174
_cell_angle_beta   89.99980825
_cell_angle_gamma   89.99948379
_symmetry_Int_Tables_number   1
_chemical_formula_structural   AlH9C24(OF)6
_chemical_formula_sum   'Al2 H18 C48 O12 F12'
_cell_volume   2833.37217481
_cell_formula_units_Z   2
loop_
 _symmetry_equiv_pos_site_id
 _symmetry_equiv_pos_as_xyz
  1  'x, y, z'
loop_
 _atom_site_type_symbol
 _atom_site_label
 _atom_site_symmetry_multiplicity
 _atom_site_fract_x
 _atom_site_fract_y
 _atom_site_fract_z
 _atom_site_occupancy
  Al  Al0  1  0.00032516  0.99999825  0.50000023  1.0
  Al  Al1  1  0.00033228  0.66666418  0.16666800  1.0
  H  H2  1  0.49947169  0.41383318  0.35704197  1.0
  H  H3  1  0.50013471  0.42308230  0.20108732  1.0
  H  H4  1  0.50016022  0.24357142  0.46560384  1.0
  H  H5  1  0.49947498  0.25284027  0.30963968  1.0
  H  H6  1  0.50001590  0.33750903  0.27773383  1.0
  H  H7  1  0.50003000  0.32915596  0.38895554  1.0
  H  H8  1  0.49947628  0.85703902  0.22912496  1.0
  H  H9  1  0.50014630  0.70108531  0.37583174  1.0
  H  H10  1  0.50015873  0.96560115  0.29082388  1.0
  H  H11  1  0.49948803  0.80963939  0.43752074  1.0
  H  H12  1  0.50002043  0.77773075  0.38475892  1.0
  H  H13  1  0.50003054  0.88895289  0.28188905  1.0
  H  H14  1  0.49947266  0.72912356  0.91383568  1.0
  H  H15  1  0.50014440  0.87582936  0.92308329  1.0
  H  H16  1  0.50015678  0.79082237  0.74357460  1.0
  H  H17  1  0.49948780  0.93751771  0.75283999  1.0
  H  H18  1  0.50001931  0.88475638  0.83750932  1.0
  H  H19  1  0.50002781  0.78188569  0.82915898  1.0
  C  C20  1  0.50021612  0.95501713  0.58229218  1.0
  C  C21  1  0.50021332  0.08229106  0.46268910  1.0
  C  C22  1  0.50021984  0.96268836  0.45501884  1.0
  C  C23  1  0.50021241  0.58437232  0.20398329  1.0
  C  C24  1  0.50021092  0.70398025  0.21164501  1.0
  C  C25  1  0.50021464  0.71164302  0.08437520  1.0
  C  C26  1  0.50015370  0.52439523  0.23100300  1.0
  C  C27  1  0.49435107  0.49165728  0.28722292  1.0
  C  C28  1  0.49768300  0.43604262  0.31323962  1.0
  C  C29  1  0.49982230  0.40993897  0.28270896  1.0
  C  C30  1  0.50212351  0.44164771  0.22620469  1.0
  C  C31  1  0.50575674  0.49729658  0.20182561  1.0
  C  C32  1  0.49971074  0.35163594  0.30676004  1.0
  C  C33  1  0.49971888  0.31502905  0.35992863  1.0
  C  C34  1  0.50213319  0.22501044  0.44047833  1.0
  C  C35  1  0.49982113  0.25672440  0.38397877  1.0
  C  C36  1  0.49768424  0.23062721  0.35344035  1.0
  C  C37  1  0.49436038  0.17501053  0.37945353  1.0
  C  C38  1  0.50016639  0.14226815  0.43567218  1.0
  C  C39  1  0.50577202  0.16936397  0.46485342  1.0
  C  C40  1  0.50015935  0.73100080  0.24460211  1.0
  C  C41  1  0.49435979  0.78721937  0.22112023  1.0
  C  C42  1  0.49768901  0.81323889  0.25071727  1.0
  C  C43  1  0.49982746  0.78270509  0.30735389  1.0
  C  C44  1  0.50213315  0.72620370  0.33214738  1.0
  C  C45  1  0.50576656  0.70182320  0.30087889  1.0
  C  C46  1  0.49971812  0.80676034  0.34160367  1.0
  C  C47  1  0.49972412  0.85992289  0.32504485  1.0
  C  C48  1  0.50213365  0.94047552  0.33451116  1.0
  C  C49  1  0.49982859  0.88397774  0.35929622  1.0
  C  C50  1  0.49769587  0.85343791  0.41593377  1.0
  C  C51  1  0.49436428  0.87945421  0.44553556  1.0
  C  C52  1  0.50017079  0.93567102  0.42205909  1.0
  C  C53  1  0.50577230  0.96485157  0.36578118  1.0
  C  C54  1  0.50015639  0.74460036  0.02439660  1.0
  C  C55  1  0.49435317  0.72111790  0.99166042  1.0
  C  C56  1  0.49768073  0.75071626  0.93604297  1.0
  C  C57  1  0.49982230  0.80735169  0.90994046  1.0
  C  C58  1  0.50213028  0.83214637  0.94164848  1.0
  C  C59  1  0.50576293  0.80087557  0.99729831  1.0
  C  C60  1  0.49971369  0.84160148  0.85163720  1.0
  C  C61  1  0.49972219  0.82504099  0.81503159  1.0
  C  C62  1  0.50213016  0.83450818  0.72501462  1.0
  C  C63  1  0.49982738  0.85929400  0.75672638  1.0
  C  C64  1  0.49769527  0.91592944  0.73062979  1.0
  C  C65  1  0.49436453  0.94553384  0.67500967  1.0
  C  C66  1  0.50016370  0.92205619  0.64227049  1.0
  C  C67  1  0.50576454  0.86578059  0.66936538  1.0
  O  O68  1  0.73640853  0.99589220  0.44644439  1.0
  O  O69  1  0.73641140  0.94644230  0.55766374  1.0
  O  O70  1  0.73641098  0.05766118  0.49589365  1.0
  O  O71  1  0.26404777  0.95050808  0.48904150  1.0
  O  O72  1  0.26404461  0.06044853  0.45050938  1.0
  O  O73  1  0.26404067  0.98903921  0.56044978  1.0
  O  O74  1  0.73641131  0.72021955  0.10900233  1.0
  O  O75  1  0.73641676  0.60899907  0.17077880  1.0
  O  O76  1  0.73641166  0.67077608  0.22022195  1.0
  O  O77  1  0.26405349  0.67762005  0.10621956  1.0
  O  O78  1  0.26404890  0.71615843  0.17762247  1.0
  O  O79  1  0.26405457  0.60621717  0.21616092  1.0
  F  F80  1  0.50501184  0.52663049  0.14730876  1.0
  F  F81  1  0.49496118  0.51581599  0.31754226  1.0
  F  F82  1  0.49495013  0.15085746  0.34912963  1.0
  F  F83  1  0.50503786  0.14002524  0.51937059  1.0
  F  F84  1  0.50502849  0.64730645  0.32606289  1.0
  F  F85  1  0.49496560  0.81753930  0.16664196  1.0
  F  F86  1  0.49495829  0.84912851  0.50001288  1.0
  F  F87  1  0.50503630  0.01936940  0.34060082  1.0
  F  F88  1  0.50502353  0.82606025  0.02663070  1.0
  F  F89  1  0.49495968  0.66664071  0.01581768  1.0
  F  F90  1  0.49496420  0.00000979  0.65085906  1.0
  F  F91  1  0.50502868  0.84059950  0.64002991  1.0
