# generated using pymatgen
data_Zn4H6C26S4Br2O17
_symmetry_space_group_name_H-M   'P 1'
_cell_length_a   19.62617165
_cell_length_b   19.66153142
_cell_length_c   33.26561343
_cell_angle_alpha   79.27591377
_cell_angle_beta   79.36785157
_cell_angle_gamma   64.08296774
_symmetry_Int_Tables_number   1
_chemical_formula_structural   Zn4H6C26S4Br2O17
_chemical_formula_sum   'Zn16 H24 C104 S16 Br8 O68'
_cell_volume   11266.33253137
_cell_formula_units_Z   4
loop_
 _symmetry_equiv_pos_site_id
 _symmetry_equiv_pos_as_xyz
  1  'x, y, z'
loop_
 _atom_site_type_symbol
 _atom_site_label
 _atom_site_symmetry_multiplicity
 _atom_site_fract_x
 _atom_site_fract_y
 _atom_site_fract_z
 _atom_site_occupancy
  Zn  Zn0  1  0.05758538  0.39932604  0.47935558  1.0
  Zn  Zn1  1  0.98460711  0.48316784  0.56018150  1.0
  Zn  Zn2  1  0.05709566  0.56383355  0.48273943  1.0
  Zn  Zn3  1  0.90046722  0.55434545  0.47915126  1.0
  Zn  Zn4  1  0.69379379  0.34933458  0.27150920  1.0
  Zn  Zn5  1  0.68732500  0.19159677  0.26714290  1.0
  Zn  Zn6  1  0.77145268  0.26285441  0.18977877  1.0
  Zn  Zn7  1  0.84800769  0.19398287  0.27274850  1.0
  Zn  Zn8  1  0.26713265  0.76753198  0.68963122  1.0
  Zn  Zn9  1  0.34942440  0.69684625  0.77060041  1.0
  Zn  Zn10  1  0.19108649  0.84861508  0.77262692  1.0
  Zn  Zn11  1  0.19182433  0.68739160  0.76755156  1.0
  Zn  Zn12  1  0.55995884  0.05982792  0.98248320  1.0
  Zn  Zn13  1  0.40105025  0.05643948  0.97813325  1.0
  Zn  Zn14  1  0.55459655  0.89974864  0.97874401  1.0
  Zn  Zn15  1  0.48501340  0.98025172  0.06055996  1.0
  H  H16  1  0.74526135  0.44851870  0.35469714  1.0
  H  H17  1  0.99875562  0.29216364  0.40359224  1.0
  H  H18  1  0.20668819  0.69534133  0.59920506  1.0
  H  H19  1  0.05887492  0.54044805  0.65079022  1.0
  H  H20  1  0.46125420  0.24163816  0.34080647  1.0
  H  H21  1  0.47982856  0.69955070  0.59996582  1.0
  H  H22  1  0.20288123  0.97924046  0.60241913  1.0
  H  H23  1  0.94023525  0.97747577  0.35344918  1.0
  H  H24  1  0.64504194  0.15780990  0.04886670  1.0
  H  H25  1  0.59012721  0.10765624  0.20030621  1.0
  H  H26  1  0.54819199  0.76781278  0.14892130  1.0
  H  H27  1  0.16427302  0.13835047  0.04112366  1.0
  H  H28  1  0.29971186  0.00653927  0.89601175  1.0
  H  H29  1  0.45504269  0.75548037  0.84502333  1.0
  H  H30  1  0.30217423  0.28021384  0.89961094  1.0
  H  H31  1  0.78689527  0.00745162  0.90993208  1.0
  H  H32  1  0.80349527  0.57064568  0.36194653  1.0
  H  H33  1  0.02507208  0.25286075  0.31376073  1.0
  H  H34  1  0.09204413  0.74839793  0.53521801  1.0
  H  H35  1  0.00536046  0.65475826  0.71619607  1.0
  H  H36  1  0.79253903  0.13841316  0.08048720  1.0
  H  H37  1  0.60830781  0.96107544  0.17172826  1.0
  H  H38  1  0.17754821  0.95324924  0.88978177  1.0
  H  H39  1  0.49606432  0.72308330  0.93267428  1.0
  C  C40  1  0.06115614  0.31615795  0.56278545  1.0
  C  C41  1  0.07243761  0.56699186  0.56920447  1.0
  C  C42  1  0.18250983  0.44115985  0.43884878  1.0
  C  C43  1  0.93516816  0.68533063  0.43882885  1.0
  C  C44  1  0.93163685  0.42659554  0.43274765  1.0
  C  C45  1  0.81741020  0.56196122  0.56205454  1.0
  C  C46  1  0.56438370  0.31228535  0.31158107  1.0
  C  C47  1  0.67796762  0.18314796  0.18075655  1.0
  C  C48  1  0.69271795  0.43072919  0.18783476  1.0
  C  C49  1  0.93748653  0.18562065  0.19047125  1.0
  C  C50  1  0.81696607  0.31903266  0.32079212  1.0
  C  C51  1  0.80839338  0.06691523  0.31151003  1.0
  C  C52  1  0.43385314  0.68822995  0.68720898  1.0
  C  C53  1  0.31994497  0.82289165  0.81681803  1.0
  C  C54  1  0.18752881  0.93383273  0.68925020  1.0
  C  C55  1  0.06519747  0.80775891  0.81195998  1.0
  C  C56  1  0.18348689  0.67841962  0.68081182  1.0
  C  C57  1  0.31577489  0.56673201  0.81126526  1.0
  C  C58  1  0.43823088  0.18431410  0.93782537  1.0
  C  C59  1  0.42949820  0.93339108  0.92968898  1.0
  C  C60  1  0.68246401  0.93818315  0.93816731  1.0
  C  C61  1  0.56183904  0.81377729  0.06190192  1.0
  C  C62  1  0.56815428  0.07109110  0.06860216  1.0
  C  C63  1  0.31758107  0.06153354  0.06158308  1.0
  C  C64  1  0.89946778  0.39784305  0.40560281  1.0
  C  C65  1  0.84574683  0.34400813  0.35145731  1.0
  C  C66  1  0.82650921  0.44235194  0.39287611  1.0
  C  C67  1  0.91712120  0.29786744  0.36578559  1.0
  C  C68  1  0.80107852  0.41505260  0.36548324  1.0
  C  C69  1  0.94340679  0.32603079  0.39232710  1.0
  C  C70  1  0.10531139  0.59272091  0.59741816  1.0
  C  C71  1  0.15765249  0.64565440  0.65259693  1.0
  C  C72  1  0.14864249  0.63520549  0.58208040  1.0
  C  C73  1  0.11722006  0.60032504  0.66793802  1.0
  C  C74  1  0.17354439  0.66178393  0.61003665  1.0
  C  C75  1  0.09095986  0.57506208  0.63996729  1.0
  C  C76  1  0.30437826  0.45615827  0.40195446  1.0
  C  C77  1  0.44459833  0.29827393  0.34899293  1.0
  C  C78  1  0.25748529  0.41770049  0.41426272  1.0
  C  C79  1  0.48984043  0.33798570  0.33670888  1.0
  C  C80  1  0.37659095  0.34145873  0.37262348  1.0
  C  C81  1  0.37205906  0.41283922  0.37800918  1.0
  C  C82  1  0.72623139  0.57595163  0.63006388  1.0
  C  C83  1  0.52442697  0.67121555  0.62023947  1.0
  C  C84  1  0.74328310  0.58470418  0.58741954  1.0
  C  C85  1  0.50897803  0.66215693  0.66271156  1.0
  C  C86  1  0.60385188  0.63920175  0.60819331  1.0
  C  C87  1  0.64675718  0.60685905  0.64196309  1.0
  C  C88  1  0.07587898  0.22574344  0.63118599  1.0
  C  C89  1  0.17396852  0.02407069  0.62239979  1.0
  C  C90  1  0.08571808  0.24241546  0.58854510  1.0
  C  C91  1  0.16331802  0.00910066  0.66489171  1.0
  C  C92  1  0.14248063  0.10324671  0.61001330  1.0
  C  C93  1  0.10840541  0.14644924  0.64350160  1.0
  C  C94  1  0.84214191  0.79964715  0.39474881  1.0
  C  C95  1  0.89848988  0.95412784  0.35541454  1.0
  C  C96  1  0.90848664  0.75985007  0.41376978  1.0
  C  C97  1  0.83233556  0.99232743  0.33654508  1.0
  C  C98  1  0.90223750  0.88361884  0.37665265  1.0
  C  C99  1  0.83855679  0.87016758  0.37351635  1.0
  C  C100  1  0.64612332  0.15890461  0.15121478  1.0
  C  C101  1  0.59178762  0.10379235  0.09797556  1.0
  C  C102  1  0.66072428  0.17539087  0.10828905  1.0
  C  C103  1  0.57383729  0.09067494  0.14088829  1.0
  C  C104  1  0.63393216  0.14676993  0.08222958  1.0
  C  C105  1  0.60215893  0.11772395  0.16694839  1.0
  C  C106  1  0.67626662  0.52147871  0.11945422  1.0
  C  C107  1  0.57754010  0.72318171  0.12881364  1.0
  C  C108  1  0.66790608  0.50457750  0.16213773  1.0
  C  C109  1  0.58725529  0.73853983  0.08631598  1.0
  C  C110  1  0.61025603  0.64390277  0.14103268  1.0
  C  C111  1  0.64368415  0.60093932  0.10744590  1.0
  C  C112  1  0.08540631  0.12624058  0.17946551  1.0
  C  C113  1  0.17216929  0.12391472  0.07362433  1.0
  C  C114  1  0.01302528  0.16206457  0.16648616  1.0
  C  C115  1  0.24354580  0.08736626  0.08725344  1.0
  C  C116  1  0.11433882  0.13834180  0.10727497  1.0
  C  C117  1  0.14329990  0.11252441  0.14572317  1.0
  C  C118  1  0.34923271  0.85474809  0.84378750  1.0
  C  C119  1  0.40425783  0.90597062  0.89853169  1.0
  C  C120  1  0.30498376  0.92703847  0.85709387  1.0
  C  C121  1  0.45014804  0.83533604  0.88359216  1.0
  C  C122  1  0.33290784  0.95125367  0.88475938  1.0
  C  C123  1  0.42141588  0.81031210  0.85673124  1.0
  C  C124  1  0.41018616  0.44879923  0.85294383  1.0
  C  C125  1  0.34687724  0.30024265  0.89571969  1.0
  C  C126  1  0.34228942  0.49153344  0.83563135  1.0
  C  C127  1  0.41485907  0.25879958  0.91264366  1.0
  C  C128  1  0.34526414  0.36945956  0.87357952  1.0
  C  C129  1  0.41210414  0.37905948  0.87447192  1.0
  C  C130  1  0.94182709  0.79419092  0.84742492  1.0
  C  C131  1  0.80275936  0.95143534  0.90110972  1.0
  C  C132  1  0.98952419  0.83180327  0.83580667  1.0
  C  C133  1  0.75663851  0.91256251  0.91266799  1.0
  C  C134  1  0.87031004  0.90839507  0.87715492  1.0
  C  C135  1  0.87382231  0.83775110  0.87107866  1.0
  C  C136  1  0.77077175  0.51550481  0.40988334  1.0
  C  C137  1  0.96453417  0.21647161  0.35698812  1.0
  C  C138  1  0.17557548  0.64872766  0.53699495  1.0
  C  C139  1  0.10559063  0.57178919  0.71297040  1.0
  C  C140  1  0.69865918  0.22768401  0.08846172  1.0
  C  C141  1  0.52004531  0.05432830  0.16045714  1.0
  C  C142  1  0.23151540  0.98304591  0.84038228  1.0
  C  C143  1  0.53180456  0.78764432  0.89210588  1.0
  S  S144  1  0.29688399  0.32841475  0.39676202  1.0
  S  S145  1  0.45066384  0.42736255  0.35376795  1.0
  S  S146  1  0.66178649  0.63011469  0.56200436  1.0
  S  S147  1  0.58996715  0.61486353  0.68833358  1.0
  S  S148  1  0.13504217  0.16071395  0.56366445  1.0
  S  S149  1  0.11567621  0.09023608  0.69010184  1.0
  S  S150  1  0.96643002  0.80887756  0.40544051  1.0
  S  S151  1  0.77425539  0.94369603  0.34447230  1.0
  S  S152  1  0.61971617  0.58607743  0.18732290  1.0
  S  S153  1  0.63553199  0.65754905  0.06094383  1.0
  S  S154  1  0.01610735  0.17961845  0.11295578  1.0
  S  S155  1  0.24130795  0.07090599  0.14062786  1.0
  S  S156  1  0.28113580  0.44584709  0.84560405  1.0
  S  S157  1  0.47715087  0.30304059  0.90190484  1.0
  S  S158  1  0.95050788  0.92090611  0.85345588  1.0
  S  S159  1  0.79416108  0.82432531  0.89443316  1.0
  Br  Br160  1  0.28593104  0.55203440  0.41474449  1.0
  Br  Br161  1  0.79551809  0.52900620  0.66946942  1.0
  Br  Br162  1  0.02702982  0.29522764  0.67019232  1.0
  Br  Br163  1  0.76490481  0.76755685  0.39488090  1.0
  Br  Br164  1  0.72242433  0.45194199  0.08050862  1.0
  Br  Br165  1  0.10867805  0.09838510  0.23407443  1.0
  Br  Br166  1  0.49262639  0.47483220  0.84962967  1.0
  Br  Br167  1  0.95998542  0.69848825  0.83421582  1.0
  O  O168  1  0.00066761  0.49944559  0.49975107  1.0
  O  O169  1  0.08296992  0.31432922  0.52403017  1.0
  O  O170  1  0.04218999  0.52130882  0.58550876  1.0
  O  O171  1  0.15446436  0.50584481  0.45209729  1.0
  O  O172  1  0.02030257  0.37529159  0.58086741  1.0
  O  O173  1  0.15184923  0.39370500  0.44465187  1.0
  O  O174  1  0.07639146  0.59430751  0.53142269  1.0
  O  O175  1  0.00204171  0.66038435  0.44984358  1.0
  O  O176  1  0.89322251  0.49592918  0.43920779  1.0
  O  O177  1  0.89024356  0.65223491  0.44756506  1.0
  O  O178  1  0.99441886  0.38045423  0.44625553  1.0
  O  O179  1  0.87682634  0.53498692  0.58063658  1.0
  O  O180  1  0.81545872  0.57206110  0.52299268  1.0
  O  O181  1  0.74959888  0.24992791  0.25021416  1.0
  O  O182  1  0.59447870  0.36011469  0.30180166  1.0
  O  O183  1  0.65413278  0.17426646  0.21876161  1.0
  O  O184  1  0.72585290  0.37110295  0.16951301  1.0
  O  O185  1  0.59258393  0.24465504  0.30171479  1.0
  O  O186  1  0.67848783  0.43340467  0.22692993  1.0
  O  O187  1  0.72743647  0.20917568  0.16510429  1.0
  O  O188  1  0.88042263  0.22048524  0.16954372  1.0
  O  O189  1  0.86411630  0.25866024  0.30525700  1.0
  O  O190  1  0.93461510  0.16949556  0.22947670  1.0
  O  O191  1  0.74913620  0.36034083  0.31230429  1.0
  O  O192  1  0.74509501  0.09153100  0.29642394  1.0
  O  O193  1  0.85283986  0.10028354  0.30697968  1.0
  O  O194  1  0.24930948  0.75068582  0.75000819  1.0
  O  O195  1  0.37558874  0.72637126  0.66776938  1.0
  O  O196  1  0.36742532  0.76203322  0.80196851  1.0
  O  O197  1  0.17274383  0.93319910  0.72837858  1.0
  O  O198  1  0.43386043  0.67024497  0.72623947  1.0
  O  O199  1  0.22075762  0.87600817  0.66920323  1.0
  O  O200  1  0.24950236  0.85876246  0.81194176  1.0
  O  O201  1  0.09334354  0.85735471  0.80393853  1.0
  O  O202  1  0.16030119  0.66956069  0.71896622  1.0
  O  O203  1  0.09645424  0.74059867  0.80157436  1.0
  O  O204  1  0.22501871  0.71329060  0.66423351  1.0
  O  O205  1  0.35766654  0.60296239  0.80617121  1.0
  O  O206  1  0.25158027  0.58943710  0.79743785  1.0
  O  O207  1  0.49986323  0.99927816  0.00005837  1.0
  O  O208  1  0.50591322  0.15495803  0.94818621  1.0
  O  O209  1  0.38905548  0.00152026  0.93773146  1.0
  O  O210  1  0.64896185  0.89341886  0.94451660  1.0
  O  O211  1  0.38946343  0.15551704  0.94726051  1.0
  O  O212  1  0.65833080  0.00239435  0.95184251  1.0
  O  O213  1  0.48870586  0.88526534  0.94606438  1.0
  O  O214  1  0.57839561  0.81430906  0.02280909  1.0
  O  O215  1  0.54078820  0.02282220  0.08457762  1.0
  O  O216  1  0.52575806  0.87174044  0.08165243  1.0
  O  O217  1  0.57883620  0.09293457  0.03041073  1.0
  O  O218  1  0.31626352  0.07392059  0.02255412  1.0
  O  O219  1  0.37661747  0.02849986  0.08085720  1.0
  O  O220  1  0.76329830  0.58153019  0.38516389  1.0
  O  O221  1  0.72929830  0.51647073  0.44184243  1.0
  O  O222  1  0.02641535  0.20422057  0.32801312  1.0
  O  O223  1  0.95328939  0.16333297  0.37693161  1.0
  O  O224  1  0.13745941  0.71973302  0.51738765  1.0
  O  O225  1  0.23204318  0.60233612  0.51967147  1.0
  O  O226  1  0.03516106  0.60890309  0.73343656  1.0
  O  O227  1  0.15300669  0.51500378  0.72953317  1.0
  O  O228  1  0.77299431  0.19327815  0.07214962  1.0
  O  O229  1  0.66412821  0.29637684  0.08364288  1.0
  O  O230  1  0.55297802  0.98096044  0.17848359  1.0
  O  O231  1  0.45130983  0.08938307  0.16352094  1.0
  O  O232  1  0.16595757  0.99222947  0.86598906  1.0
  O  O233  1  0.23007692  0.02289124  0.80776766  1.0
  O  O234  1  0.54464566  0.72356477  0.91946858  1.0
  O  O235  1  0.58449562  0.80106534  0.87329251  1.0
