# generated using pymatgen
data_ZnH9C19NO6F
_symmetry_space_group_name_H-M   'P 1'
_cell_length_a   11.65672573
_cell_length_b   11.72970510
_cell_length_c   13.15098680
_cell_angle_alpha   84.14152166
_cell_angle_beta   82.49191498
_cell_angle_gamma   69.94339897
_symmetry_Int_Tables_number   1
_chemical_formula_structural   ZnH9C19NO6F
_chemical_formula_sum   'Zn2 H18 C38 N2 O12 F2'
_cell_volume   1671.43503313
_cell_formula_units_Z   2
loop_
 _symmetry_equiv_pos_site_id
 _symmetry_equiv_pos_as_xyz
  1  'x, y, z'
loop_
 _atom_site_type_symbol
 _atom_site_label
 _atom_site_symmetry_multiplicity
 _atom_site_fract_x
 _atom_site_fract_y
 _atom_site_fract_z
 _atom_site_occupancy
  Zn  Zn0  1  0.10225311  0.54890203  0.48688343  1.0
  Zn  Zn1  1  0.89966102  0.46511930  0.50360131  1.0
  H  H2  1  0.08461477  0.07227311  0.44647837  1.0
  H  H3  1  0.12038679  0.66074871  0.16388937  1.0
  H  H4  1  0.92473571  0.30819176  0.01046904  1.0
  H  H5  1  0.11289686  0.69036899  0.97377058  1.0
  H  H6  1  0.91550057  0.34410259  0.82214586  1.0
  H  H7  1  0.34280186  0.46626027  0.37209233  1.0
  H  H8  1  0.20947755  0.64015073  0.64312509  1.0
  H  H9  1  0.57849960  0.38333346  0.31689046  1.0
  H  H10  1  0.42124446  0.62150704  0.68273520  1.0
  H  H11  1  0.78726809  0.36718797  0.35485156  1.0
  H  H12  1  0.46634268  0.74555077  0.36998948  1.0
  H  H13  1  0.36300049  0.21255180  0.49619413  1.0
  H  H14  1  0.90141616  0.94277624  0.51299415  1.0
  H  H15  1  0.53250677  0.18814992  0.50517922  1.0
  H  H16  1  0.74835757  0.15003007  0.52801410  1.0
  H  H17  1  0.68101782  0.71042279  0.39340587  1.0
  H  H18  1  0.06504656  0.81555422  0.41541822  1.0
  H  H19  1  0.03992166  0.20408064  0.28787340  1.0
  C  C20  1  0.98411775  0.50323384  0.69178104  1.0
  C  C21  1  0.55998558  0.00413477  0.46616410  1.0
  C  C22  1  0.64947534  0.88670475  0.45112352  1.0
  C  C23  1  0.43169763  0.02372108  0.45498797  1.0
  C  C24  1  0.39646995  0.92720689  0.42482023  1.0
  C  C25  1  0.49159779  0.81545580  0.40039020  1.0
  C  C26  1  0.61142123  0.79644186  0.41335378  1.0
  C  C27  1  0.34029963  0.13607658  0.47522126  1.0
  C  C28  1  0.18184313  0.05847455  0.44592839  1.0
  C  C29  1  0.77329256  0.86485838  0.47130552  1.0
  C  C30  1  0.04666869  0.51362407  0.17999571  1.0
  C  C31  1  0.86502216  0.73860987  0.47586805  1.0
  C  C32  1  0.98924016  0.49019259  0.80571824  1.0
  C  C33  1  0.95622117  0.37854750  0.96832277  1.0
  C  C34  1  0.95036505  0.39857803  0.86410563  1.0
  C  C35  1  0.03222275  0.56080091  0.85869721  1.0
  C  C36  1  0.03875468  0.54571111  0.96636082  1.0
  C  C37  1  0.99964241  0.45172832  0.02264339  1.0
  C  C38  1  0.00618337  0.43709168  0.13083367  1.0
  C  C39  1  0.08729139  0.60392852  0.12281484  1.0
  C  C40  1  0.08318224  0.61997704  0.01802095  1.0
  C  C41  1  0.59069651  0.41994397  0.38599474  1.0
  C  C42  1  0.03967866  0.50909731  0.29488831  1.0
  C  C43  1  0.70629910  0.40958673  0.40679225  1.0
  C  C44  1  0.63225599  0.50765768  0.55774362  1.0
  C  C45  1  0.50840128  0.52544066  0.54486338  1.0
  C  C46  1  0.48844830  0.47958858  0.45490955  1.0
  C  C47  1  0.36536840  0.49761996  0.43980061  1.0
  C  C48  1  0.29147537  0.59739487  0.59220524  1.0
  C  C49  1  0.40741288  0.58571210  0.61387451  1.0
  C  C50  1  0.12318335  0.27586642  0.49033013  1.0
  C  C51  1  0.26853540  0.94681177  0.42147164  1.0
  C  C52  1  0.21703884  0.15418390  0.47074940  1.0
  C  C53  1  0.80726115  0.95983171  0.49746295  1.0
  C  C54  1  0.72017239  0.07656180  0.50733412  1.0
  C  C55  1  0.59873731  0.09762209  0.49377175  1.0
  C  C56  1  0.22082793  0.85154566  0.39415893  1.0
  C  C57  1  0.97263303  0.33657002  0.19242307  1.0
  N  N58  1  0.27216447  0.55334836  0.50623428  1.0
  N  N59  1  0.72645514  0.45424267  0.49301026  1.0
  O  O60  1  0.04423548  0.56497788  0.63851789  1.0
  O  O61  1  0.92121473  0.44939386  0.65638802  1.0
  O  O62  1  0.97980529  0.72312166  0.45193159  1.0
  O  O63  1  0.82375099  0.65315186  0.50767079  1.0
  O  O64  1  0.12801761  0.52384712  0.33311739  1.0
  O  O65  1  0.94332387  0.49563464  0.34445658  1.0
  O  O66  1  0.16217221  0.35880555  0.51113120  1.0
  O  O67  1  0.01078994  0.28914766  0.48337849  1.0
  O  O68  1  0.28115792  0.75821959  0.35082917  1.0
  O  O69  1  0.09942036  0.88130135  0.42351447  1.0
  O  O70  1  0.87410320  0.31951481  0.19711561  1.0
  O  O71  1  0.06858026  0.26234948  0.24192694  1.0
  F  F72  1  0.07006866  0.65147927  0.80925425  1.0
  F  F73  1  0.65523857  0.54851038  0.64164813  1.0
