# generated using pymatgen
data_Zn4H10C28S2Cl2O13F2
_symmetry_space_group_name_H-M   'P 1'
_cell_length_a   18.54168886
_cell_length_b   19.73573228
_cell_length_c   32.81943593
_cell_angle_alpha   85.96653310
_cell_angle_beta   73.59800820
_cell_angle_gamma   61.98363881
_symmetry_Int_Tables_number   1
_chemical_formula_structural   Zn4H10C28S2Cl2O13F2
_chemical_formula_sum   'Zn16 H40 C112 S8 Cl8 O52 F8'
_cell_volume   10143.33272947
_cell_formula_units_Z   4
loop_
 _symmetry_equiv_pos_site_id
 _symmetry_equiv_pos_as_xyz
  1  'x, y, z'
loop_
 _atom_site_type_symbol
 _atom_site_label
 _atom_site_symmetry_multiplicity
 _atom_site_fract_x
 _atom_site_fract_y
 _atom_site_fract_z
 _atom_site_occupancy
  Zn  Zn0  1  0.87216852  0.55622871  0.51892567  1.0
  Zn  Zn1  1  0.03819843  0.48415600  0.43890269  1.0
  Zn  Zn2  1  0.04220676  0.39916762  0.52419845  1.0
  Zn  Zn3  1  0.04690450  0.56038246  0.51764879  1.0
  Zn  Zn4  1  0.62621534  0.19195855  0.73249159  1.0
  Zn  Zn5  1  0.46342205  0.35045367  0.72556205  1.0
  Zn  Zn6  1  0.45747199  0.26477188  0.81260164  1.0
  Zn  Zn7  1  0.45408028  0.19286290  0.72931476  1.0
  Zn  Zn8  1  0.46254069  0.76298920  0.31253339  1.0
  Zn  Zn9  1  0.45344856  0.69141262  0.23148901  1.0
  Zn  Zn10  1  0.62622410  0.69374361  0.22949860  1.0
  Zn  Zn11  1  0.45741869  0.85118912  0.22612990  1.0
  Zn  Zn12  1  0.03699544  0.89945555  0.02451900  1.0
  Zn  Zn13  1  0.04988561  0.05666472  0.01877151  1.0
  Zn  Zn14  1  0.87542894  0.05837549  0.01956795  1.0
  Zn  Zn15  1  0.03778737  0.98514734  0.93747575  1.0
  H  H16  1  0.81137161  0.24370931  0.65296543  1.0
  H  H17  1  0.54278785  0.48541544  0.62058389  1.0
  H  H18  1  0.54808600  0.52560160  0.66588913  1.0
  H  H19  1  0.64763141  0.57048389  0.61773849  1.0
  H  H20  1  0.64208962  0.53049176  0.57246429  1.0
  H  H21  1  0.29244727  0.60178984  0.29595064  1.0
  H  H22  1  0.35142192  0.67370732  0.43315726  1.0
  H  H23  1  0.26082244  0.76195435  0.43053828  1.0
  H  H24  1  0.16410837  0.71264557  0.47704046  1.0
  H  H25  1  0.25460813  0.62438059  0.47963284  1.0
  H  H26  1  0.81079407  0.60155314  0.29564022  1.0
  H  H27  1  0.54684560  0.76214035  0.42988702  1.0
  H  H28  1  0.54172465  0.67399366  0.43245942  1.0
  H  H29  1  0.64090148  0.62460432  0.47913701  1.0
  H  H30  1  0.64609253  0.71267453  0.47657686  1.0
  H  H31  1  0.30613160  0.45700808  0.64615847  1.0
  H  H32  1  0.33160578  0.17820822  0.63031247  1.0
  H  H33  1  0.24093730  0.21839395  0.67569702  1.0
  H  H34  1  0.14480500  0.26966937  0.62740206  1.0
  H  H35  1  0.23554030  0.22941665  0.58210209  1.0
  H  H36  1  0.68941198  0.14844431  0.95475390  1.0
  H  H37  1  0.95710960  0.07661564  0.81741657  1.0
  H  H38  1  0.95205905  0.98842378  0.81989281  1.0
  H  H39  1  0.85231389  0.03817800  0.77354112  1.0
  H  H40  1  0.85734523  0.12631421  0.77107852  1.0
  H  H41  1  0.19410093  0.05207918  0.84456932  1.0
  H  H42  1  0.16849817  0.21541225  0.97607731  1.0
  H  H43  1  0.25936654  0.12734997  0.97856405  1.0
  H  H44  1  0.35515964  0.17426174  0.92871993  1.0
  H  H45  1  0.26432513  0.26235610  0.92634248  1.0
  H  H46  1  0.19418146  0.79346150  0.10361296  1.0
  H  H47  1  0.25924504  0.03223898  0.07422748  1.0
  H  H48  1  0.16830506  0.07243232  0.11950232  1.0
  H  H49  1  0.26404616  0.02136439  0.16788140  1.0
  H  H50  1  0.35495630  0.98111959  0.12266163  1.0
  H  H51  1  0.68870722  0.00629731  0.09712012  1.0
  H  H52  1  0.95218989  0.72436922  0.08413969  1.0
  H  H53  1  0.95707304  0.76462258  0.12955721  1.0
  H  H54  1  0.85768090  0.71956892  0.17744922  1.0
  H  H55  1  0.85290308  0.67907930  0.13209158  1.0
  C  C56  1  0.86137419  0.56853123  0.43118135  1.0
  C  C57  1  0.12348920  0.31587978  0.43884744  1.0
  C  C58  1  0.86296823  0.43008004  0.56860005  1.0
  C  C59  1  0.13870980  0.43173702  0.56852951  1.0
  C  C60  1  0.87541713  0.68384869  0.56072018  1.0
  C  C61  1  0.13788976  0.56923758  0.43110088  1.0
  C  C62  1  0.63902451  0.31821608  0.68126892  1.0
  C  C63  1  0.37719570  0.43424200  0.81062483  1.0
  C  C64  1  0.63662108  0.18142966  0.81971421  1.0
  C  C65  1  0.36138593  0.18125383  0.81842824  1.0
  C  C66  1  0.62420717  0.06635277  0.68875932  1.0
  C  C67  1  0.36293742  0.31928084  0.68068774  1.0
  C  C68  1  0.36271007  0.68054554  0.31924451  1.0
  C  C69  1  0.62259950  0.56620804  0.18865251  1.0
  C  C70  1  0.63841735  0.68071474  0.31847224  1.0
  C  C71  1  0.63687661  0.81937738  0.18069370  1.0
  C  C72  1  0.37685191  0.93263549  0.31187724  1.0
  C  C73  1  0.36138285  0.81897502  0.18115411  1.0
  C  C74  1  0.13807840  0.93081571  0.06876207  1.0
  C  C75  1  0.87965603  0.18363695  0.06111407  1.0
  C  C76  1  0.86114614  0.93192125  0.06909548  1.0
  C  C77  1  0.86175959  0.06922238  0.93137641  1.0
  C  C78  1  0.12168956  0.81582128  0.93934461  1.0
  C  C79  1  0.13823484  0.06823066  0.93073584  1.0
  C  C80  1  0.73829128  0.80325475  0.60100735  1.0
  C  C81  1  0.76124260  0.94660031  0.64901677  1.0
  C  C82  1  0.82587676  0.75830958  0.58591321  1.0
  C  C83  1  0.67361340  0.99167197  0.66394328  1.0
  C  C84  1  0.78561220  0.87783578  0.62597967  1.0
  C  C85  1  0.71396006  0.87205475  0.62399291  1.0
  C  C86  1  0.20197575  0.22586878  0.37010231  1.0
  C  C87  1  0.29834889  0.02279999  0.38061505  1.0
  C  C88  1  0.17272415  0.24127180  0.41399253  1.0
  C  C89  1  0.32763925  0.00726072  0.33675381  1.0
  C  C90  1  0.25252244  0.10222377  0.39314994  1.0
  C  C91  1  0.24790971  0.14639608  0.35756550  1.0
  C  C92  1  0.69570716  0.34646383  0.65269574  1.0
  C  C93  1  0.80914632  0.39883715  0.59728894  1.0
  C  C94  1  0.66513719  0.41853431  0.63629484  1.0
  C  C95  1  0.83989350  0.32527531  0.61429209  1.0
  C  C96  1  0.72033643  0.44308930  0.60964907  1.0
  C  C97  1  0.78461601  0.30051718  0.64093417  1.0
  C  C98  1  0.58585660  0.49218189  0.63510116  1.0
  C  C99  1  0.64808373  0.52029392  0.60496211  1.0
  C  C100  1  0.30564304  0.65253679  0.34758522  1.0
  C  C101  1  0.19436390  0.59650201  0.40127388  1.0
  C  C102  1  0.28014910  0.66424410  0.39180186  1.0
  C  C103  1  0.22050223  0.58489273  0.35597342  1.0
  C  C104  1  0.22656573  0.63702440  0.41732847  1.0
  C  C105  1  0.27431372  0.61216681  0.33037457  1.0
  C  C106  1  0.28707240  0.69908084  0.42924808  1.0
  C  C107  1  0.22648011  0.66821344  0.45833042  1.0
  C  C108  1  0.69491292  0.65250987  0.34699206  1.0
  C  C109  1  0.80787343  0.59615736  0.40112394  1.0
  C  C110  1  0.66408944  0.66425224  0.39122485  1.0
  C  C111  1  0.83903008  0.58461320  0.35582089  1.0
  C  C112  1  0.71908461  0.63686333  0.41692127  1.0
  C  C113  1  0.78384578  0.61200698  0.33004838  1.0
  C  C114  1  0.58468770  0.69926943  0.42861008  1.0
  C  C115  1  0.64676540  0.66833077  0.45782460  1.0
  C  C116  1  0.30560599  0.34789082  0.65259742  1.0
  C  C117  1  0.19525489  0.40623190  0.59715380  1.0
  C  C118  1  0.27264292  0.30494676  0.64001940  1.0
  C  C119  1  0.22901550  0.44987564  0.61028521  1.0
  C  C120  1  0.21958244  0.33358211  0.61333958  1.0
  C  C121  1  0.28211934  0.42125736  0.63706220  1.0
  C  C122  1  0.27000959  0.22921060  0.64350722  1.0
  C  C123  1  0.20989429  0.26131861  0.61331126  1.0
  C  C124  1  0.29840007  0.58247660  0.82152420  1.0
  C  C125  1  0.20160719  0.66763335  0.92845299  1.0
  C  C126  1  0.32793513  0.50882563  0.83557628  1.0
  C  C127  1  0.17175213  0.74128890  0.91439778  1.0
  C  C128  1  0.24784131  0.60928255  0.89489315  1.0
  C  C129  1  0.25224312  0.64082278  0.85508077  1.0
  C  C130  1  0.80484897  0.09749770  0.90306229  1.0
  C  C131  1  0.69077278  0.15419435  0.84951076  1.0
  C  C132  1  0.83505346  0.08601829  0.85883053  1.0
  C  C133  1  0.66038885  0.16552377  0.89478252  1.0
  C  C134  1  0.77959017  0.11363600  0.83336456  1.0
  C  C135  1  0.71595558  0.13803470  0.92032789  1.0
  C  C136  1  0.91415593  0.05131419  0.82131977  1.0
  C  C137  1  0.85167697  0.08244822  0.79232070  1.0
  C  C138  1  0.19479131  0.09682381  0.90233873  1.0
  C  C139  1  0.30459419  0.15134713  0.84544507  1.0
  C  C140  1  0.22742007  0.13749687  0.91751799  1.0
  C  C141  1  0.27094278  0.10972132  0.83016726  1.0
  C  C142  1  0.28020766  0.16344595  0.88985305  1.0
  C  C143  1  0.21806332  0.08365908  0.85788375  1.0
  C  C144  1  0.23007552  0.17021029  0.95711075  1.0
  C  C145  1  0.29001094  0.19959490  0.92592771  1.0
  C  C146  1  0.64431180  0.44681729  0.14901409  1.0
  C  C147  1  0.85813262  0.30285998  0.10082625  1.0
  C  C148  1  0.67254074  0.49154773  0.16380338  1.0
  C  C149  1  0.82994904  0.25818510  0.08597247  1.0
  C  C150  1  0.79109369  0.37175767  0.12384271  1.0
  C  C151  1  0.71144168  0.37791332  0.12600899  1.0
  C  C152  1  0.19486605  0.90249034  0.09708212  1.0
  C  C153  1  0.30470405  0.84450148  0.15268306  1.0
  C  C154  1  0.22749679  0.94563679  0.10976223  1.0
  C  C155  1  0.27115978  0.80061886  0.13953148  1.0
  C  C156  1  0.28027647  0.91716302  0.13655933  1.0
  C  C157  1  0.21817530  0.82921848  0.11269454  1.0
  C  C158  1  0.22995623  0.02145496  0.10637724  1.0
  C  C159  1  0.28986464  0.98943494  0.13667695  1.0
  C  C160  1  0.80438236  0.90343508  0.09733817  1.0
  C  C161  1  0.69083923  0.85073871  0.15226244  1.0
  C  C162  1  0.83490655  0.83125702  0.11360386  1.0
  C  C163  1  0.66014796  0.92447403  0.13546833  1.0
  C  C164  1  0.77967428  0.80651699  0.14002892  1.0
  C  C165  1  0.71546629  0.94937624  0.10902343  1.0
  C  C166  1  0.91421499  0.75776127  0.11491784  1.0
  C  C167  1  0.85198550  0.72948518  0.14490046  1.0
  S  S168  1  0.88042197  0.80048070  0.60005095  1.0
  S  S169  1  0.61911017  0.94951097  0.64974692  1.0
  S  S170  1  0.20158212  0.15726443  0.44081701  1.0
  S  S171  1  0.29883989  0.09129162  0.30991317  1.0
  S  S172  1  0.29918153  0.51026447  0.89099536  1.0
  S  S173  1  0.20060302  0.73984026  0.85897277  1.0
  S  S174  1  0.78335223  0.44901030  0.14948540  1.0
  S  S175  1  0.71907927  0.30077731  0.10031991  1.0
  Cl  Cl176  1  0.94717752  0.26009300  0.60392460  1.0
  Cl  Cl177  1  0.18845472  0.53720504  0.32857067  1.0
  Cl  Cl178  1  0.94623649  0.53660086  0.32856180  1.0
  Cl  Cl179  1  0.20821827  0.54135222  0.59450701  1.0
  Cl  Cl180  1  0.55320426  0.21378810  0.92231363  1.0
  Cl  Cl181  1  0.29151912  0.08781944  0.77655326  1.0
  Cl  Cl182  1  0.29191038  0.70927855  0.15528439  1.0
  Cl  Cl183  1  0.55289337  0.98974998  0.14593981  1.0
  O  O184  1  0.99772961  0.50097758  0.50122269  1.0
  O  O185  1  0.82136258  0.58470208  0.47092692  1.0
  O  O186  1  0.10274883  0.37565287  0.41787824  1.0
  O  O187  1  0.94325697  0.38829658  0.55815046  1.0
  O  O188  1  0.94161176  0.53126866  0.41543620  1.0
  O  O189  1  0.82250770  0.49763977  0.55678211  1.0
  O  O190  1  0.10624682  0.31346632  0.47939069  1.0
  O  O191  1  0.11725635  0.38267590  0.55979273  1.0
  O  O192  1  0.95641415  0.65674685  0.55073949  1.0
  O  O193  1  0.11630010  0.49855224  0.55508819  1.0
  O  O194  1  0.83398611  0.65390186  0.55131649  1.0
  O  O195  1  0.11353732  0.52918224  0.41552599  1.0
  O  O196  1  0.11858121  0.58853300  0.47074714  1.0
  O  O197  1  0.50096851  0.25003625  0.75007248  1.0
  O  O198  1  0.67436953  0.25142593  0.69458674  1.0
  O  O199  1  0.39828466  0.43555365  0.77023441  1.0
  O  O200  1  0.55628889  0.21846018  0.83527914  1.0
  O  O201  1  0.55917740  0.36421701  0.68991736  1.0
  O  O202  1  0.67698700  0.16462785  0.78003399  1.0
  O  O203  1  0.39395683  0.37490792  0.83231010  1.0
  O  O204  1  0.38246101  0.21940020  0.83847736  1.0
  O  O205  1  0.54313797  0.09537428  0.69719688  1.0
  O  O206  1  0.38456401  0.16715394  0.77833691  1.0
  O  O207  1  0.66559495  0.09504247  0.69948130  1.0
  O  O208  1  0.38829078  0.36432982  0.69033310  1.0
  O  O209  1  0.38186817  0.25142259  0.69264072  1.0
  O  O210  1  0.50110581  0.75004721  0.25003483  1.0
  O  O211  1  0.38766213  0.71712867  0.33762522  1.0
  O  O212  1  0.54187195  0.59455970  0.19891418  1.0
  O  O213  1  0.67391767  0.66702439  0.27842377  1.0
  O  O214  1  0.38180645  0.66576810  0.27924814  1.0
  O  O215  1  0.55856576  0.71650730  0.33709627  1.0
  O  O216  1  0.66558542  0.59542957  0.19756040  1.0
  O  O217  1  0.67724666  0.75107844  0.19171441  1.0
  O  O218  1  0.39411056  0.93561472  0.27136475  1.0
  O  O219  1  0.55662491  0.86151846  0.19177668  1.0
  O  O220  1  0.39745901  0.87260735  0.33267215  1.0
  O  O221  1  0.38456876  0.75172248  0.19402662  1.0
  O  O222  1  0.38247109  0.86802130  0.19034738  1.0
  O  O223  1  0.00028770  0.99995069  0.99993157  1.0
  O  O224  1  0.11152784  0.88623844  0.05979654  1.0
  O  O225  1  0.96051025  0.15411429  0.05113285  1.0
  O  O226  1  0.82578757  0.99948527  0.05660886  1.0
  O  O227  1  0.12085644  0.99788550  0.05591795  1.0
  O  O228  1  0.94094949  0.88560593  0.05982931  1.0
  O  O229  1  0.83597204  0.15551017  0.05185650  1.0
  O  O230  1  0.82642704  0.08489076  0.97135410  1.0
  O  O231  1  0.10281368  0.87522658  0.91763561  1.0
  O  O232  1  0.94154428  0.03153135  0.91286000  1.0
  O  O233  1  0.10185919  0.81456608  0.97973948  1.0
  O  O234  1  0.12076183  0.08296521  0.97064685  1.0
  O  O235  1  0.11223151  0.03183088  0.91301445  1.0
  F  F236  1  0.68079562  0.78484302  0.59482158  1.0
  F  F237  1  0.81859818  0.96510089  0.65526001  1.0
  F  F238  1  0.18916008  0.27959448  0.34167749  1.0
  F  F239  1  0.31112973  0.96901188  0.40909132  1.0
  F  F240  1  0.31112958  0.59851101  0.78044442  1.0
  F  F241  1  0.18876780  0.65165244  0.96952998  1.0
  F  F242  1  0.56223385  0.46550117  0.15530750  1.0
  F  F243  1  0.94039694  0.28397549  0.09444267  1.0
