# generated using pymatgen
data_Al2H11(C11O5)2
_symmetry_space_group_name_H-M   'P 1'
_cell_length_a   6.71291984
_cell_length_b   19.27570517
_cell_length_c   21.54912508
_cell_angle_alpha   86.83538992
_cell_angle_beta   87.78134950
_cell_angle_gamma   87.89482428
_symmetry_Int_Tables_number   1
_chemical_formula_structural   Al2H11(C11O5)2
_chemical_formula_sum   'Al4 H22 C44 O20'
_cell_volume   2780.36400905
_cell_formula_units_Z   2
loop_
 _symmetry_equiv_pos_site_id
 _symmetry_equiv_pos_as_xyz
  1  'x, y, z'
loop_
 _atom_site_type_symbol
 _atom_site_label
 _atom_site_symmetry_multiplicity
 _atom_site_fract_x
 _atom_site_fract_y
 _atom_site_fract_z
 _atom_site_occupancy
  Al  Al0  1  0.77246351  0.26549181  0.25928532  1.0
  Al  Al1  1  0.22788340  0.73631647  0.73906941  1.0
  Al  Al2  1  0.27101617  0.26523259  0.26020408  1.0
  Al  Al3  1  0.72915067  0.73630244  0.73842561  1.0
  H  H4  1  0.18773393  0.10572998  0.94634744  1.0
  H  H5  1  0.81437602  0.91007881  0.04112591  1.0
  H  H6  1  0.80906862  0.06509591  0.90944142  1.0
  H  H7  1  0.19522097  0.94975213  0.07703307  1.0
  H  H8  1  0.67192097  0.96689355  0.83534870  1.0
  H  H9  1  0.50301820  0.90171170  0.82191487  1.0
  H  H10  1  0.50198246  0.98047542  0.77446486  1.0
  H  H11  1  0.21586816  0.98627498  0.84828105  1.0
  H  H12  1  0.38911786  0.04709609  0.86794122  1.0
  H  H13  1  0.50134781  0.97118226  0.95666228  1.0
  H  H14  1  0.36435908  0.90135768  0.93277001  1.0
  H  H15  1  0.33404548  0.17949897  0.04703306  1.0
  H  H16  1  0.51671764  0.19114422  0.10212581  1.0
  H  H17  1  0.50359655  0.24776515  0.03432617  1.0
  H  H18  1  0.78574917  0.16532861  0.01959489  1.0
  H  H19  1  0.60062913  0.14703332  0.96780073  1.0
  H  H20  1  0.50183722  0.04359214  0.03147013  1.0
  H  H21  1  0.64286772  0.06706769  0.09418370  1.0
  H  H22  1  0.52965177  0.17581335  0.27740488  1.0
  H  H23  1  0.47036304  0.82740670  0.72900182  1.0
  H  H24  1  0.01014228  0.35213834  0.27906569  1.0
  H  H25  1  0.99028605  0.64861142  0.72131666  1.0
  C  C26  1  0.52298277  0.34778026  0.17199061  1.0
  C  C27  1  0.47670338  0.65217831  0.82546966  1.0
  C  C28  1  0.50373145  0.34799563  0.34125243  1.0
  C  C29  1  0.49699306  0.65460270  0.65673159  1.0
  C  C30  1  0.01948843  0.17788608  0.34566759  1.0
  C  C31  1  0.98054705  0.82456284  0.65359061  1.0
  C  C32  1  0.04093500  0.18367959  0.17924602  1.0
  C  C33  1  0.95888975  0.81650005  0.82045598  1.0
  C  C34  1  0.89513278  0.04013850  0.94709584  1.0
  C  C35  1  0.10945412  0.97470015  0.03928174  1.0
  C  C36  1  0.10445808  0.06186128  0.96677777  1.0
  C  C37  1  0.89741897  0.95400297  0.02063653  1.0
  C  C38  1  0.05048941  0.13637725  0.13004139  1.0
  C  C39  1  0.94978571  0.86471259  0.86889837  1.0
  C  C40  1  0.82205386  0.03234408  0.01711445  1.0
  C  C41  1  0.18112811  0.98389563  0.96895154  1.0
  C  C42  1  0.03557277  0.05359050  0.03768184  1.0
  C  C43  1  0.96760727  0.96112748  0.94978220  1.0
  C  C44  1  0.05511875  0.09864901  0.08638714  1.0
  C  C45  1  0.94684232  0.91008967  0.90618688  1.0
  C  C46  1  0.98299529  0.87746576  0.60367205  1.0
  C  C47  1  0.01627423  0.12448710  0.39511709  1.0
  C  C48  1  0.98873914  0.92453230  0.56300459  1.0
  C  C49  1  0.01007853  0.07684852  0.43523261  1.0
  C  C50  1  0.99569943  0.97639154  0.51894701  1.0
  C  C51  1  0.00291637  0.02460455  0.47890650  1.0
  C  C52  1  0.52072265  0.39427645  0.11739050  1.0
  C  C53  1  0.47846983  0.60536980  0.87988952  1.0
  C  C54  1  0.51250865  0.43490409  0.07164115  1.0
  C  C55  1  0.48542791  0.56497076  0.92582391  1.0
  C  C56  1  0.50317870  0.47945729  0.02172443  1.0
  C  C57  1  0.49396160  0.52055145  0.97587369  1.0
  C  C58  1  0.49676006  0.39456845  0.39138854  1.0
  C  C59  1  0.50404835  0.60730744  0.60715678  1.0
  C  C60  1  0.49762394  0.43514482  0.43326175  1.0
  C  C61  1  0.50353749  0.56622614  0.56567875  1.0
  C  C62  1  0.49934534  0.47981988  0.47878597  1.0
  C  C63  1  0.50205757  0.52125129  0.52038543  1.0
  C  C64  1  0.36458871  0.95853476  0.93367151  1.0
  C  C65  1  0.36523634  0.99093179  0.86670197  1.0
  C  C66  1  0.51897731  0.95826895  0.82213663  1.0
  C  C67  1  0.63870597  0.06915426  0.04296631  1.0
  C  C68  1  0.63457838  0.14543910  0.01754543  1.0
  C  C69  1  0.48910158  0.19358429  0.05208748  1.0
  O  O70  1  0.33706762  0.32993831  0.32214392  1.0
  O  O71  1  0.66361428  0.67318333  0.67542639  1.0
  O  O72  1  0.69294208  0.32996076  0.19297448  1.0
  O  O73  1  0.30676206  0.67064925  0.80484139  1.0
  O  O74  1  0.86664922  0.20279134  0.19877467  1.0
  O  O75  1  0.13304648  0.79823314  0.80017195  1.0
  O  O76  1  0.67767629  0.33027701  0.32067152  1.0
  O  O77  1  0.32319135  0.67237646  0.67732791  1.0
  O  O78  1  0.85000604  0.19827044  0.32554240  1.0
  O  O79  1  0.15034087  0.80399303  0.67327749  1.0
  O  O80  1  0.35317346  0.32990154  0.19436001  1.0
  O  O81  1  0.64674319  0.66967952  0.80296967  1.0
  O  O82  1  0.52572155  0.22429007  0.26280123  1.0
  O  O83  1  0.47453602  0.77737115  0.73668432  1.0
  O  O84  1  0.19077206  0.19821053  0.32653231  1.0
  O  O85  1  0.80948337  0.80480214  0.67347556  1.0
  O  O86  1  0.20548482  0.20218715  0.19965906  1.0
  O  O87  1  0.79407941  0.79727566  0.80077933  1.0
  O  O88  1  0.01739313  0.30732634  0.26056574  1.0
  O  O89  1  0.98302031  0.69453361  0.73766244  1.0
