# generated using pymatgen
data_ZnH5C13Br2NO5
_symmetry_space_group_name_H-M   'P 1'
_cell_length_a   10.59901265
_cell_length_b   11.89681628
_cell_length_c   17.39713608
_cell_angle_alpha   93.66845422
_cell_angle_beta   98.54961100
_cell_angle_gamma   90.09271984
_symmetry_Int_Tables_number   1
_chemical_formula_structural   ZnH5C13Br2NO5
_chemical_formula_sum   'Zn2 H10 C26 Br4 N2 O10'
_cell_volume   2164.72338733
_cell_formula_units_Z   2
loop_
 _symmetry_equiv_pos_site_id
 _symmetry_equiv_pos_as_xyz
  1  'x, y, z'
loop_
 _atom_site_type_symbol
 _atom_site_label
 _atom_site_symmetry_multiplicity
 _atom_site_fract_x
 _atom_site_fract_y
 _atom_site_fract_z
 _atom_site_occupancy
  Zn  Zn0  1  0.36859995  0.49969222  0.49724072  1.0
  Zn  Zn1  1  0.63162709  0.50022357  0.50259005  1.0
  H  H2  1  0.61474081  0.36313158  0.26537140  1.0
  H  H3  1  0.26498112  0.26259606  0.93503437  1.0
  H  H4  1  0.38357558  0.63760935  0.73281140  1.0
  H  H5  1  0.30570962  0.58374473  0.09459208  1.0
  H  H6  1  0.69547328  0.42429443  0.90684949  1.0
  H  H7  1  0.62470244  0.75445064  0.97393233  1.0
  H  H8  1  0.75719727  0.65950427  0.98033388  1.0
  H  H9  1  0.73039957  0.74692374  0.06416459  1.0
  H  H10  1  0.23816305  0.35323743  0.01738223  1.0
  H  H11  1  0.36674047  0.25421782  0.02663445  1.0
  C  C12  1  0.50028985  0.28090399  0.49954184  1.0
  C  C13  1  0.52579008  0.51266275  0.65108447  1.0
  C  C14  1  0.46014733  0.48010228  0.26127009  1.0
  C  C15  1  0.53998519  0.52245432  0.73857618  1.0
  C  C16  1  0.54478615  0.40885319  0.22729725  1.0
  C  C17  1  0.45402830  0.59344727  0.77158971  1.0
  C  C18  1  0.54121928  0.39882754  0.14702795  1.0
  C  C19  1  0.45700558  0.60520715  0.85177080  1.0
  C  C20  1  0.45632276  0.46245407  0.09781827  1.0
  C  C21  1  0.54273225  0.54364311  0.90190361  1.0
  C  C22  1  0.37100915  0.53263046  0.13185236  1.0
  C  C23  1  0.49979085  0.71905809  0.50027153  1.0
  C  C24  1  0.62952261  0.47387905  0.86885395  1.0
  C  C25  1  0.37127259  0.54046409  0.21227638  1.0
  C  C26  1  0.62975559  0.46426323  0.78849087  1.0
  C  C27  1  0.46198554  0.46492391  0.01335700  1.0
  C  C28  1  0.53645436  0.54212329  0.98634879  1.0
  C  C29  1  0.68410670  0.69840631  0.01192191  1.0
  C  C30  1  0.31113831  0.31102886  0.98734276  1.0
  C  C31  1  0.50029306  0.15956825  0.49997594  1.0
  C  C32  1  0.49989818  0.84039636  0.49988253  1.0
  C  C33  1  0.50027107  0.05673012  0.49995373  1.0
  C  C34  1  0.50002553  0.94323493  0.49991838  1.0
  C  C35  1  0.93658304  0.50047128  0.50210195  1.0
  C  C36  1  0.06368364  0.49988088  0.49785592  1.0
  C  C37  1  0.47461673  0.48812013  0.34876936  1.0
  Br  Br38  1  0.74809813  0.36219351  0.75095250  1.0
  Br  Br39  1  0.25509487  0.64320478  0.25139889  1.0
  Br  Br40  1  0.33920476  0.70403158  0.89340022  1.0
  Br  Br41  1  0.65730281  0.29986471  0.10390062  1.0
  N  N42  1  0.82766967  0.50092575  0.50591908  1.0
  N  N43  1  0.17258047  0.49927233  0.49397315  1.0
  O  O44  1  0.39235626  0.32823800  0.49839433  1.0
  O  O45  1  0.39213301  0.39081131  0.95948395  1.0
  O  O46  1  0.60765241  0.67164705  0.50124263  1.0
  O  O47  1  0.60830135  0.32850185  0.50019102  1.0
  O  O48  1  0.39178919  0.67152953  0.49977923  1.0
  O  O49  1  0.37386523  0.48977923  0.38015511  1.0
  O  O50  1  0.62658503  0.51064640  0.61974355  1.0
  O  O51  1  0.58907925  0.49041846  0.38372775  1.0
  O  O52  1  0.41135414  0.50950874  0.61604526  1.0
  O  O53  1  0.60810401  0.61501510  0.04021874  1.0
