# generated using pymatgen
data_AlH36(C6O)6
_symmetry_space_group_name_H-M   'P 1'
_cell_length_a   3.94855176
_cell_length_b   29.07569257
_cell_length_c   29.07628759
_cell_angle_alpha   59.99938572
_cell_angle_beta   89.99066736
_cell_angle_gamma   89.98958096
_symmetry_Int_Tables_number   1
_chemical_formula_structural   AlH36(C6O)6
_chemical_formula_sum   'Al2 H72 C72 O12'
_cell_volume   2890.91148259
_cell_formula_units_Z   2
loop_
 _symmetry_equiv_pos_site_id
 _symmetry_equiv_pos_as_xyz
  1  'x, y, z'
loop_
 _atom_site_type_symbol
 _atom_site_label
 _atom_site_symmetry_multiplicity
 _atom_site_fract_x
 _atom_site_fract_y
 _atom_site_fract_z
 _atom_site_occupancy
  Al  Al0  1  0.00005296  0.99999856  0.50000291  1.0
  Al  Al1  1  0.99886623  0.66668024  0.16664804  1.0
  H  H2  1  0.30795408  0.53282170  0.33765150  1.0
  H  H3  1  0.66370676  0.56675365  0.29836180  1.0
  H  H4  1  0.71854511  0.50552748  0.35807165  1.0
  H  H5  1  0.69139645  0.53279663  0.12955258  1.0
  H  H6  1  0.33541629  0.56670745  0.13485327  1.0
  H  H7  1  0.28109090  0.50547239  0.13639309  1.0
  H  H8  1  0.24002178  0.41100727  0.19168124  1.0
  H  H9  1  0.57734859  0.37118699  0.23235651  1.0
  H  H10  1  0.66353734  0.43104371  0.17219828  1.0
  H  H11  1  0.75988562  0.41105316  0.39727545  1.0
  H  H12  1  0.42277841  0.37121460  0.39645059  1.0
  H  H13  1  0.33637412  0.43106178  0.39674462  1.0
  H  H14  1  0.24430108  0.25574649  0.47513594  1.0
  H  H15  1  0.58190539  0.29534277  0.43437649  1.0
  H  H16  1  0.66767341  0.23540955  0.49445680  1.0
  H  H17  1  0.75602056  0.25575401  0.26914640  1.0
  H  H18  1  0.41838931  0.29535232  0.27029586  1.0
  H  H19  1  0.33275838  0.23543588  0.27011688  1.0
  H  H20  1  0.30691037  0.13383010  0.32908789  1.0
  H  H21  1  0.66331500  0.09995144  0.36822623  1.0
  H  H22  1  0.71716205  0.16121603  0.30849435  1.0
  H  H23  1  0.69325659  0.13382697  0.53708058  1.0
  H  H24  1  0.33690214  0.09995221  0.53183807  1.0
  H  H25  1  0.28310433  0.16120921  0.53031451  1.0
  H  H26  1  0.30769408  0.83765537  0.12956278  1.0
  H  H27  1  0.66353605  0.79838108  0.13487797  1.0
  H  H28  1  0.71825175  0.85810453  0.13639323  1.0
  H  H29  1  0.69125147  0.62955128  0.33762753  1.0
  H  H30  1  0.33529089  0.63485072  0.29843283  1.0
  H  H31  1  0.28094312  0.63637553  0.35814020  1.0
  H  H32  1  0.24005245  0.69164371  0.39734511  1.0
  H  H33  1  0.57726839  0.73232681  0.39646341  1.0
  H  H34  1  0.66357144  0.67218382  0.39673896  1.0
  H  H35  1  0.75973594  0.89727590  0.19170051  1.0
  H  H36  1  0.42248815  0.89645087  0.23235801  1.0
  H  H37  1  0.33628991  0.89675966  0.17221446  1.0
  H  H38  1  0.24417555  0.97511104  0.26913647  1.0
  H  H39  1  0.58196658  0.93438033  0.27028635  1.0
  H  H40  1  0.66745311  0.99447425  0.27012104  1.0
  H  H41  1  0.75608307  0.76914354  0.47509431  1.0
  H  H42  1  0.41855673  0.77029066  0.43435706  1.0
  H  H43  1  0.33280326  0.77011711  0.49444941  1.0
  H  H44  1  0.30709435  0.82908419  0.53709317  1.0
  H  H45  1  0.66350854  0.86821957  0.53181147  1.0
  H  H46  1  0.71730858  0.80848926  0.53027482  1.0
  H  H47  1  0.69324454  0.03709219  0.32908374  1.0
  H  H48  1  0.33688571  0.03183277  0.36822527  1.0
  H  H49  1  0.28307230  0.03030963  0.30850062  1.0
  H  H50  1  0.30795247  0.62955292  0.03280886  1.0
  H  H51  1  0.66368842  0.63488569  0.06674281  1.0
  H  H52  1  0.71854654  0.63638229  0.00552958  1.0
  H  H53  1  0.69149103  0.83765514  0.03278614  1.0
  H  H54  1  0.33539461  0.79846401  0.06668636  1.0
  H  H55  1  0.28107636  0.85817559  0.00544858  1.0
  H  H56  1  0.24006002  0.89735069  0.91096389  1.0
  H  H57  1  0.57742753  0.89645055  0.87117981  1.0
  H  H58  1  0.66350396  0.89676169  0.93102262  1.0
  H  H59  1  0.76008705  0.69165184  0.91106287  1.0
  H  H60  1  0.42303070  0.73233169  0.87120548  1.0
  H  H61  1  0.33652302  0.67220287  0.93104650  1.0
  H  H62  1  0.24398872  0.76915040  0.75573406  1.0
  H  H63  1  0.58145082  0.77028722  0.79534218  1.0
  H  H64  1  0.66732093  0.77010692  0.73543160  1.0
  H  H65  1  0.75603111  0.97507748  0.75576759  1.0
  H  H66  1  0.41829579  0.93436581  0.79534219  1.0
  H  H67  1  0.33283411  0.99447221  0.73542977  1.0
  H  H68  1  0.30696770  0.03710958  0.63382269  1.0
  H  H69  1  0.66343463  0.03181544  0.59995141  1.0
  H  H70  1  0.71720875  0.03027743  0.66121933  1.0
  H  H71  1  0.69322529  0.82907489  0.63381993  1.0
  H  H72  1  0.33681492  0.86822066  0.59994742  1.0
  H  H73  1  0.28298972  0.80849211  0.66120853  1.0
  C  C74  1  0.50000146  0.95875076  0.58249937  1.0
  C  C75  1  0.49995987  0.08249560  0.45875942  1.0
  C  C76  1  0.50014243  0.95875842  0.45874280  1.0
  C  C77  1  0.49898212  0.58415818  0.20790060  1.0
  C  C78  1  0.49879449  0.70791166  0.20793211  1.0
  C  C79  1  0.49907473  0.70795186  0.08413313  1.0
  C  C80  1  0.49944931  0.52480980  0.23758687  1.0
  C  C81  1  0.51690652  0.49759623  0.29339226  1.0
  C  C82  1  0.50695572  0.44194491  0.32135297  1.0
  C  C83  1  0.49986892  0.41399862  0.29299213  1.0
  C  C84  1  0.49259491  0.44192774  0.23669216  1.0
  C  C85  1  0.48228255  0.49757290  0.20901247  1.0
  C  C86  1  0.49993223  0.35763156  0.32118505  1.0
  C  C87  1  0.50003038  0.30903015  0.34549609  1.0
  C  C88  1  0.49999492  0.25266787  0.37367596  1.0
  C  C89  1  0.49415020  0.22471066  0.42998336  1.0
  C  C90  1  0.48358655  0.16906765  0.45767304  1.0
  C  C91  1  0.49998654  0.14184120  0.42908278  1.0
  C  C92  1  0.51645568  0.16906601  0.37326732  1.0
  C  C93  1  0.50594834  0.22471034  0.34532358  1.0
  C  C94  1  0.49918923  0.73759061  0.23760498  1.0
  C  C95  1  0.51664540  0.79340526  0.20901274  1.0
  C  C96  1  0.50688307  0.82135557  0.23671260  1.0
  C  C97  1  0.49980012  0.79299049  0.29302074  1.0
  C  C98  1  0.49249358  0.73668666  0.32138269  1.0
  C  C99  1  0.48208386  0.70900497  0.29342439  1.0
  C  C100  1  0.49985894  0.82117193  0.32119912  1.0
  C  C101  1  0.50003915  0.84550076  0.34548054  1.0
  C  C102  1  0.50006252  0.87366989  0.37366232  1.0
  C  C103  1  0.49415409  0.92997899  0.34530969  1.0
  C  C104  1  0.48362448  0.95767158  0.37325538  1.0
  C  C105  1  0.50011237  0.92908184  0.42907286  1.0
  C  C106  1  0.51660417  0.87326040  0.45766359  1.0
  C  C107  1  0.50600460  0.84531542  0.42997006  1.0
  C  C108  1  0.49953480  0.73761611  0.02479305  1.0
  C  C109  1  0.51697286  0.70901717  0.99758075  1.0
  C  C110  1  0.50705994  0.73669738  0.94194389  1.0
  C  C111  1  0.49997379  0.79300971  0.91399068  1.0
  C  C112  1  0.49266783  0.82139334  0.94191229  1.0
  C  C113  1  0.48231269  0.79343490  0.99755284  1.0
  C  C114  1  0.49998590  0.82117667  0.85763112  1.0
  C  C115  1  0.49997598  0.84548340  0.80901745  1.0
  C  C116  1  0.49999061  0.87366068  0.75265720  1.0
  C  C117  1  0.49403601  0.84530059  0.72471032  1.0
  C  C118  1  0.48353033  0.87326358  0.66907444  1.0
  C  C119  1  0.50004285  0.92908174  0.64184354  1.0
  C  C120  1  0.51649749  0.95767121  0.66906401  1.0
  C  C121  1  0.50594722  0.92997371  0.72470579  1.0
  C  C122  1  0.55406916  0.52726379  0.32325755  1.0
  C  C123  1  0.44523016  0.52722354  0.14948390  1.0
  C  C124  1  0.49390465  0.41221298  0.20673347  1.0
  C  C125  1  0.50599924  0.41224854  0.38102622  1.0
  C  C126  1  0.49759160  0.25437176  0.45999355  1.0
  C  C127  1  0.50271089  0.25438332  0.28564904  1.0
  C  C128  1  0.55322900  0.13942603  0.34337544  1.0
  C  C129  1  0.44692077  0.13942359  0.51720424  1.0
  C  C130  1  0.55388210  0.82327944  0.14947387  1.0
  C  C131  1  0.44506768  0.64947279  0.32329011  1.0
  C  C132  1  0.49387733  0.70671424  0.38105328  1.0
  C  C133  1  0.50582567  0.88103238  0.20674825  1.0
  C  C134  1  0.49750877  0.95999387  0.28563497  1.0
  C  C135  1  0.50279207  0.78564303  0.45997252  1.0
  C  C136  1  0.55339835  0.84337147  0.51719337  1.0
  C  C137  1  0.44695408  0.01720332  0.34338010  1.0
  C  C138  1  0.55409989  0.64948982  0.02724613  1.0
  C  C139  1  0.44525385  0.82332035  0.02719991  1.0
  C  C140  1  0.49391758  0.88106897  0.91219095  1.0
  C  C141  1  0.50618921  0.70671975  0.91224018  1.0
  C  C142  1  0.49727145  0.78563485  0.75437538  1.0
  C  C143  1  0.50269491  0.95997598  0.75437869  1.0
  C  C144  1  0.55328944  0.01720476  0.63942128  1.0
  C  C145  1  0.44689707  0.84337879  0.63942267  1.0
  O  O146  1  0.73576357  0.99259638  0.44875207  1.0
  O  O147  1  0.73557429  0.94874581  0.55864791  1.0
  O  O148  1  0.73554151  0.05864128  0.49260495  1.0
  O  O149  1  0.26458782  0.94874998  0.49260192  1.0
  O  O150  1  0.26440005  0.05865042  0.44876117  1.0
  O  O151  1  0.26430485  0.99258758  0.55866111  1.0
  O  O152  1  0.73438594  0.71795215  0.10801380  1.0
  O  O153  1  0.73437569  0.60803721  0.17402282  1.0
  O  O154  1  0.73427014  0.67404200  0.21791570  1.0
  O  O155  1  0.26331747  0.67412846  0.10795088  1.0
  O  O156  1  0.26310035  0.71794940  0.17409028  1.0
  O  O157  1  0.26316659  0.60797509  0.21790916  1.0
