# generated using pymatgen
data_Gd2Zn3H36(C2O3)12
_symmetry_space_group_name_H-M   'P 1'
_cell_length_a   14.56361775
_cell_length_b   14.56363581
_cell_length_c   16.05277886
_cell_angle_alpha   90.00044536
_cell_angle_beta   90.00004371
_cell_angle_gamma   60.00014460
_symmetry_Int_Tables_number   1
_chemical_formula_structural   Gd2Zn3H36(C2O3)12
_chemical_formula_sum   'Gd4 Zn6 H72 C48 O72'
_cell_volume   2948.63196337
_cell_formula_units_Z   2
loop_
 _symmetry_equiv_pos_site_id
 _symmetry_equiv_pos_as_xyz
  1  'x, y, z'
loop_
 _atom_site_type_symbol
 _atom_site_label
 _atom_site_symmetry_multiplicity
 _atom_site_fract_x
 _atom_site_fract_y
 _atom_site_fract_z
 _atom_site_occupancy
  Gd  Gd0  1  0.33333333  0.33333333  0.25000058  1.0
  Gd  Gd1  1  0.66666667  0.66666667  0.25000021  1.0
  Gd  Gd2  1  0.66666667  0.66666667  0.75000087  1.0
  Gd  Gd3  1  0.33333333  0.33333333  0.75000124  1.0
  Zn  Zn4  1  0.50000264  0.49999989  0.99999993  1.0
  Zn  Zn5  1  0.99999931  0.50000121  0.99999886  1.0
  Zn  Zn6  1  0.50000216  0.99999881  0.00000349  1.0
  Zn  Zn7  1  0.49999945  0.99999915  0.50000104  1.0
  Zn  Zn8  1  0.00000062  0.49999821  0.50000076  1.0
  Zn  Zn9  1  0.50000053  0.49999956  0.49999989  1.0
  H  H10  1  0.35999831  0.45681910  0.05003378  1.0
  H  H11  1  0.18318235  0.35999823  0.05003275  1.0
  H  H12  1  0.45682162  0.18318094  0.05003160  1.0
  H  H13  1  0.64000116  0.54318143  0.05003314  1.0
  H  H14  1  0.81681534  0.64000311  0.05003355  1.0
  H  H15  1  0.54318149  0.81681643  0.05003407  1.0
  H  H16  1  0.64000096  0.81681790  0.44996549  1.0
  H  H17  1  0.81681700  0.54318062  0.44996583  1.0
  H  H18  1  0.54318222  0.64000182  0.44996608  1.0
  H  H19  1  0.35999876  0.18318143  0.44996731  1.0
  H  H20  1  0.18318261  0.45682030  0.44996634  1.0
  H  H21  1  0.45681670  0.35999910  0.44996547  1.0
  H  H22  1  0.64000216  0.54318156  0.94996580  1.0
  H  H23  1  0.81681606  0.64000243  0.94996621  1.0
  H  H24  1  0.54317964  0.81681814  0.94996736  1.0
  H  H25  1  0.35999754  0.45682002  0.94996706  1.0
  H  H26  1  0.18318404  0.35999836  0.94996479  1.0
  H  H27  1  0.45682096  0.18318027  0.94996675  1.0
  H  H28  1  0.35999745  0.18318276  0.55003285  1.0
  H  H29  1  0.18318454  0.45681926  0.55003313  1.0
  H  H30  1  0.45681756  0.35999885  0.55003288  1.0
  H  H31  1  0.64000073  0.81681845  0.55003227  1.0
  H  H32  1  0.81681717  0.54318037  0.55003262  1.0
  H  H33  1  0.54318279  0.64000077  0.55003411  1.0
  H  H34  1  0.64141639  0.18764315  0.15422423  1.0
  H  H35  1  0.17094109  0.64141744  0.15422380  1.0
  H  H36  1  0.18764053  0.17094098  0.15422402  1.0
  H  H37  1  0.35858259  0.81235853  0.15422343  1.0
  H  H38  1  0.82905641  0.35858583  0.15422324  1.0
  H  H39  1  0.81236083  0.82905594  0.15422489  1.0
  H  H40  1  0.35858454  0.82905809  0.34577600  1.0
  H  H41  1  0.82905931  0.81235689  0.34577735  1.0
  H  H42  1  0.81235842  0.35858368  0.34577512  1.0
  H  H43  1  0.64141653  0.17094249  0.34577543  1.0
  H  H44  1  0.17094019  0.18764132  0.34577595  1.0
  H  H45  1  0.18764087  0.64141770  0.34577507  1.0
  H  H46  1  0.35858378  0.81235673  0.84577660  1.0
  H  H47  1  0.82905800  0.35858323  0.84577578  1.0
  H  H48  1  0.81236083  0.82905652  0.84577557  1.0
  H  H49  1  0.64141748  0.18764293  0.84577615  1.0
  H  H50  1  0.17094228  0.64141564  0.84577447  1.0
  H  H51  1  0.18764111  0.17094315  0.84577593  1.0
  H  H52  1  0.64141701  0.17094179  0.65422359  1.0
  H  H53  1  0.17094155  0.18764299  0.65422348  1.0
  H  H54  1  0.18764244  0.64141620  0.65422384  1.0
  H  H55  1  0.35858188  0.82905817  0.65422664  1.0
  H  H56  1  0.82905803  0.81235697  0.65422363  1.0
  H  H57  1  0.81235713  0.35858377  0.65422451  1.0
  H  H58  1  0.64503924  0.27717306  0.22915862  1.0
  H  H59  1  0.07778767  0.64504034  0.22915723  1.0
  H  H60  1  0.27717099  0.07778858  0.22915779  1.0
  H  H61  1  0.35496167  0.72282626  0.22915594  1.0
  H  H62  1  0.92221068  0.35496135  0.22915733  1.0
  H  H63  1  0.72283032  0.92220994  0.22915864  1.0
  H  H64  1  0.35496155  0.92221137  0.27084226  1.0
  H  H65  1  0.92221290  0.72282628  0.27084362  1.0
  H  H66  1  0.72282754  0.35496137  0.27084038  1.0
  H  H67  1  0.64503809  0.07778919  0.27084228  1.0
  H  H68  1  0.07778605  0.27717428  0.27084217  1.0
  H  H69  1  0.27717102  0.64503998  0.27084105  1.0
  H  H70  1  0.35496270  0.72282602  0.77084221  1.0
  H  H71  1  0.92221142  0.35496033  0.77084111  1.0
  H  H72  1  0.72282684  0.92221050  0.77084429  1.0
  H  H73  1  0.64503919  0.27717362  0.77084178  1.0
  H  H74  1  0.07778881  0.64503852  0.77083977  1.0
  H  H75  1  0.27717123  0.07778993  0.77084095  1.0
  H  H76  1  0.64504000  0.07778850  0.72915795  1.0
  H  H77  1  0.07778864  0.27717360  0.72915721  1.0
  H  H78  1  0.27717264  0.64503850  0.72915671  1.0
  H  H79  1  0.35496003  0.92221068  0.72916104  1.0
  H  H80  1  0.92221156  0.72282797  0.72915679  1.0
  H  H81  1  0.72282699  0.35496148  0.72915854  1.0
  C  C82  1  0.51897129  0.34945396  0.13919434  1.0
  C  C83  1  0.13158017  0.51897203  0.13919730  1.0
  C  C84  1  0.34944870  0.13156026  0.13918853  1.0
  C  C85  1  0.48101136  0.65055151  0.13918563  1.0
  C  C86  1  0.86842448  0.48102790  0.13918953  1.0
  C  C87  1  0.65055551  0.86843094  0.13919269  1.0
  C  C88  1  0.48102076  0.86843514  0.36081283  1.0
  C  C89  1  0.86842726  0.65055073  0.36080783  1.0
  C  C90  1  0.65054662  0.48102808  0.36080778  1.0
  C  C91  1  0.51898887  0.13156481  0.36080879  1.0
  C  C92  1  0.13156669  0.34944763  0.36081129  1.0
  C  C93  1  0.34945008  0.51897028  0.36080387  1.0
  C  C94  1  0.48102149  0.65055384  0.86080586  1.0
  C  C95  1  0.86843113  0.48102071  0.86080976  1.0
  C  C96  1  0.65055301  0.86842693  0.86081354  1.0
  C  C97  1  0.51897851  0.34944837  0.86080772  1.0
  C  C98  1  0.13158053  0.51896642  0.86080445  1.0
  C  C99  1  0.34945388  0.13156973  0.86081188  1.0
  C  C100  1  0.51898224  0.13156870  0.63919112  1.0
  C  C101  1  0.13157234  0.34944755  0.63919113  1.0
  C  C102  1  0.34944695  0.51897814  0.63919180  1.0
  C  C103  1  0.48101368  0.86843031  0.63919578  1.0
  C  C104  1  0.86842387  0.65055225  0.63919328  1.0
  C  C105  1  0.65055020  0.48102801  0.63919447  1.0
  C  C106  1  0.59231639  0.25696586  0.19419386  1.0
  C  C107  1  0.15071821  0.59231947  0.19419552  1.0
  C  C108  1  0.25696452  0.15071687  0.19419400  1.0
  C  C109  1  0.40768212  0.74303545  0.19419199  1.0
  C  C110  1  0.84928128  0.40768263  0.19419407  1.0
  C  C111  1  0.74303597  0.84928048  0.19419435  1.0
  C  C112  1  0.40768298  0.84928232  0.30580544  1.0
  C  C113  1  0.84928298  0.74303334  0.30580833  1.0
  C  C114  1  0.74303698  0.40768154  0.30580337  1.0
  C  C115  1  0.59231689  0.15071783  0.30580656  1.0
  C  C116  1  0.15071592  0.25696601  0.30580803  1.0
  C  C117  1  0.25696221  0.59231860  0.30580365  1.0
  C  C118  1  0.40768477  0.74303480  0.80580634  1.0
  C  C119  1  0.84928117  0.40768199  0.80580469  1.0
  C  C120  1  0.74303615  0.84928063  0.80580746  1.0
  C  C121  1  0.59231697  0.25696521  0.80580573  1.0
  C  C122  1  0.15071929  0.59231645  0.80580364  1.0
  C  C123  1  0.25696500  0.15071781  0.80580586  1.0
  C  C124  1  0.59231679  0.15071835  0.69419477  1.0
  C  C125  1  0.15071868  0.25696494  0.69419375  1.0
  C  C126  1  0.25696428  0.59231754  0.69419434  1.0
  C  C127  1  0.40768328  0.84928205  0.69419489  1.0
  C  C128  1  0.84928071  0.74303546  0.69419342  1.0
  C  C129  1  0.74303580  0.40768286  0.69419594  1.0
  O  O130  1  0.35051768  0.50055392  0.99999718  1.0
  O  O131  1  0.14892660  0.35052081  0.00000025  1.0
  O  O132  1  0.50055655  0.14892578  0.00000340  1.0
  O  O133  1  0.64948062  0.49944834  0.00000365  1.0
  O  O134  1  0.85106993  0.64948223  0.99999684  1.0
  O  O135  1  0.49944579  0.85107251  0.99999992  1.0
  O  O136  1  0.64948011  0.85107312  0.50000056  1.0
  O  O137  1  0.85107245  0.49944651  0.50000064  1.0
  O  O138  1  0.49944836  0.64948074  0.49999918  1.0
  O  O139  1  0.35051829  0.14892755  0.49999902  1.0
  O  O140  1  0.14893047  0.50055337  0.49999708  1.0
  O  O141  1  0.50055092  0.35052231  0.49999916  1.0
  O  O142  1  0.56475217  0.38169798  0.09114173  1.0
  O  O143  1  0.05355252  0.56475805  0.09113846  1.0
  O  O144  1  0.38169932  0.05354848  0.09113926  1.0
  O  O145  1  0.43524728  0.61830539  0.09113401  1.0
  O  O146  1  0.94644574  0.43524771  0.09113790  1.0
  O  O147  1  0.61830172  0.94645172  0.09113835  1.0
  O  O148  1  0.43525084  0.94644691  0.40886209  1.0
  O  O149  1  0.94645103  0.61830209  0.40886360  1.0
  O  O150  1  0.61830498  0.43524751  0.40886097  1.0
  O  O151  1  0.56475271  0.05354881  0.40886127  1.0
  O  O152  1  0.05355332  0.38169203  0.40886536  1.0
  O  O153  1  0.38169362  0.56475535  0.40885927  1.0
  O  O154  1  0.43524544  0.61830427  0.90886346  1.0
  O  O155  1  0.94644773  0.43524580  0.90885925  1.0
  O  O156  1  0.61831002  0.94644267  0.90886842  1.0
  O  O157  1  0.56475376  0.38169687  0.90886371  1.0
  O  O158  1  0.05355089  0.56475376  0.90885732  1.0
  O  O159  1  0.38169528  0.05355450  0.90886248  1.0
  O  O160  1  0.56475269  0.05354900  0.59113749  1.0
  O  O161  1  0.05355211  0.38169460  0.59113848  1.0
  O  O162  1  0.38168970  0.56475237  0.59113488  1.0
  O  O163  1  0.43524068  0.94645503  0.59113707  1.0
  O  O164  1  0.94645011  0.61830546  0.59113547  1.0
  O  O165  1  0.61830948  0.43524690  0.59113533  1.0
  O  O166  1  0.41903255  0.38491082  0.14578395  1.0
  O  O167  1  0.19605575  0.41903548  0.14578399  1.0
  O  O168  1  0.38490385  0.19606148  0.14578015  1.0
  O  O169  1  0.58096589  0.61508918  0.14577755  1.0
  O  O170  1  0.80394103  0.58096372  0.14578062  1.0
  O  O171  1  0.61509499  0.80393773  0.14577947  1.0
  O  O172  1  0.58096601  0.80394358  0.35422001  1.0
  O  O173  1  0.80394325  0.61508976  0.35422066  1.0
  O  O174  1  0.61509482  0.58096307  0.35421674  1.0
  O  O175  1  0.41903253  0.19606343  0.35422133  1.0
  O  O176  1  0.19605434  0.38491092  0.35422005  1.0
  O  O177  1  0.38490414  0.41903761  0.35421463  1.0
  O  O178  1  0.58096809  0.61509224  0.85422249  1.0
  O  O179  1  0.80394265  0.58096519  0.85421809  1.0
  O  O180  1  0.61509622  0.80393998  0.85422130  1.0
  O  O181  1  0.41903450  0.38490752  0.85422017  1.0
  O  O182  1  0.19605857  0.41903456  0.85421585  1.0
  O  O183  1  0.38490609  0.19605897  0.85421824  1.0
  O  O184  1  0.41903474  0.19605788  0.64577895  1.0
  O  O185  1  0.19606165  0.38490615  0.64577830  1.0
  O  O186  1  0.38490792  0.41903442  0.64577911  1.0
  O  O187  1  0.58096595  0.80394120  0.64578074  1.0
  O  O188  1  0.80394367  0.61509054  0.64578015  1.0
  O  O189  1  0.61509072  0.58096465  0.64578059  1.0
  O  O190  1  0.53018059  0.23491257  0.24999968  1.0
  O  O191  1  0.23490752  0.53018226  0.25000000  1.0
  O  O192  1  0.23490669  0.23491067  0.25000082  1.0
  O  O193  1  0.46981825  0.76509094  0.24999925  1.0
  O  O194  1  0.76509005  0.46981966  0.24999955  1.0
  O  O195  1  0.76509315  0.76508808  0.25000184  1.0
  O  O196  1  0.46981948  0.76508889  0.75000177  1.0
  O  O197  1  0.76509020  0.46981841  0.75000021  1.0
  O  O198  1  0.76509349  0.76508920  0.75000063  1.0
  O  O199  1  0.53018153  0.23490973  0.74999971  1.0
  O  O200  1  0.23490973  0.53018101  0.74999879  1.0
  O  O201  1  0.23490919  0.23491021  0.75000086  1.0
