# generated using pymatgen
data_Cu3H18C27N7
_symmetry_space_group_name_H-M   'P 1'
_cell_length_a   28.91870137
_cell_length_b   29.48363968
_cell_length_c   29.71837959
_cell_angle_alpha   89.97078562
_cell_angle_beta   89.97794950
_cell_angle_gamma   89.95978826
_symmetry_Int_Tables_number   1
_chemical_formula_structural   Cu3H18C27N7
_chemical_formula_sum   'Cu12 H72 C108 N28'
_cell_volume   25338.72812111
_cell_formula_units_Z   4
loop_
 _symmetry_equiv_pos_site_id
 _symmetry_equiv_pos_as_xyz
  1  'x, y, z'
loop_
 _atom_site_type_symbol
 _atom_site_label
 _atom_site_symmetry_multiplicity
 _atom_site_fract_x
 _atom_site_fract_y
 _atom_site_fract_z
 _atom_site_occupancy
  Cu  Cu0  1  0.37475006  0.58124133  0.66716611  1.0
  Cu  Cu1  1  0.32958118  0.62532749  0.57993440  1.0
  Cu  Cu2  1  0.41810307  0.67021222  0.62518497  1.0
  Cu  Cu3  1  0.62651650  0.91655607  0.16906799  1.0
  Cu  Cu4  1  0.66917390  0.87496554  0.07994844  1.0
  Cu  Cu5  1  0.58021828  0.82982131  0.12448186  1.0
  Cu  Cu6  1  0.87355836  0.41758753  0.83154753  1.0
  Cu  Cu7  1  0.82953520  0.37411783  0.91933672  1.0
  Cu  Cu8  1  0.91849580  0.32961807  0.87489305  1.0
  Cu  Cu9  1  0.12606986  0.08377153  0.33140252  1.0
  Cu  Cu10  1  0.16905894  0.12577173  0.41998258  1.0
  Cu  Cu11  1  0.08011297  0.17098040  0.37544286  1.0
  H  H12  1  0.30788982  0.49763530  0.68208729  1.0
  H  H13  1  0.24687579  0.55691365  0.56263494  1.0
  H  H14  1  0.50015406  0.68838418  0.69375833  1.0
  H  H15  1  0.44243204  0.56502862  0.74962929  1.0
  H  H16  1  0.31303272  0.69295228  0.49852393  1.0
  H  H17  1  0.43532012  0.75232827  0.55844884  1.0
  H  H18  1  0.69552020  0.99843762  0.18601696  1.0
  H  H19  1  0.75191342  0.94340357  0.06246265  1.0
  H  H20  1  0.49774144  0.81206288  0.19286425  1.0
  H  H21  1  0.55979354  0.93146511  0.25237730  1.0
  H  H22  1  0.68505191  0.80861590  0.99743332  1.0
  H  H23  1  0.56249840  0.74884350  0.05659599  1.0
  H  H24  1  0.80507475  0.50001284  0.81551243  1.0
  H  H25  1  0.74725876  0.44296181  0.93751913  1.0
  H  H26  1  0.00101261  0.31203692  0.80685897  1.0
  H  H27  1  0.94169099  0.43398685  0.74948712  1.0
  H  H28  1  0.81270681  0.30665004  0.00073543  1.0
  H  H29  1  0.93646760  0.24818642  0.94252361  1.0
  H  H30  1  0.19498923  0.00172428  0.31452310  1.0
  H  H31  1  0.25175653  0.05721634  0.43763576  1.0
  H  H32  1  0.99733685  0.18838985  0.30746307  1.0
  H  H33  1  0.05920241  0.06856342  0.24835807  1.0
  H  H34  1  0.18494229  0.19221389  0.50227671  1.0
  H  H35  1  0.06271797  0.25240667  0.44278390  1.0
  H  H36  1  0.78755764  0.01918805  0.05230832  1.0
  H  H37  1  0.77130456  0.03443906  0.19575099  1.0
  H  H38  1  0.82966500  0.09528723  0.19549608  1.0
  H  H39  1  0.84680683  0.07928502  0.05244246  1.0
  H  H40  1  0.21699010  0.47525528  0.55034836  1.0
  H  H41  1  0.22697372  0.46823102  0.69488134  1.0
  H  H42  1  0.16794308  0.40787261  0.69591279  1.0
  H  H43  1  0.15681380  0.41594248  0.55157528  1.0
  H  H44  1  0.27112477  0.96584247  0.30459999  1.0
  H  H45  1  0.28725909  0.98145548  0.44799187  1.0
  H  H46  1  0.34672133  0.92146818  0.44798672  1.0
  H  H47  1  0.32972013  0.90511032  0.30496269  1.0
  H  H48  1  0.72276012  0.52845815  0.80431814  1.0
  H  H49  1  0.71893657  0.52591326  0.94924393  1.0
  H  H50  1  0.65929063  0.58575095  0.94876240  1.0
  H  H51  1  0.66431776  0.58939075  0.80387680  1.0
  H  H52  1  0.96959984  0.20139755  0.22456264  1.0
  H  H53  1  0.97704401  0.05550560  0.22015046  1.0
  H  H54  1  0.91851260  0.05454350  0.15978341  1.0
  H  H55  1  0.91002909  0.20034997  0.16518136  1.0
  H  H56  1  0.51793974  0.55479416  0.78545137  1.0
  H  H57  1  0.53549996  0.69908939  0.76918686  1.0
  H  H58  1  0.59493007  0.69875315  0.82871539  1.0
  H  H59  1  0.57647527  0.55485778  0.84571931  1.0
  H  H60  1  0.03013584  0.29992678  0.72580272  1.0
  H  H61  1  0.02344576  0.44582408  0.72014849  1.0
  H  H62  1  0.08202145  0.44603419  0.65981013  1.0
  H  H63  1  0.08987167  0.30024825  0.66648803  1.0
  H  H64  1  0.47018726  0.79889546  0.27638086  1.0
  H  H65  1  0.47712275  0.94480920  0.28009514  1.0
  H  H66  1  0.41847784  0.94598528  0.34036212  1.0
  H  H67  1  0.41050831  0.80013215  0.33567749  1.0
  H  H68  1  0.80067111  0.22392267  0.02830795  1.0
  H  H69  1  0.94959296  0.22180652  0.02484061  1.0
  H  H70  1  0.95018725  0.16261297  0.08357313  1.0
  H  H71  1  0.80129966  0.16567071  0.08801440  1.0
  H  H72  1  0.30041501  0.77619351  0.47153615  1.0
  H  H73  1  0.44928989  0.77875183  0.47599134  1.0
  H  H74  1  0.45006593  0.83813506  0.41745046  1.0
  H  H75  1  0.30123147  0.83465110  0.41203642  1.0
  H  H76  1  0.54919931  0.72204573  0.97410349  1.0
  H  H77  1  0.69808036  0.72596104  0.97022604  1.0
  H  H78  1  0.69812015  0.66733972  0.91104545  1.0
  H  H79  1  0.54931524  0.66245070  0.91576763  1.0
  H  H80  1  0.19794937  0.27316049  0.53076637  1.0
  H  H81  1  0.04927418  0.28039600  0.52415242  1.0
  H  H82  1  0.04946615  0.33959492  0.58291426  1.0
  H  H83  1  0.19797858  0.33137754  0.59045356  1.0
  C  C84  1  0.29819896  0.51802443  0.65317281  1.0
  C  C85  1  0.26200623  0.51180538  0.62228729  1.0
  C  C86  1  0.26756927  0.54773102  0.59171376  1.0
  C  C87  1  0.48037601  0.65829016  0.70218196  1.0
  C  C88  1  0.48673930  0.62685736  0.73721881  1.0
  C  C89  1  0.45136175  0.59496315  0.73023876  1.0
  C  C90  1  0.34264851  0.70226069  0.51893715  1.0
  C  C91  1  0.37434861  0.73788331  0.51328406  1.0
  C  C92  1  0.40560608  0.73200237  0.54898415  1.0
  C  C93  1  0.70404974  0.97926778  0.15596747  1.0
  C  C94  1  0.73929140  0.98646279  0.12415158  1.0
  C  C95  1  0.73239151  0.95163792  0.09257241  1.0
  C  C96  1  0.51868164  0.84112805  0.20211925  1.0
  C  C97  1  0.51350252  0.87159511  0.23810407  1.0
  C  C98  1  0.54982858  0.90259913  0.23192670  1.0
  C  C99  1  0.65536441  0.79916056  0.01772189  1.0
  C  C100  1  0.62368566  0.76358252  0.01173265  1.0
  C  C101  1  0.59227024  0.76921468  0.04735905  1.0
  C  C102  1  0.79621100  0.48019286  0.84505839  1.0
  C  C103  1  0.76080218  0.48697542  0.87672471  1.0
  C  C104  1  0.76721628  0.45162366  0.90779611  1.0
  C  C105  1  0.98069143  0.34169557  0.79804783  1.0
  C  C106  1  0.98678281  0.37290859  0.76282852  1.0
  C  C107  1  0.95093938  0.40442439  0.76931127  1.0
  C  C108  1  0.84268922  0.29752222  0.98070756  1.0
  C  C109  1  0.87473642  0.26226029  0.98690445  1.0
  C  C110  1  0.90638399  0.26824986  0.95153797  1.0
  C  C111  1  0.20361316  0.02100699  0.34445698  1.0
  C  C112  1  0.23896480  0.01393187  0.37615738  1.0
  C  C113  1  0.23215301  0.04888012  0.40763232  1.0
  C  C114  1  0.01824900  0.15923748  0.29829134  1.0
  C  C115  1  0.01302360  0.12863078  0.26246371  1.0
  C  C116  1  0.04929427  0.09754531  0.26870215  1.0
  C  C117  1  0.15534653  0.20176918  0.48192475  1.0
  C  C118  1  0.12371074  0.23745158  0.48781377  1.0
  C  C119  1  0.09242126  0.23194958  0.45211022  1.0
  C  C120  1  0.79671472  0.03549938  0.08402078  1.0
  C  C121  1  0.77453454  0.02198297  0.12402062  1.0
  C  C122  1  0.78740644  0.04423988  0.16399690  1.0
  C  C123  1  0.82037837  0.07852548  0.16408547  1.0
  C  C124  1  0.84228421  0.09168201  0.12394437  1.0
  C  C125  1  0.83006613  0.06948008  0.08386055  1.0
  C  C126  1  0.20612278  0.46092072  0.58252185  1.0
  C  C127  1  0.22670049  0.47640684  0.62255042  1.0
  C  C128  1  0.21206036  0.45659349  0.66320811  1.0
  C  C129  1  0.17870949  0.42270983  0.66398507  1.0
  C  C130  1  0.15819674  0.40766123  0.62382027  1.0
  C  C131  1  0.17233616  0.42737992  0.58300992  1.0
  C  C132  1  0.28724663  0.95612687  0.33636313  1.0
  C  C133  1  0.27428708  0.97843729  0.37631188  1.0
  C  C134  1  0.29648951  0.96505901  0.41631876  1.0
  C  C135  1  0.32995612  0.93113221  0.41654647  1.0
  C  C136  1  0.34226999  0.90886549  0.37650397  1.0
  C  C137  1  0.32034302  0.92190496  0.33634598  1.0
  C  C138  1  0.70935468  0.54123171  0.83621587  1.0
  C  C139  1  0.72557573  0.52250303  0.87679393  1.0
  C  C140  1  0.70678627  0.53936775  0.91713749  1.0
  C  C141  1  0.67329175  0.57323724  0.91704410  1.0
  C  C142  1  0.65762909  0.59197205  0.87628928  1.0
  C  C143  1  0.67627367  0.57544308  0.83578816  1.0
  C  C144  1  0.95825209  0.16894744  0.21081060  1.0
  C  C145  1  0.97797709  0.12849630  0.22705306  1.0
  C  C146  1  0.96278289  0.08748913  0.20793929  1.0
  C  C147  1  0.92969477  0.08675960  0.17406266  1.0
  C  C148  1  0.91001100  0.12734065  0.15823399  1.0
  C  C149  1  0.92475511  0.16853875  0.17722719  1.0
  C  C150  1  0.53432267  0.58669761  0.79497080  1.0
  C  C151  1  0.52182723  0.62697826  0.77260475  1.0
  C  C152  1  0.54436666  0.66717257  0.78565946  1.0
  C  C153  1  0.57779548  0.66722038  0.81931614  1.0
  C  C154  1  0.58970690  0.62682844  0.84155786  1.0
  C  C155  1  0.56737800  0.58650324  0.82891358  1.0
  C  C156  1  0.04165428  0.33220503  0.71175980  1.0
  C  C157  1  0.02204773  0.37286317  0.72760974  1.0
  C  C158  1  0.03751084  0.41365663  0.70821088  1.0
  C  C159  1  0.07063963  0.41396998  0.67432022  1.0
  C  C160  1  0.09008910  0.37316092  0.65882514  1.0
  C  C161  1  0.07520325  0.33220299  0.67821524  1.0
  C  C162  1  0.45873061  0.83140366  0.28996407  1.0
  C  C163  1  0.47837873  0.87179116  0.27352266  1.0
  C  C164  1  0.46297218  0.91285090  0.29244804  1.0
  C  C165  1  0.42979130  0.91369480  0.32629200  1.0
  C  C166  1  0.41019879  0.87316924  0.34231788  1.0
  C  C167  1  0.42515358  0.83192192  0.32351678  1.0
  C  C168  1  0.83367053  0.21089647  0.04057765  1.0
  C  C169  1  0.87507674  0.22746541  0.02194535  1.0
  C  C170  1  0.91685088  0.20931872  0.03825136  1.0
  C  C171  1  0.91736321  0.17608825  0.07145547  1.0
  C  C172  1  0.87577508  0.15996293  0.09001330  1.0
  C  C173  1  0.83384319  0.17794682  0.07407630  1.0
  C  C174  1  0.33345350  0.78936617  0.45953267  1.0
  C  C175  1  0.37478206  0.77284556  0.47838134  1.0
  C  C176  1  0.41659641  0.79118343  0.46241075  1.0
  C  C177  1  0.41720891  0.82453030  0.42931170  1.0
  C  C178  1  0.37571060  0.84056487  0.41048800  1.0
  C  C179  1  0.33373240  0.82242607  0.42612716  1.0
  C  C180  1  0.58208415  0.70995650  0.96063785  1.0
  C  C181  1  0.62362120  0.72869739  0.97677063  1.0
  C  C182  1  0.66521245  0.71253190  0.95810911  1.0
  C  C183  1  0.66542118  0.67938319  0.92484981  1.0
  C  C184  1  0.62372420  0.66067997  0.90919934  1.0
  C  C185  1  0.58195747  0.67650016  0.92765559  1.0
  C  C186  1  0.16514828  0.28728264  0.54235959  1.0
  C  C187  1  0.12360942  0.27218498  0.52285451  1.0
  C  C188  1  0.08211831  0.29170642  0.53828411  1.0
  C  C189  1  0.08203017  0.32493179  0.57148203  1.0
  C  C190  1  0.12374219  0.33960854  0.59082132  1.0
  C  C191  1  0.16536276  0.32016445  0.57585896  1.0
  N  N192  1  0.30418342  0.57336239  0.60371610  1.0
  N  N193  1  0.32330553  0.55482539  0.64176039  1.0
  N  N194  1  0.42602513  0.60663574  0.69392926  1.0
  N  N195  1  0.44412728  0.64587094  0.67641391  1.0
  N  N196  1  0.39330969  0.69569691  0.57393291  1.0
  N  N197  1  0.35434135  0.67713004  0.55516197  1.0
  N  N198  1  0.69596264  0.92583875  0.10479409  1.0
  N  N199  1  0.67825998  0.94309184  0.14408305  1.0
  N  N200  1  0.57466596  0.89134615  0.19513546  1.0
  N  N201  1  0.55520739  0.85329566  0.17651868  1.0
  N  N202  1  0.60450247  0.80531009  0.07259288  1.0
  N  N203  1  0.64356326  0.82402552  0.05408874  1.0
  N  N204  1  0.80359089  0.42579247  0.89537779  1.0
  N  N205  1  0.82170407  0.44364535  0.85655306  1.0
  N  N206  1  0.92551196  0.39270049  0.80556478  1.0
  N  N207  1  0.94409840  0.35388384  0.82351491  1.0
  N  N208  1  0.89394283  0.30427378  0.92625247  1.0
  N  N209  1  0.85453382  0.32256360  0.94448143  1.0
  N  N210  1  0.19567646  0.07465796  0.39543601  1.0
  N  N211  1  0.17785107  0.05725605  0.35629639  1.0
  N  N212  1  0.07417548  0.10890889  0.30539537  1.0
  N  N213  1  0.05478530  0.14709019  0.32386206  1.0
  N  N214  1  0.10467463  0.19580974  0.42693590  1.0
  N  N215  1  0.14361889  0.17695922  0.44553903  1.0
  N  N216  1  0.87605802  0.12645369  0.12404484  1.0
  N  N217  1  0.12398300  0.37343292  0.62454190  1.0
  N  N218  1  0.37615831  0.87412503  0.37648313  1.0
  N  N219  1  0.62377767  0.62655274  0.87579197  1.0
