# generated using pymatgen
data_Zn4H45C42N3O16
_symmetry_space_group_name_H-M   'P 1'
_cell_length_a   18.79899309
_cell_length_b   19.32459961
_cell_length_c   18.85797973
_cell_angle_alpha   118.16315291
_cell_angle_beta   119.21990703
_cell_angle_gamma   61.46373277
_symmetry_Int_Tables_number   1
_chemical_formula_structural   Zn4H45C42N3O16
_chemical_formula_sum   'Zn8 H90 C84 N6 O32'
_cell_volume   4991.45514732
_cell_formula_units_Z   2
loop_
 _symmetry_equiv_pos_site_id
 _symmetry_equiv_pos_as_xyz
  1  'x, y, z'
loop_
 _atom_site_type_symbol
 _atom_site_label
 _atom_site_symmetry_multiplicity
 _atom_site_fract_x
 _atom_site_fract_y
 _atom_site_fract_z
 _atom_site_occupancy
  Zn  Zn0  1  0.05062433  0.03549538  0.96195874  1.0
  Zn  Zn1  1  0.87353337  0.03385259  0.94714437  1.0
  Zn  Zn2  1  0.03399858  0.03337100  0.12237826  1.0
  Zn  Zn3  1  0.03922064  0.87386634  0.95743919  1.0
  Zn  Zn4  1  0.46148227  0.45055864  0.53913521  1.0
  Zn  Zn5  1  0.62808618  0.45203020  0.53483914  1.0
  Zn  Zn6  1  0.45999483  0.61516587  0.53462346  1.0
  Zn  Zn7  1  0.45884993  0.45106713  0.37067622  1.0
  H  H8  1  0.87999483  0.23518892  0.86184691  1.0
  H  H9  1  0.83377616  0.16930985  0.76396729  1.0
  H  H10  1  0.73866237  0.25443469  0.88947449  1.0
  H  H11  1  0.69605062  0.23284459  0.77836027  1.0
  H  H12  1  0.73430926  0.41435404  0.78500954  1.0
  H  H13  1  0.81620526  0.31995042  0.78724851  1.0
  H  H14  1  0.73543224  0.25378822  0.65309313  1.0
  H  H15  1  0.64989967  0.28699195  0.68900206  1.0
  H  H16  1  0.81559003  0.40203227  0.06239401  1.0
  H  H17  1  0.71405588  0.39395607  0.99674353  1.0
  H  H18  1  0.58672489  0.31186191  0.82043740  1.0
  H  H19  1  0.44081471  0.40886710  0.81698681  1.0
  H  H20  1  0.40473381  0.55800669  0.84020112  1.0
  H  H21  1  0.51794549  0.60911566  0.86701864  1.0
  H  H22  1  0.66427806  0.51209575  0.87056273  1.0
  H  H23  1  0.13650644  0.22835941  0.25115972  1.0
  H  H24  1  0.23527507  0.16317360  0.23665489  1.0
  H  H25  1  0.10986094  0.25631525  0.10777056  1.0
  H  H26  1  0.22201862  0.23123543  0.15183384  1.0
  H  H27  1  0.21842994  0.40387211  0.36593084  1.0
  H  H28  1  0.21736331  0.30717751  0.34686533  1.0
  H  H29  1  0.35399416  0.24785071  0.33846030  1.0
  H  H30  1  0.31596931  0.27984123  0.24894327  1.0
  H  H31  1  0.93819238  0.40695805  0.17694896  1.0
  H  H32  1  0.99919100  0.39180007  0.12150983  1.0
  H  H33  1  0.18477348  0.31471626  0.08700489  1.0
  H  H34  1  0.18978592  0.41583995  0.04648886  1.0
  H  H35  1  0.16400399  0.56370885  0.13676648  1.0
  H  H36  1  0.13289178  0.60931829  0.26954858  1.0
  H  H37  1  0.12822759  0.50791618  0.31063281  1.0
  H  H38  1  0.26713214  0.62337238  0.64681784  1.0
  H  H39  1  0.34169848  0.66618919  0.73894517  1.0
  H  H40  1  0.24296562  0.75707690  0.60800441  1.0
  H  H41  1  0.27324932  0.79841569  0.71967256  1.0
  H  H42  1  0.09265237  0.76741716  0.73001044  1.0
  H  H43  1  0.19214252  0.69126993  0.73230331  1.0
  H  H44  1  0.25881033  0.77645140  0.86066548  1.0
  H  H45  1  0.21872931  0.85488705  0.81475486  1.0
  H  H46  1  0.07130036  0.67784019  0.44590227  1.0
  H  H47  1  0.09332976  0.77144513  0.50215669  1.0
  H  H48  1  0.18920758  0.90745566  0.68399009  1.0
  H  H49  1  0.08763145  0.04824982  0.68442189  1.0
  H  H50  1  0.93286387  0.08103872  0.65580086  1.0
  H  H51  1  0.88060779  0.96978012  0.62625059  1.0
  H  H52  1  0.98245910  0.82897383  0.62704149  1.0
  H  H53  1  0.74830886  0.23995759  0.10958811  1.0
  H  H54  1  0.75526725  0.18070510  0.16104577  1.0
  H  H55  1  0.88784069  0.27018983  0.24683977  1.0
  H  H56  1  0.85198078  0.24021996  0.29477145  1.0
  H  H57  1  0.62861357  0.40936307  0.25351564  1.0
  H  H58  1  0.65155538  0.31340371  0.17724292  1.0
  H  H59  1  0.66424176  0.25184216  0.26463888  1.0
  H  H60  1  0.75331675  0.28500810  0.34395363  1.0
  H  H61  1  0.79193822  0.46788248  0.19233728  1.0
  H  H62  1  0.84942754  0.44104008  0.28558119  1.0
  H  H63  1  0.91606878  0.32218141  0.40121249  1.0
  H  H64  1  0.95659828  0.41847441  0.54662397  1.0
  H  H65  1  0.85916897  0.56313294  0.58524995  1.0
  H  H66  1  0.71858380  0.61024651  0.47521301  1.0
  H  H67  1  0.67737116  0.51384975  0.32955907  1.0
  H  H68  1  0.74834677  0.62384241  0.73281311  1.0
  H  H69  1  0.73246970  0.66928022  0.66309770  1.0
  H  H70  1  0.60396918  0.75617475  0.75626709  1.0
  H  H71  1  0.64407974  0.80019392  0.72664463  1.0
  H  H72  1  0.86235455  0.76776802  0.90749605  1.0
  H  H73  1  0.84277557  0.69050164  0.81005901  1.0
  H  H74  1  0.82645440  0.77297983  0.74167363  1.0
  H  H75  1  0.74045022  0.85200375  0.77743432  1.0
  H  H76  1  0.68562086  0.68325421  0.93356489  1.0
  H  H77  1  0.63370283  0.77966769  0.91650477  1.0
  H  H78  1  0.58260522  0.90718544  0.80828314  1.0
  H  H79  1  0.54327493  0.04831835  0.90695481  1.0
  H  H80  1  0.63482709  0.08302032  0.06035464  1.0
  H  H81  1  0.76741019  0.97323593  0.11404797  1.0
  H  H82  1  0.80741909  0.83200734  0.01521095  1.0
  H  H83  1  0.36085514  0.62311442  0.24411514  1.0
  H  H84  1  0.26375413  0.66674644  0.26274996  1.0
  H  H85  1  0.39634588  0.75519870  0.38704857  1.0
  H  H86  1  0.28398796  0.79806687  0.34889925  1.0
  H  H87  1  0.27434406  0.77457284  0.13170865  1.0
  H  H88  1  0.27600562  0.69283123  0.14885210  1.0
  H  H89  1  0.14769812  0.77125193  0.17752741  1.0
  H  H90  1  0.18807653  0.85339484  0.25624316  1.0
  H  H91  1  0.56107545  0.68183150  0.30123632  1.0
  H  H92  1  0.50224206  0.77581436  0.35701037  1.0
  H  H93  1  0.31324478  0.90813722  0.40516806  1.0
  H  H94  1  0.31175418  0.04952982  0.44329430  1.0
  H  H95  1  0.34684286  0.08376526  0.35487491  1.0
  H  H96  1  0.38300501  0.97354253  0.22594093  1.0
  H  H97  1  0.38283679  0.83224633  0.18661018  1.0
  C  C98  1  0.87909049  0.13169762  0.87103543  1.0
  C  C99  1  0.83516613  0.19985627  0.83069261  1.0
  C  C100  1  0.74546995  0.25658019  0.83602621  1.0
  C  C101  1  0.72839065  0.34770675  0.84742017  1.0
  C  C102  1  0.74728801  0.35004485  0.77750553  1.0
  C  C103  1  0.69303733  0.30844872  0.68688660  1.0
  C  C104  1  0.63728732  0.36366375  0.63043755  1.0
  C  C105  1  0.79315595  0.37727344  0.93716101  1.0
  C  C106  1  0.63664858  0.40436388  0.84508319  1.0
  C  C107  1  0.57262192  0.37680561  0.83051048  1.0
  C  C108  1  0.48968220  0.43182681  0.82867785  1.0
  C  C109  1  0.46940170  0.51534236  0.84165480  1.0
  C  C110  1  0.53282683  0.54381696  0.85664975  1.0
  C  C111  1  0.61520678  0.48898361  0.85835586  1.0
  C  C112  1  0.12787935  0.12818746  0.13811014  1.0
  C  C113  1  0.16841099  0.19514121  0.20299277  1.0
  C  C114  1  0.16410635  0.25481592  0.16808336  1.0
  C  C115  1  0.15485797  0.34367286  0.23264691  1.0
  C  C116  1  0.22643730  0.34098447  0.32050317  1.0
  C  C117  1  0.31760059  0.30176280  0.31476676  1.0
  C  C118  1  0.37073103  0.35964645  0.36761553  1.0
  C  C119  1  0.06631943  0.37494273  0.24294475  1.0
  C  C120  1  0.15678763  0.40343282  0.20240616  1.0
  C  C121  1  0.17358534  0.37901241  0.12792989  1.0
  C  C122  1  0.17628860  0.43638702  0.10463281  1.0
  C  C123  1  0.16184600  0.51920245  0.15513540  1.0
  C  C124  1  0.14447396  0.54459195  0.22942314  1.0
  C  C125  1  0.14202123  0.48737027  0.25254505  1.0
  C  C126  1  0.36850940  0.61913477  0.62542780  1.0
  C  C127  1  0.30433804  0.66484292  0.67185612  1.0
  C  C128  1  0.24552654  0.75149302  0.66455272  1.0
  C  C129  1  0.15357890  0.76988382  0.65910391  1.0
  C  C130  1  0.15781891  0.75663891  0.73594118  1.0
  C  C131  1  0.20001092  0.81375433  0.82237902  1.0
  C  C132  1  0.14236969  0.86785010  0.87607621  1.0
  C  C133  1  0.11662312  0.70526118  0.57594463  1.0
  C  C134  1  0.09371758  0.85742200  0.65603660  1.0
  C  C135  1  0.12174818  0.92013074  0.67128225  1.0
  C  C136  1  0.06416208  0.00010663  0.67130443  1.0
  C  C137  1  0.97745666  0.01859349  0.65539910  1.0
  C  C138  1  0.94835767  0.95636856  0.63912989  1.0
  C  C139  1  0.00586680  0.87704885  0.63965853  1.0
  C  C140  1  0.85815637  0.13436087  0.11734223  1.0
  C  C141  1  0.79342001  0.20713792  0.15727941  1.0
  C  C142  1  0.83014578  0.26607471  0.24397457  1.0
  C  C143  1  0.76334175  0.35410563  0.26244277  1.0
  C  C144  1  0.67684170  0.34754261  0.24474764  1.0
  C  C145  1  0.68637152  0.30639230  0.30341865  1.0
  C  C146  1  0.63317664  0.36288120  0.36153729  1.0
  C  C147  1  0.74934563  0.39283999  0.19888890  1.0
  C  C148  1  0.79325631  0.41035451  0.35409965  1.0
  C  C149  1  0.87179077  0.38497267  0.41643311  1.0
  C  C150  1  0.89514957  0.43968131  0.49911777  1.0
  C  C151  1  0.84066720  0.52072126  0.52080777  1.0
  C  C152  1  0.76212881  0.54704045  0.45915713  1.0
  C  C153  1  0.73891970  0.49247181  0.37710025  1.0
  C  C154  1  0.63495940  0.62222971  0.62741830  1.0
  C  C155  1  0.69912722  0.66672561  0.69585120  1.0
  C  C156  1  0.66309815  0.75229389  0.75408166  1.0
  C  C157  1  0.72906949  0.77077485  0.84588187  1.0
  C  C158  1  0.81577795  0.75625355  0.84240997  1.0
  C  C159  1  0.80676275  0.81163320  0.79855292  1.0
  C  C160  1  0.86295594  0.86646179  0.85597043  1.0
  C  C161  1  0.74340565  0.70631301  0.88271742  1.0
  C  C162  1  0.69854461  0.85870899  0.90396030  1.0
  C  C163  1  0.62390891  0.92067318  0.87511919  1.0
  C  C164  1  0.60123492  0.00087583  0.93107244  1.0
  C  C165  1  0.65245855  0.02041473  0.01698887  1.0
  C  C166  1  0.72672042  0.95900565  0.04693008  1.0
  C  C167  1  0.74926267  0.87942014  0.99104644  1.0
  C  C168  1  0.37264270  0.61983721  0.35875615  1.0
  C  C169  1  0.33145599  0.66497121  0.29412978  1.0
  C  C170  1  0.33943375  0.75119875  0.32900388  1.0
  C  C171  1  0.34568904  0.77135559  0.26227709  1.0
  C  C172  1  0.26947325  0.75887089  0.17762382  1.0
  C  C173  1  0.18156908  0.81161589  0.19066548  1.0
  C  C174  1  0.12245055  0.86468423  0.13227894  1.0
  C  C175  1  0.43056961  0.70729076  0.24523195  1.0
  C  C176  1  0.34773666  0.85928996  0.29255167  1.0
  C  C177  1  0.32855189  0.92148562  0.36510244  1.0
  C  C178  1  0.32796371  0.00180727  0.38714424  1.0
  C  C179  1  0.34740659  0.02111867  0.33753784  1.0
  C  C180  1  0.36744382  0.95948602  0.26534155  1.0
  C  C181  1  0.36730449  0.87987174  0.24325740  1.0
  N  N182  1  0.76938921  0.39776430  0.00403476  1.0
  N  N183  1  0.99618509  0.39381103  0.17474894  1.0
  N  N184  1  0.09726552  0.71722111  0.50191466  1.0
  N  N185  1  0.80871348  0.42928441  0.22413122  1.0
  N  N186  1  0.67865572  0.72282624  0.90796663  1.0
  N  N187  1  0.50410935  0.72060838  0.31009840  1.0
  O  O188  1  0.99910249  0.99514593  0.99747276  1.0
  O  O189  1  0.83486031  0.11839638  0.89460630  1.0
  O  O190  1  0.95824547  0.09302892  0.87830456  1.0
  O  O191  1  0.67377955  0.40007205  0.62317591  1.0
  O  O192  1  0.55804504  0.36833466  0.59362561  1.0
  O  O193  1  0.86363219  0.37739291  0.94829193  1.0
  O  O194  1  0.10300020  0.11884209  0.05886880  1.0
  O  O195  1  0.12168719  0.08624565  0.16939309  1.0
  O  O196  1  0.37631134  0.39618887  0.44598763  1.0
  O  O197  1  0.40665395  0.36646781  0.32969761  1.0
  O  O198  1  0.05896215  0.37887887  0.30651862  1.0
  O  O199  1  0.37779771  0.65841690  0.59355982  1.0
  O  O200  1  0.40815762  0.54324973  0.62212971  1.0
  O  O201  1  0.10453138  0.83208781  0.88228684  1.0
  O  O202  1  0.13668778  0.94434451  0.91095172  1.0
  O  O203  1  0.10967189  0.64503512  0.57604369  1.0
  O  O204  1  0.93803115  0.12107402  0.16177061  1.0
  O  O205  1  0.82624719  0.09171422  0.04079328  1.0
  O  O206  1  0.55403436  0.39920572  0.32608411  1.0
  O  O207  1  0.67128629  0.36893610  0.44076792  1.0
  O  O208  1  0.69183012  0.38795936  0.12826121  1.0
  O  O209  1  0.55513945  0.66075759  0.61711631  1.0
  O  O210  1  0.66767357  0.54787427  0.58549159  1.0
  O  O211  1  0.94189557  0.83086307  0.89259420  1.0
  O  O212  1  0.82700710  0.94345758  0.86294250  1.0
  O  O213  1  0.80557855  0.64210376  0.88386391  1.0
  O  O214  1  0.40191273  0.65910094  0.43772630  1.0
  O  O215  1  0.37482010  0.54451268  0.32732582  1.0
  O  O216  1  0.11532990  0.82919770  0.05356257  1.0
  O  O217  1  0.08445631  0.94044206  0.16657495  1.0
  O  O218  1  0.43235671  0.64605021  0.18092193  1.0
  O  O219  1  0.50197216  0.49419391  0.49564775  1.0
