# generated using pymatgen
data_Zr3H62(C9O2)8
_symmetry_space_group_name_H-M   'P 1'
_cell_length_a   23.36909760
_cell_length_b   23.36900214
_cell_length_c   23.36911994
_cell_angle_alpha   119.99997678
_cell_angle_beta   90.00029185
_cell_angle_gamma   119.99998652
_symmetry_Int_Tables_number   1
_chemical_formula_structural   Zr3H62(C9O2)8
_chemical_formula_sum   'Zr6 H124 C144 O32'
_cell_volume   9024.19778509
_cell_formula_units_Z   2
loop_
 _symmetry_equiv_pos_site_id
 _symmetry_equiv_pos_as_xyz
  1  'x, y, z'
loop_
 _atom_site_type_symbol
 _atom_site_label
 _atom_site_symmetry_multiplicity
 _atom_site_fract_x
 _atom_site_fract_y
 _atom_site_fract_z
 _atom_site_occupancy
  Zr  Zr0  1  0.57566052  0.00000120  0.57566039  1.0
  Zr  Zr1  1  0.42434092  0.00000025  0.42434105  1.0
  Zr  Zr2  1  0.57565925  0.15131794  0.57565920  1.0
  Zr  Zr3  1  0.42434167  0.84868267  0.42434108  1.0
  Zr  Zr4  1  0.42433971  0.00000035  0.57566138  1.0
  Zr  Zr5  1  0.57566069  0.99999955  0.42433971  1.0
  H  H6  1  0.55739353  0.19022749  0.04442449  1.0
  H  H7  1  0.36705755  0.80956788  0.95549085  1.0
  H  H8  1  0.59252872  0.00133223  0.76312182  1.0
  H  H9  1  0.59177377  0.99955793  0.86938865  1.0
  H  H10  1  0.95557582  0.80977236  0.44260712  1.0
  H  H11  1  0.04450860  0.19043131  0.63294177  1.0
  H  H12  1  0.23687899  0.99866723  0.40747188  1.0
  H  H13  1  0.13061188  0.00044225  0.40822680  1.0
  H  H14  1  0.63283355  0.19022757  0.14580312  1.0
  H  H15  1  0.44251018  0.80956820  0.85407721  1.0
  H  H16  1  0.40880443  0.00133292  0.23821195  1.0
  H  H17  1  0.40778377  0.99955763  0.13016984  1.0
  H  H18  1  0.85419669  0.80977175  0.36716654  1.0
  H  H19  1  0.14592249  0.19043071  0.55748925  1.0
  H  H20  1  0.76178915  0.99866793  0.59119621  1.0
  H  H21  1  0.86983032  0.00044165  0.59221556  1.0
  H  H22  1  0.85419778  0.41159123  0.04442482  1.0
  H  H23  1  0.14592301  0.51298088  0.95549079  1.0
  H  H24  1  0.76178921  0.35431796  0.76312151  1.0
  H  H25  1  0.86983030  0.46160475  0.86938911  1.0
  H  H26  1  0.63283293  0.58840863  0.44260602  1.0
  H  H27  1  0.44251009  0.48701918  0.63294221  1.0
  H  H28  1  0.40880416  0.64568279  0.40747037  1.0
  H  H29  1  0.40778407  0.53839536  0.40822514  1.0
  H  H30  1  0.95557575  0.58840932  0.14580326  1.0
  H  H31  1  0.04450917  0.48701957  0.85407739  1.0
  H  H32  1  0.23687843  0.64568263  0.23821117  1.0
  H  H33  1  0.13061138  0.53839545  0.13016960  1.0
  H  H34  1  0.55739316  0.41159104  0.36716668  1.0
  H  H35  1  0.36705813  0.51298155  0.55749070  1.0
  H  H36  1  0.59252898  0.35431816  0.59119666  1.0
  H  H37  1  0.59177452  0.46160546  0.59221619  1.0
  H  H38  1  0.63283335  0.48703055  0.04442476  1.0
  H  H39  1  0.44250999  0.58843277  0.95549063  1.0
  H  H40  1  0.40880495  0.17059369  0.76312233  1.0
  H  H41  1  0.40778292  0.27761394  0.86938923  1.0
  H  H42  1  0.85419677  0.48703137  0.44260634  1.0
  H  H43  1  0.14592238  0.58843260  0.63294189  1.0
  H  H44  1  0.76178958  0.17059388  0.40747142  1.0
  H  H45  1  0.86983093  0.27761483  0.40822466  1.0
  H  H46  1  0.55739335  0.51296909  0.14580312  1.0
  H  H47  1  0.36705759  0.41156636  0.85407649  1.0
  H  H48  1  0.59252766  0.82940443  0.23820977  1.0
  H  H49  1  0.59177410  0.72238467  0.13016859  1.0
  H  H50  1  0.95557560  0.51297038  0.36716687  1.0
  H  H51  1  0.04450884  0.41156740  0.55748958  1.0
  H  H52  1  0.23687805  0.82940662  0.59119601  1.0
  H  H53  1  0.13061073  0.72238610  0.59221703  1.0
  H  H54  1  0.55739397  0.41159102  0.04442446  1.0
  H  H55  1  0.36705751  0.51298031  0.95549041  1.0
  H  H56  1  0.59252835  0.35431704  0.76312072  1.0
  H  H57  1  0.59177361  0.46160392  0.86938828  1.0
  H  H58  1  0.95557540  0.58841031  0.44260666  1.0
  H  H59  1  0.04450864  0.48701907  0.63294172  1.0
  H  H60  1  0.23687936  0.64568296  0.40747150  1.0
  H  H61  1  0.13061204  0.53839644  0.40822668  1.0
  H  H62  1  0.63283326  0.58840891  0.14580261  1.0
  H  H63  1  0.44251008  0.48701908  0.85407721  1.0
  H  H64  1  0.40880322  0.64568149  0.23821153  1.0
  H  H65  1  0.40778340  0.53839511  0.13016954  1.0
  H  H66  1  0.85419646  0.41159110  0.36716638  1.0
  H  H67  1  0.14592258  0.51298136  0.55748975  1.0
  H  H68  1  0.76178881  0.35431772  0.59119661  1.0
  H  H69  1  0.86983067  0.46160458  0.59221585  1.0
  H  H70  1  0.85419741  0.48703072  0.04442481  1.0
  H  H71  1  0.14592315  0.58843311  0.95549094  1.0
  H  H72  1  0.76178937  0.17059361  0.76312179  1.0
  H  H73  1  0.86983098  0.27761458  0.86938957  1.0
  H  H74  1  0.63283325  0.48703021  0.44260548  1.0
  H  H75  1  0.44251028  0.58843364  0.63294242  1.0
  H  H76  1  0.40880411  0.17059326  0.40747161  1.0
  H  H77  1  0.40778339  0.27761436  0.40822499  1.0
  H  H78  1  0.95557559  0.51296923  0.14580260  1.0
  H  H79  1  0.04450902  0.41156690  0.85407723  1.0
  H  H80  1  0.23687826  0.82940698  0.23821089  1.0
  H  H81  1  0.13061068  0.72238561  0.13016914  1.0
  H  H82  1  0.55739283  0.51296921  0.36716672  1.0
  H  H83  1  0.36705793  0.41156709  0.55749049  1.0
  H  H84  1  0.59252851  0.82940588  0.59119574  1.0
  H  H85  1  0.59177414  0.72238447  0.59221598  1.0
  H  H86  1  0.63283331  0.19022731  0.04442432  1.0
  H  H87  1  0.44251042  0.80956846  0.95549109  1.0
  H  H88  1  0.40880463  0.00133348  0.76312247  1.0
  H  H89  1  0.40778343  0.99955856  0.86938900  1.0
  H  H90  1  0.85419688  0.80977178  0.44260635  1.0
  H  H91  1  0.14592267  0.19043159  0.63294190  1.0
  H  H92  1  0.76178925  0.99866731  0.40747155  1.0
  H  H93  1  0.86983093  0.00044087  0.40822475  1.0
  H  H94  1  0.55739377  0.19022750  0.14580279  1.0
  H  H95  1  0.36705784  0.80956773  0.85407665  1.0
  H  H96  1  0.59252853  0.00133246  0.23821031  1.0
  H  H97  1  0.59177462  0.99955812  0.13016867  1.0
  H  H98  1  0.95557617  0.80977269  0.36716749  1.0
  H  H99  1  0.04450947  0.19043181  0.55748997  1.0
  H  H100  1  0.23687785  0.99866715  0.59119619  1.0
  H  H101  1  0.13061127  0.00044193  0.59221712  1.0
  H  H102  1  0.57246636  0.14493283  0.96415880  1.0
  H  H103  1  0.42746955  0.85493882  0.03577781  1.0
  H  H104  1  0.03584196  0.85506722  0.42753455  1.0
  H  H105  1  0.96422184  0.14506038  0.57253017  1.0
  H  H106  1  0.57246555  0.14493194  0.18077392  1.0
  H  H107  1  0.42746986  0.85493974  0.81916154  1.0
  H  H108  1  0.81922586  0.85506727  0.42753407  1.0
  H  H109  1  0.18083900  0.14506079  0.57253051  1.0
  H  H110  1  0.81922607  0.39169218  0.96415883  1.0
  H  H111  1  0.18083878  0.60830837  0.03577827  1.0
  H  H112  1  0.57246563  0.60830733  0.42753338  1.0
  H  H113  1  0.42746977  0.39169191  0.57253054  1.0
  H  H114  1  0.03584195  0.60830784  0.18077398  1.0
  H  H115  1  0.96422238  0.39169163  0.81916146  1.0
  H  H116  1  0.57246556  0.39169193  0.42753399  1.0
  H  H117  1  0.42746932  0.60830874  0.57253074  1.0
  H  H118  1  0.57246632  0.39169210  0.96415865  1.0
  H  H119  1  0.42746909  0.60830778  0.03577730  1.0
  H  H120  1  0.81922584  0.39169280  0.42753435  1.0
  H  H121  1  0.18083848  0.60830824  0.57253005  1.0
  H  H122  1  0.57246556  0.60830770  0.18077364  1.0
  H  H123  1  0.42746931  0.39169108  0.81916065  1.0
  H  H124  1  0.03584149  0.60830865  0.42753403  1.0
  H  H125  1  0.96422179  0.39169169  0.57253002  1.0
  H  H126  1  0.44051536  0.88103103  0.32154676  1.0
  H  H127  1  0.67845417  0.11896905  0.55948475  1.0
  H  H128  1  0.44051592  0.88103125  0.55948526  1.0
  H  H129  1  0.44051586  0.11896984  0.55948509  1.0
  C  C130  1  0.55242089  0.00114124  0.78698736  1.0
  C  C131  1  0.55178218  0.00011556  0.84604187  1.0
  C  C132  1  0.21301319  0.99885908  0.44757996  1.0
  C  C133  1  0.15395850  0.99988451  0.44821833  1.0
  C  C134  1  0.44872044  0.00114187  0.21415499  1.0
  C  C135  1  0.44833353  0.00011590  0.15407425  1.0
  C  C136  1  0.78584573  0.99885853  0.55127970  1.0
  C  C137  1  0.84592659  0.99988437  0.55166626  1.0
  C  C138  1  0.78584589  0.33826786  0.78698763  1.0
  C  C139  1  0.84592597  0.39770797  0.84604257  1.0
  C  C140  1  0.44872035  0.66173248  0.44757757  1.0
  C  C141  1  0.44833451  0.60229244  0.44821721  1.0
  C  C142  1  0.21301252  0.66173268  0.21415417  1.0
  C  C143  1  0.15395860  0.60229246  0.15407457  1.0
  C  C144  1  0.55242202  0.33826828  0.55127985  1.0
  C  C145  1  0.55178170  0.39770763  0.55166585  1.0
  C  C146  1  0.44871492  0.23455989  0.78698700  1.0
  C  C147  1  0.44833678  0.29426321  0.84604248  1.0
  C  C148  1  0.78584541  0.23456084  0.44757344  1.0
  C  C149  1  0.84592691  0.29426371  0.44822070  1.0
  C  C150  1  0.55242694  0.76543885  0.21415453  1.0
  C  C151  1  0.55177838  0.70573528  0.15407296  1.0
  C  C152  1  0.21301298  0.76543997  0.55128555  1.0
  C  C153  1  0.15395766  0.70573651  0.55166322  1.0
  C  C154  1  0.55241945  0.33826617  0.78698737  1.0
  C  C155  1  0.55178293  0.39770853  0.84604121  1.0
  C  C156  1  0.21301307  0.66173471  0.44758092  1.0
  C  C157  1  0.15395879  0.60229142  0.44821686  1.0
  C  C158  1  0.44872136  0.66173358  0.21415381  1.0
  C  C159  1  0.44833223  0.60229081  0.15407423  1.0
  C  C160  1  0.78584638  0.33826638  0.55127843  1.0
  C  C161  1  0.84592526  0.39770778  0.55166639  1.0
  C  C162  1  0.78584569  0.23456233  0.78698742  1.0
  C  C163  1  0.84592629  0.29426210  0.84604253  1.0
  C  C164  1  0.44871673  0.23456311  0.44757521  1.0
  C  C165  1  0.44833584  0.29426207  0.44822014  1.0
  C  C166  1  0.21301219  0.76543786  0.21415421  1.0
  C  C167  1  0.15395776  0.70573817  0.15407395  1.0
  C  C168  1  0.55242512  0.76543737  0.55128302  1.0
  C  C169  1  0.55177986  0.70573706  0.55166325  1.0
  C  C170  1  0.44871656  0.00114196  0.78698672  1.0
  C  C171  1  0.44833569  0.00011560  0.84604219  1.0
  C  C172  1  0.78584600  0.99885811  0.44757478  1.0
  C  C173  1  0.84592635  0.99988317  0.44821960  1.0
  C  C174  1  0.55242581  0.00114238  0.21415449  1.0
  C  C175  1  0.55178000  0.00011646  0.15407343  1.0
  C  C176  1  0.21301291  0.99885796  0.55128438  1.0
  C  C177  1  0.15395822  0.99988469  0.55166432  1.0
  C  C178  1  0.50160306  0.00321508  0.69402815  1.0
  C  C179  1  0.50102252  0.00204085  0.75724618  1.0
  C  C180  1  0.49997358  0.99995120  0.87647937  1.0
  C  C181  1  0.49993495  0.99986988  0.94019279  1.0
  C  C182  1  0.53705496  0.07411075  0.00690942  1.0
  C  C183  1  0.57676471  0.15353011  0.01491502  1.0
  C  C184  1  0.46282909  0.92565877  0.99297235  1.0
  C  C185  1  0.42313191  0.84626421  0.98498922  1.0
  C  C186  1  0.30597227  0.99678540  0.49839824  1.0
  C  C187  1  0.24275423  0.99795941  0.49897748  1.0
  C  C188  1  0.12352067  0.00004844  0.50002722  1.0
  C  C189  1  0.05980684  0.00012989  0.50006567  1.0
  C  C190  1  0.99309081  0.92588855  0.46294554  1.0
  C  C191  1  0.98508512  0.84646950  0.42323564  1.0
  C  C192  1  0.00702751  0.07434073  0.53717046  1.0
  C  C193  1  0.01501067  0.15373563  0.57686742  1.0
  C  C194  1  0.50161367  0.00321499  0.30918705  1.0
  C  C195  1  0.50101920  0.00204144  0.24479517  1.0
  C  C196  1  0.49997702  0.99995145  0.12347202  1.0
  C  C197  1  0.49993442  0.99987013  0.05967717  1.0
  C  C198  1  0.53705511  0.07411110  0.06720168  1.0
  C  C199  1  0.57676448  0.15352968  0.13861474  1.0
  C  C200  1  0.46282946  0.92565941  0.93268669  1.0
  C  C201  1  0.42313214  0.84626432  0.86127517  1.0
  C  C202  1  0.69081387  0.99678601  0.49838746  1.0
  C  C203  1  0.75520588  0.99795995  0.49898173  1.0
  C  C204  1  0.87652846  0.00004818  0.50002273  1.0
  C  C205  1  0.94032353  0.00012955  0.50006522  1.0
  C  C206  1  0.93279821  0.92588825  0.46294496  1.0
  C  C207  1  0.86138476  0.84646954  0.42323569  1.0
  C  C208  1  0.06731381  0.07434082  0.53717092  1.0
  C  C209  1  0.13872517  0.15373576  0.57686812  1.0
  C  C210  1  0.69081471  0.19241763  0.69402875  1.0
  C  C211  1  0.75520541  0.25622710  0.75724561  1.0
  C  C212  1  0.87652799  0.37650292  0.87648018  1.0
  C  C213  1  0.94032281  0.44025797  0.94019264  1.0
  C  C214  1  0.93279939  0.46985480  0.00691018  1.0
  C  C215  1  0.86138509  0.43815013  0.01491525  1.0
  C  C216  1  0.06731315  0.53014240  0.99297166  1.0
  C  C217  1  0.13872535  0.56185728  0.98498911  1.0
  C  C218  1  0.50161218  0.80758372  0.49839710  1.0
  C  C219  1  0.50101826  0.74377291  0.49897776  1.0
  C  C220  1  0.49997668  0.62349731  0.50002527  1.0
  C  C221  1  0.49993410  0.55974212  0.50006484  1.0
  C  C222  1  0.53705535  0.53014567  0.46294472  1.0
  C  C223  1  0.57676438  0.56185013  0.42323497  1.0
  C  C224  1  0.46282922  0.46985787  0.53717094  1.0
  C  C225  1  0.42313224  0.43814303  0.57686840  1.0
  C  C226  1  0.30597093  0.80758292  0.30918669  1.0
  C  C227  1  0.24275470  0.74377376  0.24479597  1.0
  C  C228  1  0.12352062  0.62349779  0.12347176  1.0
  C  C229  1  0.05980756  0.55974222  0.05967735  1.0
  C  C230  1  0.99309015  0.53014594  0.06720145  1.0
  C  C231  1  0.98508546  0.56185052  0.13861517  1.0
  C  C232  1  0.00702816  0.46985776  0.93268676  1.0
  C  C233  1  0.01501083  0.43814276  0.86127509  1.0
  C  C234  1  0.50160401  0.19241811  0.49838950  1.0
  C  C235  1  0.50102187  0.25622688  0.49898168  1.0
  C  C236  1  0.49997444  0.37650289  0.50002314  1.0
  C  C237  1  0.49993527  0.44025818  0.50006552  1.0
  C  C238  1  0.53705576  0.46985492  0.46294477  1.0
  C  C239  1  0.57676465  0.43814917  0.42323488  1.0
  C  C240  1  0.46282881  0.53014263  0.53717089  1.0
  C  C241  1  0.42313144  0.56185708  0.57686782  1.0
  C  C242  1  0.50159976  0.19241311  0.69402881  1.0
  C  C243  1  0.50102406  0.25622907  0.75724508  1.0
  C  C244  1  0.49997273  0.37650057  0.87647963  1.0
  C  C245  1  0.49993474  0.44025765  0.94019237  1.0
  C  C246  1  0.53705520  0.46985399  0.00690958  1.0
  C  C247  1  0.57676473  0.43814960  0.01491445  1.0
  C  C248  1  0.46282885  0.53014208  0.99297170  1.0
  C  C249  1  0.42313136  0.56185654  0.98498863  1.0
  C  C250  1  0.69081320  0.19241076  0.49838258  1.0
  C  C251  1  0.75520533  0.25622870  0.49898340  1.0
  C  C252  1  0.87652761  0.37650139  0.50002151  1.0
  C  C253  1  0.94032279  0.44025899  0.50006561  1.0
  C  C254  1  0.93279838  0.46985512  0.46294485  1.0
  C  C255  1  0.86138450  0.43815064  0.42323551  1.0
  C  C256  1  0.06731312  0.53014296  0.53717086  1.0
  C  C257  1  0.13872490  0.56185722  0.57686764  1.0
  C  C258  1  0.50161749  0.80758913  0.30918656  1.0
  C  C259  1  0.50101556  0.74376984  0.24479457  1.0
  C  C260  1  0.49997735  0.62349734  0.12347109  1.0
  C  C261  1  0.49993357  0.55974048  0.05967625  1.0
  C  C262  1  0.53705493  0.53014484  0.06720129  1.0
  C  C263  1  0.57676422  0.56184951  0.13861475  1.0
  C  C264  1  0.46282911  0.46985700  0.93268641  1.0
  C  C265  1  0.42313187  0.43814244  0.86127449  1.0
  C  C266  1  0.30597138  0.80758790  0.49840113  1.0
  C  C267  1  0.24275479  0.74377043  0.49897582  1.0
  C  C268  1  0.12352048  0.62349972  0.50002760  1.0
  C  C269  1  0.05980703  0.55974223  0.50006460  1.0
  C  C270  1  0.99309004  0.53014642  0.46294471  1.0
  C  C271  1  0.98508510  0.56185079  0.42323522  1.0
  C  C272  1  0.00702722  0.46985768  0.53717044  1.0
  C  C273  1  0.01501016  0.43814259  0.57686766  1.0
  O  O274  1  0.55019692  0.00309958  0.66889362  1.0
  O  O275  1  0.33110686  0.99689991  0.44980324  1.0
  O  O276  1  0.45290505  0.00310082  0.33420723  1.0
  O  O277  1  0.66579353  0.99690082  0.54709664  1.0
  O  O278  1  0.66579372  0.21598930  0.66889250  1.0
  O  O279  1  0.45290491  0.78401163  0.44980420  1.0
  O  O280  1  0.33110671  0.78401119  0.33420803  1.0
  O  O281  1  0.55019651  0.21599028  0.54709732  1.0
  O  O282  1  0.45290973  0.11870465  0.66889615  1.0
  O  O283  1  0.66579563  0.11870532  0.44980857  1.0
  O  O284  1  0.55019116  0.88129426  0.33420384  1.0
  O  O285  1  0.33110321  0.88129619  0.54709080  1.0
  O  O286  1  0.55019942  0.21599165  0.66889328  1.0
  O  O287  1  0.33110698  0.78400957  0.44980100  1.0
  O  O288  1  0.45290148  0.78400929  0.33420820  1.0
  O  O289  1  0.66579186  0.21599090  0.54709887  1.0
  O  O290  1  0.66579510  0.11870140  0.66889529  1.0
  O  O291  1  0.45290764  0.11870199  0.44980658  1.0
  O  O292  1  0.33110479  0.88129947  0.33420654  1.0
  O  O293  1  0.55019430  0.88129891  0.54709412  1.0
  O  O294  1  0.45290847  0.00310127  0.66889606  1.0
  O  O295  1  0.66579591  0.99689991  0.44980651  1.0
  O  O296  1  0.55019350  0.00309950  0.33420381  1.0
  O  O297  1  0.33110500  0.99689982  0.54709255  1.0
  O  O298  1  0.45744869  0.91489739  0.54255060  1.0
  O  O299  1  0.53143842  0.06287719  0.46856348  1.0
  O  O300  1  0.45745006  0.08510296  0.54255130  1.0
  O  O301  1  0.53143712  0.93712308  0.46856238  1.0
  O  O302  1  0.45744828  0.91489759  0.37234768  1.0
  O  O303  1  0.53143924  0.06287703  0.59431412  1.0
  O  O304  1  0.62765323  0.08510297  0.54255194  1.0
  O  O305  1  0.40568706  0.93712398  0.46856156  1.0
