# generated using pymatgen
data_Zn4H52C87(N10O)2
_symmetry_space_group_name_H-M   'P 1'
_cell_length_a   18.73994596
_cell_length_b   19.06365074
_cell_length_c   21.35931579
_cell_angle_alpha   106.50162268
_cell_angle_beta   106.58438461
_cell_angle_gamma   110.68772041
_symmetry_Int_Tables_number   1
_chemical_formula_structural   Zn4H52C87(N10O)2
_chemical_formula_sum   'Zn4 H52 C87 N20 O2'
_cell_volume   6179.25642025
_cell_formula_units_Z   1
loop_
 _symmetry_equiv_pos_site_id
 _symmetry_equiv_pos_as_xyz
  1  'x, y, z'
loop_
 _atom_site_type_symbol
 _atom_site_label
 _atom_site_symmetry_multiplicity
 _atom_site_fract_x
 _atom_site_fract_y
 _atom_site_fract_z
 _atom_site_occupancy
  Zn  Zn0  1  0.39906326  0.39976961  0.50881895  1.0
  Zn  Zn1  1  0.62719092  0.59536144  0.52011612  1.0
  Zn  Zn2  1  0.40975447  0.45596492  0.36392301  1.0
  Zn  Zn3  1  0.60782441  0.49516531  0.62128323  1.0
  H  H4  1  0.20422848  0.24734239  0.39624492  1.0
  H  H5  1  0.66758584  0.75989016  0.48953872  1.0
  H  H6  1  0.21661027  0.43875050  0.32099528  1.0
  H  H7  1  0.75239851  0.66412114  0.78441590  1.0
  H  H8  1  0.67867236  0.76991198  0.63873192  1.0
  H  H9  1  0.29340010  0.48000525  0.54496227  1.0
  H  H10  1  0.60160278  0.62906517  0.74346697  1.0
  H  H11  1  0.39722383  0.60873870  0.36185334  1.0
  H  H12  1  0.66143416  0.86035205  0.45146320  1.0
  H  H13  1  0.38992935  0.73190538  0.36927233  1.0
  H  H14  1  0.30754373  0.80671949  0.34854978  1.0
  H  H15  1  0.63913505  0.46990180  0.38873881  1.0
  H  H16  1  0.30476622  0.94034201  0.37431831  1.0
  H  H17  1  0.38223936  0.09445018  0.43767945  1.0
  H  H18  1  0.65398217  0.22416873  0.52657753  1.0
  H  H19  1  0.73380497  0.14466715  0.51244322  1.0
  H  H20  1  0.73615989  0.01072402  0.48372674  1.0
  H  H21  1  0.10065823  0.47301031  0.34056541  1.0
  H  H22  1  0.14166804  0.37480640  0.49828834  1.0
  H  H23  1  0.02924505  0.31832686  0.53688224  1.0
  H  H24  1  0.89466043  0.30416647  0.54121307  1.0
  H  H25  1  0.77950489  0.34209560  0.51398416  1.0
  H  H26  1  0.35314203  0.48869469  0.21945281  1.0
  H  H27  1  0.73867608  0.43991104  0.35556053  1.0
  H  H28  1  0.82834248  0.45578414  0.28971198  1.0
  H  H29  1  0.96282975  0.46983532  0.28530052  1.0
  H  H30  1  0.37737809  0.58394086  0.16744609  1.0
  H  H31  1  0.34246742  0.63397856  0.87600787  1.0
  H  H32  1  0.63228988  0.62137736  0.22381968  1.0
  H  H33  1  0.59805340  0.67819938  0.97207395  1.0
  H  H34  1  0.64590863  0.69366271  0.14432544  1.0
  H  H35  1  0.61945089  0.31924848  0.62993906  1.0
  H  H36  1  0.59444934  0.62720670  0.85003996  1.0
  H  H37  1  0.72923950  0.75832820  0.86684031  1.0
  H  H38  1  0.79720903  0.88511502  0.98190398  1.0
  H  H39  1  0.93263347  0.04633366  0.18504931  1.0
  H  H40  1  0.07317689  0.13458081  0.29098042  1.0
  H  H41  1  0.78013646  0.91077934  0.75303757  1.0
  H  H42  1  0.02861008  0.15812389  0.05825901  1.0
  H  H43  1  0.84619475  0.03715398  0.86879767  1.0
  H  H44  1  0.16930547  0.24671638  0.16338766  1.0
  H  H45  1  0.61185140  0.53432290  0.27797198  1.0
  H  H46  1  0.41012024  0.24043771  0.42811533  1.0
  H  H47  1  0.71201473  0.40203899  0.56535265  1.0
  H  H48  1  0.30556711  0.28976991  0.24388032  1.0
  H  H49  1  0.33609058  0.45437780  0.64652374  1.0
  H  H50  1  0.26075625  0.63441137  0.05409273  1.0
  H  H51  1  0.23012678  0.51033040  0.76360420  1.0
  H  H52  1  0.10460050  0.48282595  0.66014828  1.0
  H  H53  1  0.12349310  0.54583992  0.57502318  1.0
  H  H54  1  0.26863147  0.63680665  0.59377948  1.0
  H  H55  1  0.39364844  0.66418825  0.69703176  1.0
  C  C56  1  0.24219018  0.26577953  0.36804655  1.0
  C  C57  1  0.69663281  0.42049538  0.46321246  1.0
  C  C58  1  0.48801834  0.53654050  0.23325828  1.0
  C  C59  1  0.51651121  0.24667519  0.51595647  1.0
  C  C60  1  0.40238463  0.48987965  0.65977224  1.0
  C  C61  1  0.60210623  0.71191164  0.45921165  1.0
  C  C62  1  0.24927240  0.45231357  0.37735252  1.0
  C  C63  1  0.72937976  0.67730780  0.73866129  1.0
  C  C64  1  0.69299671  0.73228127  0.66499140  1.0
  C  C65  1  0.28817859  0.47102241  0.49103783  1.0
  C  C66  1  0.53813038  0.57848465  0.70941392  1.0
  C  C67  1  0.65362757  0.46102387  0.43800204  1.0
  C  C68  1  0.46428358  0.63454671  0.39478763  1.0
  C  C69  1  0.46638037  0.56111464  0.72294419  1.0
  C  C70  1  0.53048170  0.71488574  0.41934775  1.0
  C  C71  1  0.21777713  0.45035050  0.42952067  1.0
  C  C72  1  0.72755198  0.75066045  0.73872506  1.0
  C  C73  1  0.60084360  0.86076093  0.43600903  1.0
  C  C74  1  0.52627686  0.78768424  0.41262006  1.0
  C  C75  1  0.44869101  0.78848453  0.38890331  1.0
  C  C76  1  0.44471779  0.86188239  0.39419942  1.0
  C  C77  1  0.52157694  0.93760741  0.42488009  1.0
  C  C78  1  0.41497885  0.49191031  0.23965264  1.0
  C  C79  1  0.60028635  0.93593270  0.44335870  1.0
  C  C80  1  0.36635615  0.86497163  0.37422593  1.0
  C  C81  1  0.36480962  0.93882526  0.38859792  1.0
  C  C82  1  0.44147510  0.01622437  0.42450122  1.0
  C  C83  1  0.52009239  0.01447888  0.44062084  1.0
  C  C84  1  0.59744131  0.09063099  0.47600705  1.0
  C  C85  1  0.67508756  0.08669346  0.48867860  1.0
  C  C86  1  0.67643170  0.01263326  0.47268581  1.0
  C  C87  1  0.44210157  0.09310958  0.44750078  1.0
  C  C88  1  0.51805343  0.16801223  0.48660680  1.0
  C  C89  1  0.56803053  0.31280853  0.58516881  1.0
  C  C90  1  0.59481730  0.16596759  0.49873697  1.0
  C  C91  1  0.07789318  0.44395766  0.37309845  1.0
  C  C92  1  0.13155966  0.42793358  0.42131126  1.0
  C  C93  1  0.10121937  0.38975843  0.46228753  1.0
  C  C94  1  0.02092717  0.37216063  0.45954749  1.0
  C  C95  1  0.96869998  0.39338879  0.41361931  1.0
  C  C96  1  0.99691931  0.42727746  0.36821898  1.0
  C  C97  1  0.99033807  0.33689832  0.50357439  1.0
  C  C98  1  0.91593931  0.32914065  0.50596631  1.0
  C  C99  1  0.86561951  0.35625612  0.46471794  1.0
  C  C100  1  0.54684340  0.51497549  0.27048389  1.0
  C  C101  1  0.89141150  0.38526625  0.41608678  1.0
  C  C102  1  0.84169603  0.41131237  0.37350796  1.0
  C  C103  1  0.86814131  0.43891509  0.32418995  1.0
  C  C104  1  0.94251832  0.44675644  0.32180953  1.0
  C  C105  1  0.79630508  0.36111193  0.47436808  1.0
  C  C106  1  0.75266870  0.39506220  0.43841754  1.0
  C  C107  1  0.77318135  0.41534846  0.38536878  1.0
  C  C108  1  0.46671292  0.60261566  0.79245323  1.0
  C  C109  1  0.54007160  0.63197628  0.85570747  1.0
  C  C110  1  0.54260266  0.65969571  0.92393914  1.0
  C  C111  1  0.46062084  0.27199762  0.48242279  1.0
  C  C112  1  0.46923477  0.65639742  0.93113651  1.0
  C  C113  1  0.39776113  0.63298287  0.86935275  1.0
  C  C114  1  0.39593515  0.60823114  0.80028240  1.0
  C  C115  1  0.44408040  0.64860358  0.11859789  1.0
  C  C116  1  0.43605804  0.60595735  0.16140819  1.0
  C  C117  1  0.51916230  0.67524593  0.10830630  1.0
  C  C118  1  0.50101460  0.59019274  0.19663395  1.0
  C  C119  1  0.57910200  0.62816563  0.19422149  1.0
  C  C120  1  0.58777138  0.66988275  0.15098420  1.0
  C  C121  1  0.13269315  0.19549904  0.23447116  1.0
  C  C122  1  0.68838432  0.42537340  0.52780727  1.0
  C  C123  1  0.11757728  0.20282648  0.16845268  1.0
  C  C124  1  0.03925792  0.15455719  0.10987127  1.0
  C  C125  1  0.97226395  0.09605752  0.11497856  1.0
  C  C126  1  0.98505537  0.09140305  0.18157604  1.0
  C  C127  1  0.06382253  0.14069134  0.24038364  1.0
  C  C128  1  0.79225694  0.88956783  0.93126263  1.0
  C  C129  1  0.75580469  0.81945731  0.86707082  1.0
  C  C130  1  0.82872999  0.96884824  0.93261245  1.0
  C  C131  1  0.75427563  0.82538333  0.80228249  1.0
  C  C132  1  0.78258627  0.90450266  0.80273166  1.0
  C  C133  1  0.29351521  0.28763343  0.29030073  1.0
  C  C134  1  0.81931422  0.97532746  0.86706423  1.0
  C  C135  1  0.21734460  0.24434660  0.29359601  1.0
  C  C136  1  0.37797859  0.67217844  0.09048131  1.0
  C  C137  1  0.32062731  0.58906887  0.73744472  1.0
  C  C138  1  0.23848616  0.53831585  0.72644840  1.0
  C  C139  1  0.16804343  0.52289253  0.66840357  1.0
  C  C140  1  0.17847273  0.55820834  0.62049413  1.0
  C  C141  1  0.25989232  0.60897413  0.63093297  1.0
  C  C142  1  0.33021131  0.62411102  0.68873183  1.0
  N  N143  1  0.32538034  0.31855504  0.40505039  1.0
  N  N144  1  0.57933823  0.63533538  0.45697178  1.0
  N  N145  1  0.33121946  0.47141302  0.40606956  1.0
  N  N146  1  0.69724840  0.61927925  0.67082392  1.0
  N  N147  1  0.67486214  0.65387831  0.62497279  1.0
  N  N148  1  0.35645104  0.48290643  0.47659002  1.0
  N  N149  1  0.51917883  0.52221280  0.64414860  1.0
  N  N150  1  0.49399529  0.58731789  0.41752916  1.0
  N  N151  1  0.45973129  0.66221542  0.99524477  1.0
  N  N152  1  0.52865899  0.69190514  0.05062387  1.0
  N  N153  1  0.89755063  0.03313217  0.05453384  1.0
  N  N154  1  0.62408553  0.48927164  0.48545589  1.0
  N  N155  1  0.88647348  0.04203904  0.99622170  1.0
  N  N156  1  0.43046020  0.44864673  0.27767611  1.0
  N  N157  1  0.54382931  0.37235493  0.59268313  1.0
  N  N158  1  0.51327782  0.46354292  0.29739683  1.0
  N  N159  1  0.47762278  0.34722402  0.52815504  1.0
  N  N160  1  0.64610527  0.46725211  0.54089903  1.0
  N  N161  1  0.35826031  0.33331695  0.35736184  1.0
  N  N162  1  0.43484693  0.46681171  0.61371284  1.0
  O  O163  1  0.39176275  0.74051273  0.09266476  1.0
  O  O164  1  0.29784071  0.61019719  0.06689553  1.0
