# generated using pymatgen
data_ZnH11C20NO5
_symmetry_space_group_name_H-M   'P 1'
_cell_length_a   13.97184197
_cell_length_b   15.19796499
_cell_length_c   16.09466897
_cell_angle_alpha   90.50181727
_cell_angle_beta   89.92858712
_cell_angle_gamma   89.96521268
_symmetry_Int_Tables_number   1
_chemical_formula_structural   ZnH11C20NO5
_chemical_formula_sum   'Zn2 H22 C40 N2 O10'
_cell_volume   3417.46500162
_cell_formula_units_Z   2
loop_
 _symmetry_equiv_pos_site_id
 _symmetry_equiv_pos_as_xyz
  1  'x, y, z'
loop_
 _atom_site_type_symbol
 _atom_site_label
 _atom_site_symmetry_multiplicity
 _atom_site_fract_x
 _atom_site_fract_y
 _atom_site_fract_z
 _atom_site_occupancy
  Zn  Zn0  1  0.39976930  0.50167202  0.50574892  1.0
  Zn  Zn1  1  0.60075600  0.49798582  0.50596157  1.0
  H  H2  1  0.59380545  0.62655761  0.95645309  1.0
  H  H3  1  0.33501547  0.51347696  0.95748659  1.0
  H  H4  1  0.36158268  0.95104160  0.51409444  1.0
  H  H5  1  0.63577755  0.05086764  0.51388040  1.0
  H  H6  1  0.35960727  0.78893675  0.53574393  1.0
  H  H7  1  0.63562707  0.21372520  0.53507350  1.0
  H  H8  1  0.63252215  0.76663155  0.41386779  1.0
  H  H9  1  0.36380677  0.23009844  0.41153949  1.0
  H  H10  1  0.93320900  0.56587690  0.62114035  1.0
  H  H11  1  0.06993568  0.37124281  0.44506919  1.0
  H  H12  1  0.75380704  0.56008511  0.61876692  1.0
  H  H13  1  0.40819497  0.37470225  0.05569927  1.0
  H  H14  1  0.24912799  0.37746196  0.45017101  1.0
  H  H15  1  0.63935275  0.00361821  0.34848303  1.0
  H  H16  1  0.35969409  0.99225008  0.34685187  1.0
  H  H17  1  0.75144234  0.43669350  0.38899803  1.0
  H  H18  1  0.24648846  0.62623052  0.55564093  1.0
  H  H19  1  0.93094804  0.43487814  0.38147478  1.0
  H  H20  1  0.06696999  0.63184864  0.55558464  1.0
  H  H21  1  0.43100307  0.63671744  0.06160919  1.0
  H  H22  1  0.57061224  0.36426525  0.95003577  1.0
  H  H23  1  0.66684711  0.48737264  0.05437697  1.0
  C  C24  1  0.49734114  0.67053991  0.49564715  1.0
  C  C25  1  0.42429457  0.10035354  0.41935549  1.0
  C  C26  1  0.49717835  0.95081498  0.44997206  1.0
  C  C27  1  0.50059312  0.04825829  0.44945755  1.0
  C  C28  1  0.89613953  0.53700963  0.56805449  1.0
  C  C29  1  0.10570812  0.42962413  0.46950257  1.0
  C  C30  1  0.79681834  0.53412802  0.56753770  1.0
  C  C31  1  0.20506360  0.43212880  0.47218921  1.0
  C  C32  1  0.79557421  0.46337697  0.43905895  1.0
  C  C33  1  0.20352830  0.57143561  0.53244623  1.0
  C  C34  1  0.89496163  0.46277279  0.43569375  1.0
  C  C35  1  0.49615021  0.32923375  0.49502561  1.0
  C  C36  1  0.10417087  0.57358650  0.53241648  1.0
  C  C37  1  0.94742279  0.50042468  0.50119100  1.0
  C  C38  1  0.05308661  0.50129228  0.50066253  1.0
  C  C39  1  0.50354546  0.50208975  0.66686976  1.0
  C  C40  1  0.50430378  0.49730193  0.34442626  1.0
  C  C41  1  0.46197419  0.57624906  0.03589765  1.0
  C  C42  1  0.53991094  0.42478299  0.97586792  1.0
  C  C43  1  0.55266406  0.57050864  0.97920538  1.0
  C  C44  1  0.44927701  0.43059830  0.03255552  1.0
  C  C45  1  0.50230149  0.50254971  0.75662343  1.0
  C  C46  1  0.41935650  0.81995443  0.50381283  1.0
  C  C47  1  0.50405844  0.49697622  0.25479824  1.0
  C  C48  1  0.40871999  0.50779370  0.97959372  1.0
  C  C49  1  0.59323743  0.49319436  0.03207282  1.0
  C  C50  1  0.49930450  0.50220111  0.92036913  1.0
  C  C51  1  0.50282158  0.49906279  0.09124822  1.0
  C  C52  1  0.50012836  0.50262545  0.83241027  1.0
  C  C53  1  0.50338186  0.49759428  0.17906070  1.0
  C  C54  1  0.41990341  0.91019134  0.49033920  1.0
  C  C55  1  0.57712805  0.09059649  0.48986618  1.0
  C  C56  1  0.65140073  0.93484153  0.36971203  1.0
  C  C57  1  0.57656533  0.18113832  0.50312157  1.0
  C  C58  1  0.34712754  0.06137795  0.36790800  1.0
  C  C59  1  0.49696307  0.76757048  0.47839655  1.0
  C  C60  1  0.49830338  0.23204445  0.47747457  1.0
  C  C61  1  0.57290145  0.80667423  0.43624514  1.0
  C  C62  1  0.42355054  0.19130158  0.43472032  1.0
  C  C63  1  0.57329745  0.89735578  0.42068528  1.0
  N  N64  1  0.74756964  0.49809551  0.50405780  1.0
  N  N65  1  0.25296349  0.50173301  0.50329483  1.0
  O  O66  1  0.41909881  0.63643018  0.52045011  1.0
  O  O67  1  0.27458033  0.10086648  0.34683889  1.0
  O  O68  1  0.57330420  0.36472545  0.52042775  1.0
  O  O69  1  0.57583550  0.62998340  0.48374257  1.0
  O  O70  1  0.41697075  0.36858089  0.48269400  1.0
  O  O71  1  0.42453773  0.48536113  0.63055902  1.0
  O  O72  1  0.58245966  0.47556546  0.37985095  1.0
  O  O73  1  0.58358227  0.51833119  0.63173491  1.0
  O  O74  1  0.42653088  0.51942048  0.38034034  1.0
  O  O75  1  0.72406191  0.89479221  0.34930737  1.0
