# generated using pymatgen
data_AlH9C21Br3NO6
_symmetry_space_group_name_H-M   'P 1'
_cell_length_a   4.12518339
_cell_length_b   13.47472766
_cell_length_c   13.47503256
_cell_angle_alpha   60.00059354
_cell_angle_beta   89.99923061
_cell_angle_gamma   90.00052862
_symmetry_Int_Tables_number   1
_chemical_formula_structural   AlH9C21Br3NO6
_chemical_formula_sum   'Al1 H9 C21 Br3 N1 O6'
_cell_volume   648.67372818
_cell_formula_units_Z   1
loop_
 _symmetry_equiv_pos_site_id
 _symmetry_equiv_pos_as_xyz
  1  'x, y, z'
loop_
 _atom_site_type_symbol
 _atom_site_label
 _atom_site_symmetry_multiplicity
 _atom_site_fract_x
 _atom_site_fract_y
 _atom_site_fract_z
 _atom_site_occupancy
  Al  Al0  1  0.03115105  0.99999848  0.50000710  1.0
  H  H1  1  0.23239128  0.97152783  0.21861125  1.0
  H  H2  1  0.20752134  0.87196906  0.10741273  1.0
  H  H3  1  0.76201529  0.59282924  0.37037351  1.0
  H  H4  1  0.76208725  0.87037171  0.03679369  1.0
  H  H5  1  0.23238210  0.71861040  0.80988038  1.0
  H  H6  1  0.20750941  0.60741294  0.02063187  1.0
  H  H7  1  0.76210517  0.53679541  0.09284329  1.0
  H  H8  1  0.23231839  0.30987290  0.47150050  1.0
  H  H9  1  0.20743759  0.52062952  0.37194329  1.0
  C  C10  1  0.52880886  0.92131150  0.67449572  1.0
  C  C11  1  0.52882092  0.17449636  0.40420156  1.0
  C  C12  1  0.52880670  0.90419930  0.42130979  1.0
  C  C13  1  0.35172946  0.88876124  0.25122390  1.0
  C  C14  1  0.33519732  0.83218612  0.18891448  1.0
  C  C15  1  0.48540230  0.72498008  0.22988907  1.0
  C  C16  1  0.64589556  0.67589894  0.33574657  1.0
  C  C17  1  0.65148514  0.73198901  0.39864584  1.0
  C  C18  1  0.51209752  0.84012764  0.35698457  1.0
  C  C19  1  0.64594476  0.83575252  0.98835618  1.0
  C  C20  1  0.65152861  0.89864337  0.86937319  1.0
  C  C21  1  0.51210285  0.85697852  0.80290106  1.0
  C  C22  1  0.35172896  0.75122569  0.86002015  1.0
  C  C23  1  0.33518803  0.68892181  0.97890115  1.0
  C  C24  1  0.48543054  0.72989727  0.04513486  1.0
  C  C25  1  0.64595509  0.48835599  0.17589972  1.0
  C  C26  1  0.65156637  0.36937083  0.23199591  1.0
  C  C27  1  0.51211712  0.30289227  0.34012591  1.0
  C  C28  1  0.35168289  0.36002278  0.38874432  1.0
  C  C29  1  0.33514363  0.47890335  0.33216538  1.0
  C  C30  1  0.48540206  0.54513688  0.22496900  1.0
  Br  Br31  1  0.84839087  0.65574639  0.54608518  1.0
  Br  Br32  1  0.84846909  0.04608362  0.79817139  1.0
  Br  Br33  1  0.84856661  0.29817428  0.15576623  1.0
  N  N34  1  0.47494745  0.66666966  0.16666768  1.0
  O  O35  1  0.77110044  0.97043172  0.39967200  1.0
  O  O36  1  0.77109931  0.89966542  0.62990665  1.0
  O  O37  1  0.77109897  0.12990552  0.47043580  1.0
  O  O38  1  0.29920068  0.88947556  0.49011897  1.0
  O  O39  1  0.29920394  0.12040716  0.38948442  1.0
  O  O40  1  0.29919946  0.99011363  0.62041648  1.0
