# generated using pymatgen
data_MgH8C14NO4
_symmetry_space_group_name_H-M   'P 1'
_cell_length_a   6.83772359
_cell_length_b   42.29144381
_cell_length_c   42.29524889
_cell_angle_alpha   119.72178011
_cell_angle_beta   93.08694723
_cell_angle_gamma   93.08205378
_symmetry_Int_Tables_number   1
_chemical_formula_structural   MgH8C14NO4
_chemical_formula_sum   'Mg6 H48 C84 N6 O24'
_cell_volume   10560.60243713
_cell_formula_units_Z   6
loop_
 _symmetry_equiv_pos_site_id
 _symmetry_equiv_pos_as_xyz
  1  'x, y, z'
loop_
 _atom_site_type_symbol
 _atom_site_label
 _atom_site_symmetry_multiplicity
 _atom_site_fract_x
 _atom_site_fract_y
 _atom_site_fract_z
 _atom_site_occupancy
  Mg  Mg0  1  0.49878467  0.63927908  0.32816184  1.0
  Mg  Mg1  1  0.17065206  0.67180274  0.31114413  1.0
  Mg  Mg2  1  0.85937225  0.68885602  0.36069727  1.0
  Mg  Mg3  1  0.34507135  0.35900182  0.66854187  1.0
  Mg  Mg4  1  0.67655342  0.33144914  0.69043779  1.0
  Mg  Mg5  1  0.98612862  0.30954927  0.64097931  1.0
  H  H6  1  0.41978679  0.55551187  0.11255279  1.0
  H  H7  1  0.30703817  0.88741158  0.44291641  1.0
  H  H8  1  0.86424999  0.55707628  0.44454014  1.0
  H  H9  1  0.93422238  0.53399313  0.09760424  1.0
  H  H10  1  0.83627503  0.90235488  0.43625423  1.0
  H  H11  1  0.40024810  0.56369775  0.46605091  1.0
  H  H12  1  0.05035324  0.50103497  0.03634900  1.0
  H  H13  1  0.01362698  0.96361127  0.46465330  1.0
  H  H14  1  0.54948864  0.53533239  0.49893296  1.0
  H  H15  1  0.07411120  0.45279497  0.98564670  1.0
  H  H16  1  0.08787294  0.01429580  0.46715122  1.0
  H  H17  1  0.62112481  0.53290187  0.54723340  1.0
  H  H18  1  0.21916149  0.42618428  0.92682772  1.0
  H  H19  1  0.29189875  0.07308820  0.49933825  1.0
  H  H20  1  0.79276574  0.50070068  0.57385131  1.0
  H  H21  1  0.00350791  0.43356850  0.84870428  1.0
  H  H22  1  0.15446205  0.15126276  0.58488344  1.0
  H  H23  1  0.56983736  0.41517567  0.56644504  1.0
  H  H24  1  0.02321510  0.38504487  0.79402491  1.0
  H  H25  1  0.22903478  0.20598673  0.59105840  1.0
  H  H26  1  0.63798785  0.40900801  0.61499825  1.0
  H  H27  1  0.72236243  0.40337441  0.77571985  1.0
  H  H28  1  0.94660347  0.22418970  0.62757640  1.0
  H  H29  1  0.31893641  0.37238120  0.59658447  1.0
  H  H30  1  0.62157876  0.42432649  0.83904569  1.0
  H  H31  1  0.78224395  0.16088198  0.58526558  1.0
  H  H32  1  0.19696786  0.41474573  0.57565800  1.0
  H  H33  1  0.79020761  0.47255387  0.88720919  1.0
  H  H34  1  0.90291097  0.11273936  0.58539782  1.0
  H  H35  1  0.31758958  0.41467634  0.52741704  1.0
  H  H36  1  0.64757830  0.49955665  0.94607209  1.0
  H  H37  1  0.70128676  0.05389800  0.55356056  1.0
  H  H38  1  0.14790835  0.44655126  0.50043658  1.0
  H  H39  1  0.47128307  0.49625299  0.98770544  1.0
  H  H40  1  0.48315221  0.01224063  0.50854484  1.0
  H  H41  1  0.97520842  0.49152235  0.50376631  1.0
  H  H42  1  0.35741172  0.53038054  0.04905284  1.0
  H  H43  1  0.30798464  0.95088299  0.48126293  1.0
  H  H44  1  0.82705924  0.51873887  0.46965598  1.0
  H  H45  1  0.85050900  0.61750476  0.20946616  1.0
  H  H46  1  0.64071157  0.79050009  0.40804191  1.0
  H  H47  1  0.23285614  0.59197800  0.38251938  1.0
  H  H48  1  0.14148297  0.59678650  0.21807320  1.0
  H  H49  1  0.92306150  0.78194858  0.37874172  1.0
  H  H50  1  0.54445701  0.62128132  0.40323826  1.0
  H  H51  1  0.26482197  0.57099369  0.15816589  1.0
  H  H52  1  0.10632150  0.84184920  0.41287683  1.0
  H  H53  1  0.69356728  0.58713923  0.42899482  1.0
  C  C54  1  0.67981175  0.57447469  0.14543709  1.0
  C  C55  1  0.53419068  0.85452561  0.42898722  1.0
  C  C56  1  0.10521647  0.57101305  0.42557288  1.0
  C  C57  1  0.63874105  0.53492935  0.07779281  1.0
  C  C58  1  0.56058767  0.92216004  0.45701461  1.0
  C  C59  1  0.10388340  0.54296797  0.46514602  1.0
  C  C60  1  0.83378943  0.52565940  0.07352777  1.0
  C  C61  1  0.75985002  0.92643137  0.45200665  1.0
  C  C62  1  0.30820007  0.54796062  0.47440339  1.0
  C  C63  1  0.89698214  0.50700223  0.03876917  1.0
  C  C64  1  0.85780921  0.96118927  0.46817517  1.0
  C  C65  1  0.39014995  0.53183033  0.49302021  1.0
  C  C66  1  0.77238624  0.49657299  0.00700158  1.0
  C  C67  1  0.76492474  0.99294340  0.48955699  1.0
  C  C68  1  0.27593447  0.51049403  0.50344335  1.0
  C  C69  1  0.85052197  0.47877511  0.97089831  1.0
  C  C70  1  0.87912482  0.02904941  0.50789542  1.0
  C  C71  1  0.37166362  0.49217206  0.52123527  1.0
  C  C72  1  0.01193243  0.45772137  0.96435404  1.0
  C  C73  1  0.04701045  0.03558976  0.49337474  1.0
  C  C74  1  0.55403455  0.50668394  0.54230747  1.0
  C  C75  1  0.09409129  0.44218184  0.93110647  1.0
  C  C76  1  0.16255143  0.06882819  0.51106595  1.0
  C  C77  1  0.65169266  0.48898690  0.55786170  1.0
  C  C78  1  0.01446329  0.44741463  0.90289779  1.0
  C  C79  1  0.11125825  0.09705001  0.54452462  1.0
  C  C80  1  0.56689386  0.45553381  0.55260226  1.0
  C  C81  1  0.27412690  0.42162726  0.86006440  1.0
  C  C82  1  0.41362167  0.13988973  0.56154189  1.0
  C  C83  1  0.85235915  0.43850983  0.57840362  1.0
  C  C84  1  0.31561664  0.40799780  0.82120458  1.0
  C  C85  1  0.49413862  0.17874825  0.58677981  1.0
  C  C86  1  0.90744868  0.41328507  0.59204431  1.0
  C  C87  1  0.17693994  0.39050244  0.79100605  1.0
  C  C88  1  0.38580445  0.20897627  0.59949798  1.0
  C  C89  1  0.78632492  0.40056372  0.60953674  1.0
  C  C90  1  0.22960907  0.37711662  0.75502035  1.0
  C  C91  1  0.47466062  0.24495837  0.62207622  1.0
  C  C92  1  0.85258483  0.37795812  0.62290718  1.0
  C  C93  1  0.43079056  0.38245378  0.74937251  1.0
  C  C94  1  0.68150905  0.25059506  0.63302007  1.0
  C  C95  1  0.04844093  0.36697963  0.61756967  1.0
  C  C96  1  0.56939593  0.40002111  0.78043171  1.0
  C  C97  1  0.78891477  0.21950674  0.61952688  1.0
  C  C98  1  0.16929580  0.38045350  0.59997266  1.0
  C  C99  1  0.51393670  0.41185399  0.81517872  1.0
  C  C100  1  0.69850231  0.18475899  0.59664743  1.0
  C  C101  1  0.10185355  0.40337532  0.58815632  1.0
  C  C102  1  0.07508840  0.35657256  0.72452397  1.0
  C  C103  1  0.35063592  0.27546977  0.63205921  1.0
  C  C104  1  0.71860381  0.36796043  0.64341683  1.0
  C  C105  1  0.85239959  0.46802973  0.90882478  1.0
  C  C106  1  0.94345276  0.09111235  0.55925064  1.0
  C  C107  1  0.38431254  0.44082589  0.53195263  1.0
  C  C108  1  0.77180895  0.48329388  0.94215837  1.0
  C  C109  1  0.82935723  0.05779594  0.54118802  1.0
  C  C110  1  0.28836038  0.45890684  0.51670885  1.0
  C  C111  1  0.57563874  0.50488455  0.01158340  1.0
  C  C112  1  0.56361698  0.98835756  0.49326523  1.0
  C  C113  1  0.07089829  0.50677735  0.49513771  1.0
  C  C114  1  0.51016269  0.52380481  0.04628926  1.0
  C  C115  1  0.46343883  0.95365660  0.47742490  1.0
  C  C116  1  0.98639789  0.52256855  0.47624348  1.0
  C  C117  1  0.57355705  0.59135097  0.17921196  1.0
  C  C118  1  0.39402059  0.82077627  0.41214339  1.0
  C  C119  1  0.98201852  0.58785914  0.40866258  1.0
  C  C120  1  0.69481199  0.61272530  0.21139755  1.0
  C  C121  1  0.48307247  0.78858423  0.40134595  1.0
  C  C122  1  0.08188955  0.59866594  0.38728564  1.0
  C  C123  1  0.62593330  0.62765136  0.24597698  1.0
  C  C124  1  0.37955484  0.75400942  0.38169046  1.0
  C  C125  1  0.99797359  0.61829521  0.37233889  1.0
  C  C126  1  0.42209299  0.62101767  0.24908845  1.0
  C  C127  1  0.17257689  0.75091013  0.37195614  1.0
  C  C128  1  0.80071127  0.62803020  0.37896090  1.0
  C  C129  1  0.29790003  0.60111448  0.21616786  1.0
  C  C130  1  0.08137107  0.78384448  0.38498772  1.0
  C  C131  1  0.69654155  0.61503201  0.39889072  1.0
  C  C132  1  0.37084675  0.58648783  0.18213541  1.0
  C  C133  1  0.18836192  0.81787232  0.40439355  1.0
  C  C134  1  0.78411196  0.59562083  0.41350832  1.0
  C  C135  1  0.77266209  0.64907474  0.27754857  1.0
  C  C136  1  0.49472442  0.72243253  0.37154150  1.0
  C  C137  1  0.12335125  0.62844096  0.35091882  1.0
  N  N138  1  0.56775797  0.55446330  0.11237040  1.0
  N  N139  1  0.45515548  0.88758774  0.44200959  1.0
  N  N140  1  0.01328061  0.55798568  0.44560587  1.0
  N  N141  1  0.08846666  0.43229572  0.86839133  1.0
  N  N142  1  0.21971835  0.13156675  0.56391234  1.0
  N  N143  1  0.65604172  0.43613659  0.56770779  1.0
  O  O144  1  0.94568121  0.65781275  0.27314668  1.0
  O  O145  1  0.67205174  0.72682701  0.38472024  1.0
  O  O146  1  0.28755017  0.61526912  0.34214273  1.0
  O  O147  1  0.72179028  0.65811495  0.30979017  1.0
  O  O148  1  0.41176378  0.69018395  0.34831535  1.0
  O  O149  1  0.06357244  0.65167756  0.34191461  1.0
  O  O150  1  0.34750989  0.63253159  0.28126789  1.0
  O  O151  1  0.06589155  0.71872716  0.35127617  1.0
  O  O152  1  0.71455900  0.64867862  0.36743097  1.0
  O  O153  1  0.90106285  0.34970308  0.73023360  1.0
  O  O154  1  0.17093814  0.26977184  0.61946908  1.0
  O  O155  1  0.55142785  0.38052815  0.65029203  1.0
  O  O156  1  0.12003178  0.34561060  0.69149302  1.0
  O  O157  1  0.42857952  0.30849878  0.65413775  1.0
  O  O158  1  0.77448914  0.34587522  0.65435778  1.0
  O  O159  1  0.49602866  0.37124240  0.71645134  1.0
  O  O160  1  0.77966632  0.28352064  0.65471475  1.0
  O  O161  1  0.12488735  0.34526545  0.62877707  1.0
  O  O162  1  0.86224768  0.57799011  0.14775112  1.0
  O  O163  1  0.71428050  0.85219167  0.43016193  1.0
  O  O164  1  0.28419015  0.56982241  0.42206514  1.0
  O  O165  1  0.40331191  0.42357162  0.88273899  1.0
  O  O166  1  0.52004975  0.11720129  0.54078066  1.0
  O  O167  1  0.97957855  0.45924212  0.57646081  1.0
