# generated using pymatgen
data_Cd2H18C27N9ClO6
_symmetry_space_group_name_H-M   'P 1'
_cell_length_a   7.38619241
_cell_length_b   21.19423546
_cell_length_c   26.06856752
_cell_angle_alpha   89.99995495
_cell_angle_beta   90.00012156
_cell_angle_gamma   89.99999432
_symmetry_Int_Tables_number   1
_chemical_formula_structural   Cd2H18C27N9ClO6
_chemical_formula_sum   'Cd8 H72 C108 N36 Cl4 O24'
_cell_volume   4080.89611026
_cell_formula_units_Z   4
loop_
 _symmetry_equiv_pos_site_id
 _symmetry_equiv_pos_as_xyz
  1  'x, y, z'
loop_
 _atom_site_type_symbol
 _atom_site_label
 _atom_site_symmetry_multiplicity
 _atom_site_fract_x
 _atom_site_fract_y
 _atom_site_fract_z
 _atom_site_occupancy
  Cd  Cd0  1  0.67733356  0.75000091  0.43314995  1.0
  Cd  Cd1  1  0.17733176  0.24999910  0.06685058  1.0
  Cd  Cd2  1  0.32266696  0.24999980  0.56685087  1.0
  Cd  Cd3  1  0.82266876  0.75000067  0.93314870  1.0
  Cd  Cd4  1  0.22874403  0.74999995  0.48471805  1.0
  Cd  Cd5  1  0.72874017  0.24999912  0.01528213  1.0
  Cd  Cd6  1  0.77125649  0.24999982  0.51528238  1.0
  Cd  Cd7  1  0.27125765  0.75000065  0.98471715  1.0
  H  H8  1  0.64782854  0.15138107  0.41638742  1.0
  H  H9  1  0.14782939  0.84861800  0.08361233  1.0
  H  H10  1  0.35217066  0.65138158  0.58361231  1.0
  H  H11  1  0.85216840  0.34861795  0.91638727  1.0
  H  H12  1  0.35217063  0.84861823  0.58361187  1.0
  H  H13  1  0.85216842  0.15138130  0.91638733  1.0
  H  H14  1  0.64783122  0.34861867  0.41638735  1.0
  H  H15  1  0.14782942  0.65138135  0.08361239  1.0
  H  H16  1  0.13209087  0.13633780  0.50073751  1.0
  H  H17  1  0.63209042  0.86366221  0.99926271  1.0
  H  H18  1  0.86790969  0.63633742  0.49926261  1.0
  H  H19  1  0.36790872  0.36366211  0.00073688  1.0
  H  H20  1  0.86790695  0.86366244  0.49926254  1.0
  H  H21  1  0.36790740  0.13633756  0.00073657  1.0
  H  H22  1  0.13209219  0.36366282  0.50073744  1.0
  H  H23  1  0.63209181  0.63633719  0.99926317  1.0
  H  H24  1  0.37127616  0.08803884  0.44777304  1.0
  H  H25  1  0.87127508  0.91196117  0.05222684  1.0
  H  H26  1  0.62872441  0.58803889  0.55222673  1.0
  H  H27  1  0.12872404  0.41196159  0.94777311  1.0
  H  H28  1  0.62872301  0.91196140  0.55222701  1.0
  H  H29  1  0.12872138  0.08803907  0.94777244  1.0
  H  H30  1  0.37127747  0.41196088  0.44777332  1.0
  H  H31  1  0.87127513  0.58803818  0.05222618  1.0
  H  H32  1  0.58589539  0.99701383  0.44484746  1.0
  H  H33  1  0.08589222  0.00298666  0.05515264  1.0
  H  H34  1  0.41410506  0.49701367  0.55515167  1.0
  H  H35  1  0.91410432  0.50298680  0.94484795  1.0
  H  H36  1  0.41410513  0.00298689  0.55515259  1.0
  H  H37  1  0.91410154  0.99701358  0.94484703  1.0
  H  H38  1  0.58589817  0.50298563  0.44484723  1.0
  H  H39  1  0.08589350  0.49701297  0.05515248  1.0
  H  H40  1  0.14038836  0.87112820  0.41609895  1.0
  H  H41  1  0.64038504  0.12887181  0.08390156  1.0
  H  H42  1  0.85961348  0.37112848  0.58390103  1.0
  H  H43  1  0.35961146  0.62887246  0.91609933  1.0
  H  H44  1  0.85961352  0.12887204  0.58390110  1.0
  H  H45  1  0.35961007  0.87112796  0.91609925  1.0
  H  H46  1  0.14039246  0.62887177  0.41609826  1.0
  H  H47  1  0.64038636  0.37112778  0.08390149  1.0
  H  H48  1  0.92508901  0.96120740  0.41897695  1.0
  H  H49  1  0.42508602  0.03879166  0.08102297  1.0
  H  H50  1  0.07491145  0.46120817  0.58102373  1.0
  H  H51  1  0.57491186  0.53879278  0.91897722  1.0
  H  H52  1  0.07491287  0.03879237  0.58102310  1.0
  H  H53  1  0.57490774  0.96120764  0.91897708  1.0
  H  H54  1  0.92509313  0.53879301  0.41897632  1.0
  H  H55  1  0.42508731  0.46120746  0.08102321  1.0
  H  H56  1  0.18307773  0.74999978  0.84575935  1.0
  H  H57  1  0.68306948  0.24999975  0.65424128  1.0
  H  H58  1  0.81692550  0.24999952  0.15424108  1.0
  H  H59  1  0.31693239  0.75000002  0.34575954  1.0
  H  H60  1  0.63150620  0.74999979  0.80807963  1.0
  H  H61  1  0.13149721  0.24999975  0.69191982  1.0
  H  H62  1  0.36849703  0.24999998  0.19192004  1.0
  H  H63  1  0.86850467  0.75000002  0.30808138  1.0
  H  H64  1  0.08082957  0.74999986  0.67843060  1.0
  H  H65  1  0.58082121  0.24999967  0.82156958  1.0
  H  H66  1  0.91917501  0.24999991  0.32156906  1.0
  H  H67  1  0.41917931  0.74999962  0.17843200  1.0
  H  H68  1  0.96909069  0.74999989  0.58754172  1.0
  H  H69  1  0.46908198  0.24999963  0.91245793  1.0
  H  H70  1  0.03091119  0.24999988  0.41245794  1.0
  H  H71  1  0.53091584  0.74999967  0.08754250  1.0
  H  H72  1  0.42056063  0.74999987  0.64132510  1.0
  H  H73  1  0.92055255  0.24999965  0.85867491  1.0
  H  H74  1  0.57944124  0.25000037  0.35867533  1.0
  H  H75  1  0.07944797  0.74999965  0.14132514  1.0
  H  H76  1  0.52667653  0.74999983  0.73115515  1.0
  H  H77  1  0.02666811  0.24999971  0.76884538  1.0
  H  H78  1  0.47332805  0.24999994  0.26884489  1.0
  H  H79  1  0.97333377  0.74999959  0.23115467  1.0
  C  C80  1  0.77655798  0.13408863  0.43049295  1.0
  C  C81  1  0.27655737  0.86591138  0.06950687  1.0
  C  C82  1  0.22344258  0.63408915  0.56950679  1.0
  C  C83  1  0.72344042  0.36591133  0.93049310  1.0
  C  C84  1  0.22344255  0.86591114  0.56950671  1.0
  C  C85  1  0.72344045  0.13408839  0.93049279  1.0
  C  C86  1  0.77655930  0.36591157  0.43049288  1.0
  C  C87  1  0.27655875  0.63408797  0.06950695  1.0
  C  C88  1  0.02263247  0.12930619  0.47338001  1.0
  C  C89  1  0.52263257  0.87069383  0.02662005  1.0
  C  C90  1  0.97736673  0.62930625  0.52661973  1.0
  C  C91  1  0.47736656  0.37069374  0.97337993  1.0
  C  C92  1  0.97736670  0.87069358  0.52661966  1.0
  C  C93  1  0.47736524  0.12930594  0.97337962  1.0
  C  C94  1  0.02263379  0.37069399  0.47337993  1.0
  C  C95  1  0.52263261  0.62930603  0.02662012  1.0
  C  C96  1  0.13661665  0.02923182  0.43497520  1.0
  C  C97  1  0.63661430  0.97076772  0.06502530  1.0
  C  C98  1  0.86338394  0.52923185  0.56502499  1.0
  C  C99  1  0.36338345  0.47076862  0.93497499  1.0
  C  C100  1  0.86338387  0.97076795  0.56502485  1.0
  C  C101  1  0.36338081  0.02923158  0.93497436  1.0
  C  C102  1  0.13661929  0.47076839  0.43497430  1.0
  C  C103  1  0.63661571  0.52923163  0.06502468  1.0
  C  C104  1  0.32188940  0.04024943  0.44135612  1.0
  C  C105  1  0.82188835  0.95975105  0.05864412  1.0
  C  C106  1  0.67811119  0.54024948  0.55864406  1.0
  C  C107  1  0.17811075  0.45975100  0.94135618  1.0
  C  C108  1  0.67810977  0.95975081  0.55864431  1.0
  C  C109  1  0.17810811  0.04024919  0.94135517  1.0
  C  C110  1  0.32189204  0.45975029  0.44135560  1.0
  C  C111  1  0.82188842  0.54024877  0.05864348  1.0
  C  C112  1  0.44118347  0.98946508  0.43991235  1.0
  C  C113  1  0.94118271  0.01053539  0.06008757  1.0
  C  C114  1  0.55881699  0.48946539  0.56008716  1.0
  C  C115  1  0.05881653  0.51053509  0.93991225  1.0
  C  C116  1  0.55881570  0.01053516  0.56008731  1.0
  C  C117  1  0.05881240  0.98946485  0.93991171  1.0
  C  C118  1  0.44118760  0.51053438  0.43991174  1.0
  C  C119  1  0.94118264  0.48946468  0.06008742  1.0
  C  C120  1  0.37580876  0.92804084  0.43253373  1.0
  C  C121  1  0.87580534  0.07195964  0.06746654  1.0
  C  C122  1  0.62419306  0.42804066  0.56746620  1.0
  C  C123  1  0.12419253  0.57195982  0.93253286  1.0
  C  C124  1  0.62419176  0.07195988  0.56746632  1.0
  C  C125  1  0.12418842  0.92804060  0.93253313  1.0
  C  C126  1  0.37581288  0.57195911  0.43253270  1.0
  C  C127  1  0.87580799  0.42803995  0.06746642  1.0
  C  C128  1  0.19050080  0.91861611  0.42342194  1.0
  C  C129  1  0.69049744  0.08138390  0.07657822  1.0
  C  C130  1  0.80949967  0.41861592  0.57657800  1.0
  C  C131  1  0.30949907  0.58138455  0.92342194  1.0
  C  C132  1  0.80949972  0.08138460  0.57657772  1.0
  C  C133  1  0.30949496  0.91861587  0.92342183  1.0
  C  C134  1  0.19050491  0.58138385  0.42342128  1.0
  C  C135  1  0.69050010  0.41861569  0.07657811  1.0
  C  C136  1  0.06962526  0.96889394  0.42461221  1.0
  C  C137  1  0.56962326  0.03110561  0.07538787  1.0
  C  C138  1  0.93037385  0.46889374  0.57538808  1.0
  C  C139  1  0.43037462  0.53110672  0.92461232  1.0
  C  C140  1  0.93037391  0.03110631  0.57538822  1.0
  C  C141  1  0.43037185  0.96889369  0.92461179  1.0
  C  C142  1  0.06962938  0.53110650  0.42461120  1.0
  C  C143  1  0.56962455  0.46889305  0.07538812  1.0
  C  C144  1  0.50116024  0.87260972  0.43606985  1.0
  C  C145  1  0.00115575  0.12739077  0.06393058  1.0
  C  C146  1  0.49884160  0.37260955  0.56392974  1.0
  C  C147  1  0.99883804  0.62739044  0.93606955  1.0
  C  C148  1  0.49884028  0.12739052  0.56392982  1.0
  C  C149  1  0.99883801  0.87260947  0.93606947  1.0
  C  C150  1  0.50116434  0.62739022  0.43606954  1.0
  C  C151  1  0.00115842  0.37260886  0.06393050  1.0
  C  C152  1  0.05918025  0.75000026  0.82333154  1.0
  C  C153  1  0.55917082  0.24999975  0.67666863  1.0
  C  C154  1  0.94082298  0.24999998  0.17666851  1.0
  C  C155  1  0.44083241  0.75000050  0.32333333  1.0
  C  C156  1  0.77787254  0.75000026  0.80537757  1.0
  C  C157  1  0.27786492  0.24999974  0.69462235  1.0
  C  C158  1  0.22212934  0.24999998  0.19462210  1.0
  C  C159  1  0.72213696  0.75000050  0.30537846  1.0
  C  C160  1  0.93682944  0.75000032  0.66968201  1.0
  C  C161  1  0.43682148  0.24999967  0.83031839  1.0
  C  C162  1  0.06317514  0.24999992  0.33031765  1.0
  C  C163  1  0.56318311  0.75000010  0.16968281  1.0
  C  C164  1  0.87427605  0.75000035  0.61939883  1.0
  C  C165  1  0.37426711  0.24999965  0.88060076  1.0
  C  C166  1  0.12572853  0.24999990  0.38060045  1.0
  C  C167  1  0.62573206  0.75000012  0.11940044  1.0
  C  C168  1  0.68858088  0.75000035  0.60868587  1.0
  C  C169  1  0.18857472  0.24999965  0.89131323  1.0
  C  C170  1  0.31142235  0.24999989  0.39131379  1.0
  C  C171  1  0.81142716  0.75000012  0.10868721  1.0
  C  C172  1  0.56517780  0.75000034  0.64957684  1.0
  C  C173  1  0.06516863  0.24999967  0.85042295  1.0
  C  C174  1  0.43482543  0.25000038  0.35042320  1.0
  C  C175  1  0.93483054  0.75000010  0.14957748  1.0
  C  C176  1  0.62529421  0.75000031  0.70009748  1.0
  C  C177  1  0.12528602  0.24999969  0.79990235  1.0
  C  C178  1  0.37471037  0.24999993  0.29990219  1.0
  C  C179  1  0.87471586  0.75000008  0.20009885  1.0
  C  C180  1  0.81177193  0.75000030  0.70996574  1.0
  C  C181  1  0.31175824  0.24999969  0.79003459  1.0
  C  C182  1  0.18823401  0.24999994  0.29003431  1.0
  C  C183  1  0.68824770  0.75000008  0.20996623  1.0
  C  C184  1  0.62198073  0.74999991  0.55415697  1.0
  C  C185  1  0.12197498  0.24999962  0.94584363  1.0
  C  C186  1  0.37801979  0.24999986  0.44584308  1.0
  C  C187  1  0.87802284  0.75000015  0.05415757  1.0
  N  N188  1  0.01306180  0.08016265  0.44040506  1.0
  N  N189  1  0.51306077  0.91983737  0.05959461  1.0
  N  N190  1  0.98693742  0.58016268  0.55959510  1.0
  N  N191  1  0.48693699  0.41983778  0.94040495  1.0
  N  N192  1  0.98693602  0.91983759  0.55959499  1.0
  N  N193  1  0.48693433  0.08016240  0.94040468  1.0
  N  N194  1  0.01306310  0.41983803  0.44040457  1.0
  N  N195  1  0.51306218  0.58016199  0.05959510  1.0
  N  N196  1  0.85546867  0.08236419  0.41290169  1.0
  N  N197  1  0.35546818  0.91763534  0.08709818  1.0
  N  N198  1  0.14453055  0.58236470  0.58709846  1.0
  N  N199  1  0.64452959  0.41763578  0.91290138  1.0
  N  N200  1  0.14453185  0.91763558  0.58709797  1.0
  N  N201  1  0.64452829  0.08236443  0.91290110  1.0
  N  N202  1  0.85546997  0.41763602  0.41290120  1.0
  N  N203  1  0.35546958  0.58236352  0.08709829  1.0
  N  N204  1  0.87414831  0.16449782  0.46770407  1.0
  N  N205  1  0.37414879  0.83550219  0.03229543  1.0
  N  N206  1  0.12585224  0.66449791  0.53229527  1.0
  N  N207  1  0.62584900  0.33550163  0.96770456  1.0
  N  N208  1  0.12584951  0.83550195  0.53229521  1.0
  N  N209  1  0.62585038  0.16449758  0.96770424  1.0
  N  N210  1  0.87414964  0.33550281  0.46770440  1.0
  N  N211  1  0.37415017  0.66449767  0.03229587  1.0
  N  N212  1  0.87524596  0.75000028  0.76132723  1.0
  N  N213  1  0.37523460  0.24999972  0.73867314  1.0
  N  N214  1  0.12475998  0.24999996  0.23867282  1.0
  N  N215  1  0.62476592  0.75000005  0.26132768  1.0
  N  N216  1  0.05653188  0.75000029  0.77253051  1.0
  N  N217  1  0.55652418  0.24999972  0.72746966  1.0
  N  N218  1  0.94347135  0.24999948  0.22746915  1.0
  N  N219  1  0.44347905  0.75000005  0.27253077  1.0
  N  N220  1  0.89038397  0.75000024  0.84502880  1.0
  N  N221  1  0.39037606  0.24999976  0.65497119  1.0
  N  N222  1  0.10961790  0.25000000  0.15497125  1.0
  N  N223  1  0.60962311  0.75000048  0.34502963  1.0
  Cl  Cl224  1  0.01335537  0.74999999  0.40739344  1.0
  Cl  Cl225  1  0.51335072  0.24999861  0.09260699  1.0
  Cl  Cl226  1  0.98664515  0.24999978  0.59260737  1.0
  Cl  Cl227  1  0.48664709  0.74999974  0.90739229  1.0
  O  O228  1  0.42683915  0.81718899  0.43689267  1.0
  O  O229  1  0.92683295  0.18281101  0.06310839  1.0
  O  O230  1  0.57316271  0.31718882  0.56310772  1.0
  O  O231  1  0.07315947  0.68281118  0.93689208  1.0
  O  O232  1  0.57316002  0.18281125  0.56310738  1.0
  O  O233  1  0.07316081  0.81718923  0.93689242  1.0
  O  O234  1  0.42684052  0.68281047  0.43689195  1.0
  O  O235  1  0.92683564  0.31718859  0.06310758  1.0
  O  O236  1  0.67022841  0.88002447  0.43813944  1.0
  O  O237  1  0.17022390  0.11997507  0.06186032  1.0
  O  O238  1  0.32977207  0.38002478  0.56186014  1.0
  O  O239  1  0.82977124  0.61997380  0.93813828  1.0
  O  O240  1  0.32977075  0.11997435  0.56186023  1.0
  O  O241  1  0.82976985  0.88002376  0.93813858  1.0
  O  O242  1  0.67023251  0.61997546  0.43813914  1.0
  O  O243  1  0.17022793  0.38002455  0.06186101  1.0
  O  O244  1  0.74157402  0.74999993  0.51885932  1.0
  O  O245  1  0.24157394  0.24999960  0.98114135  1.0
  O  O246  1  0.25842515  0.24999984  0.48114073  1.0
  O  O247  1  0.75842658  0.75000064  0.01885985  1.0
  O  O248  1  0.45146119  0.75000039  0.54802309  1.0
  O  O249  1  0.95145651  0.24999961  0.95197770  1.0
  O  O250  1  0.54853934  0.25000033  0.45197696  1.0
  O  O251  1  0.04854131  0.75000064  0.04802273  1.0
