# generated using pymatgen
data_ZnH16C20(NO2)2
_symmetry_space_group_name_H-M   'P 1'
_cell_length_a   9.68401345
_cell_length_b   14.98737750
_cell_length_c   20.13163684
_cell_angle_alpha   89.99998537
_cell_angle_beta   90.00000092
_cell_angle_gamma   93.56708979
_symmetry_Int_Tables_number   1
_chemical_formula_structural   ZnH16C20(NO2)2
_chemical_formula_sum   'Zn4 H64 C80 N8 O16'
_cell_volume   2916.20407608
_cell_formula_units_Z   4
loop_
 _symmetry_equiv_pos_site_id
 _symmetry_equiv_pos_as_xyz
  1  'x, y, z'
loop_
 _atom_site_type_symbol
 _atom_site_label
 _atom_site_symmetry_multiplicity
 _atom_site_fract_x
 _atom_site_fract_y
 _atom_site_fract_z
 _atom_site_occupancy
  Zn  Zn0  1  0.58534757  0.94944026  0.80432497  1.0
  Zn  Zn1  1  0.91465290  0.55056042  0.30432444  1.0
  Zn  Zn2  1  0.41465276  0.05056037  0.19567559  1.0
  Zn  Zn3  1  0.08534634  0.44943954  0.69567563  1.0
  H  H4  1  0.85523357  0.74134935  0.75600701  1.0
  H  H5  1  0.64476786  0.75865067  0.25600743  1.0
  H  H6  1  0.14476786  0.25865195  0.24399256  1.0
  H  H7  1  0.35523241  0.24134929  0.74399264  1.0
  H  H8  1  0.25661676  0.66666667  0.81669160  1.0
  H  H9  1  0.24338400  0.83335563  0.31669201  1.0
  H  H10  1  0.74338248  0.33333333  0.18330846  1.0
  H  H11  1  0.75661420  0.16664434  0.68330756  1.0
  H  H12  1  0.28262518  0.80234153  0.88883774  1.0
  H  H13  1  0.21737448  0.69765794  0.38883816  1.0
  H  H14  1  0.71737825  0.19765910  0.11116183  1.0
  H  H15  1  0.78262153  0.30234069  0.61116141  1.0
  H  H16  1  0.09015889  0.90696638  0.89462563  1.0
  H  H17  1  0.40984283  0.59303309  0.39462558  1.0
  H  H18  1  0.90984460  0.09303492  0.10537295  1.0
  H  H19  1  0.59015750  0.40696754  0.60537349  1.0
  H  H20  1  0.29996170  0.97916534  0.74986442  1.0
  H  H21  1  0.20004022  0.52083618  0.24986538  1.0
  H  H22  1  0.70003870  0.02083596  0.25013465  1.0
  H  H23  1  0.79996024  0.47916579  0.75013469  1.0
  H  H24  1  0.13110807  0.90144113  0.67194627  1.0
  H  H25  1  0.36889275  0.59855976  0.17194771  1.0
  H  H26  1  0.86889129  0.09856017  0.32805230  1.0
  H  H27  1  0.63110836  0.40143820  0.82805285  1.0
  H  H28  1  0.40894999  0.68718272  0.65904272  1.0
  H  H29  1  0.09105082  0.81281816  0.15904213  1.0
  H  H30  1  0.59104931  0.31281791  0.34095784  1.0
  H  H31  1  0.90895248  0.18718113  0.84095694  1.0
  H  H32  1  0.56719214  0.77501436  0.73565198  1.0
  H  H33  1  0.93280833  0.72498634  0.23565141  1.0
  H  H34  1  0.43280716  0.22498627  0.26434808  1.0
  H  H35  1  0.06719297  0.27501362  0.76434766  1.0
  H  H36  1  0.14185520  0.79411614  0.56844451  1.0
  H  H37  1  0.35814355  0.70588478  0.06844444  1.0
  H  H38  1  0.85814294  0.20588315  0.43155555  1.0
  H  H39  1  0.64185878  0.29411519  0.93155513  1.0
  H  H40  1  0.05797186  0.72984947  0.63147168  1.0
  H  H41  1  0.44202786  0.77015076  0.13147111  1.0
  H  H42  1  0.94202635  0.27015049  0.36852888  1.0
  H  H43  1  0.55797331  0.22984786  0.86852846  1.0
  H  H44  1  0.31596057  0.67058758  0.55866837  1.0
  H  H45  1  0.18404024  0.82941334  0.05866828  1.0
  H  H46  1  0.68403744  0.32941038  0.44133219  1.0
  H  H47  1  0.81596209  0.17058662  0.94133179  1.0
  H  H48  1  0.21011160  0.60434695  0.61174652  1.0
  H  H49  1  0.28988709  0.89565329  0.11174642  1.0
  H  H50  1  0.78988648  0.39565168  0.38825503  1.0
  H  H51  1  0.71011202  0.10434534  0.88825414  1.0
  H  H52  1  0.96917794  0.72426979  0.51710493  1.0
  H  H53  1  0.53082059  0.77573233  0.01710584  1.0
  H  H54  1  0.03082020  0.27572951  0.48289464  1.0
  H  H55  1  0.46918084  0.22426897  0.98289472  1.0
  H  H56  1  0.85982357  0.67003533  0.41194806  1.0
  H  H57  1  0.64017696  0.82996598  0.91194862  1.0
  H  H58  1  0.14017670  0.32996464  0.58805151  1.0
  H  H59  1  0.35982447  0.17003532  0.08805144  1.0
  H  H60  1  0.13346876  0.47102211  0.39097909  1.0
  H  H61  1  0.36653041  0.02897840  0.89097921  1.0
  H  H62  1  0.86653035  0.52897651  0.60902197  1.0
  H  H63  1  0.63346883  0.97102156  0.10902135  1.0
  H  H64  1  0.25660401  0.51670047  0.49742200  1.0
  H  H65  1  0.24339371  0.98330030  0.99742154  1.0
  H  H66  1  0.74339413  0.48329882  0.50257906  1.0
  H  H67  1  0.75660552  0.01669966  0.00257853  1.0
  C  C68  1  0.84379696  0.89143790  0.83209570  1.0
  C  C69  1  0.65620338  0.60856144  0.33209564  1.0
  C  C70  1  0.15620441  0.10856274  0.16790387  1.0
  C  C71  1  0.34379470  0.39143719  0.66790393  1.0
  C  C72  1  0.96103993  0.83068786  0.82610910  1.0
  C  C73  1  0.53896254  0.66931215  0.32610954  1.0
  C  C74  1  0.03896254  0.16931344  0.17388997  1.0
  C  C75  1  0.46103663  0.33068715  0.67389003  1.0
  C  C76  1  0.94872834  0.75522772  0.78513877  1.0
  C  C77  1  0.55127309  0.74477230  0.28513919  1.0
  C  C78  1  0.05127309  0.24477358  0.21486080  1.0
  C  C79  1  0.44872718  0.25522766  0.71486137  1.0
  C  C80  1  0.05474589  0.69631631  0.78179429  1.0
  C  C81  1  0.44525383  0.80368387  0.28179470  1.0
  C  C82  1  0.94525444  0.30368432  0.21820528  1.0
  C  C83  1  0.55474540  0.19631610  0.71820487  1.0
  C  C84  1  0.17499122  0.71329496  0.81972165  1.0
  C  C85  1  0.32500941  0.78670387  0.31972207  1.0
  C  C86  1  0.82500905  0.28670500  0.18027791  1.0
  C  C87  1  0.67499080  0.21329543  0.68027701  1.0
  C  C88  1  0.18860995  0.78909753  0.85989871  1.0
  C  C89  1  0.31138952  0.71089994  0.35989963  1.0
  C  C90  1  0.81139129  0.21090176  0.14010185  1.0
  C  C91  1  0.68860868  0.28910002  0.64010242  1.0
  C  C92  1  0.08219363  0.84764872  0.86321637  1.0
  C  C93  1  0.41780706  0.65235076  0.36321680  1.0
  C  C94  1  0.91780980  0.15235191  0.13678320  1.0
  C  C95  1  0.58219127  0.34765054  0.63678277  1.0
  C  C96  1  0.03715101  0.61491581  0.73871533  1.0
  C  C97  1  0.46284975  0.88508439  0.23871573  1.0
  C  C98  1  0.96284926  0.38508416  0.26128523  1.0
  C  C99  1  0.53714942  0.11491491  0.76128434  1.0
  C  C100  1  0.31928492  0.91448328  0.72798940  1.0
  C  C101  1  0.18071597  0.58551825  0.22798985  1.0
  C  C102  1  0.68071548  0.08551802  0.27200967  1.0
  C  C103  1  0.81928656  0.41448372  0.77201121  1.0
  C  C104  1  0.22709814  0.87085411  0.68438391  1.0
  C  C105  1  0.27290384  0.62914811  0.18438485  1.0
  C  C106  1  0.77290226  0.12914719  0.31561516  1.0
  C  C107  1  0.72709849  0.37085185  0.81561472  1.0
  C  C108  1  0.25721909  0.78832524  0.65680196  1.0
  C  C109  1  0.24278179  0.71167632  0.15680189  1.0
  C  C110  1  0.74278021  0.21167539  0.34319761  1.0
  C  C111  1  0.75722048  0.28832298  0.84319718  1.0
  C  C112  1  0.38052041  0.75226686  0.67670496  1.0
  C  C113  1  0.11948041  0.74773402  0.17670489  1.0
  C  C114  1  0.61947889  0.24773377  0.32329460  1.0
  C  C115  1  0.88052180  0.25226460  0.82329419  1.0
  C  C116  1  0.46884542  0.80011460  0.72016541  1.0
  C  C117  1  0.03115437  0.69988627  0.22016584  1.0
  C  C118  1  0.53115388  0.19988603  0.27983466  1.0
  C  C119  1  0.96884590  0.30011370  0.77983423  1.0
  C  C120  1  0.15909679  0.74390052  0.60716318  1.0
  C  C121  1  0.34090300  0.75610039  0.10716310  1.0
  C  C122  1  0.84090142  0.25609944  0.39283738  1.0
  C  C123  1  0.65909824  0.24389891  0.89283697  1.0
  C  C124  1  0.20774568  0.65920444  0.57529991  1.0
  C  C125  1  0.29225514  0.84079648  0.07529981  1.0
  C  C126  1  0.79225246  0.34079486  0.42470115  1.0
  C  C127  1  0.70774817  0.15920281  0.92470075  1.0
  C  C128  1  0.12652127  0.62659834  0.51555017  1.0
  C  C129  1  0.37347742  0.87340193  0.01554957  1.0
  C  C130  1  0.87347578  0.37340029  0.48445089  1.0
  C  C131  1  0.62652388  0.12659803  0.98445049  1.0
  C  C132  1  0.01087114  0.66801708  0.49131319  1.0
  C  C133  1  0.48912762  0.83198369  0.99131326  1.0
  C  C134  1  0.98912694  0.33198154  0.50868737  1.0
  C  C135  1  0.51087265  0.16801627  0.00868681  1.0
  C  C136  1  0.94831344  0.63808033  0.43267167  1.0
  C  C137  1  0.55168373  0.86191830  0.93267073  1.0
  C  C138  1  0.05168573  0.36191896  0.56732840  1.0
  C  C139  1  0.44831434  0.13808033  0.06732834  1.0
  C  C140  1  0.10218891  0.52658625  0.42138198  1.0
  C  C141  1  0.39781197  0.97341521  0.92138251  1.0
  C  C142  1  0.89781142  0.47341438  0.57861858  1.0
  C  C143  1  0.60218836  0.02658542  0.07861854  1.0
  C  C144  1  0.16938823  0.55283718  0.47971752  1.0
  C  C145  1  0.33061162  0.94716427  0.97971757  1.0
  C  C146  1  0.83061094  0.44716212  0.52028403  1.0
  C  C147  1  0.66938871  0.05283636  0.02028349  1.0
  N  N148  1  0.44012711  0.88031318  0.74500491  1.0
  N  N149  1  0.05987371  0.61968768  0.24500486  1.0
  N  N150  1  0.55987225  0.11968812  0.25499515  1.0
  N  N151  1  0.94012759  0.38031228  0.75499521  1.0
  N  N152  1  0.99407464  0.56950050  0.39749868  1.0
  N  N153  1  0.50592480  0.93050014  0.89749822  1.0
  N  N154  1  0.00592557  0.43049879  0.60250189  1.0
  N  N155  1  0.49407450  0.06950049  0.10250135  1.0
  O  O156  1  0.73463250  0.86660545  0.79708116  1.0
  O  O157  1  0.76536900  0.63339524  0.29708160  1.0
  O  O158  1  0.26536880  0.13339452  0.20291841  1.0
  O  O159  1  0.23462907  0.36660339  0.70291698  1.0
  O  O160  1  0.85232835  0.95829715  0.86936688  1.0
  O  O161  1  0.64767095  0.54170218  0.36936733  1.0
  O  O162  1  0.14766979  0.04170215  0.13063319  1.0
  O  O163  1  0.35232932  0.45829779  0.63063373  1.0
  O  O164  1  0.13869894  0.56226305  0.74011513  1.0
  O  O165  1  0.36129968  0.93773648  0.24011551  1.0
  O  O166  1  0.86129919  0.43773625  0.25988593  1.0
  O  O167  1  0.63869949  0.06226282  0.75988505  1.0
  O  O168  1  0.92962948  0.60012115  0.70441559  1.0
  O  O169  1  0.57037086  0.89987822  0.20441598  1.0
  O  O170  1  0.07037279  0.39987814  0.29558398  1.0
  O  O171  1  0.42962844  0.10012241  0.79558458  1.0
