# generated using pymatgen
data_Al3H28C51N7O16
_symmetry_space_group_name_H-M   'P 1'
_cell_length_a   13.56977670
_cell_length_b   13.59012653
_cell_length_c   33.57516164
_cell_angle_alpha   83.44485840
_cell_angle_beta   83.79284582
_cell_angle_gamma   63.41815800
_symmetry_Int_Tables_number   1
_chemical_formula_structural   Al3H28C51N7O16
_chemical_formula_sum   'Al6 H56 C102 N14 O32'
_cell_volume   5489.72013443
_cell_formula_units_Z   2
loop_
 _symmetry_equiv_pos_site_id
 _symmetry_equiv_pos_as_xyz
  1  'x, y, z'
loop_
 _atom_site_type_symbol
 _atom_site_label
 _atom_site_symmetry_multiplicity
 _atom_site_fract_x
 _atom_site_fract_y
 _atom_site_fract_z
 _atom_site_occupancy
  Al  Al0  1  0.58885243  0.58890938  0.49078581  1.0
  Al  Al1  1  0.57280610  0.35945340  0.50307568  1.0
  Al  Al2  1  0.36147190  0.56787307  0.50201661  1.0
  Al  Al3  1  0.06899937  0.08251385  0.01540906  1.0
  Al  Al4  1  0.30427882  0.08637292  0.00436891  1.0
  Al  Al5  1  0.10133271  0.30374072  0.00343722  1.0
  H  H6  1  0.15379032  0.43071375  0.89334283  1.0
  H  H7  1  0.22464722  0.71107892  0.60593391  1.0
  H  H8  1  0.44702011  0.88728500  0.90801220  1.0
  H  H9  1  0.50584110  0.77596407  0.66721456  1.0
  H  H10  1  0.47230428  0.83290507  0.83731673  1.0
  H  H11  1  0.10476364  0.95715927  0.91233383  1.0
  H  H12  1  0.12751901  0.90869887  0.84080692  1.0
  H  H13  1  0.74722734  0.21660531  0.60426761  1.0
  H  H14  1  0.73347785  0.54046637  0.59138977  1.0
  H  H15  1  0.89811101  0.15311649  0.91958716  1.0
  H  H16  1  0.17750571  0.45366245  0.81836337  1.0
  H  H17  1  0.78679624  0.19815074  0.67668279  1.0
  H  H18  1  0.77311700  0.52270354  0.66385606  1.0
  H  H19  1  0.84210481  0.17704881  0.84879954  1.0
  H  H20  1  0.95187218  0.44340403  0.89816585  1.0
  H  H21  1  0.89715291  0.46764139  0.82732483  1.0
  H  H22  1  0.28473243  0.54731921  0.39862245  1.0
  H  H23  1  0.42430550  0.11084265  0.10381041  1.0
  H  H24  1  0.46549916  0.18087321  0.34255035  1.0
  H  H25  1  0.26675818  0.53136086  0.32660464  1.0
  H  H26  1  0.45251681  0.13609288  0.17363636  1.0
  H  H27  1  0.16829677  0.44353336  0.09382282  1.0
  H  H28  1  0.19840371  0.47054327  0.16316788  1.0
  H  H29  1  0.11907622  0.94177629  0.12638324  1.0
  H  H30  1  0.14828312  0.88999617  0.20005514  1.0
  H  H31  1  0.21046852  0.75017543  0.40107954  1.0
  H  H32  1  0.53097735  0.74401134  0.38248091  1.0
  H  H33  1  0.48471630  0.84425804  0.17798471  1.0
  H  H34  1  0.45373762  0.89708225  0.10475241  1.0
  H  H35  1  0.21332824  0.50623468  0.61103870  1.0
  H  H36  1  0.50337952  0.79309064  0.30891652  1.0
  H  H37  1  0.93910382  0.45487506  0.10479544  1.0
  H  H38  1  0.89075551  0.48648012  0.17797270  1.0
  H  H39  1  0.67803349  0.55093716  0.38404290  1.0
  H  H40  1  0.87693005  0.17354800  0.19862791  1.0
  H  H41  1  0.92240968  0.14476949  0.12529553  1.0
  H  H42  1  0.87901099  0.19492323  0.32325584  1.0
  H  H43  1  0.54122243  0.24098758  0.61535666  1.0
  H  H44  1  0.46824375  0.14088376  0.81939160  1.0
  H  H45  1  0.44191133  0.11811071  0.89407331  1.0
  H  H46  1  0.51435073  0.21665512  0.68968858  1.0
  H  H47  1  0.53184451  0.73506618  0.59465596  1.0
  H  H48  1  0.18430993  0.71238419  0.71547463  1.0
  H  H49  1  0.50760955  0.18655172  0.44763608  1.0
  H  H50  1  0.57717983  0.00534626  0.43244565  1.0
  H  H51  1  0.47264089  0.04549996  0.39799478  1.0
  H  H52  1  0.59994830  0.05064390  0.38193815  1.0
  H  H53  1  0.09299615  0.55959107  0.66626871  1.0
  H  H54  1  0.09513523  0.79071283  0.35180565  1.0
  H  H55  1  0.68305775  0.65140231  0.32688540  1.0
  H  H56  1  0.89946266  0.11263459  0.38305945  1.0
  H  H57  1  0.79357768  0.05454235  0.43459516  1.0
  H  H58  1  0.68480090  0.19059939  0.42918495  1.0
  H  H59  1  0.72662507  0.10426014  0.38833565  1.0
  H  H60  1  0.72221016  0.64896999  0.49878503  1.0
  H  H61  1  0.95268060  0.00704194  0.04717093  1.0
  C  C62  1  0.69960370  0.39967902  0.55238068  1.0
  C  C63  1  0.34777282  0.34667328  0.69293606  1.0
  C  C64  1  0.26136758  0.42848401  0.66996033  1.0
  C  C65  1  0.27876806  0.44167344  0.62829222  1.0
  C  C66  1  0.23583782  0.38134678  0.83525494  1.0
  C  C67  1  0.22283767  0.36859774  0.87679504  1.0
  C  C68  1  0.38587992  0.19198971  0.87723485  1.0
  C  C69  1  0.39998250  0.20447440  0.83570514  1.0
  C  C70  1  0.32484379  0.29916632  0.81403156  1.0
  C  C71  1  0.33631926  0.31253565  0.77166323  1.0
  C  C72  1  0.33746135  0.33127526  0.73516409  1.0
  C  C73  1  0.40093951  0.39550039  0.56468444  1.0
  C  C74  1  0.29734693  0.27380275  0.89814192  1.0
  C  C75  1  0.37913923  0.72246712  0.59576259  1.0
  C  C76  1  0.45912628  0.73963741  0.61321513  1.0
  C  C77  1  0.44513204  0.76120035  0.65338556  1.0
  C  C78  1  0.35155324  0.76522446  0.67711876  1.0
  C  C79  1  0.27124675  0.74678096  0.65970623  1.0
  C  C80  1  0.28587126  0.72671759  0.61901643  1.0
  C  C81  1  0.31407015  0.84372571  0.79257435  1.0
  C  C82  1  0.33748926  0.79470526  0.71874805  1.0
  C  C83  1  0.39210495  0.86065700  0.85388406  1.0
  C  C84  1  0.40014232  0.68879907  0.55374385  1.0
  C  C85  1  0.37821602  0.89015574  0.89312691  1.0
  C  C86  1  0.18442531  0.92991075  0.89536652  1.0
  C  C87  1  0.19732235  0.90266645  0.85590677  1.0
  C  C88  1  0.30122186  0.86852414  0.83474480  1.0
  C  C89  1  0.27426805  0.92553561  0.91394078  1.0
  C  C90  1  0.73744335  0.38007760  0.59376584  1.0
  C  C91  1  0.75361695  0.28284894  0.61755923  1.0
  C  C92  1  0.77550254  0.27258259  0.65773534  1.0
  C  C93  1  0.78105575  0.35993039  0.67464773  1.0
  C  C94  1  0.76826905  0.45590832  0.65041200  1.0
  C  C95  1  0.69738215  0.39653619  0.43759099  1.0
  C  C96  1  0.74663845  0.46561674  0.61034478  1.0
  C  C97  1  0.83538762  0.33721679  0.79240988  1.0
  C  C98  1  0.79662291  0.35331196  0.71767885  1.0
  C  C99  1  0.86620658  0.23486996  0.85986696  1.0
  C  C100  1  0.89661055  0.22175978  0.89898410  1.0
  C  C101  1  0.92695513  0.38621232  0.88704662  1.0
  C  C102  1  0.89693984  0.39950592  0.84779266  1.0
  C  C103  1  0.86649380  0.32372601  0.83390418  1.0
  C  C104  1  0.92751010  0.29706795  0.91273874  1.0
  C  C105  1  0.38577298  0.37491706  0.41156867  1.0
  C  C106  1  0.40248661  0.39593574  0.45162040  1.0
  C  C107  1  0.43665060  0.26756051  0.39632708  1.0
  C  C108  1  0.42544369  0.26036986  0.35549385  1.0
  C  C109  1  0.36638083  0.35402231  0.33065001  1.0
  C  C110  1  0.31284354  0.45887661  0.34618690  1.0
  C  C111  1  0.32298592  0.46716098  0.38608241  1.0
  C  C112  1  0.34397859  0.32014007  0.21376905  1.0
  C  C113  1  0.36195037  0.34286039  0.28780651  1.0
  C  C114  1  0.39135572  0.20337831  0.15584020  1.0
  C  C115  1  0.37603173  0.18944362  0.11700574  1.0
  C  C116  1  0.23141854  0.37737182  0.11131468  1.0
  C  C117  1  0.39731904  0.69921285  0.43833085  1.0
  C  C118  1  0.24757555  0.39210912  0.14995257  1.0
  C  C119  1  0.32751760  0.30509158  0.17267009  1.0
  C  C120  1  0.29585211  0.27614631  0.09447183  1.0
  C  C121  1  0.37287362  0.74305526  0.39615561  1.0
  C  C122  1  0.45458903  0.75736035  0.37007679  1.0
  C  C123  1  0.43907881  0.78489914  0.32942944  1.0
  C  C124  1  0.34063537  0.80064352  0.31329725  1.0
  C  C125  1  0.25597524  0.79037559  0.34004472  1.0
  C  C126  1  0.27418944  0.76073220  0.38081158  1.0
  C  C127  1  0.21444448  0.89139461  0.17883540  1.0
  C  C128  1  0.37882848  0.37474643  0.60831155  1.0
  C  C129  1  0.19851047  0.91957706  0.13825784  1.0
  C  C130  1  0.38794816  0.89457991  0.12590044  1.0
  C  C131  1  0.40494642  0.86577729  0.16648117  1.0
  C  C132  1  0.31780538  0.86526691  0.19350974  1.0
  C  C133  1  0.33070936  0.84115867  0.23513034  1.0
  C  C134  1  0.33094351  0.82362203  0.27162335  1.0
  C  C135  1  0.28453251  0.92258853  0.11161932  1.0
  C  C136  1  0.74061265  0.37656046  0.39510655  1.0
  C  C137  1  0.80137008  0.27287527  0.37793221  1.0
  C  C138  1  0.83446035  0.27387558  0.33671395  1.0
  C  C139  1  0.46302745  0.29245294  0.63086474  1.0
  C  C140  1  0.80851160  0.37059439  0.31156633  1.0
  C  C141  1  0.75105347  0.47358881  0.32918579  1.0
  C  C142  1  0.72054760  0.47264199  0.37011959  1.0
  C  C143  1  0.89810775  0.41190573  0.16614812  1.0
  C  C144  1  0.92418086  0.39460930  0.12559663  1.0
  C  C145  1  0.91483006  0.21911109  0.13733389  1.0
  C  C146  1  0.88998323  0.23506439  0.17790766  1.0
  C  C147  1  0.88201150  0.33152092  0.19293708  1.0
  C  C148  1  0.85853105  0.34658328  0.23437998  1.0
  C  C149  1  0.83611760  0.36202331  0.27000826  1.0
  C  C150  1  0.44803325  0.27904928  0.67229692  1.0
  C  C151  1  0.93326302  0.29797741  0.11094113  1.0
  C  C152  1  0.25438976  0.96768453  0.95456251  1.0
  C  C153  1  0.27616148  0.25513242  0.94199119  1.0
  C  C154  1  0.96970131  0.27473104  0.95353804  1.0
  C  C155  1  0.26099634  0.96483025  0.06920496  1.0
  C  C156  1  0.27321885  0.25681196  0.05447532  1.0
  C  C157  1  0.97149205  0.27272713  0.06857520  1.0
  C  C158  1  0.17545969  0.73760396  0.68290320  1.0
  C  C159  1  0.53751629  0.06409572  0.40728908  1.0
  C  C160  1  0.15202698  0.50158834  0.68840698  1.0
  C  C161  1  0.14798122  0.80958037  0.32705047  1.0
  C  C162  1  0.72089718  0.58141768  0.30685799  1.0
  C  C163  1  0.75550298  0.12745780  0.41363341  1.0
  N  N164  1  0.41670736  0.80639040  0.77376111  1.0
  N  N165  1  0.42637912  0.24357301  0.27294743  1.0
  N  N166  1  0.29904801  0.43401625  0.26486581  1.0
  N  N167  1  0.29027427  0.42267160  0.22716094  1.0
  N  N168  1  0.42889966  0.77870100  0.73670384  1.0
  N  N169  1  0.23368884  0.84293534  0.73609967  1.0
  N  N170  1  0.22214029  0.86466006  0.77396471  1.0
  N  N171  1  0.81222750  0.25943479  0.77946257  1.0
  N  N172  1  0.79138037  0.26813529  0.74149287  1.0
  N  N173  1  0.80632678  0.43790340  0.73178970  1.0
  N  N174  1  0.82480821  0.43049540  0.76985900  1.0
  N  N175  1  0.41682685  0.23193733  0.23537773  1.0
  N  N176  1  0.49209523  0.17481006  0.42013804  1.0
  N  N177  1  0.83633775  0.16981334  0.39940199  1.0
  O  O178  1  0.49112915  0.67510294  0.53555615  1.0
  O  O179  1  0.48774487  0.32438039  0.47022158  1.0
  O  O180  1  0.33486053  0.48759614  0.46601172  1.0
  O  O181  1  0.32343964  0.67855625  0.46027047  1.0
  O  O182  1  0.50676314  0.50446655  0.49909548  1.0
  O  O183  1  0.98140031  0.18524543  0.97273099  1.0
  O  O184  1  0.16093003  0.99126018  0.97249558  1.0
  O  O185  1  0.33283883  0.98195915  0.96763859  1.0
  O  O186  1  0.34227980  0.16418816  0.95978986  1.0
  O  O187  1  0.18954309  0.32816068  0.95913875  1.0
  O  O188  1  0.99613070  0.34616938  0.96573746  1.0
  O  O189  1  0.68302676  0.49101366  0.53332529  1.0
  O  O190  1  0.98440538  0.18109264  0.05797875  1.0
  O  O191  1  0.16624961  0.98919164  0.05819303  1.0
  O  O192  1  0.33824057  0.97877308  0.04670203  1.0
  O  O193  1  0.33834725  0.16552391  0.03950045  1.0
  O  O194  1  0.18642194  0.33020047  0.03826827  1.0
  O  O195  1  0.99382825  0.34419326  0.04557183  1.0
  O  O196  1  0.15934833  0.15862447  0.00756474  1.0
  O  O197  1  0.68030151  0.32451655  0.53935973  1.0
  O  O198  1  0.49317031  0.32795806  0.54850887  1.0
  O  O199  1  0.33031834  0.48203492  0.54615718  1.0
  O  O200  1  0.32515366  0.67072435  0.53973337  1.0
  O  O201  1  0.49065805  0.68005256  0.44943874  1.0
  O  O202  1  0.67746378  0.48932525  0.44914532  1.0
  O  O203  1  0.67778777  0.32223527  0.45996931  1.0
  O  O204  1  0.09289971  0.75069314  0.66694936  1.0
  O  O205  1  0.12535529  0.50191192  0.72442947  1.0
  O  O206  1  0.11408118  0.84367099  0.29347243  1.0
  O  O207  1  0.73351212  0.59899338  0.27046366  1.0
  O  O208  1  0.65999544  0.67114086  0.48258052  1.0
  O  O209  1  0.98777837  0.01047529  0.02078064  1.0
