# generated using pymatgen
data_Al3H21C45IO14
_symmetry_space_group_name_H-M   'P 1'
_cell_length_a   12.49217878
_cell_length_b   12.51273104
_cell_length_c   30.54191267
_cell_angle_alpha   98.72060640
_cell_angle_beta   90.75011070
_cell_angle_gamma   119.83426424
_symmetry_Int_Tables_number   1
_chemical_formula_structural   Al3H21C45IO14
_chemical_formula_sum   'Al6 H42 C90 I2 O28'
_cell_volume   4071.58351738
_cell_formula_units_Z   2
loop_
 _symmetry_equiv_pos_site_id
 _symmetry_equiv_pos_as_xyz
  1  'x, y, z'
loop_
 _atom_site_type_symbol
 _atom_site_label
 _atom_site_symmetry_multiplicity
 _atom_site_fract_x
 _atom_site_fract_y
 _atom_site_fract_z
 _atom_site_occupancy
  Al  Al0  1  0.59428952  0.18556596  0.51316703  1.0
  Al  Al1  1  0.59094845  0.92439353  0.49436608  1.0
  Al  Al2  1  0.34627583  0.91538758  0.49434497  1.0
  Al  Al3  1  0.07204162  0.15520189  0.97862930  1.0
  Al  Al4  1  0.32838923  0.41679254  0.99549844  1.0
  Al  Al5  1  0.09211391  0.42460485  0.99494231  1.0
  H  H6  1  0.16757167  0.65665158  0.89906876  1.0
  H  H7  1  0.73256620  0.94889799  0.77079890  1.0
  H  H8  1  0.93214282  0.05661392  0.71772248  1.0
  H  H9  1  0.19931915  0.71652043  0.82409275  1.0
  H  H10  1  0.12470934  0.58510416  0.21572464  1.0
  H  H11  1  0.21130846  0.46980952  0.26803160  1.0
  H  H12  1  0.27329262  0.81817612  0.27451423  1.0
  H  H13  1  0.47120921  0.87245777  0.22121812  1.0
  H  H14  1  0.55822405  0.75732132  0.27355046  1.0
  H  H15  1  0.40954501  0.52402460  0.21478931  1.0
  H  H16  1  0.13125181  0.04272789  0.08280865  1.0
  H  H17  1  0.19725039  0.21528299  0.70651523  1.0
  H  H18  1  0.14636966  0.01097622  0.16133684  1.0
  H  H19  1  0.17818166  0.95663767  0.29917821  1.0
  H  H20  1  0.23329674  0.77542519  0.68106843  1.0
  H  H21  1  0.20053792  0.92956189  0.37782791  1.0
  H  H22  1  0.52629248  0.29495094  0.40720882  1.0
  H  H23  1  0.49110399  0.36349064  0.19054182  1.0
  H  H24  1  0.47333883  0.39436987  0.11212485  1.0
  H  H25  1  0.50639392  0.32327150  0.32852573  1.0
  H  H26  1  0.95272464  0.42353042  0.11406956  1.0
  H  H27  1  0.90921458  0.40034648  0.19301994  1.0
  H  H28  1  0.26233413  0.93916652  0.72047935  1.0
  H  H29  1  0.82344732  0.34437615  0.33235003  1.0
  H  H30  1  0.77381382  0.30748316  0.40989744  1.0
  H  H31  1  0.74914433  0.94936981  0.37804262  1.0
  H  H32  1  0.25819568  0.80610056  0.60256968  1.0
  H  H33  1  0.85193757  0.02630942  0.16444500  1.0
  H  H34  1  0.89553655  0.05118974  0.08559534  1.0
  H  H35  1  0.79877333  0.98447277  0.30043459  1.0
  H  H36  1  0.48048461  0.61231109  0.81118205  1.0
  H  H37  1  0.44998320  0.55606906  0.88685844  1.0
  H  H38  1  0.49809570  0.64939772  0.67399123  1.0
  H  H39  1  0.46742448  0.10776288  0.78339603  1.0
  H  H40  1  0.11921076  0.03538279  0.76348725  1.0
  H  H41  1  0.54515270  0.28808603  0.72638696  1.0
  H  H42  1  0.40187848  0.38397708  0.76972042  1.0
  H  H43  1  0.69177802  0.24873252  0.77751493  1.0
  H  H44  1  0.89074910  0.35571652  0.72431752  1.0
  H  H45  1  0.59326350  0.01475358  0.71810468  1.0
  H  H46  1  0.69778110  0.38688789  0.55553066  1.0
  H  H47  1  0.94508612  0.95098000  0.93985927  1.0
  C  C48  1  0.72669693  0.09993769  0.56953633  1.0
  C  C49  1  0.35310728  0.69070827  0.76812150  1.0
  C  C50  1  0.35997795  0.70232900  0.72904304  1.0
  C  C51  1  0.40810472  0.78261993  0.54884081  1.0
  C  C52  1  0.30814998  0.60466774  0.89773629  1.0
  C  C53  1  0.25673513  0.19138557  0.72417633  1.0
  C  C54  1  0.21361183  0.09085928  0.75470386  1.0
  C  C55  1  0.31479888  0.22046387  0.87653829  1.0
  C  C56  1  0.34545373  0.10261436  0.61318316  1.0
  C  C57  1  0.37149455  0.28508106  0.75834337  1.0
  C  C58  1  0.32826952  0.18504752  0.79016149  1.0
  C  C59  1  0.36792806  0.71483994  0.68367231  1.0
  C  C60  1  0.45078091  0.23223474  0.73519284  1.0
  C  C61  1  0.33612506  0.13778806  0.69980596  1.0
  C  C62  1  0.40775564  0.13167101  0.76575687  1.0
  C  C63  1  0.37473608  0.08629786  0.56828508  1.0
  C  C64  1  0.29283600  0.03801511  0.73164010  1.0
  C  C65  1  0.32382935  0.20673057  0.83665437  1.0
  C  C66  1  0.33927460  0.11641210  0.65327257  1.0
  C  C67  1  0.85484416  0.26554107  0.73501280  1.0
  C  C68  1  0.74444384  0.20548827  0.76379465  1.0
  C  C69  1  0.87496700  0.21545831  0.88001019  1.0
  C  C70  1  0.29731190  0.75579295  0.66256717  1.0
  C  C71  1  0.77075857  0.11336629  0.61485793  1.0
  C  C72  1  0.93122905  0.22721227  0.76299100  1.0
  C  C73  1  0.82057367  0.16791567  0.79341635  1.0
  C  C74  1  0.87781084  0.09819505  0.73116467  1.0
  C  C75  1  0.71936024  0.10288964  0.44308327  1.0
  C  C76  1  0.80128448  0.13615001  0.70180659  1.0
  C  C77  1  0.76734681  0.03890164  0.76005404  1.0
  C  C78  1  0.69017516  0.07621517  0.73176156  1.0
  C  C79  1  0.84236481  0.19045723  0.84022875  1.0
  C  C80  1  0.78704748  0.12150728  0.65493280  1.0
  C  C81  1  0.30979166  0.77096919  0.61859791  1.0
  C  C82  1  0.26898387  0.55907089  0.25716693  1.0
  C  C83  1  0.22104965  0.62382424  0.22895648  1.0
  C  C84  1  0.31396970  0.61980768  0.11106734  1.0
  C  C85  1  0.36922524  0.72248445  0.37816161  1.0
  C  C86  1  0.37995283  0.58993945  0.22849877  1.0
  C  C87  1  0.39328307  0.77033054  0.42509667  1.0
  C  C88  1  0.33138851  0.65387185  0.19876245  1.0
  C  C89  1  0.46182259  0.71850288  0.26031880  1.0
  C  C90  1  0.35151081  0.68833997  0.29050330  1.0
  C  C91  1  0.41381663  0.78319726  0.23211624  1.0
  C  C92  1  0.25540647  0.68315014  0.83811718  1.0
  C  C93  1  0.30288518  0.75228839  0.26078455  1.0
  C  C94  1  0.32256605  0.63678519  0.15172154  1.0
  C  C95  1  0.36037340  0.70544714  0.33751483  1.0
  C  C96  1  0.36416245  0.11134855  0.39685518  1.0
  C  C97  1  0.45037497  0.22252814  0.38310357  1.0
  C  C98  1  0.43933971  0.23768689  0.33957403  1.0
  C  C99  1  0.38556963  0.09268591  0.44229743  1.0
  C  C100  1  0.34143643  0.14131860  0.30869730  1.0
  C  C101  1  0.25409554  0.03041109  0.32300379  1.0
  C  C102  1  0.26570583  0.01568618  0.36664562  1.0
  C  C103  1  0.23779402  0.65014560  0.87996526  1.0
  C  C104  1  0.21807847  0.09418248  0.15028656  1.0
  C  C105  1  0.20960184  0.11123666  0.10685377  1.0
  C  C106  1  0.40347316  0.31037660  0.12329197  1.0
  C  C107  1  0.41258784  0.29364835  0.16679565  1.0
  C  C108  1  0.31951277  0.18554228  0.18102985  1.0
  C  C109  1  0.32693905  0.16946996  0.22552070  1.0
  C  C110  1  0.33248286  0.15575715  0.26406741  1.0
  C  C111  1  0.39092322  0.74533639  0.59346079  1.0
  C  C112  1  0.30185167  0.21951144  0.09313848  1.0
  C  C113  1  0.75961555  0.12702633  0.39830175  1.0
  C  C114  1  0.39701553  0.59301110  0.87299923  1.0
  C  C115  1  0.76678840  0.03574496  0.36764015  1.0
  C  C116  1  0.79356818  0.05500651  0.32458136  1.0
  C  C117  1  0.81373160  0.16645649  0.31126256  1.0
  C  C118  1  0.80779491  0.25841640  0.34257015  1.0
  C  C119  1  0.78076826  0.23853810  0.38552122  1.0
  C  C120  1  0.90605619  0.32411115  0.16931499  1.0
  C  C121  1  0.92926112  0.33675396  0.12548154  1.0
  C  C122  1  0.89711726  0.12608477  0.10955068  1.0
  C  C123  1  0.45752961  0.69874160  0.61387602  1.0
  C  C124  1  0.87361481  0.11285412  0.15321919  1.0
  C  C125  1  0.41361290  0.62399689  0.83084190  1.0
  C  C126  1  0.87851461  0.21213697  0.18396958  1.0
  C  C127  1  0.85680438  0.19879654  0.22866406  1.0
  C  C128  1  0.83785259  0.18465764  0.26708274  1.0
  C  C129  1  0.92560537  0.23814877  0.09539478  1.0
  C  C130  1  0.28477726  0.23889618  0.92121401  1.0
  C  C131  1  0.28229512  0.55801246  0.94053639  1.0
  C  C132  1  0.93645994  0.24321567  0.92383292  1.0
  C  C133  1  0.28413223  0.24108006  0.04782649  1.0
  C  C134  1  0.28942123  0.57232155  0.06406291  1.0
  C  C135  1  0.44640405  0.68501203  0.65840460  1.0
  C  C136  1  0.34223961  0.66869493  0.81244974  1.0
  C  C137  1  0.96201433  0.25370397  0.04961383  1.0
  I  I138  1  0.11808221  0.34555830  0.78967705  1.0
  I  I139  1  0.56751542  0.63507340  0.58057977  1.0
  O  O140  1  0.47810351  0.16943204  0.55907500  1.0
  O  O141  1  0.18143287  0.53929130  0.95657038  1.0
  O  O142  1  0.96521744  0.34896275  0.94853472  1.0
  O  O143  1  0.69648548  0.17807895  0.56150706  1.0
  O  O144  1  0.97682571  0.16939673  0.02722119  1.0
  O  O145  1  0.18586721  0.16018751  0.02354112  1.0
  O  O146  1  0.36808617  0.34436067  0.03696241  1.0
  O  O147  1  0.36676042  0.54616890  0.04538817  1.0
  O  O148  1  0.18827945  0.55294491  0.04454125  1.0
  O  O149  1  0.98111122  0.35477771  0.03651481  1.0
  O  O150  1  0.16500221  0.33450068  0.98976402  1.0
  O  O151  1  0.49689292  0.79584797  0.44445845  1.0
  O  O152  1  0.71628991  0.00653045  0.54134128  1.0
  O  O153  1  0.50921464  0.80671717  0.53214449  1.0
  O  O154  1  0.32399260  0.79761337  0.53131563  1.0
  O  O155  1  0.29503751  0.98492847  0.54152040  1.0
  O  O156  1  0.48453333  0.17620409  0.46566030  1.0
  O  O157  1  0.70125846  0.18231051  0.46738549  1.0
  O  O158  1  0.70030228  0.99863036  0.45335810  1.0
  O  O159  1  0.31231223  0.79066237  0.44383328  1.0
  O  O160  1  0.30436965  0.98980360  0.45414926  1.0
  O  O161  1  0.50946920  0.00621721  0.50062526  1.0
  O  O162  1  0.96196405  0.16338680  0.93361673  1.0
  O  O163  1  0.17667724  0.16296460  0.92939475  1.0
  O  O164  1  0.36933270  0.33446069  0.94890765  1.0
  O  O165  1  0.35990260  0.53342578  0.95762324  1.0
  O  O166  1  0.67131854  0.35017599  0.52435730  1.0
  O  O167  1  0.98863349  0.99078715  0.96929296  1.0
