# generated using pymatgen
data_Zn4H26C47S10(N2O9)2
_symmetry_space_group_name_H-M   'P 1'
_cell_length_a   11.44561902
_cell_length_b   12.73665371
_cell_length_c   23.91195053
_cell_angle_alpha   90.14880684
_cell_angle_beta   89.72361088
_cell_angle_gamma   89.94473337
_symmetry_Int_Tables_number   1
_chemical_formula_structural   Zn4H26C47S10(N2O9)2
_chemical_formula_sum   'Zn4 H26 C47 S10 N4 O18'
_cell_volume   3485.80353086
_cell_formula_units_Z   1
loop_
 _symmetry_equiv_pos_site_id
 _symmetry_equiv_pos_as_xyz
  1  'x, y, z'
loop_
 _atom_site_type_symbol
 _atom_site_label
 _atom_site_symmetry_multiplicity
 _atom_site_fract_x
 _atom_site_fract_y
 _atom_site_fract_z
 _atom_site_occupancy
  Zn  Zn0  1  0.62104525  0.50000627  0.49894423  1.0
  Zn  Zn1  1  0.37846776  0.49696145  0.49875727  1.0
  Zn  Zn2  1  0.37757853  0.50244481  0.96620713  1.0
  Zn  Zn3  1  0.62039575  0.49885509  0.96370656  1.0
  H  H4  1  0.16653268  0.60157515  0.56515715  1.0
  H  H5  1  0.30846619  0.85775091  0.49872351  1.0
  H  H6  1  0.76887375  0.57253710  0.78643040  1.0
  H  H7  1  0.76846891  0.43227726  0.78695343  1.0
  H  H8  1  0.77357025  0.43101580  0.68181507  1.0
  H  H9  1  0.77369117  0.57114909  0.68163775  1.0
  H  H10  1  0.68913143  0.50064978  0.15611429  1.0
  H  H11  1  0.83199877  0.60135503  0.89841393  1.0
  H  H12  1  0.69122212  0.86022289  0.96560143  1.0
  H  H13  1  0.79071195  0.42848169  0.38517274  1.0
  H  H14  1  0.89722026  0.33034534  0.40163542  1.0
  H  H15  1  0.75552138  0.33090596  0.43438684  1.0
  H  H16  1  0.73756688  0.20762597  0.53072352  1.0
  H  H17  1  0.77478927  0.07208721  0.52133921  1.0
  H  H18  1  0.75725763  0.15545695  0.46269422  1.0
  H  H19  1  0.25644078  0.56651304  0.33668351  1.0
  H  H20  1  0.21995517  0.50358753  0.27215726  1.0
  H  H21  1  0.25582862  0.42865117  0.33271911  1.0
  H  H22  1  0.20879367  0.43142065  0.07978372  1.0
  H  H23  1  0.10136868  0.33394350  0.06358438  1.0
  H  H24  1  0.24237115  0.33343436  0.03020775  1.0
  H  H25  1  0.26059618  0.20894813  0.93292128  1.0
  H  H26  1  0.22384299  0.07353520  0.94250864  1.0
  H  H27  1  0.24129577  0.15776639  0.00104986  1.0
  H  H28  1  0.30893411  0.49625722  0.63436660  1.0
  H  H29  1  0.29993940  0.49835327  0.82689092  1.0
  C  C30  1  0.49200349  0.70324588  0.50142300  1.0
  C  C31  1  0.50269615  0.49826992  0.60989802  1.0
  C  C32  1  0.50006723  0.29247247  0.49861801  1.0
  C  C33  1  0.49891336  0.50041396  0.38896061  1.0
  C  C34  1  0.50844495  0.70524863  0.96308107  1.0
  C  C35  1  0.49293505  0.50102518  0.85412937  1.0
  C  C36  1  0.49800810  0.29465450  0.96462446  1.0
  C  C37  1  0.50460648  0.50187584  0.07473107  1.0
  C  C38  1  0.87286550  0.44816661  0.46434967  1.0
  C  C39  1  0.12752760  0.55167857  0.53325861  1.0
  C  C40  1  0.00750892  0.53619187  0.52187806  1.0
  C  C41  1  0.99226019  0.46610710  0.47688802  1.0
  C  C42  1  0.59670549  0.10892609  0.50252327  1.0
  C  C43  1  0.39790257  0.88620312  0.50020286  1.0
  C  C44  1  0.50141982  0.17693903  0.50006197  1.0
  C  C45  1  0.49274747  0.81892788  0.50194298  1.0
  C  C46  1  0.43441273  0.99216799  0.50031420  1.0
  C  C47  1  0.55678475  0.00366208  0.50237231  1.0
  C  C48  1  0.49418621  0.50195504  0.79246534  1.0
  C  C49  1  0.49946078  0.50030582  0.67155154  1.0
  C  C50  1  0.59893950  0.50247278  0.76165314  1.0
  C  C51  1  0.39182465  0.50042265  0.70138803  1.0
  C  C52  1  0.60158640  0.50160073  0.70390045  1.0
  C  C53  1  0.38923617  0.50111692  0.76113684  1.0
  C  C54  1  0.73084455  0.50212722  0.76696225  1.0
  C  C55  1  0.73395151  0.50130060  0.70079423  1.0
  C  C56  1  0.40264455  0.50064906  0.29177300  1.0
  C  C57  1  0.59980946  0.50092883  0.17180270  1.0
  C  C58  1  0.49851787  0.50072924  0.32739751  1.0
  C  C59  1  0.50459160  0.50178037  0.13644116  1.0
  C  C60  1  0.56399378  0.50079425  0.22846146  1.0
  C  C61  1  0.44162196  0.50099342  0.23543504  1.0
  C  C62  1  0.12535659  0.45142061  0.00091141  1.0
  C  C63  1  0.87117815  0.55245895  0.93057937  1.0
  C  C64  1  0.99101974  0.53812721  0.94277742  1.0
  C  C65  1  0.00599069  0.46827433  0.98773290  1.0
  C  C66  1  0.40188800  0.11083630  0.96119301  1.0
  C  C67  1  0.60162722  0.88844994  0.96403112  1.0
  C  C68  1  0.49686933  0.17905774  0.96340395  1.0
  C  C69  1  0.50707248  0.82094885  0.96245206  1.0
  C  C70  1  0.56468070  0.99435433  0.96359427  1.0
  C  C71  1  0.44222674  0.00560984  0.96154075  1.0
  C  C72  1  0.82727211  0.37994009  0.41874994  1.0
  C  C73  1  0.72337909  0.13781528  0.50479653  1.0
  C  C74  1  0.27670845  0.49999748  0.30899299  1.0
  C  C75  1  0.17124203  0.38308876  0.04625542  1.0
  C  C76  1  0.27511238  0.13955041  0.95894932  1.0
  S  S77  1  0.87279958  0.57467473  0.54606893  1.0
  S  S78  1  0.12562795  0.42486461  0.45281141  1.0
  S  S79  1  0.36665329  0.11295492  0.49847250  1.0
  S  S80  1  0.62642042  0.88358014  0.50384101  1.0
  S  S81  1  0.63268504  0.50150096  0.29245434  1.0
  S  S82  1  0.37135582  0.50263589  0.17179218  1.0
  S  S83  1  0.12574929  0.57864670  0.91986001  1.0
  S  S84  1  0.87235155  0.42643891  0.01108007  1.0
  S  S85  1  0.63190511  0.11528473  0.96504697  1.0
  S  S86  1  0.37314705  0.88535636  0.96033141  1.0
  N  N87  1  0.80240478  0.50183932  0.49868282  1.0
  N  N88  1  0.19751385  0.49695190  0.49960671  1.0
  N  N89  1  0.19600211  0.50603429  0.96730153  1.0
  N  N90  1  0.80106191  0.49742189  0.96375326  1.0
  O  O91  1  0.59191320  0.65832825  0.50186171  1.0
  O  O92  1  0.39284231  0.65772672  0.50034012  1.0
  O  O93  1  0.40297473  0.49716724  0.58421401  1.0
  O  O94  1  0.60094340  0.49743797  0.58507283  1.0
  O  O95  1  0.39977264  0.33672728  0.49856158  1.0
  O  O96  1  0.59845737  0.33991350  0.49733436  1.0
  O  O97  1  0.59851813  0.50369642  0.41283067  1.0
  O  O98  1  0.39987006  0.49680689  0.41369958  1.0
  O  O99  1  0.40869677  0.66002406  0.96185452  1.0
  O  O100  1  0.60763890  0.65999584  0.96496744  1.0
  O  O101  1  0.59032497  0.50299208  0.87938411  1.0
  O  O102  1  0.39226996  0.49778171  0.87913801  1.0
  O  O103  1  0.59819333  0.33879048  0.96360872  1.0
  O  O104  1  0.39958962  0.34227210  0.96684550  1.0
  O  O105  1  0.40442166  0.50649873  0.05140152  1.0
  O  O106  1  0.60313844  0.49723042  0.04993006  1.0
  O  O107  1  0.28734749  0.49903278  0.67522644  1.0
  O  O108  1  0.28266294  0.50022445  0.78575544  1.0
