# generated using pymatgen
data_Zr3H20C44N5O26F
_symmetry_space_group_name_H-M   'P 1'
_cell_length_a   19.12271975
_cell_length_b   19.12181793
_cell_length_c   19.14556329
_cell_angle_alpha   60.04302502
_cell_angle_beta   60.04476732
_cell_angle_gamma   90.53643395
_symmetry_Int_Tables_number   1
_chemical_formula_structural   Zr3H20C44N5O26F
_chemical_formula_sum   'Zr6 H40 C88 N10 O52 F2'
_cell_volume   4933.29637827
_cell_formula_units_Z   2
loop_
 _symmetry_equiv_pos_site_id
 _symmetry_equiv_pos_as_xyz
  1  'x, y, z'
loop_
 _atom_site_type_symbol
 _atom_site_label
 _atom_site_symmetry_multiplicity
 _atom_site_fract_x
 _atom_site_fract_y
 _atom_site_fract_z
 _atom_site_occupancy
  Zr  Zr0  1  0.59299539  0.59331696  0.49965060  1.0
  Zr  Zr1  1  0.40709672  0.40746617  0.49994118  1.0
  Zr  Zr2  1  0.59380029  0.59412724  0.31432299  1.0
  Zr  Zr3  1  0.40631396  0.40664721  0.68527667  1.0
  Zr  Zr4  1  0.40803075  0.59241298  0.49980608  1.0
  Zr  Zr5  1  0.59206881  0.40831439  0.49980754  1.0
  H  H6  1  0.57496542  0.71974103  0.35363153  1.0
  H  H7  1  0.28071866  0.42548754  0.64595853  1.0
  H  H8  1  0.57269675  0.42824129  0.35375792  1.0
  H  H9  1  0.57213423  0.42767671  0.64589641  1.0
  H  H10  1  0.38892142  0.05045608  0.49497540  1.0
  H  H11  1  0.61544144  0.95478546  0.49588629  1.0
  H  H12  1  0.38505806  0.81375338  0.51017614  1.0
  H  H13  1  0.38185844  0.94181237  0.51022827  1.0
  H  H14  1  0.60447805  0.17646511  0.51016424  1.0
  H  H15  1  0.60760162  0.04842421  0.51011089  1.0
  H  H16  1  0.04556032  0.38478931  0.50396112  1.0
  H  H17  1  0.94965582  0.61119004  0.50514176  1.0
  H  H18  1  0.82373152  0.39565449  0.48985075  1.0
  H  H19  1  0.95168553  0.39244774  0.49008573  1.0
  H  H20  1  0.18636916  0.61521416  0.48977795  1.0
  H  H21  1  0.05824361  0.61824566  0.48990301  1.0
  H  H22  1  0.94788186  0.38480750  0.16306045  1.0
  H  H23  1  0.04680584  0.61051476  0.83693534  1.0
  H  H24  1  0.18522875  0.39658674  0.93055089  1.0
  H  H25  1  0.05651354  0.39313349  0.06157378  1.0
  H  H26  1  0.82434394  0.61383076  0.06896977  1.0
  H  H27  1  0.95223902  0.61643319  0.93795924  1.0
  H  H28  1  0.38964210  0.95335203  0.16267999  1.0
  H  H29  1  0.61521460  0.05215828  0.83662907  1.0
  H  H30  1  0.38643924  0.17596189  0.93058006  1.0
  H  H31  1  0.38365061  0.04791823  0.06164929  1.0
  H  H32  1  0.60371846  0.81506833  0.06902386  1.0
  H  H33  1  0.60691110  0.94357692  0.93805024  1.0
  H  H34  1  0.18110141  0.17644661  0.70873165  1.0
  H  H35  1  0.06587039  0.06309712  0.75679564  1.0
  H  H36  1  0.18174683  0.17746641  0.93270564  1.0
  H  H37  1  0.82396538  0.81940663  0.29084465  1.0
  H  H38  1  0.93723542  0.93460842  0.24281242  1.0
  H  H39  1  0.82292918  0.81872857  0.06690253  1.0
  H  H40  1  0.61704836  0.61259222  0.93396916  1.0
  H  H41  1  0.38777792  0.38333426  0.06562420  1.0
  H  H42  1  0.60543067  0.61530429  0.70953205  1.0
  H  H43  1  0.60883875  0.61855981  0.83414197  1.0
  H  H44  1  0.38510536  0.39500083  0.29008448  1.0
  H  H45  1  0.38180444  0.39155172  0.16550822  1.0
  C  C46  1  0.49873837  0.73236896  0.50478652  1.0
  C  C47  1  0.26797875  0.50171048  0.49490606  1.0
  C  C48  1  0.49644643  0.26353680  0.50441344  1.0
  C  C49  1  0.73681579  0.50383499  0.49529368  1.0
  C  C50  1  0.73864183  0.73387405  0.26415381  1.0
  C  C51  1  0.49610868  0.50101026  0.73594418  1.0
  C  C52  1  0.26658424  0.26178569  0.73544659  1.0
  C  C53  1  0.49940792  0.50434529  0.26363559  1.0
  C  C54  1  0.49794982  0.73323172  0.26544424  1.0
  C  C55  1  0.73759354  0.50299874  0.26545287  1.0
  C  C56  1  0.49736670  0.26276310  0.73411785  1.0
  C  C57  1  0.26717387  0.50246076  0.73416360  1.0
  C  C58  1  0.49591216  0.18602979  0.50376766  1.0
  C  C59  1  0.49978167  0.81039527  0.50441153  1.0
  C  C60  1  0.43636643  0.14825296  0.49940746  1.0
  C  C61  1  0.43688434  0.07601294  0.49893104  1.0
  C  C62  1  0.56348099  0.85239662  0.50050765  1.0
  C  C63  1  0.56359063  0.92529356  0.49966651  1.0
  C  C64  1  0.43501086  0.84537592  0.50739649  1.0
  C  C65  1  0.43416718  0.91812566  0.50700656  1.0
  C  C66  1  0.55743279  0.14780670  0.50715122  1.0
  C  C67  1  0.55861304  0.07543032  0.50679887  1.0
  C  C68  1  0.49828359  0.03754594  0.50289292  1.0
  C  C69  1  0.49840686  0.95998029  0.50312175  1.0
  C  C70  1  0.18989054  0.50056356  0.49539126  1.0
  C  C71  1  0.81421573  0.50428180  0.49613706  1.0
  C  C72  1  0.14792291  0.43684212  0.49929601  1.0
  C  C73  1  0.07497842  0.43664835  0.50022829  1.0
  C  C74  1  0.85194500  0.56379963  0.50058065  1.0
  C  C75  1  0.92414418  0.56326228  0.50110991  1.0
  C  C76  1  0.85239650  0.44270804  0.49285267  1.0
  C  C77  1  0.92472142  0.44149266  0.49328963  1.0
  C  C78  1  0.15480418  0.56525059  0.49252801  1.0
  C  C79  1  0.08200184  0.56600097  0.49303233  1.0
  C  C80  1  0.04018629  0.50174210  0.49689338  1.0
  C  C81  1  0.96260058  0.50184102  0.49717699  1.0
  C  C82  1  0.81447653  0.50083808  0.18890379  1.0
  C  C83  1  0.18931177  0.50363002  0.81080711  1.0
  C  C84  1  0.85125866  0.43704835  0.21199179  1.0
  C  C85  1  0.92309828  0.43656901  0.13950852  1.0
  C  C86  1  0.14827049  0.56316013  0.78785900  1.0
  C  C87  1  0.07541301  0.56260431  0.86038263  1.0
  C  C88  1  0.15357597  0.44274272  0.91147388  1.0
  C  C89  1  0.08078415  0.44154438  0.98482778  1.0
  C  C90  1  0.85301979  0.56459944  0.08813469  1.0
  C  C91  1  0.92499120  0.56498850  0.01481784  1.0
  C  C92  1  0.96218923  0.50119243  0.03861087  1.0
  C  C93  1  0.03968649  0.50138842  0.96119544  1.0
  C  C94  1  0.49666882  0.81097218  0.18879453  1.0
  C  C95  1  0.49941728  0.18579062  0.81068278  1.0
  C  C96  1  0.43708850  0.85195139  0.21174944  1.0
  C  C97  1  0.43753476  0.92473684  0.13924293  1.0
  C  C98  1  0.56312875  0.14891870  0.78762194  1.0
  C  C99  1  0.56349290  0.07698391  0.86013158  1.0
  C  C100  1  0.43560980  0.14721464  0.91145633  1.0
  C  C101  1  0.43512096  0.07516322  0.98479531  1.0
  C  C102  1  0.55750307  0.84665944  0.08811036  1.0
  C  C103  1  0.55855302  0.91934146  0.01479326  1.0
  C  C104  1  0.49867296  0.96040059  0.03843394  1.0
  C  C105  1  0.49885280  0.03789124  0.96103610  1.0
  C  C106  1  0.15144251  0.14694776  0.78704289  1.0
  C  C107  1  0.07711507  0.07347217  0.85994372  1.0
  C  C108  1  0.03795698  0.03494637  0.83444757  1.0
  C  C109  1  0.15194090  0.14766735  0.91385309  1.0
  C  C110  1  0.07783210  0.07425677  0.98833276  1.0
  C  C111  1  0.03713093  0.03415592  0.09187363  1.0
  C  C112  1  0.85346104  0.84905237  0.21253149  1.0
  C  C113  1  0.92695130  0.92336357  0.13963079  1.0
  C  C114  1  0.96546931  0.96247526  0.16515882  1.0
  C  C115  1  0.85273065  0.84853946  0.08575125  1.0
  C  C116  1  0.92613792  0.92263968  0.01127439  1.0
  C  C117  1  0.96622047  0.96334202  0.90773565  1.0
  C  C118  1  0.18819792  0.18329685  0.81407180  1.0
  C  C119  1  0.03939525  0.03594247  0.96226134  1.0
  C  C120  1  0.81710496  0.81226125  0.18554166  1.0
  C  C121  1  0.96449369  0.96106477  0.03732976  1.0
  C  C122  1  0.50063801  0.50490820  0.18488055  1.0
  C  C123  1  0.49553337  0.49977329  0.81470295  1.0
  C  C124  1  0.56477698  0.56504110  0.08330786  1.0
  C  C125  1  0.56479234  0.56420031  0.01130093  1.0
  C  C126  1  0.43537948  0.43561810  0.91626527  1.0
  C  C127  1  0.43619734  0.43558189  0.98829833  1.0
  C  C128  1  0.55786885  0.56500484  0.78809003  1.0
  C  C129  1  0.55924601  0.56590028  0.85944572  1.0
  C  C130  1  0.43539622  0.44255037  0.21152146  1.0
  C  C131  1  0.43446987  0.44114226  0.14019687  1.0
  C  C132  1  0.49901161  0.50189947  0.03825762  1.0
  C  C133  1  0.49847886  0.50135611  0.96137734  1.0
  N  N134  1  0.36902237  0.18309522  0.49349318  1.0
  N  N135  1  0.63613958  0.82284994  0.49600917  1.0
  N  N136  1  0.17755324  0.36423720  0.50370010  1.0
  N  N137  1  0.81709129  0.63115402  0.50648988  1.0
  N  N138  1  0.81604695  0.36455678  0.31534033  1.0
  N  N139  1  0.17881504  0.63085910  0.68460466  1.0
  N  N140  1  0.36944345  0.82145043  0.31499984  1.0
  N  N141  1  0.63568317  0.18419120  0.68428560  1.0
  N  N142  1  0.63821964  0.63369273  0.04484217  1.0
  N  N143  1  0.36672394  0.36221960  0.95467275  1.0
  O  O144  1  0.55793307  0.70198125  0.50476861  1.0
  O  O145  1  0.29846498  0.44258681  0.49480282  1.0
  O  O146  1  0.43749436  0.29414021  0.50398361  1.0
  O  O147  1  0.70628495  0.56285808  0.49560595  1.0
  O  O148  1  0.70697017  0.70317137  0.23584801  1.0
  O  O149  1  0.43642213  0.44110754  0.76480063  1.0
  O  O150  1  0.29730917  0.29344326  0.76374947  1.0
  O  O151  1  0.55931777  0.56402152  0.23479175  1.0
  O  O152  1  0.43873118  0.70202655  0.35572205  1.0
  O  O153  1  0.70631378  0.44374224  0.35577023  1.0
  O  O154  1  0.55660074  0.29402239  0.64381859  1.0
  O  O155  1  0.29838188  0.56168315  0.64389560  1.0
  O  O156  1  0.70861071  0.56280179  0.23508561  1.0
  O  O157  1  0.43764493  0.29183398  0.76447964  1.0
  O  O158  1  0.29564683  0.44213295  0.76452445  1.0
  O  O159  1  0.55835165  0.70483298  0.23508409  1.0
  O  O160  1  0.70718239  0.70300125  0.35440259  1.0
  O  O161  1  0.43958229  0.44405393  0.35322426  1.0
  O  O162  1  0.29742706  0.29327313  0.64520010  1.0
  O  O163  1  0.55643616  0.56081312  0.64635476  1.0
  O  O164  1  0.70637644  0.44405405  0.49555683  1.0
  O  O165  1  0.43956664  0.70256844  0.50385385  1.0
  O  O166  1  0.29774995  0.56087247  0.49587543  1.0
  O  O167  1  0.55624493  0.29399296  0.50412399  1.0
  O  O168  1  0.55148865  0.44792863  0.60457837  1.0
  O  O169  1  0.55247348  0.44893787  0.39502660  1.0
  O  O170  1  0.34307418  0.44757384  0.60424940  1.0
  O  O171  1  0.55285776  0.65738405  0.39536719  1.0
  O  O172  1  0.46223239  0.53896348  0.42276594  1.0
  O  O173  1  0.46149916  0.53821272  0.57683451  1.0
  O  O174  1  0.46107598  0.38513092  0.57656697  1.0
  O  O175  1  0.61530082  0.53933529  0.42303704  1.0
  O  O176  1  0.38907906  0.23871970  0.40964075  1.0
  O  O177  1  0.29700729  0.14988773  0.57212010  1.0
  O  O178  1  0.70185807  0.85260199  0.41269460  1.0
  O  O179  1  0.62698881  0.77525686  0.57559309  1.0
  O  O180  1  0.14799270  0.29854865  0.58696787  1.0
  O  O181  1  0.22503016  0.37340547  0.42408970  1.0
  O  O182  1  0.76138624  0.61106395  0.59033412  1.0
  O  O183  1  0.85037423  0.70320661  0.42788235  1.0
  O  O184  1  0.76071287  0.29901116  0.35267278  1.0
  O  O185  1  0.84889129  0.37354663  0.35315537  1.0
  O  O186  1  0.14982905  0.61172990  0.64905460  1.0
  O  O187  1  0.22635423  0.70239844  0.64501826  1.0
  O  O188  1  0.38858902  0.85054957  0.35045031  1.0
  O  O189  1  0.29791683  0.77382275  0.35467631  1.0
  O  O190  1  0.70114413  0.23960411  0.64699013  1.0
  O  O191  1  0.62681451  0.15131286  0.64643517  1.0
  O  O192  1  0.70332125  0.61595363  0.03392594  1.0
  O  O193  1  0.63052527  0.70473942  0.02087901  1.0
  O  O194  1  0.38442728  0.29709693  0.96559958  1.0
  O  O195  1  0.29570661  0.36996833  0.97856795  1.0
  F  F196  1  0.92898185  0.92664138  0.88341325  1.0
  F  F197  1  0.07382082  0.07135147  0.11624371  1.0
