# generated using pymatgen
data_AlH9C16O5
_symmetry_space_group_name_H-M   'P 1'
_cell_length_a   6.68211664
_cell_length_b   17.82908887
_cell_length_c   17.82892670
_cell_angle_alpha   84.20291000
_cell_angle_beta   79.19906257
_cell_angle_gamma   79.19653993
_symmetry_Int_Tables_number   1
_chemical_formula_structural   AlH9C16O5
_chemical_formula_sum   'Al2 H18 C32 O10'
_cell_volume   2044.67538003
_cell_formula_units_Z   2
loop_
 _symmetry_equiv_pos_site_id
 _symmetry_equiv_pos_as_xyz
  1  'x, y, z'
loop_
 _atom_site_type_symbol
 _atom_site_label
 _atom_site_symmetry_multiplicity
 _atom_site_fract_x
 _atom_site_fract_y
 _atom_site_fract_z
 _atom_site_occupancy
  Al  Al0  1  0.49995288  0.49999762  0.50000781  1.0
  Al  Al1  1  0.99995017  0.50000482  0.49999748  1.0
  H  H2  1  0.24988464  0.57409812  0.42592276  1.0
  H  H3  1  0.75006799  0.42590701  0.57409376  1.0
  H  H4  1  0.68775806  0.26826587  0.49785810  1.0
  H  H5  1  0.76032175  0.12526131  0.49952258  1.0
  H  H6  1  0.11492829  0.12525630  0.49925714  1.0
  H  H7  1  0.04608738  0.26826821  0.49757046  1.0
  H  H8  1  0.88503868  0.87472185  0.50078788  1.0
  H  H9  1  0.95383349  0.73170799  0.50243660  1.0
  H  H10  1  0.31213766  0.73177702  0.50208489  1.0
  H  H11  1  0.23968565  0.87476579  0.50043576  1.0
  H  H12  1  0.54602556  0.49786540  0.26823762  1.0
  H  H13  1  0.61490980  0.49948401  0.12524531  1.0
  H  H14  1  0.26056469  0.49922252  0.12527912  1.0
  H  H15  1  0.18794595  0.49759853  0.26828306  1.0
  H  H16  1  0.73942964  0.50074865  0.87474690  1.0
  H  H17  1  0.81188901  0.50245038  0.73174281  1.0
  H  H18  1  0.45389648  0.50206625  0.73174449  1.0
  H  H19  1  0.38513966  0.50038407  0.87474164  1.0
  C  C20  1  0.82008668  0.49813863  0.36153978  1.0
  C  C21  1  0.67976946  0.63846046  0.50188601  1.0
  C  C22  1  0.17978678  0.50186690  0.63845979  1.0
  C  C23  1  0.32010310  0.36154400  0.49811047  1.0
  C  C24  1  0.36286036  0.27645548  0.49772500  1.0
  C  C25  1  0.56415814  0.23606056  0.49821791  1.0
  C  C26  1  0.60412062  0.15675303  0.49906165  1.0
  C  C27  1  0.44248681  0.11566053  0.49936270  1.0
  C  C28  1  0.23997265  0.15676282  0.49891092  1.0
  C  C29  1  0.20145075  0.23604817  0.49806200  1.0
  C  C30  1  0.48265462  0.03489144  0.49989988  1.0
  C  C31  1  0.51738545  0.96512133  0.50010759  1.0
  C  C32  1  0.55754731  0.88434335  0.50063411  1.0
  C  C33  1  0.75998359  0.84324065  0.50110287  1.0
  C  C34  1  0.79844814  0.76393380  0.50194271  1.0
  C  C35  1  0.63708739  0.72354972  0.50226456  1.0
  C  C36  1  0.43576261  0.76397380  0.50174701  1.0
  C  C37  1  0.39582991  0.84326465  0.50090809  1.0
  C  C38  1  0.86286019  0.49773865  0.27644687  1.0
  C  C39  1  0.70149582  0.49821485  0.23604654  1.0
  C  C40  1  0.74005127  0.49903271  0.15674451  1.0
  C  C41  1  0.94252089  0.49931262  0.11565339  1.0
  C  C42  1  0.10432769  0.49888580  0.15677385  1.0
  C  C43  1  0.06434211  0.49807118  0.23606085  1.0
  C  C44  1  0.98260888  0.49981459  0.03489167  1.0
  C  C45  1  0.01741470  0.50002604  0.96512008  1.0
  C  C46  1  0.05749503  0.50058486  0.88434706  1.0
  C  C47  1  0.89564083  0.50107713  0.84323818  1.0
  C  C48  1  0.93554723  0.50194261  0.76395196  1.0
  C  C49  1  0.13705048  0.50225770  0.72355381  1.0
  C  C50  1  0.29844689  0.50172744  0.76394433  1.0
  C  C51  1  0.25995570  0.50087165  0.84325521  1.0
  O  O52  1  0.63335416  0.49880703  0.39465538  1.0
  O  O53  1  0.86654122  0.60536413  0.50115145  1.0
  O  O54  1  0.02694627  0.50104349  0.60536281  1.0
  O  O55  1  0.47298611  0.39465227  0.49888150  1.0
  O  O56  1  0.36653958  0.50118806  0.60535066  1.0
  O  O57  1  0.13336552  0.39464517  0.49883433  1.0
  O  O58  1  0.97294073  0.49897223  0.39464073  1.0
  O  O59  1  0.52692337  0.60534897  0.50112992  1.0
  O  O60  1  0.24994363  0.53363735  0.46637570  1.0
  O  O61  1  0.74997116  0.46636167  0.53363313  1.0
