# generated using pymatgen
data_ZnH22C26NO6
_symmetry_space_group_name_H-M   'P 1'
_cell_length_a   13.94441368
_cell_length_b   15.33680247
_cell_length_c   19.63389031
_cell_angle_alpha   89.49891251
_cell_angle_beta   89.98993135
_cell_angle_gamma   89.84299684
_symmetry_Int_Tables_number   1
_chemical_formula_structural   ZnH22C26NO6
_chemical_formula_sum   'Zn2 H44 C52 N2 O12'
_cell_volume   4198.78075794
_cell_formula_units_Z   2
loop_
 _symmetry_equiv_pos_site_id
 _symmetry_equiv_pos_as_xyz
  1  'x, y, z'
loop_
 _atom_site_type_symbol
 _atom_site_label
 _atom_site_symmetry_multiplicity
 _atom_site_fract_x
 _atom_site_fract_y
 _atom_site_fract_z
 _atom_site_occupancy
  Zn  Zn0  1  0.59989239  0.50006888  0.49987368  1.0
  Zn  Zn1  1  0.40149648  0.50014273  0.49999718  1.0
  H  H2  1  0.34423238  0.48317252  0.71621444  1.0
  H  H3  1  0.35796553  0.06193206  0.46495684  1.0
  H  H4  1  0.64918004  0.05765930  0.53810999  1.0
  H  H5  1  0.35811610  0.93901017  0.53651509  1.0
  H  H6  1  0.65003511  0.77910579  0.46317167  1.0
  H  H7  1  0.35968732  0.22460491  0.46717530  1.0
  H  H8  1  0.65066443  0.22020862  0.53706204  1.0
  H  H9  1  0.35932606  0.77633210  0.53362727  1.0
  H  H10  1  0.06852238  0.55415986  0.39788591  1.0
  H  H11  1  0.93320510  0.37685108  0.55441130  1.0
  H  H12  1  0.06877602  0.44570732  0.60201306  1.0
  H  H13  1  0.64881282  0.51080065  0.28587428  1.0
  H  H14  1  0.93258949  0.62338896  0.44566375  1.0
  H  H15  1  0.24887050  0.55188856  0.40260677  1.0
  H  H16  1  0.75302502  0.38220835  0.55153081  1.0
  H  H17  1  0.24910693  0.44833041  0.59739295  1.0
  H  H18  1  0.75240470  0.61812349  0.44856675  1.0
  H  H19  1  0.23736828  0.41510664  0.79301956  1.0
  H  H20  1  0.22873291  0.53125906  0.78710881  1.0
  H  H21  1  0.16566077  0.53708843  0.90675022  1.0
  H  H22  1  0.09223351  0.46825808  0.85594326  1.0
  H  H23  1  0.17618067  0.42180120  0.91444873  1.0
  H  H24  1  0.34310146  0.49145336  0.28386228  1.0
  H  H25  1  0.76685987  0.46678946  0.21611545  1.0
  H  H26  1  0.75486423  0.58270322  0.21109394  1.0
  H  H27  1  0.82038766  0.57978784  0.09088325  1.0
  H  H28  1  0.90349556  0.53387105  0.15024258  1.0
  H  H29  1  0.83379050  0.46459648  0.09722038  1.0
  H  H30  1  0.22652683  0.53692703  0.21152976  1.0
  H  H31  1  0.23852735  0.42093588  0.20884031  1.0
  H  H32  1  0.17718347  0.42296690  0.08752220  1.0
  H  H33  1  0.09202694  0.46936063  0.14452146  1.0
  H  H34  1  0.16372811  0.53818204  0.09149125  1.0
  H  H35  1  0.64836184  0.51663454  0.71390715  1.0
  H  H36  1  0.75587370  0.58544065  0.78879935  1.0
  H  H37  1  0.76570446  0.46952429  0.78350198  1.0
  H  H38  1  0.83291599  0.46283669  0.90203746  1.0
  H  H39  1  0.90355993  0.53320071  0.84950067  1.0
  H  H40  1  0.82114128  0.57792111  0.90928390  1.0
  H  H41  1  0.55736604  0.62951476  0.93552098  1.0
  H  H42  1  0.44034210  0.37095628  0.06450705  1.0
  H  H43  1  0.55714958  0.63025161  0.06185643  1.0
  H  H44  1  0.44033405  0.37024702  0.93818526  1.0
  H  H45  1  0.64904170  0.94165772  0.46269223  1.0
  C  C46  1  0.50591485  0.67048207  0.49827643  1.0
  C  C47  1  0.50360923  0.04814198  0.50121790  1.0
  C  C48  1  0.10541937  0.53093907  0.44350865  1.0
  C  C49  1  0.89622002  0.43203501  0.53082057  1.0
  C  C50  1  0.10557222  0.46905507  0.55642487  1.0
  C  C51  1  0.89587838  0.56817149  0.46918854  1.0
  C  C52  1  0.20498843  0.52972370  0.44537821  1.0
  C  C53  1  0.79663375  0.43418132  0.52945004  1.0
  C  C54  1  0.20512226  0.47044174  0.55461737  1.0
  C  C55  1  0.79630219  0.56607592  0.47056044  1.0
  C  C56  1  0.05363805  0.50000624  0.49996186  1.0
  C  C57  1  0.50633791  0.32970155  0.50165823  1.0
  C  C58  1  0.94792600  0.50006387  0.49998537  1.0
  C  C59  1  0.49508010  0.50091305  0.36678075  1.0
  C  C60  1  0.49541624  0.49978015  0.63306959  1.0
  C  C61  1  0.41020870  0.48996738  0.74507342  1.0
  C  C62  1  0.58334148  0.50745998  0.25601948  1.0
  C  C63  1  0.40938868  0.49567017  0.25495489  1.0
  C  C64  1  0.58328822  0.50923117  0.74382873  1.0
  C  C65  1  0.41140213  0.49031272  0.81624675  1.0
  C  C66  1  0.58376741  0.50804988  0.18478534  1.0
  C  C67  1  0.41079959  0.49503471  0.18376054  1.0
  C  C68  1  0.58646501  0.81507780  0.47899731  1.0
  C  C69  1  0.58374065  0.50872695  0.81504777  1.0
  C  C70  1  0.49803726  0.49952981  0.85260356  1.0
  C  C71  1  0.49779928  0.50135664  0.14737526  1.0
  C  C72  1  0.49632560  0.49965721  0.70932864  1.0
  C  C73  1  0.49593716  0.50144365  0.29055742  1.0
  C  C74  1  0.53184539  0.57260799  0.96378880  1.0
  C  C75  1  0.46591658  0.42783448  0.03620469  1.0
  C  C76  1  0.53175687  0.57303864  0.03469663  1.0
  C  C77  1  0.46595202  0.42741232  0.96530753  1.0
  C  C78  1  0.49863712  0.50072687  0.07192701  1.0
  C  C79  1  0.42254077  0.18699975  0.48264585  1.0
  C  C80  1  0.49877042  0.49983360  0.92803656  1.0
  C  C81  1  0.58579531  0.90571434  0.47949705  1.0
  C  C82  1  0.42182504  0.09632629  0.48207091  1.0
  C  C83  1  0.58598514  0.09399493  0.52132615  1.0
  C  C84  1  0.42179368  0.90424454  0.51913240  1.0
  C  C85  1  0.23949362  0.47594456  0.82277578  1.0
  C  C86  1  0.16390955  0.47576784  0.87833211  1.0
  C  C87  1  0.75557888  0.52231675  0.18076001  1.0
  C  C88  1  0.83286329  0.52529188  0.12646331  1.0
  C  C89  1  0.23897424  0.48104844  0.17739971  1.0
  C  C90  1  0.58691827  0.18463784  0.52148455  1.0
  C  C91  1  0.16349487  0.47773548  0.12186542  1.0
  C  C92  1  0.75546079  0.52429767  0.81899102  1.0
  C  C93  1  0.83283662  0.52454876  0.87326184  1.0
  C  C94  1  0.42223116  0.81356449  0.51819021  1.0
  C  C95  1  0.50475603  0.76805925  0.49835117  1.0
  C  C96  1  0.50527070  0.23210690  0.50206852  1.0
  C  C97  1  0.50357040  0.95200223  0.49992728  1.0
  N  N98  1  0.25371885  0.50015738  0.50002801  1.0
  N  N99  1  0.74777819  0.50011922  0.49997097  1.0
  O  O100  1  0.58617602  0.63323637  0.48670476  1.0
  O  O101  1  0.66565611  0.51310067  0.14637087  1.0
  O  O102  1  0.32991950  0.49003712  0.14430867  1.0
  O  O103  1  0.66544681  0.51535250  0.85341173  1.0
  O  O104  1  0.42707432  0.36837060  0.48986619  1.0
  O  O105  1  0.58649605  0.36692948  0.51295507  1.0
  O  O106  1  0.42679368  0.63184858  0.50995912  1.0
  O  O107  1  0.57468098  0.48762862  0.39704613  1.0
  O  O108  1  0.41528555  0.48538345  0.60380575  1.0
  O  O109  1  0.57458354  0.51421433  0.60260747  1.0
  O  O110  1  0.41454220  0.51369269  0.39605914  1.0
  O  O111  1  0.33059499  0.48360105  0.85571910  1.0
