# generated using pymatgen
data_Zn4H24C32O13
_symmetry_space_group_name_H-M   'P 1'
_cell_length_a   19.62234317
_cell_length_b   19.63227716
_cell_length_c   22.75024375
_cell_angle_alpha   115.43483663
_cell_angle_beta   115.55412025
_cell_angle_gamma   89.95326311
_symmetry_Int_Tables_number   1
_chemical_formula_structural   Zn4H24C32O13
_chemical_formula_sum   'Zn8 H48 C64 O26'
_cell_volume   6955.02527614
_cell_formula_units_Z   2
loop_
 _symmetry_equiv_pos_site_id
 _symmetry_equiv_pos_as_xyz
  1  'x, y, z'
loop_
 _atom_site_type_symbol
 _atom_site_label
 _atom_site_symmetry_multiplicity
 _atom_site_fract_x
 _atom_site_fract_y
 _atom_site_fract_z
 _atom_site_occupancy
  Zn  Zn0  1  0.88676535  0.46816543  0.43576945  1.0
  Zn  Zn1  1  0.46793858  0.88667626  0.43578317  1.0
  Zn  Zn2  1  0.03191076  0.45021046  0.56378396  1.0
  Zn  Zn3  1  0.45092978  0.03191207  0.56422996  1.0
  Zn  Zn4  1  0.03236250  0.61314423  0.56443748  1.0
  Zn  Zn5  1  0.61338335  0.03172735  0.56355159  1.0
  Zn  Zn6  1  0.04978336  0.46848333  0.43634507  1.0
  Zn  Zn7  1  0.46833915  0.04963674  0.43621918  1.0
  H  H8  1  0.62517465  0.16635136  0.93970615  1.0
  H  H9  1  0.16265160  0.63213671  0.94251155  1.0
  H  H10  1  0.10744483  0.87335903  0.95891968  1.0
  H  H11  1  0.19591345  0.87992818  0.95800821  1.0
  H  H12  1  0.89970086  0.04975710  0.84426218  1.0
  H  H13  1  0.96175104  0.07362784  0.93799497  1.0
  H  H14  1  0.91018073  0.97648636  0.87148388  1.0
  H  H15  1  0.84683399  0.04020578  0.95069549  1.0
  H  H16  1  0.78417070  0.01331188  0.85733110  1.0
  H  H17  1  0.80822883  0.14297799  0.87610207  1.0
  H  H18  1  0.88473387  0.17763156  0.96671690  1.0
  H  H19  1  0.01083324  0.13550465  0.16152045  1.0
  H  H20  1  0.24989499  0.68406294  0.06962401  1.0
  H  H21  1  0.02141566  0.23391148  0.22290711  1.0
  H  H22  1  0.99477621  0.15932880  0.23845884  1.0
  H  H23  1  0.87878564  0.20918027  0.18302193  1.0
  H  H24  1  0.86679283  0.11107585  0.12242286  1.0
  H  H25  1  0.90619329  0.14568152  0.04869512  1.0
  H  H26  1  0.92777791  0.24490962  0.10961632  1.0
  H  H27  1  0.13810243  0.00900567  0.16932794  1.0
  H  H28  1  0.09951374  0.00213073  0.08016106  1.0
  H  H29  1  0.03672297  0.97554748  0.10809816  1.0
  H  H30  1  0.06006436  0.85739206  0.02080249  1.0
  H  H31  1  0.68151953  0.24593137  0.06830491  1.0
  H  H32  1  0.09466822  0.86193279  0.10796501  1.0
  H  H33  1  0.22756884  0.90935557  0.14578941  1.0
  H  H34  1  0.20298485  0.92722554  0.07080632  1.0
  H  H35  1  0.01980723  0.89421174  0.85465521  1.0
  H  H36  1  0.10745198  0.92856721  0.86064616  1.0
  H  H37  1  0.03183891  0.85710740  0.77425494  1.0
  H  H38  1  0.13270820  0.79263150  0.82430672  1.0
  H  H39  1  0.04829897  0.76200032  0.82345829  1.0
  H  H40  1  0.76756682  0.16017230  0.05173046  1.0
  H  H41  1  0.16124983  0.76628764  0.05059305  1.0
  H  H42  1  0.09832294  0.73656954  0.93002339  1.0
  H  H43  1  0.72852573  0.10058454  0.93069128  1.0
  H  H44  1  0.81763754  0.38338351  0.07074910  1.0
  H  H45  1  0.38339115  0.82272197  0.07029673  1.0
  H  H46  1  0.32319375  0.73414912  0.94343993  1.0
  H  H47  1  0.73454548  0.32437300  0.94275549  1.0
  H  H48  1  0.88163212  0.32176537  0.05995155  1.0
  H  H49  1  0.31887995  0.88406127  0.05771764  1.0
  H  H50  1  0.27889895  0.80835343  0.93054074  1.0
  H  H51  1  0.80847854  0.27753479  0.93239212  1.0
  H  H52  1  0.69138843  0.33042119  0.06022074  1.0
  H  H53  1  0.33111568  0.69377232  0.05663103  1.0
  H  H54  1  0.24497253  0.61873950  0.92950044  1.0
  H  H55  1  0.61799942  0.25193759  0.93179085  1.0
  C  C56  1  0.10085686  0.59888434  0.70109523  1.0
  C  C57  1  0.60105689  0.09902303  0.70082175  1.0
  C  C58  1  0.68173106  0.81828435  0.50014205  1.0
  C  C59  1  0.18129563  0.31782128  0.49936197  1.0
  C  C60  1  0.31825057  0.18135220  0.49978034  1.0
  C  C61  1  0.81869472  0.68179269  0.50053956  1.0
  C  C62  1  0.90016870  0.39913818  0.29909105  1.0
  C  C63  1  0.22535543  0.27377339  0.49935918  1.0
  C  C64  1  0.27404951  0.22526218  0.49950901  1.0
  C  C65  1  0.77460576  0.72582694  0.50048126  1.0
  C  C66  1  0.72591858  0.77435312  0.50034588  1.0
  C  C67  1  0.39825234  0.90004745  0.29909454  1.0
  C  C68  1  0.87059469  0.62985344  0.50050726  1.0
  C  C69  1  0.62980797  0.87019870  0.49992258  1.0
  C  C70  1  0.12955282  0.36989907  0.49953341  1.0
  C  C71  1  0.37038507  0.12966768  0.49999816  1.0
  C  C72  1  0.12991375  0.63013343  0.50038045  1.0
  C  C73  1  0.62987828  0.12989383  0.49996070  1.0
  C  C74  1  0.87010079  0.37015768  0.49960457  1.0
  C  C75  1  0.37028993  0.87034797  0.50003592  1.0
  C  C76  1  0.81812046  0.31834119  0.49959597  1.0
  C  C77  1  0.31830088  0.81849167  0.50001050  1.0
  C  C78  1  0.77416748  0.27436741  0.49972903  1.0
  C  C79  1  0.80357630  0.19280251  0.04204671  1.0
  C  C80  1  0.27426891  0.77447093  0.50002686  1.0
  C  C81  1  0.72566468  0.22583445  0.49985626  1.0
  C  C82  1  0.22570474  0.72595657  0.50013040  1.0
  C  C83  1  0.19287557  0.80499605  0.04246978  1.0
  C  C84  1  0.68171907  0.18183883  0.49996249  1.0
  C  C85  1  0.18171529  0.68205212  0.50029599  1.0
  C  C86  1  0.15549591  0.77470134  0.95620748  1.0
  C  C87  1  0.70175448  0.27159448  0.04260324  1.0
  C  C88  1  0.27246848  0.70447246  0.04203695  1.0
  C  C89  1  0.21938483  0.66260126  0.95763941  1.0
  C  C90  1  0.65905424  0.22256481  0.95752307  1.0
  C  C91  1  0.76923408  0.15567945  0.95548673  1.0
  C  C92  1  0.88818354  0.18933389  0.08572044  1.0
  C  C93  1  0.90127121  0.16988975  0.14769102  1.0
  C  C94  1  0.98666034  0.17480784  0.19520071  1.0
  C  C95  1  0.18595328  0.88722650  0.08678942  1.0
  C  C96  1  0.10471182  0.89087222  0.07931830  1.0
  C  C97  1  0.09402163  0.97379048  0.11096248  1.0
  C  C98  1  0.14096590  0.83908041  0.93356859  1.0
  C  C99  1  0.09561772  0.81263841  0.85028997  1.0
  C  C100  1  0.06185991  0.87660779  0.83410197  1.0
  C  C101  1  0.82826465  0.13633715  0.92623347  1.0
  C  C102  1  0.83870170  0.05317259  0.90580711  1.0
  C  C103  1  0.90616129  0.03728593  0.88891155  1.0
  C  C104  1  0.64147941  0.13724467  0.78030644  1.0
  C  C105  1  0.13960702  0.63878322  0.78052988  1.0
  C  C106  1  0.35638455  0.86134458  0.21962089  1.0
  C  C107  1  0.86103236  0.35753263  0.21966533  1.0
  C  C108  1  0.79004616  0.27721406  0.07225695  1.0
  C  C109  1  0.27789399  0.79270168  0.07221137  1.0
  C  C110  1  0.20596327  0.72170617  0.92754642  1.0
  C  C111  1  0.71828528  0.20777688  0.92787861  1.0
  C  C112  1  0.77118607  0.28637763  0.95848784  1.0
  C  C113  1  0.28583526  0.77253870  0.95794005  1.0
  C  C114  1  0.32181497  0.82336561  0.04264227  1.0
  C  C115  1  0.82022920  0.32249946  0.04340098  1.0
  C  C116  1  0.67715007  0.16943480  0.84760494  1.0
  C  C117  1  0.16884715  0.67825902  0.84737968  1.0
  C  C118  1  0.31986393  0.83094900  0.15242360  1.0
  C  C119  1  0.82934071  0.31940136  0.15252069  1.0
  O  O120  1  0.00009085  0.50005235  0.50006398  1.0
  O  O121  1  0.52694743  0.08425346  0.66949857  1.0
  O  O122  1  0.41484906  0.97409956  0.33103530  1.0
  O  O123  1  0.08538117  0.64165225  0.66958113  1.0
  O  O124  1  0.64329528  0.08333188  0.66888104  1.0
  O  O125  1  0.97434135  0.41509573  0.33098380  1.0
  O  O126  1  0.85743306  0.41599296  0.33048700  1.0
  O  O127  1  0.41483786  0.85718396  0.33040346  1.0
  O  O128  1  0.08504196  0.52487651  0.66923617  1.0
  O  O129  1  0.50002822  0.99984592  0.49993621  1.0
  O  O130  1  0.94229815  0.66115799  0.54581093  1.0
  O  O131  1  0.66138245  0.94183601  0.54456704  1.0
  O  O132  1  0.11657394  0.39724352  0.45497499  1.0
  O  O133  1  0.39728510  0.11646416  0.45513046  1.0
  O  O134  1  0.10291326  0.66144924  0.54519888  1.0
  O  O135  1  0.66143331  0.10287955  0.54481648  1.0
  O  O136  1  0.11673109  0.55849704  0.45558976  1.0
  O  O137  1  0.55809946  0.11659375  0.45508677  1.0
  O  O138  1  0.94180783  0.38341639  0.54461156  1.0
  O  O139  1  0.38375811  0.94197924  0.54497821  1.0
  O  O140  1  0.83872481  0.39706572  0.45462855  1.0
  O  O141  1  0.39713692  0.83890228  0.45511855  1.0
  O  O142  1  0.83913484  0.55832719  0.45520614  1.0
  O  O143  1  0.55805129  0.83883292  0.45513676  1.0
  O  O144  1  0.10246709  0.38295174  0.54422879  1.0
  O  O145  1  0.38389152  0.10280867  0.54498134  1.0
