# generated using pymatgen
data_Co3H46C66(N10O7)2
_symmetry_space_group_name_H-M   'P 1'
_cell_length_a   10.00755106
_cell_length_b   17.78079691
_cell_length_c   17.94657723
_cell_angle_alpha   67.13951624
_cell_angle_beta   75.13650738
_cell_angle_gamma   81.38917386
_symmetry_Int_Tables_number   1
_chemical_formula_structural   Co3H46C66(N10O7)2
_chemical_formula_sum   'Co3 H46 C66 N20 O14'
_cell_volume   2839.66085162
_cell_formula_units_Z   1
loop_
 _symmetry_equiv_pos_site_id
 _symmetry_equiv_pos_as_xyz
  1  'x, y, z'
loop_
 _atom_site_type_symbol
 _atom_site_label
 _atom_site_symmetry_multiplicity
 _atom_site_fract_x
 _atom_site_fract_y
 _atom_site_fract_z
 _atom_site_occupancy
  Co  Co0  1  0.70157907  0.43296598  0.48495427  1.0
  Co  Co1  1  0.29842734  0.56705007  0.51504233  1.0
  Co  Co2  1  0.50000972  0.99999558  0.50000243  1.0
  H  H3  1  0.06616027  0.23095013  0.45704251  1.0
  H  H4  1  0.46525683  0.24864214  0.49573774  1.0
  H  H5  1  0.13364484  0.42519938  0.52837010  1.0
  H  H6  1  0.76941721  0.55813823  0.28090957  1.0
  H  H7  1  0.67871186  0.31117609  0.39485795  1.0
  H  H8  1  0.80942606  0.39881179  0.12293775  1.0
  H  H9  1  0.85198482  0.46912576  0.96962518  1.0
  H  H10  1  0.74718411  0.70147007  0.99906556  1.0
  H  H11  1  0.70363843  0.63132411  0.15132046  1.0
  H  H12  1  0.82508780  0.73730617  0.73372314  1.0
  H  H13  1  0.97571993  0.85135420  0.65375144  1.0
  H  H14  1  0.15857875  0.79831423  0.86297289  1.0
  H  H15  1  0.00714757  0.68213942  0.94442785  1.0
  H  H16  1  0.25292769  0.86338009  0.59343033  1.0
  H  H17  1  0.35979997  0.03423555  0.67363093  1.0
  H  H18  1  0.99957949  0.59507078  0.75929416  1.0
  H  H19  1  0.94150180  0.52167733  0.68101640  1.0
  H  H20  1  0.52718763  0.49539652  0.83364549  1.0
  H  H21  1  0.58697182  0.57027893  0.91160474  1.0
  H  H22  1  0.86299976  0.48441948  0.59904139  1.0
  H  H23  1  0.48104347  0.37876815  0.66639870  1.0
  H  H24  1  0.31719992  0.04982315  0.41631529  1.0
  H  H25  1  0.31247651  0.95223688  0.44238172  1.0
  H  H26  1  0.93385489  0.76903780  0.54295805  1.0
  H  H27  1  0.53475037  0.75134273  0.50427517  1.0
  H  H28  1  0.86637091  0.57479343  0.47163073  1.0
  H  H29  1  0.23058308  0.44186560  0.71909371  1.0
  H  H30  1  0.32126727  0.68881006  0.60514682  1.0
  H  H31  1  0.19057866  0.60118838  0.87705627  1.0
  H  H32  1  0.14802149  0.53087990  0.03037208  1.0
  H  H33  1  0.25281862  0.29852948  0.00093400  1.0
  H  H34  1  0.29636119  0.36867546  0.84867731  1.0
  H  H35  1  0.17491595  0.26269339  0.26627404  1.0
  H  H36  1  0.02428394  0.14864414  0.34624619  1.0
  H  H37  1  0.84142385  0.20168656  0.13702343  1.0
  H  H38  1  0.99285183  0.31786259  0.05557069  1.0
  H  H39  1  0.74708435  0.13661945  0.40656845  1.0
  H  H40  1  0.64019742  0.96576584  0.32636814  1.0
  H  H41  1  0.00041819  0.40492756  0.24070827  1.0
  H  H42  1  0.05850414  0.47832100  0.31898427  1.0
  H  H43  1  0.47281190  0.50460426  0.16635573  1.0
  H  H44  1  0.41302988  0.42972063  0.08839553  1.0
  H  H45  1  0.13701988  0.51557579  0.40095180  1.0
  H  H46  1  0.51893429  0.62123268  0.33359561  1.0
  H  H47  1  0.68280277  0.95017701  0.58368794  1.0
  H  H48  1  0.68753135  0.04776328  0.55762133  1.0
  C  C49  1  0.94222335  0.36779559  0.48664315  1.0
  C  C50  1  0.08524357  0.33208877  0.49155280  1.0
  C  C51  1  0.13402307  0.26211689  0.47303377  1.0
  C  C52  1  0.27100582  0.23175518  0.47479320  1.0
  C  C53  1  0.35869275  0.27214945  0.49456269  1.0
  C  C54  1  0.31026906  0.34234190  0.51309504  1.0
  C  C55  1  0.17260008  0.37136790  0.51272966  1.0
  C  C56  1  0.32218424  0.15551003  0.45657063  1.0
  C  C57  1  0.40566395  0.38927683  0.52832510  1.0
  C  C58  1  0.74625691  0.49663917  0.29200331  1.0
  C  C59  1  0.70171011  0.37091066  0.34760867  1.0
  C  C60  1  0.75880023  0.51072028  0.14591299  1.0
  C  C61  1  0.79643710  0.46499847  0.09483008  1.0
  C  C62  1  0.81969332  0.50457702  0.00953974  1.0
  C  C63  1  0.80469998  0.59023589  0.97366596  1.0
  C  C64  1  0.76322011  0.63526427  0.02590295  1.0
  C  C65  1  0.74051649  0.59593175  0.11154846  1.0
  C  C66  1  0.90876641  0.69890869  0.84414555  1.0
  C  C67  1  0.89939238  0.74887694  0.76242902  1.0
  C  C68  1  0.98554175  0.81327425  0.71679518  1.0
  C  C69  1  0.08078144  0.82948909  0.75284753  1.0
  C  C70  1  0.08537904  0.78387240  0.83549932  1.0
  C  C71  1  0.00017459  0.71897928  0.88076697  1.0
  C  C72  1  0.25556921  0.90142398  0.62771250  1.0
  C  C73  1  0.30834983  0.98580558  0.67159678  1.0
  C  C74  1  0.79736898  0.58725570  0.84075126  1.0
  C  C75  1  0.89637997  0.57281256  0.77588245  1.0
  C  C76  1  0.86342629  0.53141799  0.73189107  1.0
  C  C77  1  0.73012826  0.50341095  0.75338617  1.0
  C  C78  1  0.63071017  0.51662706  0.81852393  1.0
  C  C79  1  0.66452576  0.55870151  0.86159058  1.0
  C  C80  1  0.76150869  0.46113802  0.63217295  1.0
  C  C81  1  0.56705874  0.40766732  0.66858554  1.0
  C  C82  1  0.05778792  0.63221251  0.51335469  1.0
  C  C83  1  0.91475229  0.66791813  0.50844660  1.0
  C  C84  1  0.86595713  0.73789187  0.52696885  1.0
  C  C85  1  0.72897790  0.76824929  0.52521614  1.0
  C  C86  1  0.64131339  0.72784703  0.50544536  1.0
  C  C87  1  0.68973115  0.65766255  0.48690244  1.0
  C  C88  1  0.82740567  0.62863227  0.48726365  1.0
  C  C89  1  0.67780633  0.84448709  0.54343719  1.0
  C  C90  1  0.59431483  0.61072519  0.47168923  1.0
  C  C91  1  0.25374193  0.50335735  0.70799129  1.0
  C  C92  1  0.29827345  0.62908343  0.65238906  1.0
  C  C93  1  0.24119927  0.48928051  0.85408266  1.0
  C  C94  1  0.20356563  0.53500109  0.90516948  1.0
  C  C95  1  0.18031655  0.49542374  0.99046055  1.0
  C  C96  1  0.19530275  0.40976367  0.02633304  1.0
  C  C97  1  0.23678268  0.36473468  0.97409739  1.0
  C  C98  1  0.25948417  0.40406781  0.88845140  1.0
  C  C99  1  0.09122896  0.30109211  0.15585404  1.0
  C  C100  1  0.10060725  0.25112263  0.23757098  1.0
  C  C101  1  0.01445776  0.18672654  0.28320382  1.0
  C  C102  1  0.91921899  0.17051291  0.24715086  1.0
  C  C103  1  0.91462162  0.21612717  0.16449886  1.0
  C  C104  1  0.99982394  0.28102089  0.11923240  1.0
  C  C105  1  0.74443667  0.09857496  0.37228516  1.0
  C  C106  1  0.69165278  0.01419520  0.32840176  1.0
  C  C107  1  0.20262720  0.41274753  0.15924560  1.0
  C  C108  1  0.10361655  0.42718701  0.22411633  1.0
  C  C109  1  0.13657252  0.46857913  0.26810887  1.0
  C  C110  1  0.26987035  0.49658861  0.24661677  1.0
  C  C111  1  0.36929060  0.48337128  0.18147694  1.0
  C  C112  1  0.33547260  0.44130051  0.13840644  1.0
  C  C113  1  0.23848740  0.53886643  0.36782959  1.0
  C  C114  1  0.43293103  0.59233836  0.33141521  1.0
  N  N115  1  0.72209570  0.43589604  0.36541529  1.0
  N  N116  1  0.73946336  0.46899843  0.23260770  1.0
  N  N117  1  0.71146374  0.38799250  0.26772644  1.0
  N  N118  1  0.83063426  0.62902354  0.88653417  1.0
  N  N119  1  0.17747990  0.89034326  0.70444304  1.0
  N  N120  1  0.21112668  0.94372696  0.73375851  1.0
  N  N121  1  0.33907539  0.96180547  0.60503845  1.0
  N  N122  1  0.68263160  0.42659311  0.60602568  1.0
  N  N123  1  0.69335701  0.46408157  0.70695425  1.0
  N  N124  1  0.56836302  0.42957248  0.73097591  1.0
  N  N125  1  0.27789174  0.56410109  0.63458796  1.0
  N  N126  1  0.26053678  0.53099503  0.76738566  1.0
  N  N127  1  0.28852785  0.61200403  0.73226530  1.0
  N  N128  1  0.16936318  0.37097725  0.11346345  1.0
  N  N129  1  0.82252162  0.10965813  0.29555487  1.0
  N  N130  1  0.78887490  0.05627383  0.26623963  1.0
  N  N131  1  0.66093262  0.03819286  0.39496137  1.0
  N  N132  1  0.31737181  0.57341012  0.39396903  1.0
  N  N133  1  0.30663317  0.53591983  0.29305198  1.0
  N  N134  1  0.43162579  0.57043259  0.26902855  1.0
  O  O135  1  0.84174296  0.32283591  0.50654160  1.0
  O  O136  1  0.92264218  0.44618961  0.46175019  1.0
  O  O137  1  0.25019630  0.13043957  0.42274800  1.0
  O  O138  1  0.43564603  0.12059404  0.47764449  1.0
  O  O139  1  0.35460388  0.44846820  0.55279833  1.0
  O  O140  1  0.53389549  0.36750925  0.51619790  1.0
  O  O141  1  0.37631140  0.99582683  0.41952505  1.0
  O  O142  1  0.15828213  0.67716790  0.49345422  1.0
  O  O143  1  0.07739271  0.55381970  0.53823318  1.0
  O  O144  1  0.74981319  0.86955387  0.57725238  1.0
  O  O145  1  0.56435452  0.87940674  0.52235492  1.0
  O  O146  1  0.64537114  0.55154115  0.44721540  1.0
  O  O147  1  0.46605135  0.63247998  0.48382204  1.0
  O  O148  1  0.62369761  0.00417210  0.58047830  1.0
