# generated using pymatgen
data_CuH6(C3N)3
_symmetry_space_group_name_H-M   'P 1'
_cell_length_a   29.87812103
_cell_length_b   34.08902330
_cell_length_c   34.40774161
_cell_angle_alpha   96.78375370
_cell_angle_beta   90.99873569
_cell_angle_gamma   90.06186472
_symmetry_Int_Tables_number   1
_chemical_formula_structural   CuH6(C3N)3
_chemical_formula_sum   'Cu12 H72 C108 N36'
_cell_volume   34794.02609736
_cell_formula_units_Z   12
loop_
 _symmetry_equiv_pos_site_id
 _symmetry_equiv_pos_as_xyz
  1  'x, y, z'
loop_
 _atom_site_type_symbol
 _atom_site_label
 _atom_site_symmetry_multiplicity
 _atom_site_fract_x
 _atom_site_fract_y
 _atom_site_fract_z
 _atom_site_occupancy
  Cu  Cu0  1  0.87803544  0.82771737  0.07917334  1.0
  Cu  Cu1  1  0.85910368  0.91625631  0.10299166  1.0
  Cu  Cu2  1  0.90995544  0.86439205  0.16238621  1.0
  Cu  Cu3  1  0.11804958  0.34950366  0.40671278  1.0
  Cu  Cu4  1  0.14067780  0.43526547  0.38995247  1.0
  Cu  Cu5  1  0.09436564  0.37400268  0.32377840  1.0
  Cu  Cu6  1  0.37198957  0.67315595  0.92116428  1.0
  Cu  Cu7  1  0.34209074  0.58731091  0.88711441  1.0
  Cu  Cu8  1  0.39068049  0.64436176  0.83396062  1.0
  Cu  Cu9  1  0.62672821  0.15138261  0.59559854  1.0
  Cu  Cu10  1  0.66012629  0.07134808  0.62245627  1.0
  Cu  Cu11  1  0.61483341  0.13680856  0.68285630  1.0
  H  H12  1  0.27890389  0.42832379  0.59219978  1.0
  H  H13  1  0.33213958  0.32151362  0.53602208  1.0
  H  H14  1  0.41360074  0.28191744  0.57398376  1.0
  H  H15  1  0.45865544  0.32685151  0.68823111  1.0
  H  H16  1  0.41376631  0.40057595  0.73215052  1.0
  H  H17  1  0.31630985  0.46369093  0.67385006  1.0
  H  H18  1  0.72437107  0.94354376  0.89959990  1.0
  H  H19  1  0.66606167  0.84439997  0.94318489  1.0
  H  H20  1  0.58547521  0.80203503  0.90096695  1.0
  H  H21  1  0.53699456  0.83602626  0.79333881  1.0
  H  H22  1  0.58241272  0.90652320  0.75840067  1.0
  H  H23  1  0.68600046  0.97194335  0.82234278  1.0
  H  H24  1  0.78883350  0.06392534  0.41757359  1.0
  H  H25  1  0.82797503  0.18083982  0.46079540  1.0
  H  H26  1  0.90630674  0.22092432  0.42148317  1.0
  H  H27  1  0.96010691  0.16546307  0.31570129  1.0
  H  H28  1  0.92522578  0.08272794  0.28020997  1.0
  H  H29  1  0.83326094  0.02106731  0.34337800  1.0
  H  H30  1  0.21410726  0.54514225  0.08690452  1.0
  H  H31  1  0.16629952  0.65430493  0.05523124  1.0
  H  H32  1  0.09059356  0.69786522  0.10021999  1.0
  H  H33  1  0.03621268  0.65363740  0.19946853  1.0
  H  H34  1  0.07332241  0.57485547  0.22572202  1.0
  H  H35  1  0.17149696  0.50971322  0.15814289  1.0
  H  H36  1  0.80306652  0.80700944  0.01262147  1.0
  H  H37  1  0.79047754  0.93434855  0.03431267  1.0
  H  H38  1  0.97774077  0.79689678  0.18523702  1.0
  H  H39  1  0.94598091  0.75679298  0.06364629  1.0
  H  H40  1  0.86766268  0.00066340  0.15155744  1.0
  H  H41  1  0.91014527  0.92643177  0.23911889  1.0
  H  H42  1  0.18549748  0.34039941  0.47784806  1.0
  H  H43  1  0.20690178  0.46322271  0.46211772  1.0
  H  H44  1  0.03323923  0.30046427  0.28843509  1.0
  H  H45  1  0.05133465  0.27711272  0.40876587  1.0
  H  H46  1  0.13322192  0.51356800  0.34865015  1.0
  H  H47  1  0.09556084  0.42539915  0.25243991  1.0
  H  H48  1  0.30574348  0.68929116  0.99212710  1.0
  H  H49  1  0.27709790  0.56588670  0.95435208  1.0
  H  H50  1  0.46037203  0.70958914  0.81356372  1.0
  H  H51  1  0.44506215  0.74186091  0.93830055  1.0
  H  H52  1  0.33985197  0.50792358  0.82769482  1.0
  H  H53  1  0.37944167  0.59351473  0.75109848  1.0
  H  H54  1  0.68687636  0.15592110  0.52106553  1.0
  H  H55  1  0.72330693  0.04020330  0.55132871  1.0
  H  H56  1  0.54973282  0.20799835  0.71258211  1.0
  H  H57  1  0.55335670  0.21816913  0.58832132  1.0
  H  H58  1  0.66197296  0.99960340  0.67441897  1.0
  H  H59  1  0.62736544  0.09699836  0.76113487  1.0
  H  H60  1  0.75361622  0.92603957  0.96254093  1.0
  H  H61  1  0.73263279  0.83876991  0.97130792  1.0
  H  H62  1  0.26577625  0.34662572  0.50682330  1.0
  H  H63  1  0.25070903  0.43586070  0.53049524  1.0
  H  H64  1  0.24432587  0.56779716  0.02705644  1.0
  H  H65  1  0.23320656  0.65815540  0.02924808  1.0
  H  H66  1  0.76554488  0.15356758  0.49205191  1.0
  H  H67  1  0.76096817  0.06235347  0.47924255  1.0
  H  H68  1  0.00864272  0.71921472  0.18288687  1.0
  H  H69  1  0.02161866  0.72135012  0.09428585  1.0
  H  H70  1  0.47700556  0.25011724  0.59900343  1.0
  H  H71  1  0.49778187  0.27106258  0.68737851  1.0
  H  H72  1  0.96973228  0.25188628  0.39750486  1.0
  H  H73  1  0.99204517  0.22671690  0.31076451  1.0
  H  H74  1  0.50370234  0.77632462  0.81599011  1.0
  H  H75  1  0.51544706  0.78027720  0.90579445  1.0
  H  H76  1  0.86939962  0.98371600  0.28626394  1.0
  H  H77  1  0.89364768  0.04163052  0.22725660  1.0
  H  H78  1  0.37756785  0.45813777  0.77032446  1.0
  H  H79  1  0.35138398  0.51742673  0.71261249  1.0
  H  H80  1  0.62001899  0.95902829  0.72661785  1.0
  H  H81  1  0.65375486  0.02357835  0.79109905  1.0
  H  H82  1  0.13505876  0.47755582  0.21098466  1.0
  H  H83  1  0.10789212  0.54336610  0.27578992  1.0
  C  C84  1  0.33480027  0.39142770  0.61309897  1.0
  C  C85  1  0.35107214  0.40706881  0.65150819  1.0
  C  C86  1  0.38428793  0.38534019  0.67151162  1.0
  C  C87  1  0.40346907  0.34977161  0.65194921  1.0
  C  C88  1  0.38813174  0.33471846  0.61282679  1.0
  C  C89  1  0.35283557  0.35469987  0.59409219  1.0
  C  C90  1  0.30165550  0.40351804  0.58851047  1.0
  C  C91  1  0.32949180  0.34591079  0.55913023  1.0
  C  C92  1  0.41375032  0.30189118  0.60096792  1.0
  C  C93  1  0.43755166  0.32528721  0.66220032  1.0
  C  C94  1  0.39139990  0.40592433  0.70820461  1.0
  C  C95  1  0.34033230  0.44037832  0.67667830  1.0
  C  C96  1  0.66657056  0.90582869  0.87398938  1.0
  C  C97  1  0.64930543  0.91844132  0.83809950  1.0
  C  C98  1  0.61405302  0.89585487  0.81611776  1.0
  C  C99  1  0.59394009  0.86264464  0.83156920  1.0
  C  C100  1  0.60992152  0.85121925  0.86858902  1.0
  C  C101  1  0.64717341  0.87168274  0.88885756  1.0
  C  C102  1  0.70067241  0.91947042  0.89984861  1.0
  C  C103  1  0.67055742  0.86586610  0.92275537  1.0
  C  C104  1  0.58378632  0.81985149  0.87694574  1.0
  C  C105  1  0.55904836  0.83735473  0.81883364  1.0
  C  C106  1  0.60622137  0.91338168  0.78240229  1.0
  C  C107  1  0.66053775  0.94919544  0.81711141  1.0
  C  C108  1  0.84065121  0.10221631  0.39381465  1.0
  C  C109  1  0.85964771  0.08308647  0.35831255  1.0
  C  C110  1  0.89098017  0.10421590  0.33653903  1.0
  C  C111  1  0.90571587  0.14333642  0.35200699  1.0
  C  C112  1  0.88743130  0.16212483  0.38831210  1.0
  C  C113  1  0.85381091  0.14228584  0.40829632  1.0
  C  C114  1  0.80841377  0.09079745  0.41869770  1.0
  C  C115  1  0.82863643  0.15361406  0.44101590  1.0
  C  C116  1  0.90934021  0.19783501  0.39713481  1.0
  C  C117  1  0.93768372  0.16875113  0.34024101  1.0
  C  C118  1  0.90211674  0.07915958  0.30345286  1.0
  C  C119  1  0.85399504  0.04589404  0.33792529  1.0
  C  C120  1  0.16014416  0.58418778  0.11548340  1.0
  C  C121  1  0.14139563  0.56855351  0.14882738  1.0
  C  C122  1  0.10803717  0.59096751  0.17221851  1.0
  C  C123  1  0.09123790  0.62753788  0.16052761  1.0
  C  C124  1  0.10917796  0.64253239  0.12629048  1.0
  C  C125  1  0.14450637  0.62175813  0.10479897  1.0
  C  C126  1  0.19293551  0.57110243  0.08914916  1.0
  C  C127  1  0.16860529  0.62998848  0.07275059  1.0
  C  C128  1  0.08658393  0.67704246  0.12137041  1.0
  C  C129  1  0.05870969  0.65393235  0.17511633  1.0
  C  C130  1  0.09752327  0.56952945  0.20262383  1.0
  C  C131  1  0.14885736  0.53418028  0.16565833  1.0
  C  C132  1  0.80553974  0.83833933  0.02276422  1.0
  C  C133  1  0.78217100  0.87021001  0.00968323  1.0
  C  C134  1  0.79955336  0.90344281  0.03333470  1.0
  C  C135  1  0.96410277  0.79155816  0.15564633  1.0
  C  C136  1  0.97594919  0.76288467  0.12473071  1.0
  C  C137  1  0.94838218  0.77156981  0.09334495  1.0
  C  C138  1  0.87789577  0.97702914  0.16830287  1.0
  C  C139  1  0.88867596  0.97847938  0.20838203  1.0
  C  C140  1  0.89865807  0.93899652  0.21317905  1.0
  C  C141  1  0.18620057  0.36964123  0.46835072  1.0
  C  C142  1  0.21131057  0.40316498  0.48336407  1.0
  C  C143  1  0.19654164  0.43255615  0.46076514  1.0
  C  C144  1  0.04258509  0.30003851  0.31900964  1.0
  C  C145  1  0.02767326  0.27509518  0.34589670  1.0
  C  C146  1  0.05119724  0.28865258  0.38068361  1.0
  C  C147  1  0.12420769  0.48714595  0.32929489  1.0
  C  C148  1  0.11463868  0.48266126  0.28884524  1.0
  C  C149  1  0.10585967  0.44200681  0.28001230  1.0
  C  C150  1  0.30402182  0.65910703  0.97798896  1.0
  C  C151  1  0.27767463  0.62739745  0.98717465  1.0
  C  C152  1  0.28980973  0.59592731  0.95915222  1.0
  C  C153  1  0.45071401  0.71322857  0.84402610  1.0
  C  C154  1  0.46759151  0.73917737  0.87577703  1.0
  C  C155  1  0.44318014  0.72926406  0.90782029  1.0
  C  C156  1  0.35082340  0.53353004  0.81439063  1.0
  C  C157  1  0.35909708  0.53729028  0.77486533  1.0
  C  C158  1  0.37014371  0.57743009  0.77517302  1.0
  C  C159  1  0.69152044  0.12869778  0.53408806  1.0
  C  C160  1  0.71940863  0.09632614  0.52257081  1.0
  C  C161  1  0.70953363  0.06933215  0.54914134  1.0
  C  C162  1  0.55588665  0.20545368  0.68138764  1.0
  C  C163  1  0.53607832  0.22603102  0.65248167  1.0
  C  C164  1  0.55718328  0.21028843  0.61785015  1.0
  C  C165  1  0.65222927  0.02744421  0.69064668  1.0
  C  C166  1  0.64474331  0.03666007  0.73094759  1.0
  C  C167  1  0.63549949  0.07735101  0.73506764  1.0
  C  C168  1  0.73669357  0.89744212  0.95819463  1.0
  C  C169  1  0.74855168  0.86760157  0.97871767  1.0
  C  C170  1  0.26868090  0.37549094  0.52417516  1.0
  C  C171  1  0.24480240  0.40661893  0.51456856  1.0
  C  C172  1  0.23087208  0.59737011  0.03483901  1.0
  C  C173  1  0.24562267  0.62885328  0.01832535  1.0
  C  C174  1  0.77162521  0.12357397  0.47831995  1.0
  C  C175  1  0.75183777  0.09221506  0.49152717  1.0
  C  C176  1  0.02278039  0.71298243  0.15378228  1.0
  C  C177  1  0.00852165  0.73136557  0.12321551  1.0
  C  C178  1  0.47529620  0.26604688  0.62836230  1.0
  C  C179  1  0.50186167  0.25615515  0.65778556  1.0
  C  C180  1  0.96911200  0.23378410  0.36913026  1.0
  C  C181  1  0.99512191  0.24319813  0.33989974  1.0
  C  C182  1  0.51780231  0.78432987  0.84532337  1.0
  C  C183  1  0.50197400  0.76914403  0.87687952  1.0
  C  C184  1  0.87894702  0.01136449  0.27552426  1.0
  C  C185  1  0.88794321  0.01291063  0.23744756  1.0
  C  C186  1  0.36692703  0.46889882  0.74299015  1.0
  C  C187  1  0.35816220  0.50743966  0.74115884  1.0
  C  C188  1  0.63283851  0.97224509  0.75509016  1.0
  C  C189  1  0.64482976  0.01066111  0.76139626  1.0
  C  C190  1  0.12426788  0.50651998  0.22447757  1.0
  C  C191  1  0.11479543  0.51319166  0.26289096  1.0
  N  N192  1  0.29845028  0.37567737  0.55581421  1.0
  N  N193  1  0.44378776  0.29626506  0.63107167  1.0
  N  N194  1  0.36489820  0.43950517  0.71107831  1.0
  N  N195  1  0.70316872  0.89487308  0.92925819  1.0
  N  N196  1  0.55279264  0.81161577  0.84672413  1.0
  N  N197  1  0.63432117  0.94595705  0.78326816  1.0
  N  N198  1  0.80114583  0.12217701  0.44730140  1.0
  N  N199  1  0.93992931  0.20175710  0.36788048  1.0
  N  N200  1  0.87959063  0.04376574  0.30445268  1.0
  N  N201  1  0.19811677  0.59920268  0.06339329  1.0
  N  N202  1  0.05576377  0.68378364  0.15096519  1.0
  N  N203  1  0.12239540  0.53506529  0.19852897  1.0
  N  N204  1  0.83100955  0.89205005  0.05824250  1.0
  N  N205  1  0.83481372  0.85167096  0.05155678  1.0
  N  N206  1  0.92193336  0.80257613  0.10487525  1.0
  N  N207  1  0.93181632  0.81521839  0.14348212  1.0
  N  N208  1  0.89376713  0.91593541  0.17868917  1.0
  N  N209  1  0.88065073  0.93956627  0.15081742  1.0
  N  N210  1  0.16552253  0.41749160  0.43410328  1.0
  N  N211  1  0.15905832  0.37846903  0.43892488  1.0
  N  N212  1  0.07756831  0.31947104  0.37492885  1.0
  N  N213  1  0.07212730  0.32671811  0.33669041  1.0
  N  N214  1  0.11025913  0.42380768  0.31262743  1.0
  N  N215  1  0.12186503  0.45184283  0.34322280  1.0
  N  N216  1  0.32108505  0.60811767  0.93536390  1.0
  N  N217  1  0.32999432  0.64729648  0.94720044  1.0
  N  N218  1  0.41391343  0.69999361  0.89593823  1.0
  N  N219  1  0.41865365  0.68998315  0.85637568  1.0
  N  N220  1  0.36907791  0.59590109  0.81203118  1.0
  N  N221  1  0.35684904  0.56867176  0.83638977  1.0
  N  N222  1  0.67872138  0.08478105  0.57480826  1.0
  N  N223  1  0.66748053  0.12158964  0.56532158  1.0
  N  N224  1  0.58682377  0.18235648  0.62569003  1.0
  N  N225  1  0.58599296  0.17925045  0.66510938  1.0
  N  N226  1  0.63668831  0.09106389  0.69988839  1.0
  N  N227  1  0.64732021  0.06009102  0.67230290  1.0
