# generated using pymatgen
data_ZnH17C27NO4
_symmetry_space_group_name_H-M   'P 1'
_cell_length_a   9.65471161
_cell_length_b   11.40861171
_cell_length_c   15.86933977
_cell_angle_alpha   89.96334371
_cell_angle_beta   77.22018108
_cell_angle_gamma   72.77667315
_symmetry_Int_Tables_number   1
_chemical_formula_structural   ZnH17C27NO4
_chemical_formula_sum   'Zn2 H34 C54 N2 O8'
_cell_volume   1624.26425679
_cell_formula_units_Z   2
loop_
 _symmetry_equiv_pos_site_id
 _symmetry_equiv_pos_as_xyz
  1  'x, y, z'
loop_
 _atom_site_type_symbol
 _atom_site_label
 _atom_site_symmetry_multiplicity
 _atom_site_fract_x
 _atom_site_fract_y
 _atom_site_fract_z
 _atom_site_occupancy
  Zn  Zn0  1  0.16187081  0.96910950  0.97782596  1.0
  Zn  Zn1  1  0.83813957  0.03088648  0.02217718  1.0
  H  H2  1  0.19329479  0.27824490  0.13851034  1.0
  H  H3  1  0.18763993  0.40331333  0.26759000  1.0
  H  H4  1  0.78373616  0.33251613  0.40129536  1.0
  H  H5  1  0.78659691  0.21287370  0.26944085  1.0
  H  H6  1  0.05653288  0.69773912  0.49544577  1.0
  H  H7  1  0.37629306  0.11019037  0.97851555  1.0
  H  H8  1  0.60850336  0.12826614  0.87868052  1.0
  H  H9  1  0.80560205  0.05500790  0.74770006  1.0
  H  H10  1  0.60820371  0.81550625  0.72486638  1.0
  H  H11  1  0.38360363  0.80595883  0.83443372  1.0
  H  H12  1  0.26703191  0.61040065  0.32459788  1.0
  H  H13  1  0.81335700  0.77795732  0.21017932  1.0
  H  H14  1  0.80392140  0.65357642  0.33984957  1.0
  H  H15  1  0.27854645  0.72500975  0.19061848  1.0
  H  H16  1  0.71782097  0.90056344  0.62106963  1.0
  H  H17  1  0.82227871  0.89318008  0.47442595  1.0
  H  H18  1  0.99829061  0.06790220  0.64953879  1.0
  H  H19  1  0.80669407  0.72176435  0.86149330  1.0
  H  H20  1  0.81234555  0.59669050  0.73241980  1.0
  H  H21  1  0.21625539  0.66746933  0.59870668  1.0
  H  H22  1  0.21340481  0.78711610  0.73055723  1.0
  H  H23  1  0.94345154  0.30226111  0.50455599  1.0
  H  H24  1  0.62370832  0.88981587  0.02147687  1.0
  H  H25  1  0.39150863  0.87172799  0.12131798  1.0
  H  H26  1  0.19441443  0.94498886  0.25230158  1.0
  H  H27  1  0.39179958  0.18449447  0.27512831  1.0
  H  H28  1  0.61639215  0.19405120  0.16555571  1.0
  H  H29  1  0.73296797  0.38958828  0.67539983  1.0
  H  H30  1  0.18664162  0.22204167  0.78981918  1.0
  H  H31  1  0.19607482  0.34642354  0.66015178  1.0
  H  H32  1  0.72145297  0.27497737  0.80937866  1.0
  H  H33  1  0.28220687  0.09943398  0.37892474  1.0
  H  H34  1  0.17773209  0.10683323  0.52557143  1.0
  H  H35  1  0.00172174  0.93211290  0.35045963  1.0
  C  C36  1  0.99724001  0.15963339  0.11846256  1.0
  C  C37  1  0.98970464  0.23875583  0.19556134  1.0
  C  C38  1  0.10228433  0.29274924  0.19577968  1.0
  C  C39  1  0.09915764  0.36194072  0.26848755  1.0
  C  C40  1  0.98532403  0.37689406  0.34395969  1.0
  C  C41  1  0.87310527  0.32184162  0.34340192  1.0
  C  C42  1  0.87409047  0.25508315  0.26974152  1.0
  C  C43  1  0.98841888  0.44379715  0.42304358  1.0
  C  C44  1  0.03559427  0.60878628  0.49719420  1.0
  C  C45  1  0.02345422  0.55589944  0.42077973  1.0
  C  C46  1  0.43315953  0.04665747  0.92160458  1.0
  C  C47  1  0.55954678  0.05788124  0.86477335  1.0
  C  C48  1  0.62406385  0.97795347  0.78948991  1.0
  C  C49  1  0.74740031  0.99666563  0.72545363  1.0
  C  C50  1  0.56027236  0.88405536  0.77943996  1.0
  C  C51  1  0.43684027  0.87654284  0.84041576  1.0
  C  C52  1  0.03442873  0.62460007  0.34130870  1.0
  C  C53  1  0.16743676  0.64658493  0.29934253  1.0
  C  C54  1  0.04753228  0.83710402  0.11596645  1.0
  C  C55  1  0.04624608  0.75961827  0.19255499  1.0
  C  C56  1  0.91257642  0.73920428  0.23514986  1.0
  C  C57  1  0.90745507  0.67093091  0.30771214  1.0
  C  C58  1  0.17406749  0.71119530  0.22467069  1.0
  C  C59  1  0.78327755  0.95427482  0.64128894  1.0
  C  C60  1  0.89536175  0.97746167  0.57162199  1.0
  C  C61  1  0.90056529  0.94029508  0.48567517  1.0
  C  C62  1  0.99809143  0.03774083  0.58441413  1.0
  C  C63  1  0.00275664  0.84037477  0.88153935  1.0
  C  C64  1  0.01028676  0.76124880  0.80443754  1.0
  C  C65  1  0.89770194  0.70726463  0.80422558  1.0
  C  C66  1  0.90082826  0.63806493  0.73152029  1.0
  C  C67  1  0.01465939  0.62310618  0.65604599  1.0
  C  C68  1  0.12688427  0.67815301  0.65660101  1.0
  C  C69  1  0.12590802  0.74491311  0.73025700  1.0
  C  C70  1  0.01155851  0.55620506  0.57695980  1.0
  C  C71  1  0.96438973  0.39121213  0.50280889  1.0
  C  C72  1  0.97652948  0.44409988  0.57922402  1.0
  C  C73  1  0.56684451  0.95334415  0.07838936  1.0
  C  C74  1  0.44046285  0.94211660  0.13522296  1.0
  C  C75  1  0.37594429  0.02204257  0.21050851  1.0
  C  C76  1  0.25261751  0.00333018  0.27454531  1.0
  C  C77  1  0.43973247  0.11594715  0.22055514  1.0
  C  C78  1  0.56315975  0.12346435  0.15957748  1.0
  C  C79  1  0.96556386  0.37539814  0.65869443  1.0
  C  C80  1  0.83256014  0.35340679  0.70066000  1.0
  C  C81  1  0.95246706  0.16289312  0.88403699  1.0
  C  C82  1  0.95375250  0.24037798  0.80744856  1.0
  C  C83  1  0.08741838  0.26079663  0.76484980  1.0
  C  C84  1  0.09253714  0.32906823  0.69228789  1.0
  C  C85  1  0.82593141  0.28880002  0.77533282  1.0
  C  C86  1  0.21674747  0.04572174  0.35871024  1.0
  C  C87  1  0.10465925  0.02254046  0.42837650  1.0
  C  C88  1  0.09945315  0.05970528  0.51432494  1.0
  C  C89  1  0.00192328  0.96226418  0.41558461  1.0
  N  N90  1  0.37204021  0.95758162  0.91011919  1.0
  N  N91  1  0.62796216  0.04242186  0.08987562  1.0
  O  O92  1  0.17269349  0.84676931  0.07412608  1.0
  O  O93  1  0.92172628  0.88992945  0.09994703  1.0
  O  O94  1  0.87458290  0.14990504  0.10693866  1.0
  O  O95  1  0.12666999  0.10605959  0.07177571  1.0
  O  O96  1  0.82730586  0.15322784  0.92587736  1.0
  O  O97  1  0.07827231  0.11006679  0.90005652  1.0
  O  O98  1  0.12541875  0.85008841  0.89306383  1.0
  O  O99  1  0.87332850  0.89394944  0.92822594  1.0
