# generated using pymatgen
data_Al2H3C24S6(O4F)3
_symmetry_space_group_name_H-M   'P 1'
_cell_length_a   3.96226309
_cell_length_b   20.15872912
_cell_length_c   20.15870621
_cell_angle_alpha   119.99985181
_cell_angle_beta   90.00001671
_cell_angle_gamma   89.99982267
_symmetry_Int_Tables_number   1
_chemical_formula_structural   Al2H3C24S6(O4F)3
_chemical_formula_sum   'Al2 H3 C24 S6 O12 F3'
_cell_volume   1394.44180328
_cell_formula_units_Z   1
loop_
 _symmetry_equiv_pos_site_id
 _symmetry_equiv_pos_as_xyz
  1  'x, y, z'
loop_
 _atom_site_type_symbol
 _atom_site_label
 _atom_site_symmetry_multiplicity
 _atom_site_fract_x
 _atom_site_fract_y
 _atom_site_fract_z
 _atom_site_occupancy
  Al  Al0  1  0.99747328  0.00000056  0.50000043  1.0
  Al  Al1  1  0.99761448  0.33333475  0.16666660  1.0
  H  H2  1  0.52237689  0.56265323  0.38509767  1.0
  H  H3  1  0.52237749  0.11490610  0.17755719  1.0
  H  H4  1  0.52237899  0.32244692  0.93734869  1.0
  C  C5  1  0.49803612  0.05751011  0.61749844  1.0
  C  C6  1  0.49803987  0.88250275  0.44001195  1.0
  C  C7  1  0.49804102  0.05998998  0.44249145  1.0
  C  C8  1  0.49813643  0.45095611  0.22509123  1.0
  C  C9  1  0.49813527  0.27491120  0.22586480  1.0
  C  C10  1  0.49813767  0.27413869  0.04904609  1.0
  C  C11  1  0.51074820  0.74885746  0.32027580  1.0
  C  C12  1  0.51265750  0.58352852  0.34477311  1.0
  C  C13  1  0.50176816  0.79783782  0.39842663  1.0
  C  C14  1  0.50165652  0.53565312  0.26646738  1.0
  C  C15  1  0.49582815  0.66128375  0.36391229  1.0
  C  C16  1  0.49473017  0.67068926  0.29935365  1.0
  C  C17  1  0.51074494  0.17972830  0.42858296  1.0
  C  C18  1  0.51265803  0.15523027  0.23875709  1.0
  C  C19  1  0.50175824  0.10157672  0.39941263  1.0
  C  C20  1  0.50166121  0.23353537  0.26918580  1.0
  C  C21  1  0.49582946  0.13609055  0.29737267  1.0
  C  C22  1  0.49472611  0.20064945  0.37133679  1.0
  C  C23  1  0.51074098  0.07142050  0.75114529  1.0
  C  C24  1  0.51266278  0.26124746  0.91647235  1.0
  C  C25  1  0.50176100  0.10059001  0.70216443  1.0
  C  C26  1  0.50165924  0.23081722  0.96434861  1.0
  C  C27  1  0.49583693  0.20263198  0.83871711  1.0
  C  C28  1  0.49473207  0.12866700  0.82931284  1.0
  S  S29  1  0.48132572  0.74805082  0.44807168  1.0
  S  S30  1  0.47907305  0.58416278  0.21545791  1.0
  S  S31  1  0.48132578  0.05193137  0.29998104  1.0
  S  S32  1  0.47907279  0.28454573  0.36870561  1.0
  S  S33  1  0.48133002  0.20002239  0.75194949  1.0
  S  S34  1  0.47907440  0.13129836  0.91583984  1.0
  O  O35  1  0.26225946  0.01122445  0.42665639  1.0
  O  O36  1  0.26225910  0.07334540  0.58456771  1.0
  O  O37  1  0.26225773  0.91543326  0.48877736  1.0
  O  O38  1  0.73135205  0.07508665  0.49150722  1.0
  O  O39  1  0.73135323  0.91642181  0.42491434  1.0
  O  O40  1  0.73135516  0.00849353  0.58357987  1.0
  O  O41  1  0.26250732  0.25894283  0.08261301  1.0
  O  O42  1  0.26250616  0.41738882  0.17632837  1.0
  O  O43  1  0.26250694  0.32367348  0.24105879  1.0
  O  O44  1  0.73075185  0.32362421  0.08266042  1.0
  O  O45  1  0.73075495  0.25903877  0.17637782  1.0
  O  O46  1  0.73075629  0.41734159  0.24096269  1.0
  F  F47  1  0.51835221  0.77256930  0.26843119  1.0
  F  F48  1  0.51835641  0.23157038  0.50413859  1.0
  F  F49  1  0.51834326  0.99586428  0.72743362  1.0
