# generated using pymatgen
data_Zn3H16C44(I2O3)4
_symmetry_space_group_name_H-M   'P 1'
_cell_length_a   18.57080810
_cell_length_b   29.24598376
_cell_length_c   29.24569350
_cell_angle_alpha   84.21201770
_cell_angle_beta   71.48947053
_cell_angle_gamma   71.48790856
_symmetry_Int_Tables_number   1
_chemical_formula_structural   Zn3H16C44(I2O3)4
_chemical_formula_sum   'Zn6 H32 C88 I16 O24'
_cell_volume   14282.84549546
_cell_formula_units_Z   2
loop_
 _symmetry_equiv_pos_site_id
 _symmetry_equiv_pos_as_xyz
  1  'x, y, z'
loop_
 _atom_site_type_symbol
 _atom_site_label
 _atom_site_symmetry_multiplicity
 _atom_site_fract_x
 _atom_site_fract_y
 _atom_site_fract_z
 _atom_site_occupancy
  Zn  Zn0  1  0.00003092  0.46711635  0.53289961  1.0
  Zn  Zn1  1  0.56976592  0.00000773  0.99999056  1.0
  Zn  Zn2  1  0.43023591  0.99999091  0.00000557  1.0
  Zn  Zn3  1  0.46711155  0.53289140  0.53289205  1.0
  Zn  Zn4  1  0.99995763  0.53289960  0.46711625  1.0
  Zn  Zn5  1  0.53289275  0.46710974  0.46711056  1.0
  H  H6  1  0.40022195  0.21499846  0.12898977  1.0
  H  H7  1  0.61520581  0.12894121  0.78500397  1.0
  H  H8  1  0.74414310  0.78498441  0.87103608  1.0
  H  H9  1  0.52906335  0.87104635  0.21500265  1.0
  H  H10  1  0.59983212  0.87103622  0.78498400  1.0
  H  H11  1  0.38488680  0.21500264  0.87104689  1.0
  H  H12  1  0.25579174  0.12898937  0.21499861  1.0
  H  H13  1  0.47084481  0.78500600  0.12894150  1.0
  H  H14  1  0.39692614  0.22412865  0.21299152  1.0
  H  H15  1  0.37900008  0.22406505  0.78706228  1.0
  H  H16  1  0.83403854  0.77591515  0.78700036  1.0
  H  H17  1  0.39002385  0.77585669  0.21300721  1.0
  H  H18  1  0.60304381  0.78699902  0.77591278  1.0
  H  H19  1  0.62111181  0.21300665  0.77585742  1.0
  H  H20  1  0.16595634  0.21298980  0.22412843  1.0
  H  H21  1  0.60987042  0.78706276  0.22406478  1.0
  H  H22  1  0.16938320  0.38345863  0.27369760  1.0
  H  H23  1  0.55280348  0.27368404  0.61655041  1.0
  H  H24  1  0.82653745  0.61655986  0.72631748  1.0
  H  H25  1  0.44315934  0.72631966  0.38342386  1.0
  H  H26  1  0.83058633  0.72631758  0.61655922  1.0
  H  H27  1  0.44708895  0.38342385  0.72631991  1.0
  H  H28  1  0.17345843  0.27369762  0.38345891  1.0
  H  H29  1  0.55696546  0.61655062  0.27368361  1.0
  H  H30  1  0.10557405  0.44702635  0.33750536  1.0
  H  H31  1  0.55262284  0.33749484  0.55298254  1.0
  H  H32  1  0.89014477  0.55298385  0.66251299  1.0
  H  H33  1  0.44302446  0.66250887  0.44700052  1.0
  H  H34  1  0.89435984  0.66251296  0.55298267  1.0
  H  H35  1  0.44746130  0.44700098  0.66250882  1.0
  H  H36  1  0.10989424  0.33750586  0.44702670  1.0
  H  H37  1  0.55690580  0.55298249  0.33749480  1.0
  C  C38  1  0.06596264  0.43403846  0.43403887  1.0
  C  C39  1  0.49993411  0.28668748  0.71329545  1.0
  C  C40  1  0.51789432  0.90090254  0.14625974  1.0
  C  C41  1  0.58119296  0.90090266  0.85370212  1.0
  C  C42  1  0.43494329  0.14625870  0.90090263  1.0
  C  C43  1  0.33580420  0.09911725  0.14630246  1.0
  C  C44  1  0.48212307  0.85370027  0.09906445  1.0
  C  C45  1  0.41877594  0.14630248  0.09911801  1.0
  C  C46  1  0.56510993  0.09906365  0.85369908  1.0
  C  C47  1  0.66419838  0.85370265  0.90090240  1.0
  C  C48  1  0.78669575  0.71330374  0.71330257  1.0
  C  C49  1  0.38302114  0.18207234  0.13444770  1.0
  C  C50  1  0.56510937  0.13441238  0.81794354  1.0
  C  C51  1  0.69952318  0.81792919  0.86557127  1.0
  C  C52  1  0.51740721  0.86558699  0.18204632  1.0
  C  C53  1  0.61697387  0.86557201  0.81792831  1.0
  C  C54  1  0.43495896  0.18204588  0.86558720  1.0
  C  C55  1  0.30046207  0.13444646  0.18207236  1.0
  C  C56  1  0.50008065  0.71329673  0.28668860  1.0
  C  C57  1  0.48253001  0.81794482  0.13441350  1.0
  C  C58  1  0.32360276  0.17639799  0.17639906  1.0
  C  C59  1  0.21328711  0.28671112  0.28671317  1.0
  C  C60  1  0.50003822  0.17637118  0.82363441  1.0
  C  C61  1  0.67637901  0.82361904  0.82361874  1.0
  C  C62  1  0.49995503  0.82363431  0.17637199  1.0
  C  C63  1  0.39592429  0.10407693  0.10407702  1.0
  C  C64  1  0.50002118  0.10402439  0.89591912  1.0
  C  C65  1  0.60407864  0.89592063  0.89592037  1.0
  C  C66  1  0.50003360  0.89591980  0.10402536  1.0
  C  C67  1  0.33240755  0.23576562  0.22873323  1.0
  C  C68  1  0.43185678  0.23572152  0.77130661  1.0
  C  C69  1  0.79690084  0.76425229  0.77127561  1.0
  C  C70  1  0.43883877  0.76423873  0.22872551  1.0
  C  C71  1  0.66756933  0.77127506  0.76425084  1.0
  C  C72  1  0.56819511  0.22872543  0.76423909  1.0
  C  C73  1  0.20309576  0.22872918  0.23576793  1.0
  C  C74  1  0.56111270  0.77130763  0.23572185  1.0
  C  C75  1  0.29633105  0.27110313  0.26449475  1.0
  C  C76  1  0.43254116  0.27104644  0.73552953  1.0
  C  C77  1  0.83192827  0.72891695  0.73551085  1.0
  C  C78  1  0.43921817  0.72890046  0.26449752  1.0
  C  C79  1  0.70364184  0.73551097  0.72891545  1.0
  C  C80  1  0.56738304  0.26449784  0.72890038  1.0
  C  C81  1  0.16807251  0.26449074  0.27110554  1.0
  C  C82  1  0.56087954  0.73553090  0.27104729  1.0
  C  C83  1  0.28587794  0.21412252  0.21412500  1.0
  C  C84  1  0.50004741  0.21410018  0.78590298  1.0
  C  C85  1  0.71411105  0.78588694  0.78588629  1.0
  C  C86  1  0.50006333  0.43403468  0.56596916  1.0
  C  C87  1  0.49994807  0.78590315  0.21410045  1.0
  C  C88  1  0.15624013  0.37349324  0.31172997  1.0
  C  C89  1  0.52965974  0.31172083  0.62650790  1.0
  C  C90  1  0.84146834  0.62651298  0.68828031  1.0
  C  C91  1  0.46796746  0.68828359  0.37347643  1.0
  C  C92  1  0.84373832  0.68828064  0.62651188  1.0
  C  C93  1  0.93402717  0.56597389  0.56597300  1.0
  C  C94  1  0.47026880  0.37347557  0.68828332  1.0
  C  C95  1  0.15853414  0.31172952  0.37349429  1.0
  C  C96  1  0.53211408  0.62650900  0.31172040  1.0
  C  C97  1  0.49993820  0.56596901  0.43403576  1.0
  C  C98  1  0.12073022  0.40898003  0.34718532  1.0
  C  C99  1  0.52970786  0.34717664  0.59102288  1.0
  C  C100  1  0.87689465  0.59102547  0.65282193  1.0
  C  C101  1  0.46783624  0.65282489  0.40896367  1.0
  C  C102  1  0.87925909  0.65282234  0.59102449  1.0
  C  C103  1  0.47037623  0.40896347  0.65282459  1.0
  C  C104  1  0.12310222  0.34718495  0.40898025  1.0
  C  C105  1  0.53209428  0.59102290  0.34717577  1.0
  C  C106  1  0.10395317  0.39604674  0.39604679  1.0
  C  C107  1  0.50005010  0.39604281  0.60395578  1.0
  C  C108  1  0.89603845  0.60396200  0.60396166  1.0
  C  C109  1  0.49995399  0.60395583  0.39604263  1.0
  C  C110  1  0.17539962  0.32459971  0.32460023  1.0
  C  C111  1  0.49992277  0.32458705  0.67540402  1.0
  C  C112  1  0.82459310  0.67540686  0.67540616  1.0
  C  C113  1  0.50008250  0.67540474  0.32458732  1.0
  C  C114  1  0.49999780  0.06572457  0.93423335  1.0
  C  C115  1  0.56576511  0.93423470  0.93423137  1.0
  C  C116  1  0.50004123  0.93423513  0.06572573  1.0
  C  C117  1  0.43424435  0.06575781  0.06575736  1.0
  C  C118  1  0.86023916  0.49999595  0.50000401  1.0
  C  C119  1  0.36022764  0.49996171  0.50003024  1.0
  C  C120  1  0.13976533  0.50000413  0.49999589  1.0
  C  C121  1  0.63978443  0.50003008  0.49996282  1.0
  C  C122  1  0.78273276  0.50002766  0.49997079  1.0
  C  C123  1  0.28271652  0.50000171  0.49999611  1.0
  C  C124  1  0.21727377  0.49997062  0.50002718  1.0
  C  C125  1  0.71728926  0.49999693  0.50000129  1.0
  I  I126  1  0.50542751  0.16000280  0.03704471  1.0
  I  I127  1  0.66539628  0.03696880  0.83998913  1.0
  I  I128  1  0.70230290  0.83997222  0.96302172  1.0
  I  I129  1  0.54232652  0.96300839  0.16000475  1.0
  I  I130  1  0.49469990  0.96302165  0.83997274  1.0
  I  I131  1  0.33466194  0.16000287  0.96300871  1.0
  I  I132  1  0.29752430  0.03704495  0.16000326  1.0
  I  I133  1  0.45764083  0.83999053  0.03696916  1.0
  I  I134  1  0.37110858  0.30022157  0.28589556  1.0
  I  I135  1  0.32865151  0.30016720  0.71416611  1.0
  I  I136  1  0.95720149  0.69978143  0.71412080  1.0
  I  I137  1  0.34311346  0.69972323  0.28590917  1.0
  I  I138  1  0.62889518  0.71412188  0.69977942  1.0
  I  I139  1  0.67125542  0.28590935  0.69972425  1.0
  I  I140  1  0.04277593  0.28589331  0.30022111  1.0
  I  I141  1  0.65701591  0.71416757  0.30016493  1.0
  O  O142  1  0.05122503  0.42002498  0.47805289  1.0
  O  O143  1  0.47130938  0.47804446  0.57999377  1.0
  O  O144  1  0.94922272  0.57999746  0.52196102  1.0
  O  O145  1  0.52919204  0.52195346  0.42002518  1.0
  O  O146  1  0.94882367  0.52196050  0.57999639  1.0
  O  O147  1  0.52883549  0.42002420  0.52195372  1.0
  O  O148  1  0.05069932  0.47805257  0.42002645  1.0
  O  O149  1  0.47065613  0.57999392  0.47804583  1.0
  O  O150  1  0.89066900  0.47071015  0.52910858  1.0
  O  O151  1  0.36135734  0.52906870  0.52931927  1.0
  O  O152  1  0.89043729  0.52929628  0.47088668  1.0
  O  O153  1  0.41973970  0.47088150  0.47070942  1.0
  O  O154  1  0.10938411  0.47088697  0.52929566  1.0
  O  O155  1  0.63867378  0.47070745  0.47088339  1.0
  O  O156  1  0.10951636  0.52910892  0.47070979  1.0
  O  O157  1  0.58025826  0.52931835  0.52907005  1.0
  O  O158  1  0.44575931  0.04533820  0.94302727  1.0
  O  O159  1  0.49114158  0.94300242  0.95464070  1.0
  O  O160  1  0.43417357  0.95464978  0.05696934  1.0
  O  O161  1  0.38878433  0.05698700  0.04536057  1.0
  O  O162  1  0.55420678  0.05696878  0.95464815  1.0
  O  O163  1  0.50887275  0.04536380  0.05698708  1.0
  O  O164  1  0.56587186  0.94302935  0.04533988  1.0
  O  O165  1  0.61121053  0.95464550  0.94299958  1.0
