# generated using pymatgen
data_Zn4H8C40Br8Cl4O13
_symmetry_space_group_name_H-M   'P 1'
_cell_length_a   23.98899059
_cell_length_b   23.98914245
_cell_length_c   23.98756571
_cell_angle_alpha   66.54025331
_cell_angle_beta   72.48221847
_cell_angle_gamma   107.51343884
_symmetry_Int_Tables_number   1
_chemical_formula_structural   Zn4H8C40Br8Cl4O13
_chemical_formula_sum   'Zn8 H16 C80 Br16 Cl8 O26'
_cell_volume   10587.34056394
_cell_formula_units_Z   2
loop_
 _symmetry_equiv_pos_site_id
 _symmetry_equiv_pos_as_xyz
  1  'x, y, z'
loop_
 _atom_site_type_symbol
 _atom_site_label
 _atom_site_symmetry_multiplicity
 _atom_site_fract_x
 _atom_site_fract_y
 _atom_site_fract_z
 _atom_site_occupancy
  Zn  Zn0  1  0.05691285  0.09932028  0.45757962  1.0
  Zn  Zn1  1  0.05691126  0.95759117  0.48549323  1.0
  Zn  Zn2  1  0.94308173  0.95757824  0.59933348  1.0
  Zn  Zn3  1  0.94310034  0.98551265  0.45757578  1.0
  Zn  Zn4  1  0.94308894  0.40068099  0.04241763  1.0
  Zn  Zn5  1  0.05692025  0.54242251  0.90066475  1.0
  Zn  Zn6  1  0.94308812  0.54240970  0.01450113  1.0
  Zn  Zn7  1  0.05689811  0.51449255  0.04242300  1.0
  H  H8  1  0.92394908  0.20903594  0.90071005  1.0
  H  H9  1  0.07603770  0.40070883  0.70900513  1.0
  H  H10  1  0.92395109  0.09928988  0.79099290  1.0
  H  H11  1  0.07598667  0.29097946  0.59927735  1.0
  H  H12  1  0.07605367  0.67537269  0.21490032  1.0
  H  H13  1  0.92396488  0.71495763  0.17531505  1.0
  H  H14  1  0.07599149  0.78501246  0.32471031  1.0
  H  H15  1  0.92395267  0.82466375  0.28506447  1.0
  H  H16  1  0.60972892  0.20902924  0.21496122  1.0
  H  H17  1  0.60972410  0.40071277  0.17531569  1.0
  H  H18  1  0.39027636  0.09928755  0.32469606  1.0
  H  H19  1  0.39026917  0.29095645  0.28511625  1.0
  H  H20  1  0.39028507  0.71499616  0.70901651  1.0
  H  H21  1  0.39025981  0.67531605  0.90073270  1.0
  H  H22  1  0.60974114  0.82469642  0.59926703  1.0
  H  H23  1  0.60971910  0.78508265  0.79096801  1.0
  C  C24  1  0.18110610  0.09054780  0.40944048  1.0
  C  C25  1  0.99999674  0.86306170  0.63694083  1.0
  C  C26  1  0.99999266  0.09054162  0.59056025  1.0
  C  C27  1  0.81889701  0.90945345  0.59053906  1.0
  C  C28  1  0.00000393  0.13694421  0.36305748  1.0
  C  C29  1  0.99999638  0.90944717  0.40944474  1.0
  C  C30  1  0.00000283  0.40946073  0.90943668  1.0
  C  C31  1  0.00000711  0.63694177  0.86305477  1.0
  C  C32  1  0.81889344  0.40945150  0.09056320  1.0
  C  C33  1  0.99998992  0.59055399  0.09055315  1.0
  C  C34  1  0.99999688  0.36305998  0.13694127  1.0
  C  C35  1  0.18110429  0.59055694  0.90945805  1.0
  C  C36  1  0.00000246  0.19484456  0.30515731  1.0
  C  C37  1  0.00000072  0.30515911  0.19484053  1.0
  C  C38  1  0.95729923  0.18034856  0.27695469  1.0
  C  C39  1  0.04270307  0.31965457  0.22304249  1.0
  C  C40  1  0.95729974  0.23425511  0.22304691  1.0
  C  C41  1  0.04270463  0.26575061  0.27694779  1.0
  C  C42  1  0.99999986  0.80515926  0.69484092  1.0
  C  C43  1  0.00000331  0.69484369  0.80515509  1.0
  C  C44  1  0.95729860  0.77694991  0.76575587  1.0
  C  C45  1  0.04270316  0.72305042  0.73424132  1.0
  C  C46  1  0.95730207  0.72304441  0.81965953  1.0
  C  C47  1  0.04270065  0.77695800  0.68033654  1.0
  C  C48  1  0.00000058  0.37195685  0.87193389  1.0
  C  C49  1  0.95749676  0.29932321  0.90656885  1.0
  C  C50  1  0.95735149  0.26451858  0.87200818  1.0
  C  C51  1  0.99999175  0.30043598  0.80042500  1.0
  C  C52  1  0.04263744  0.37201370  0.76449576  1.0
  C  C53  1  0.04249955  0.40657795  0.79929560  1.0
  C  C54  1  0.99998625  0.26520514  0.76519961  1.0
  C  C55  1  0.99997756  0.23479668  0.73479901  1.0
  C  C56  1  0.99997326  0.19956844  0.69957181  1.0
  C  C57  1  0.95734429  0.12798864  0.73550128  1.0
  C  C58  1  0.95748651  0.09342335  0.70070138  1.0
  C  C59  1  0.99998204  0.12805120  0.62805770  1.0
  C  C60  1  0.04246221  0.20068851  0.59342217  1.0
  C  C61  1  0.04259948  0.23549004  0.62798524  1.0
  C  C62  1  0.00000176  0.62807345  0.12803798  1.0
  C  C63  1  0.04251002  0.63595690  0.15816247  1.0
  C  C64  1  0.04265004  0.67066240  0.19282242  1.0
  C  C65  1  0.00000303  0.69959068  0.19955072  1.0
  C  C66  1  0.95736469  0.69287210  0.17061133  1.0
  C  C67  1  0.95750664  0.65821182  0.13590840  1.0
  C  C68  1  0.99999413  0.73480595  0.23478926  1.0
  C  C69  1  0.99998295  0.76519418  0.26520931  1.0
  C  C70  1  0.99997688  0.80040948  0.30044686  1.0
  C  C71  1  0.04260364  0.80711250  0.32939967  1.0
  C  C72  1  0.04246523  0.84177381  0.36410321  1.0
  C  C73  1  0.99998367  0.87192825  0.37195774  1.0
  C  C74  1  0.95748843  0.86406346  0.34181775  1.0
  C  C75  1  0.95734560  0.82935849  0.30715844  1.0
  C  C76  1  0.74388671  0.37195084  0.12805898  1.0
  C  C77  1  0.70588112  0.29931559  0.15820445  1.0
  C  C78  1  0.63651678  0.26451408  0.19286566  1.0
  C  C79  1  0.60085789  0.30043474  0.19957623  1.0
  C  C80  1  0.63651397  0.37201465  0.17062254  1.0
  C  C81  1  0.70587858  0.40657836  0.13591553  1.0
  C  C82  1  0.53040380  0.26520495  0.23481160  1.0
  C  C83  1  0.46959517  0.23479118  0.26522770  1.0
  C  C84  1  0.39914118  0.19955879  0.30046157  1.0
  C  C85  1  0.36348616  0.12798306  0.32939785  1.0
  C  C86  1  0.29412223  0.09341988  0.36409819  1.0
  C  C87  1  0.25611265  0.12804427  0.37196435  1.0
  C  C88  1  0.29411719  0.20067533  0.34184545  1.0
  C  C89  1  0.36348261  0.23547633  0.30718996  1.0
  C  C90  1  0.25611257  0.62806849  0.87195457  1.0
  C  C91  1  0.29412680  0.65822848  0.79930904  1.0
  C  C92  1  0.36349134  0.69288926  0.76450975  1.0
  C  C93  1  0.39914331  0.69958873  0.80043885  1.0
  C  C94  1  0.36347838  0.67062950  0.87202589  1.0
  C  C95  1  0.29411372  0.63592454  0.90658802  1.0
  C  C96  1  0.46959736  0.73481748  0.76520723  1.0
  C  C97  1  0.53040597  0.76522556  0.73478714  1.0
  C  C98  1  0.60086168  0.80045224  0.69955418  1.0
  C  C99  1  0.63652407  0.82939280  0.62797031  1.0
  C  C100  1  0.70588808  0.86409259  0.59340918  1.0
  C  C101  1  0.74389073  0.87195848  0.62803953  1.0
  C  C102  1  0.70587822  0.84182389  0.70067947  1.0
  C  C103  1  0.63651279  0.80716778  0.73548050  1.0
  Br  Br104  1  0.89524043  0.23864977  0.00329030  1.0
  Br  Br105  1  0.10475702  0.50328682  0.73861012  1.0
  Br  Br106  1  0.89524372  0.99671031  0.76138993  1.0
  Br  Br107  1  0.10468776  0.26137289  0.49669524  1.0
  Br  Br108  1  0.10478431  0.60152741  0.15655831  1.0
  Br  Br109  1  0.89526017  0.65664030  0.10144253  1.0
  Br  Br110  1  0.10468934  0.84331237  0.39859516  1.0
  Br  Br111  1  0.89524214  0.89853069  0.34338935  1.0
  Br  Br112  1  0.74191593  0.23863754  0.15664593  1.0
  Br  Br113  1  0.74191128  0.50329442  0.10142497  1.0
  Br  Br114  1  0.25808994  0.99670852  0.39857093  1.0
  Br  Br115  1  0.25808058  0.26134182  0.34345624  1.0
  Br  Br116  1  0.25810444  0.65669647  0.73861533  1.0
  Br  Br117  1  0.25806800  0.60143640  0.00331515  1.0
  Br  Br118  1  0.74193277  0.89856154  0.49668665  1.0
  Br  Br119  1  0.74190382  0.84340173  0.76136360  1.0
  Cl  Cl120  1  0.90278915  0.09729352  0.30551131  1.0
  Cl  Cl121  1  0.09721081  0.40271116  0.19448805  1.0
  Cl  Cl122  1  0.90279326  0.20829948  0.19449779  1.0
  Cl  Cl123  1  0.09721476  0.29170468  0.30549477  1.0
  Cl  Cl124  1  0.90279067  0.80549603  0.79172272  1.0
  Cl  Cl125  1  0.09720727  0.69450172  0.70827455  1.0
  Cl  Cl126  1  0.90279598  0.69449059  0.90272778  1.0
  Cl  Cl127  1  0.09720718  0.80551182  0.59726941  1.0
  O  O128  1  0.99999747  0.99999676  0.50000050  1.0
  O  O129  1  0.15183221  0.12614292  0.41364641  1.0
  O  O130  1  0.03963603  0.88546045  0.57491161  1.0
  O  O131  1  0.96015689  0.02568057  0.62615209  1.0
  O  O132  1  0.15183379  0.02568452  0.43448433  1.0
  O  O133  1  0.03983972  0.12612732  0.52569605  1.0
  O  O134  1  0.96035470  0.88544143  0.65419267  1.0
  O  O135  1  0.84816562  0.91366371  0.62613959  1.0
  O  O136  1  0.96038324  0.07492167  0.38543484  1.0
  O  O137  1  0.84817387  0.93450982  0.52566873  1.0
  O  O138  1  0.03962443  0.15418562  0.38545887  1.0
  O  O139  1  0.03982379  0.91368477  0.43447945  1.0
  O  O140  1  0.96018020  0.93449577  0.41367129  1.0
  O  O141  1  0.00000099  0.50000306  0.99999746  1.0
  O  O142  1  0.96018438  0.37386925  0.97430718  1.0
  O  O143  1  0.03965779  0.61456978  0.84580364  1.0
  O  O144  1  0.84816586  0.47431217  0.06553328  1.0
  O  O145  1  0.03982240  0.47432593  0.87383987  1.0
  O  O146  1  0.84816802  0.37386264  0.08632665  1.0
  O  O147  1  0.96035988  0.61453575  0.92508231  1.0
  O  O148  1  0.96018014  0.58633610  0.06549766  1.0
  O  O149  1  0.03962318  0.42508093  0.11455673  1.0
  O  O150  1  0.03978866  0.56548052  0.08635285  1.0
  O  O151  1  0.96036564  0.34581752  0.11454867  1.0
  O  O152  1  0.15183743  0.58631557  0.87386266  1.0
  O  O153  1  0.15182511  0.56551820  0.97432500  1.0
