# generated using pymatgen
data_MnH8C19(NO3)2
_symmetry_space_group_name_H-M   'P 1'
_cell_length_a   4.96709262
_cell_length_b   20.40618266
_cell_length_c   24.82692457
_cell_angle_alpha   89.99992174
_cell_angle_beta   89.99990432
_cell_angle_gamma   95.58594692
_symmetry_Int_Tables_number   1
_chemical_formula_structural   MnH8C19(NO3)2
_chemical_formula_sum   'Mn4 H32 C76 N8 O24'
_cell_volume   2504.49234301
_cell_formula_units_Z   4
loop_
 _symmetry_equiv_pos_site_id
 _symmetry_equiv_pos_as_xyz
  1  'x, y, z'
loop_
 _atom_site_type_symbol
 _atom_site_label
 _atom_site_symmetry_multiplicity
 _atom_site_fract_x
 _atom_site_fract_y
 _atom_site_fract_z
 _atom_site_occupancy
  Mn  Mn0  1  0.17379394  0.06076969  0.96136549  1.0
  Mn  Mn1  1  0.32620355  0.43923016  0.46136494  1.0
  Mn  Mn2  1  0.82620485  0.93923026  0.03863481  1.0
  Mn  Mn3  1  0.67379322  0.56076980  0.53863455  1.0
  H  H4  1  0.68857698  0.34175302  0.40879459  1.0
  H  H5  1  0.71120715  0.27349399  0.32431457  1.0
  H  H6  1  0.06637198  0.37694100  0.25945439  1.0
  H  H7  1  0.07226455  0.44118627  0.34590686  1.0
  H  H8  1  0.95122568  0.31795506  0.12131392  1.0
  H  H9  1  0.00915292  0.24241112  0.04313972  1.0
  H  H10  1  0.98752254  0.03147668  0.14171008  1.0
  H  H11  1  0.91409614  0.11255909  0.21441740  1.0
  H  H12  1  0.81142502  0.15824590  0.90879498  1.0
  H  H13  1  0.78879361  0.22650509  0.82431489  1.0
  H  H14  1  0.43363320  0.12305873  0.75945478  1.0
  H  H15  1  0.42773541  0.05881231  0.84590692  1.0
  H  H16  1  0.54877351  0.18204588  0.62131518  1.0
  H  H17  1  0.49084216  0.25758902  0.54314035  1.0
  H  H18  1  0.51247224  0.46852373  0.64171063  1.0
  H  H19  1  0.58590582  0.38744068  0.71441681  1.0
  H  H20  1  0.31141840  0.65824349  0.59120531  1.0
  H  H21  1  0.28879084  0.72650400  0.67568452  1.0
  H  H22  1  0.93363104  0.62305944  0.74054430  1.0
  H  H23  1  0.92773565  0.55881220  0.65409344  1.0
  H  H24  1  0.04877713  0.68204490  0.87868516  1.0
  H  H25  1  0.99084346  0.75758785  0.95685977  1.0
  H  H26  1  0.01246820  0.96852327  0.85829022  1.0
  H  H27  1  0.08590304  0.88744185  0.78558370  1.0
  H  H28  1  0.18858020  0.84175504  0.09120612  1.0
  H  H29  1  0.21121141  0.77349536  0.17568621  1.0
  H  H30  1  0.56637324  0.87694023  0.24054552  1.0
  H  H31  1  0.57226298  0.94118666  0.15409297  1.0
  H  H32  1  0.45122568  0.81795505  0.37868672  1.0
  H  H33  1  0.50915643  0.74241044  0.45685995  1.0
  H  H34  1  0.48752513  0.53147771  0.35828927  1.0
  H  H35  1  0.41409779  0.61256124  0.28558349  1.0
  C  C36  1  0.55394694  0.34764585  0.37482060  1.0
  C  C37  1  0.56553395  0.30988761  0.32834205  1.0
  C  C38  1  0.38852659  0.32056514  0.28639729  1.0
  C  C39  1  0.20890769  0.36844092  0.29148089  1.0
  C  C40  1  0.21071550  0.40359941  0.33950373  1.0
  C  C41  1  0.59491357  0.30092602  0.20012077  1.0
  C  C42  1  0.61973156  0.25615276  0.15436966  1.0
  C  C43  1  0.44995639  0.19629727  0.15004579  1.0
  C  C44  1  0.24312830  0.18087149  0.18887222  1.0
  C  C45  1  0.20453013  0.22557159  0.23420968  1.0
  C  C46  1  0.82096889  0.27216447  0.11654536  1.0
  C  C47  1  0.85293569  0.22992246  0.07321178  1.0
  C  C48  1  0.68755752  0.17133798  0.06692874  1.0
  C  C49  1  0.48710699  0.15160701  0.10655512  1.0
  C  C50  1  0.32284445  0.08999997  0.10641582  1.0
  C  C51  1  0.11654829  0.07760851  0.14393238  1.0
  C  C52  1  0.07447815  0.12280224  0.18475700  1.0
  C  C53  1  0.38086563  0.03333852  0.07117506  1.0
  C  C54  1  0.72705084  0.13571595  0.01473582  1.0
  C  C55  1  0.94604692  0.15235215  0.87482056  1.0
  C  C56  1  0.93446677  0.19011146  0.82834156  1.0
  C  C57  1  0.11147814  0.17943405  0.78639732  1.0
  C  C58  1  0.29109478  0.13155777  0.79148132  1.0
  C  C59  1  0.28928290  0.09640017  0.83950339  1.0
  C  C60  1  0.90509074  0.19907428  0.70012190  1.0
  C  C61  1  0.88027297  0.24384713  0.65436993  1.0
  C  C62  1  0.05004797  0.30370317  0.65004610  1.0
  C  C63  1  0.25686927  0.31912788  0.68887125  1.0
  C  C64  1  0.29547689  0.27442720  0.73421075  1.0
  C  C65  1  0.67903235  0.22783648  0.61654652  1.0
  C  C66  1  0.64705992  0.27007857  0.57321291  1.0
  C  C67  1  0.81244137  0.32866109  0.56692894  1.0
  C  C68  1  0.01289294  0.34839154  0.60655540  1.0
  C  C69  1  0.17715327  0.40999809  0.60641678  1.0
  C  C70  1  0.38344808  0.42239194  0.64393407  1.0
  C  C71  1  0.42552388  0.37719813  0.68475710  1.0
  C  C72  1  0.11913060  0.46666009  0.57117598  1.0
  C  C73  1  0.77294711  0.36428470  0.51473720  1.0
  C  C74  1  0.44604903  0.65235213  0.62517889  1.0
  C  C75  1  0.43446625  0.69011086  0.67165784  1.0
  C  C76  1  0.61148005  0.67943432  0.71360260  1.0
  C  C77  1  0.79109492  0.63155854  0.70851780  1.0
  C  C78  1  0.78927665  0.59639907  0.66049657  1.0
  C  C79  1  0.40509810  0.69907590  0.79987711  1.0
  C  C80  1  0.38027891  0.74384621  0.84562943  1.0
  C  C81  1  0.55004844  0.80370269  0.84995371  1.0
  C  C82  1  0.75686827  0.81912797  0.81112686  1.0
  C  C83  1  0.79548094  0.77442885  0.76578740  1.0
  C  C84  1  0.17903976  0.72783499  0.88345454  1.0
  C  C85  1  0.14706673  0.77007651  0.92678771  1.0
  C  C86  1  0.31244671  0.82866049  0.93307156  1.0
  C  C87  1  0.51289140  0.84839196  0.89344437  1.0
  C  C88  1  0.67715192  0.90999900  0.89358408  1.0
  C  C89  1  0.88344627  0.92239096  0.85606751  1.0
  C  C90  1  0.92551903  0.87719870  0.81524250  1.0
  C  C91  1  0.61912712  0.96666143  0.92882483  1.0
  C  C92  1  0.27294735  0.86428253  0.98526407  1.0
  C  C93  1  0.05395368  0.84764731  0.12518014  1.0
  C  C94  1  0.06554046  0.80988948  0.17165873  1.0
  C  C95  1  0.88853091  0.82056640  0.21360338  1.0
  C  C96  1  0.70890985  0.86844169  0.20851858  1.0
  C  C97  1  0.71071991  0.90359978  0.16049610  1.0
  C  C98  1  0.09491045  0.80092666  0.29987961  1.0
  C  C99  1  0.11972259  0.75615479  0.34563198  1.0
  C  C100  1  0.94994940  0.69629827  0.34995500  1.0
  C  C101  1  0.74312428  0.68087404  0.31112905  1.0
  C  C102  1  0.70451827  0.72557374  0.26578995  1.0
  C  C103  1  0.32096321  0.77216544  0.38345498  1.0
  C  C104  1  0.35293504  0.72992188  0.42678779  1.0
  C  C105  1  0.18755741  0.67133887  0.43307176  1.0
  C  C106  1  0.98710202  0.65160891  0.39344571  1.0
  C  C107  1  0.82284330  0.59000138  0.39358392  1.0
  C  C108  1  0.61654970  0.57761048  0.35606663  1.0
  C  C109  1  0.57447389  0.62280429  0.31524360  1.0
  C  C110  1  0.88086819  0.53333986  0.42882472  1.0
  C  C111  1  0.22705187  0.63571575  0.48526430  1.0
  N  N112  1  0.37852010  0.39361147  0.38074321  1.0
  N  N113  1  0.39461218  0.28126492  0.23832611  1.0
  N  N114  1  0.12147974  0.10638755  0.88074332  1.0
  N  N115  1  0.10538896  0.21873436  0.73832651  1.0
  N  N116  1  0.62147789  0.60638652  0.61925668  1.0
  N  N117  1  0.60539305  0.71873602  0.76167177  1.0
  N  N118  1  0.87852268  0.89361142  0.11925657  1.0
  N  N119  1  0.89461164  0.78126510  0.26167379  1.0
  O  O120  1  0.19510771  0.00804139  0.03938986  1.0
  O  O121  1  0.61075809  0.01253560  0.07718948  1.0
  O  O122  1  0.52322078  0.11877646  0.98541388  1.0
  O  O123  1  0.97101336  0.13111541  0.00151989  1.0
  O  O124  1  0.73984952  0.35309729  0.20629144  1.0
  O  O125  1  0.02164447  0.21624416  0.26784376  1.0
  O  O126  1  0.30487915  0.49195827  0.53938988  1.0
  O  O127  1  0.88924050  0.48746296  0.57718988  1.0
  O  O128  1  0.97677488  0.38122330  0.48541335  1.0
  O  O129  1  0.52898692  0.36888576  0.50151974  1.0
  O  O130  1  0.76015070  0.14690300  0.70629227  1.0
  O  O131  1  0.47836224  0.28375457  0.76784396  1.0
  O  O132  1  0.80488283  0.99195808  0.96061124  1.0
  O  O133  1  0.38923667  0.98746436  0.92281082  1.0
  O  O134  1  0.47677780  0.88122300  0.01458601  1.0
  O  O135  1  0.02898361  0.86888504  0.99847920  1.0
  O  O136  1  0.26016134  0.64690266  0.79370765  1.0
  O  O137  1  0.97836096  0.78375727  0.73215371  1.0
  O  O138  1  0.69511400  0.50804267  0.46061122  1.0
  O  O139  1  0.11075567  0.51253551  0.42281123  1.0
  O  O140  1  0.02322189  0.61877665  0.51458654  1.0
  O  O141  1  0.47101408  0.63111469  0.49848016  1.0
  O  O142  1  0.23985050  0.85309794  0.29370924  1.0
  O  O143  1  0.52163513  0.71624686  0.23215513  1.0
