# generated using pymatgen
data_Zn4H21C70S6N4Cl3(O8F3)2
_symmetry_space_group_name_H-M   'P 1'
_cell_length_a   12.76758838
_cell_length_b   13.84690694
_cell_length_c   28.07165657
_cell_angle_alpha   90.03401467
_cell_angle_beta   89.80931618
_cell_angle_gamma   89.91376327
_symmetry_Int_Tables_number   1
_chemical_formula_structural   Zn4H21C70S6N4Cl3(O8F3)2
_chemical_formula_sum   'Zn4 H21 C70 S6 N4 Cl3 O16 F6'
_cell_volume   4962.79931355
_cell_formula_units_Z   1
loop_
 _symmetry_equiv_pos_site_id
 _symmetry_equiv_pos_as_xyz
  1  'x, y, z'
loop_
 _atom_site_type_symbol
 _atom_site_label
 _atom_site_symmetry_multiplicity
 _atom_site_fract_x
 _atom_site_fract_y
 _atom_site_fract_z
 _atom_site_occupancy
  Zn  Zn0  1  0.50243692  0.39953916  0.49843000  1.0
  Zn  Zn1  1  0.49884624  0.60047466  0.49994308  1.0
  Zn  Zn2  1  0.50268582  0.60076088  0.04424604  1.0
  Zn  Zn3  1  0.49969910  0.40003664  0.04425366  1.0
  H  H4  1  0.38520075  0.24930990  0.55100401  1.0
  H  H5  1  0.31037938  0.08983393  0.58588164  1.0
  H  H6  1  0.61626616  0.24758702  0.44723539  1.0
  H  H7  1  0.61326438  0.75106691  0.44740149  1.0
  H  H8  1  0.68958590  0.91023417  0.41345111  1.0
  H  H9  1  0.38392753  0.75220242  0.55190882  1.0
  H  H10  1  0.50033067  0.34735939  0.20717433  1.0
  H  H11  1  0.49980481  0.65459169  0.65072608  1.0
  H  H12  1  0.50029107  0.74695735  0.72839069  1.0
  H  H13  1  0.49940862  0.34478894  0.65045448  1.0
  H  H14  1  0.49949961  0.34496603  0.89266098  1.0
  H  H15  1  0.49889898  0.25259962  0.81495095  1.0
  H  H16  1  0.50099376  0.65483128  0.89289343  1.0
  H  H17  1  0.85870478  0.65278900  0.50024554  1.0
  H  H18  1  0.38569146  0.75155725  0.99227453  1.0
  H  H19  1  0.31155488  0.91152525  0.95760444  1.0
  H  H20  1  0.61658703  0.75192407  0.09541435  1.0
  H  H21  1  0.61563249  0.24850711  0.09509931  1.0
  H  H22  1  0.69149691  0.08870957  0.12884902  1.0
  H  H23  1  0.38553378  0.24868874  0.99166627  1.0
  H  H24  1  0.85974285  0.34822295  0.04416913  1.0
  C  C25  1  0.49912215  0.50004431  0.59255452  1.0
  C  C26  1  0.29556970  0.49982544  0.49979474  1.0
  C  C27  1  0.50237557  0.50000207  0.40588235  1.0
  C  C28  1  0.70606486  0.50078641  0.49896555  1.0
  C  C29  1  0.50001637  0.49982389  0.95083647  1.0
  C  C30  1  0.29611642  0.50174913  0.04429946  1.0
  C  C31  1  0.50250294  0.49965212  0.13768303  1.0
  C  C32  1  0.70661889  0.50054047  0.04465792  1.0
  C  C33  1  0.43560662  0.20434094  0.52869404  1.0
  C  C34  1  0.43181200  0.10311868  0.53065803  1.0
  C  C35  1  0.36311965  0.05123282  0.56189467  1.0
  C  C36  1  0.56605933  0.20367604  0.46994353  1.0
  C  C37  1  0.56871135  0.10263632  0.46879375  1.0
  C  C38  1  0.63597662  0.04735015  0.43819907  1.0
  C  C39  1  0.56396335  0.79592351  0.47027713  1.0
  C  C40  1  0.56827123  0.89710834  0.46867459  1.0
  C  C41  1  0.63708595  0.94891624  0.43750043  1.0
  C  C42  1  0.43422487  0.79631129  0.52933348  1.0
  C  C43  1  0.43179374  0.89739438  0.53073014  1.0
  C  C44  1  0.36459954  0.95278818  0.56134255  1.0
  C  C45  1  0.50033288  0.05117309  0.49975964  1.0
  C  C46  1  0.50014380  0.94896448  0.49978463  1.0
  C  C47  1  0.50194266  0.58110169  0.32233834  1.0
  C  C48  1  0.50117106  0.42114032  0.22041745  1.0
  C  C49  1  0.50197845  0.50283523  0.35335264  1.0
  C  C50  1  0.50188229  0.50007131  0.19029132  1.0
  C  C51  1  0.50131646  0.45048755  0.26865420  1.0
  C  C52  1  0.50176860  0.55158547  0.27406346  1.0
  C  C53  1  0.49942871  0.58735524  0.67089317  1.0
  C  C54  1  0.49959185  0.58922382  0.72083571  1.0
  C  C55  1  0.50002743  0.67803053  0.74711431  1.0
  C  C56  1  0.49902644  0.41197412  0.67056872  1.0
  C  C57  1  0.49898476  0.41095390  0.72043227  1.0
  C  C58  1  0.49877476  0.32378844  0.74783612  1.0
  C  C59  1  0.49942060  0.41222976  0.87250567  1.0
  C  C60  1  0.49930133  0.41035471  0.82255700  1.0
  C  C61  1  0.49899964  0.32156537  0.79625504  1.0
  C  C62  1  0.50013376  0.58763339  0.87280362  1.0
  C  C63  1  0.49986134  0.58866144  0.82294557  1.0
  C  C64  1  0.50009561  0.67582980  0.79553384  1.0
  C  C65  1  0.49909062  0.49982156  0.64601126  1.0
  C  C66  1  0.49929074  0.49987039  0.74639264  1.0
  C  C67  1  0.49978220  0.49975696  0.89738148  1.0
  C  C68  1  0.49944419  0.49972541  0.79699713  1.0
  C  C69  1  0.11198148  0.41881989  0.50022368  1.0
  C  C70  1  0.88790656  0.57900998  0.50006387  1.0
  C  C71  1  0.18013333  0.49703808  0.50023595  1.0
  C  C72  1  0.82171782  0.50015486  0.49958906  1.0
  C  C73  1  0.99394298  0.54953037  0.50036770  1.0
  C  C74  1  0.00583998  0.44842725  0.50022322  1.0
  C  C75  1  0.43621331  0.79624060  0.01445611  1.0
  C  C76  1  0.43283734  0.89748420  0.01248653  1.0
  C  C77  1  0.36437379  0.94980485  0.98145893  1.0
  C  C78  1  0.56655524  0.79615625  0.07286436  1.0
  C  C79  1  0.56960838  0.89716329  0.07398253  1.0
  C  C80  1  0.63711097  0.95202761  0.10436040  1.0
  C  C81  1  0.56585975  0.20391359  0.07252598  1.0
  C  C82  1  0.57003357  0.10270499  0.07405648  1.0
  C  C83  1  0.63870537  0.05045308  0.10498523  1.0
  C  C84  1  0.43585936  0.20433461  0.01402360  1.0
  C  C85  1  0.43340068  0.10324839  0.01250333  1.0
  C  C86  1  0.36608172  0.04824336  0.98206364  1.0
  C  C87  1  0.50149821  0.94903478  0.04319346  1.0
  C  C88  1  0.50166224  0.05124048  0.04317848  1.0
  C  C89  1  0.11216484  0.58232364  0.04412795  1.0
  C  C90  1  0.88871298  0.42199401  0.04436750  1.0
  C  C91  1  0.18066685  0.50415797  0.04420592  1.0
  C  C92  1  0.82226020  0.50084066  0.04451338  1.0
  C  C93  1  0.99465843  0.45150390  0.04423747  1.0
  C  C94  1  0.00616418  0.55261080  0.04420919  1.0
  S  S95  1  0.50134927  0.39293694  0.32313709  1.0
  S  S96  1  0.50213688  0.61036313  0.22009686  1.0
  S  S97  1  0.11369145  0.60697404  0.50043839  1.0
  S  S98  1  0.88719419  0.38978809  0.49968406  1.0
  S  S99  1  0.11467199  0.39416585  0.04427374  1.0
  S  S100  1  0.88731979  0.61122750  0.04432642  1.0
  N  N101  1  0.50084839  0.25145241  0.49926460  1.0
  N  N102  1  0.49900935  0.74866192  0.49973883  1.0
  N  N103  1  0.50120824  0.74878081  0.04372590  1.0
  N  N104  1  0.50067480  0.25164554  0.04346497  1.0
  Cl  Cl105  1  0.50196721  0.70084180  0.33787996  1.0
  Cl  Cl106  1  0.14623432  0.29908353  0.50010565  1.0
  Cl  Cl107  1  0.14574253  0.70212550  0.04397718  1.0
  O  O108  1  0.50036208  0.41845847  0.57165649  1.0
  O  O109  1  0.49801925  0.58230316  0.57215680  1.0
  O  O110  1  0.33721970  0.58364281  0.50041780  1.0
  O  O111  1  0.34372193  0.41933178  0.49870340  1.0
  O  O112  1  0.50082656  0.58051232  0.42777618  1.0
  O  O113  1  0.50410602  0.41620107  0.42485897  1.0
  O  O114  1  0.66167900  0.41809833  0.49819870  1.0
  O  O115  1  0.66077993  0.58271256  0.49928544  1.0
  O  O116  1  0.50122250  0.58172911  0.97145175  1.0
  O  O117  1  0.49906973  0.41793042  0.97159347  1.0
  O  O118  1  0.33847669  0.41801717  0.04436840  1.0
  O  O119  1  0.34360073  0.58239100  0.04436316  1.0
  O  O120  1  0.50158411  0.41745667  0.11717584  1.0
  O  O121  1  0.50387795  0.58204687  0.11732769  1.0
  O  O122  1  0.66238541  0.58335823  0.04455536  1.0
  O  O123  1  0.66115466  0.41874666  0.04482144  1.0
  F  F124  1  0.30018408  0.90261783  0.59079601  1.0
  F  F125  1  0.70055429  0.09750465  0.40886362  1.0
  F  F126  1  0.50033307  0.76084088  0.82031889  1.0
  F  F127  1  0.49823252  0.23882203  0.72302806  1.0
  F  F128  1  0.30178223  0.09881527  0.95285610  1.0
  F  F129  1  0.70144630  0.90153588  0.13351020  1.0
