# generated using pymatgen
data_Cd2H27C30(N2O3)3
_symmetry_space_group_name_H-M   'P 1'
_cell_length_a   10.69461957
_cell_length_b   22.55120496
_cell_length_c   22.55168869
_cell_angle_alpha   117.58810835
_cell_angle_beta   99.04216870
_cell_angle_gamma   99.04306027
_symmetry_Int_Tables_number   1
_chemical_formula_structural   Cd2H27C30(N2O3)3
_chemical_formula_sum   'Cd8 H108 C120 N24 O36'
_cell_volume   4593.38670683
_cell_formula_units_Z   4
loop_
 _symmetry_equiv_pos_site_id
 _symmetry_equiv_pos_as_xyz
  1  'x, y, z'
loop_
 _atom_site_type_symbol
 _atom_site_label
 _atom_site_symmetry_multiplicity
 _atom_site_fract_x
 _atom_site_fract_y
 _atom_site_fract_z
 _atom_site_occupancy
  Cd  Cd0  1  0.76648924  0.54369607  0.93108002  1.0
  Cd  Cd1  1  0.23351353  0.06889920  0.45630487  1.0
  Cd  Cd2  1  0.23350714  0.45630390  0.06891944  1.0
  Cd  Cd3  1  0.76648497  0.93109923  0.54369492  1.0
  Cd  Cd4  1  0.75526920  0.51732522  0.75903201  1.0
  Cd  Cd5  1  0.24453444  0.24089947  0.48261135  1.0
  Cd  Cd6  1  0.24472258  0.48267110  0.24096500  1.0
  Cd  Cd7  1  0.75546259  0.75909791  0.51738696  1.0
  H  H8  1  0.04841781  0.58480640  0.00000370  1.0
  H  H9  1  0.95155980  0.00001474  0.41520879  1.0
  H  H10  1  0.95158048  0.41519358  0.99999635  1.0
  H  H11  1  0.04843754  0.99998523  0.58479163  1.0
  H  H12  1  0.99669299  0.64643347  0.99718159  1.0
  H  H13  1  0.00329411  0.00282494  0.35358008  1.0
  H  H14  1  0.00330504  0.35356599  0.00281775  1.0
  H  H15  1  0.99670133  0.99717502  0.64641931  1.0
  H  H16  1  0.57496861  0.40622711  0.68355091  1.0
  H  H17  1  0.42486153  0.31627272  0.59333082  1.0
  H  H18  1  0.42502362  0.59375629  0.31644194  1.0
  H  H19  1  0.57513520  0.68372047  0.40665268  1.0
  H  H20  1  0.63245820  0.37764935  0.61842800  1.0
  H  H21  1  0.36763452  0.38152335  0.62198747  1.0
  H  H22  1  0.36754531  0.62233774  0.38157002  1.0
  H  H23  1  0.63236848  0.61847504  0.37799755  1.0
  H  H24  1  0.75248126  0.68284108  0.88825099  1.0
  H  H25  1  0.24748459  0.11171304  0.31711966  1.0
  H  H26  1  0.24751388  0.31715630  0.11174763  1.0
  H  H27  1  0.75251342  0.88828641  0.68287835  1.0
  H  H28  1  0.87259685  0.66911540  0.84018894  1.0
  H  H29  1  0.12735565  0.15977062  0.33084962  1.0
  H  H30  1  0.12739684  0.33088093  0.15980865  1.0
  H  H31  1  0.87264189  0.84022780  0.66914965  1.0
  H  H32  1  0.15152633  0.57244241  0.68459673  1.0
  H  H33  1  0.84848365  0.31540295  0.42756756  1.0
  H  H34  1  0.84848237  0.42755762  0.31540231  1.0
  H  H35  1  0.15151581  0.68459755  0.57243148  1.0
  H  H36  1  0.27277319  0.63364312  0.63363540  1.0
  H  H37  1  0.72723099  0.36635740  0.36636221  1.0
  H  H38  1  0.97183875  0.76881511  0.95783408  1.0
  H  H39  1  0.02812046  0.04211205  0.23115541  1.0
  H  H40  1  0.02815706  0.23118175  0.04216257  1.0
  H  H41  1  0.97187610  0.95788431  0.76884373  1.0
  H  H42  1  0.04343439  0.69989549  0.94790803  1.0
  H  H43  1  0.95653694  0.05204995  0.30007765  1.0
  H  H44  1  0.95656193  0.30010240  0.05208958  1.0
  H  H45  1  0.04346251  0.94794849  0.69992265  1.0
  H  H46  1  0.91994182  0.71920595  0.99572492  1.0
  H  H47  1  0.08003061  0.00423865  0.28077676  1.0
  H  H48  1  0.08005640  0.28079196  0.00427283  1.0
  H  H49  1  0.91996839  0.99576082  0.71922398  1.0
  H  H50  1  0.56590772  0.04081954  0.76985892  1.0
  H  H51  1  0.43411503  0.23013917  0.95918497  1.0
  H  H52  1  0.43409012  0.95918148  0.23014202  1.0
  H  H53  1  0.56588330  0.76986288  0.04081604  1.0
  H  H54  1  0.55394442  0.03563304  0.57886858  1.0
  H  H55  1  0.44602027  0.42112226  0.96436066  1.0
  H  H56  1  0.44605456  0.96436642  0.42113084  1.0
  H  H57  1  0.55397945  0.57887876  0.03563908  1.0
  H  H58  1  0.37455389  0.07241267  0.76635769  1.0
  H  H59  1  0.62543806  0.23363447  0.92758977  1.0
  H  H60  1  0.62544535  0.92758732  0.23364287  1.0
  H  H61  1  0.37455877  0.76636447  0.07240881  1.0
  H  H62  1  0.79927756  0.62049536  0.62049453  1.0
  H  H63  1  0.20072382  0.37950310  0.37950725  1.0
  H  H64  1  0.25578111  0.16165329  0.80388379  1.0
  H  H65  1  0.74424382  0.19611642  0.83836393  1.0
  H  H66  1  0.74422076  0.83834826  0.19611679  1.0
  H  H67  1  0.25575351  0.80388356  0.16163560  1.0
  H  H68  1  0.14539180  0.58106369  0.80444705  1.0
  H  H69  1  0.85457783  0.19556333  0.41894218  1.0
  H  H70  1  0.85461035  0.41893838  0.19555512  1.0
  H  H71  1  0.14541947  0.80443458  0.58105772  1.0
  H  H72  1  0.11261028  0.57697169  0.90881454  1.0
  H  H73  1  0.88732928  0.09119217  0.42303719  1.0
  H  H74  1  0.88738852  0.42302933  0.09118736  1.0
  H  H75  1  0.11266976  0.90880731  0.57696578  1.0
  H  H76  1  0.97431131  0.41341951  0.72190126  1.0
  H  H77  1  0.02576645  0.27811000  0.58663084  1.0
  H  H78  1  0.02568917  0.58658306  0.27810014  1.0
  H  H79  1  0.97423802  0.72189104  0.41336925  1.0
  H  H80  1  0.29237601  0.29831599  0.69528195  1.0
  H  H81  1  0.70772830  0.30474814  0.70172663  1.0
  H  H82  1  0.70762929  0.70168868  0.30472209  1.0
  H  H83  1  0.29227522  0.69525289  0.29827295  1.0
  H  H84  1  0.32898686  0.53997619  0.75456775  1.0
  H  H85  1  0.67101406  0.24546504  0.46004010  1.0
  H  H86  1  0.67101357  0.46002432  0.24543269  1.0
  H  H87  1  0.32898399  0.75453443  0.53996014  1.0
  H  H88  1  0.17674107  0.23884454  0.83991033  1.0
  H  H89  1  0.82325930  0.16007902  0.76116673  1.0
  H  H90  1  0.82325532  0.76115543  0.16008913  1.0
  H  H91  1  0.17673847  0.83991991  0.23883147  1.0
  H  H92  1  0.36654356  0.21899533  0.65713567  1.0
  H  H93  1  0.63351222  0.34287685  0.78102963  1.0
  H  H94  1  0.63345738  0.78100622  0.34286529  1.0
  H  H95  1  0.36648941  0.65712418  0.21897114  1.0
  H  H96  1  0.48794586  0.13317735  0.62249686  1.0
  H  H97  1  0.51209078  0.37751053  0.86683306  1.0
  H  H98  1  0.51205147  0.86682263  0.37750267  1.0
  H  H99  1  0.48791179  0.62249051  0.13316688  1.0
  H  H100  1  0.05085290  0.32485010  0.87322985  1.0
  H  H101  1  0.94917094  0.12676334  0.67516966  1.0
  H  H102  1  0.94914536  0.67514988  0.12676886  1.0
  H  H103  1  0.05083019  0.87323666  0.32482970  1.0
  H  H104  1  0.97898995  0.41869191  0.91293586  1.0
  H  H105  1  0.02101380  0.08704873  0.58130878  1.0
  H  H106  1  0.02100670  0.58130858  0.08706475  1.0
  H  H107  1  0.97898807  0.91295281  0.41869135  1.0
  H  H108  1  0.16768222  0.38412475  0.72943416  1.0
  H  H109  1  0.83240642  0.27058807  0.61591250  1.0
  H  H110  1  0.83232067  0.61587888  0.27056879  1.0
  H  H111  1  0.16760021  0.72941350  0.38408888  1.0
  H  H112  1  0.43824840  0.48653631  0.91149967  1.0
  H  H113  1  0.56169864  0.08852565  0.51347430  1.0
  H  H114  1  0.56175156  0.51346316  0.08850159  1.0
  H  H115  1  0.43829801  0.91147485  0.48652675  1.0
  C  C116  1  0.24703689  0.52422487  0.97812072  1.0
  C  C117  1  0.75291176  0.02189563  0.47578727  1.0
  C  C118  1  0.75296262  0.47577564  0.02188099  1.0
  C  C119  1  0.24708489  0.97810486  0.52421378  1.0
  C  C120  1  0.84374556  0.66585110  0.88386566  1.0
  C  C121  1  0.15621883  0.11609665  0.33411109  1.0
  C  C122  1  0.15624957  0.33414628  0.11613252  1.0
  C  C123  1  0.84377870  0.88390177  0.66588774  1.0
  C  C124  1  0.10172940  0.59610200  0.65872040  1.0
  C  C125  1  0.89826783  0.34127481  0.40390140  1.0
  C  C126  1  0.89827742  0.40389802  0.34127939  1.0
  C  C127  1  0.10173304  0.65872466  0.59609771  1.0
  C  C128  1  0.16859853  0.62996325  0.62995760  1.0
  C  C129  1  0.83140664  0.37003728  0.37004186  1.0
  C  C130  1  0.95124579  0.71604963  0.95031079  1.0
  C  C131  1  0.04872815  0.04965260  0.28392657  1.0
  C  C132  1  0.04875053  0.28394827  0.04968683  1.0
  C  C133  1  0.95127084  0.95034687  0.71607329  1.0
  C  C134  1  0.58445179  0.02953417  0.72036360  1.0
  C  C135  1  0.41555922  0.27963059  0.97046822  1.0
  C  C136  1  0.41554650  0.97046581  0.27963645  1.0
  C  C137  1  0.58444076  0.72037095  0.02953266  1.0
  C  C138  1  0.57889092  0.02843707  0.62311621  1.0
  C  C139  1  0.42109325  0.37687565  0.97155991  1.0
  C  C140  1  0.42110736  0.97156291  0.37688339  1.0
  C  C141  1  0.57890672  0.62312589  0.02844009  1.0
  C  C142  1  0.44489319  0.09876485  0.69438783  1.0
  C  C143  1  0.55510875  0.30560681  0.90123756  1.0
  C  C144  1  0.55510605  0.90123513  0.30561229  1.0
  C  C145  1  0.44488859  0.69439316  0.09876197  1.0
  C  C146  1  0.37528419  0.10590651  0.74373411  1.0
  C  C147  1  0.62472144  0.25626204  0.89410176  1.0
  C  C148  1  0.62471866  0.89409505  0.25626788  1.0
  C  C149  1  0.37527709  0.74373845  0.10589810  1.0
  C  C150  1  0.89762423  0.55728343  0.68740028  1.0
  C  C151  1  0.10235919  0.31259466  0.44271710  1.0
  C  C152  1  0.10238256  0.44271452  0.31259944  1.0
  C  C153  1  0.89764077  0.68740482  0.55728416  1.0
  C  C154  1  0.96820554  0.59218206  0.65503451  1.0
  C  C155  1  0.03179690  0.34496505  0.40782667  1.0
  C  C156  1  0.03180129  0.40781796  0.34496616  1.0
  C  C157  1  0.96820469  0.65503391  0.59217359  1.0
  C  C158  1  0.90230011  0.62243655  0.62243235  1.0
  C  C159  1  0.09770270  0.37756295  0.37756912  1.0
  C  C160  1  0.30733187  0.15665553  0.76452329  1.0
  C  C161  1  0.69268573  0.23547383  0.84335635  1.0
  C  C162  1  0.69266666  0.84334497  0.23547656  1.0
  C  C163  1  0.30731255  0.76452615  0.15664325  1.0
  C  C164  1  0.21253537  0.56253821  0.82926041  1.0
  C  C165  1  0.78743105  0.17075534  0.43747174  1.0
  C  C166  1  0.78746414  0.43746230  0.17074129  1.0
  C  C167  1  0.21256606  0.82924412  0.56252887  1.0
  C  C168  1  0.27397581  0.53198831  0.91799728  1.0
  C  C169  1  0.72597840  0.08202416  0.46803324  1.0
  C  C170  1  0.72602345  0.46801169  0.08200417  1.0
  C  C171  1  0.27401826  0.91797633  0.53196826  1.0
  C  C172  1  0.19356206  0.55972613  0.88783632  1.0
  C  C173  1  0.80638964  0.11217785  0.44028719  1.0
  C  C174  1  0.80643721  0.44027386  0.11216558  1.0
  C  C175  1  0.19360843  0.88782162  0.55971438  1.0
  C  C176  1  0.95407971  0.42319577  0.77068030  1.0
  C  C177  1  0.04596276  0.22932080  0.57683140  1.0
  C  C178  1  0.04592052  0.57680629  0.22932084  1.0
  C  C179  1  0.95404076  0.77068024  0.42316907  1.0
  C  C180  1  0.23831296  0.30169856  0.73332470  1.0
  C  C181  1  0.76176440  0.26669362  0.69833243  1.0
  C  C182  1  0.76169088  0.69830507  0.26667831  1.0
  C  C183  1  0.23823817  0.73330742  0.30166752  1.0
  C  C184  1  0.50721535  0.48699007  0.80159098  1.0
  C  C185  1  0.49281305  0.19846777  0.51305241  1.0
  C  C186  1  0.49278414  0.51301043  0.19840984  1.0
  C  C187  1  0.50718910  0.80153430  0.48695021  1.0
  C  C188  1  0.31314760  0.53838682  0.80047531  1.0
  C  C189  1  0.68684501  0.19955370  0.46163191  1.0
  C  C190  1  0.68685404  0.46161421  0.19952590  1.0
  C  C191  1  0.31315280  0.80044525  0.53836851  1.0
  C  C192  1  0.17485251  0.26943873  0.81415684  1.0
  C  C193  1  0.82517340  0.18584175  0.73057847  1.0
  C  C194  1  0.82514532  0.73056228  0.18584321  1.0
  C  C195  1  0.17482843  0.81415773  0.26942071  1.0
  C  C196  1  0.36856966  0.18885482  0.68331674  1.0
  C  C197  1  0.63147132  0.31668982  0.81116606  1.0
  C  C198  1  0.63143057  0.81114724  0.31668441  1.0
  C  C199  1  0.36853007  0.68331069  0.18883445  1.0
  C  C200  1  0.43816731  0.13899668  0.66262433  1.0
  C  C201  1  0.56184936  0.33737555  0.86101265  1.0
  C  C202  1  0.56183003  0.86100330  0.33737565  1.0
  C  C203  1  0.43815227  0.66262548  0.13898767  1.0
  C  C204  1  0.39563190  0.51133908  0.83039676  1.0
  C  C205  1  0.60435123  0.16963297  0.48867627  1.0
  C  C206  1  0.60436590  0.48865987  0.16960366  1.0
  C  C207  1  0.39564637  0.83036753  0.51132441  1.0
  C  C208  1  0.10236385  0.31815658  0.83345348  1.0
  C  C209  1  0.89767012  0.16654341  0.68186267  1.0
  C  C210  1  0.89763854  0.68184601  0.16654850  1.0
  C  C211  1  0.10233244  0.83345762  0.31813683  1.0
  C  C212  1  0.09410829  0.35698518  0.80021525  1.0
  C  C213  1  0.90593464  0.19978524  0.64303923  1.0
  C  C214  1  0.90589124  0.64301740  0.19978608  1.0
  C  C215  1  0.09407054  0.80021530  0.35696156  1.0
  C  C216  1  0.95553606  0.42647986  0.86907119  1.0
  C  C217  1  0.04448082  0.13091587  0.57352807  1.0
  C  C218  1  0.04446153  0.57352063  0.13092904  1.0
  C  C219  1  0.95552081  0.86908516  0.42647225  1.0
  C  C220  1  0.30541541  0.20091295  0.73651306  1.0
  C  C221  1  0.69461364  0.26348782  0.79910115  1.0
  C  C222  1  0.69458552  0.79908860  0.26348790  1.0
  C  C223  1  0.30538627  0.73651165  0.20089744  1.0
  C  C224  1  0.16637675  0.35066395  0.75208419  1.0
  C  C225  1  0.83369256  0.24792583  0.64936359  1.0
  C  C226  1  0.83362469  0.64933863  0.24791773  1.0
  C  C227  1  0.16631266  0.75207677  0.35063771  1.0
  C  C228  1  0.37479716  0.50810344  0.88877851  1.0
  C  C229  1  0.62516428  0.11124405  0.49190865  1.0
  C  C230  1  0.62520160  0.49189551  0.11122198  1.0
  C  C231  1  0.37483143  0.88875644  0.50809234  1.0
  C  C232  1  0.23962450  0.25753782  0.76154471  1.0
  C  C233  1  0.76042106  0.23846097  0.74248464  1.0
  C  C234  1  0.76037763  0.74246425  0.23845657  1.0
  C  C235  1  0.23958126  0.76153955  0.25751506  1.0
  N  N236  1  0.87433906  0.46182143  0.86059137  1.0
  N  N237  1  0.12567045  0.13939296  0.53818080  1.0
  N  N238  1  0.12565732  0.53817854  0.13940809  1.0
  N  N239  1  0.87433161  0.86060703  0.46181819  1.0
  N  N240  1  0.66051530  0.99251861  0.63025593  1.0
  N  N241  1  0.33947335  0.36973127  0.00747875  1.0
  N  N242  1  0.33948489  0.00748138  0.36974470  1.0
  N  N243  1  0.66052662  0.63027027  0.99252125  1.0
  N  N244  1  0.87307155  0.45905855  0.79844257  1.0
  N  N245  1  0.12695090  0.20154904  0.54095700  1.0
  N  N246  1  0.12692509  0.54094194  0.20155759  1.0
  N  N247  1  0.87305117  0.79845096  0.45904199  1.0
  N  N248  1  0.52759769  0.05307553  0.67903925  1.0
  N  N249  1  0.47239906  0.32095499  0.94692387  1.0
  N  N250  1  0.47240154  0.94692445  0.32096042  1.0
  N  N251  1  0.52759876  0.67904602  0.05307573  1.0
  N  N252  1  0.00853047  0.40109867  0.81347040  1.0
  N  N253  1  0.99151376  0.18652531  0.59892466  1.0
  N  N254  1  0.99146737  0.59890234  0.18653009  1.0
  N  N255  1  0.00849096  0.81347625  0.40107569  1.0
  N  N256  1  0.66466029  0.99310068  0.69198917  1.0
  N  N257  1  0.33534295  0.30799827  0.00689875  1.0
  N  N258  1  0.33533920  0.00689982  0.30801165  1.0
  N  N259  1  0.66465703  0.69200326  0.99310169  1.0
  O  O260  1  0.97876615  0.61135231  0.01074277  1.0
  O  O261  1  0.02121151  0.98926922  0.38866570  1.0
  O  O262  1  0.02123308  0.38864767  0.98925690  1.0
  O  O263  1  0.97878417  0.01073126  0.61133350  1.0
  O  O264  1  0.15024643  0.54188901  0.00095976  1.0
  O  O265  1  0.84971801  0.99906602  0.45813019  1.0
  O  O266  1  0.84975376  0.45811098  0.99904042  1.0
  O  O267  1  0.15027717  0.00093343  0.54186850  1.0
  O  O268  1  0.64953896  0.38955273  0.66690791  1.0
  O  O269  1  0.35073437  0.33313898  0.61041509  1.0
  O  O270  1  0.35047024  0.61044627  0.33309335  1.0
  O  O271  1  0.64927813  0.66686312  0.38958296  1.0
  O  O272  1  0.32248767  0.49725898  0.00236383  1.0
  O  O273  1  0.67743533  0.99763523  0.50273105  1.0
  O  O274  1  0.67751784  0.50274415  0.99764041  1.0
  O  O275  1  0.32256343  0.00236372  0.49726989  1.0
  O  O276  1  0.95299449  0.52287857  0.70944725  1.0
  O  O277  1  0.04694960  0.29049775  0.47707577  1.0
  O  O278  1  0.04700963  0.47711781  0.29055022  1.0
  O  O279  1  0.95305059  0.70950224  0.52292486  1.0
  O  O280  1  0.78219619  0.56521247  0.69298296  1.0
  O  O281  1  0.21782781  0.30704398  0.43482774  1.0
  O  O282  1  0.21781238  0.43478913  0.30702123  1.0
  O  O283  1  0.78217286  0.69295499  0.56517378  1.0
  O  O284  1  0.51914396  0.48607894  0.74536094  1.0
  O  O285  1  0.48100237  0.25475970  0.51405693  1.0
  O  O286  1  0.48085707  0.51392675  0.25464237  1.0
  O  O287  1  0.51901061  0.74524709  0.48595130  1.0
  O  O288  1  0.82380798  0.59631074  0.86995851  1.0
  O  O289  1  0.17618014  0.13000208  0.40365234  1.0
  O  O290  1  0.17619000  0.40368665  0.13003988  1.0
  O  O291  1  0.82382023  0.86999636  0.59634626  1.0
  O  O292  1  0.58609341  0.46918468  0.83473135  1.0
  O  O293  1  0.41385226  0.16530830  0.53079689  1.0
  O  O294  1  0.41390533  0.53081427  0.16526781  1.0
  O  O295  1  0.58614555  0.83469270  0.46920182  1.0
