# generated using pymatgen
data_Zn2H55C43N7O8
_symmetry_space_group_name_H-M   'P 1'
_cell_length_a   12.57533615
_cell_length_b   13.73432425
_cell_length_c   15.98218473
_cell_angle_alpha   90.08941259
_cell_angle_beta   91.96304417
_cell_angle_gamma   94.44676058
_symmetry_Int_Tables_number   1
_chemical_formula_structural   Zn2H55C43N7O8
_chemical_formula_sum   'Zn2 H55 C43 N7 O8'
_cell_volume   2750.39408942
_cell_formula_units_Z   1
loop_
 _symmetry_equiv_pos_site_id
 _symmetry_equiv_pos_as_xyz
  1  'x, y, z'
loop_
 _atom_site_type_symbol
 _atom_site_label
 _atom_site_symmetry_multiplicity
 _atom_site_fract_x
 _atom_site_fract_y
 _atom_site_fract_z
 _atom_site_occupancy
  Zn  Zn0  1  0.60965879  0.49742266  0.50092413  1.0
  Zn  Zn1  1  0.39095108  0.51554502  0.49710547  1.0
  H  H2  1  0.39246992  0.38034851  0.94037138  1.0
  H  H3  1  0.68647858  0.59730406  0.15720138  1.0
  H  H4  1  0.80563483  0.48206689  0.17691002  1.0
  H  H5  1  0.76469535  0.42229204  0.08201132  1.0
  H  H6  1  0.67861039  0.41615837  0.16893330  1.0
  H  H7  1  0.84152275  0.54629827  0.00436369  1.0
  H  H8  1  0.87210592  0.47048662  0.91923416  1.0
  H  H9  1  0.83268263  0.58957903  0.90022141  1.0
  H  H10  1  0.69448590  0.41130908  0.96300390  1.0
  H  H11  1  0.68657165  0.46479275  0.86396329  1.0
  H  H12  1  0.37381760  0.88782414  0.47380819  1.0
  H  H13  1  0.61925039  0.04162051  0.50730996  1.0
  H  H14  1  0.19620124  0.92913323  0.46724386  1.0
  H  H15  1  0.24789607  0.00986669  0.38834668  1.0
  H  H16  1  0.23773994  0.05289576  0.49281017  1.0
  H  H17  1  0.90503468  0.52858263  0.37998688  1.0
  H  H18  1  0.00273647  0.57093604  0.26072955  1.0
  H  H19  1  0.06406144  0.46411612  0.29564000  1.0
  H  H20  1  0.12370677  0.58294609  0.32148843  1.0
  H  H21  1  0.09433034  0.47051204  0.61843882  1.0
  H  H22  1  0.99608957  0.42993444  0.73805844  1.0
  H  H23  1  0.87439954  0.42497651  0.67797839  1.0
  H  H24  1  0.57541411  0.63242505  0.06227716  1.0
  H  H25  1  0.94126768  0.54068453  0.70521913  1.0
  H  H26  1  0.24627168  0.61326340  0.15279856  1.0
  H  H27  1  0.19117175  0.61194319  0.04916670  1.0
  H  H28  1  0.13717032  0.52817643  0.12379055  1.0
  H  H29  1  0.25350663  0.43826988  0.03320362  1.0
  H  H30  1  0.30890802  0.44929687  0.13547959  1.0
  H  H31  1  0.48469470  0.69756495  0.82028944  1.0
  H  H32  1  0.34752474  0.71981171  0.82253504  1.0
  H  H33  1  0.44522676  0.80455657  0.86834312  1.0
  H  H34  1  0.34683677  0.70071707  0.97538388  1.0
  H  H35  1  0.40557217  0.61187694  0.07809974  1.0
  H  H36  1  0.48607991  0.70318837  0.98291160  1.0
  H  H37  1  0.30594872  0.40047800  0.82504236  1.0
  H  H38  1  0.23529727  0.38185400  0.91885825  1.0
  H  H39  1  0.17732254  0.44176350  0.83318544  1.0
  H  H40  1  0.23526491  0.57061034  0.92938955  1.0
  H  H41  1  0.30823603  0.57725295  0.83832092  1.0
  H  H42  1  0.48023519  0.17517189  0.01593952  1.0
  H  H43  1  0.56342777  0.20587752  0.10553485  1.0
  H  H44  1  0.43295764  0.15010857  0.11729408  1.0
  H  H45  1  0.43270653  0.32348796  0.15187422  1.0
  H  H46  1  0.58848518  0.36905731  0.05068459  1.0
  H  H47  1  0.35458808  0.30044208  0.05948619  1.0
  H  H48  1  0.38844558  0.20818493  0.89891864  1.0
  H  H49  1  0.39582892  0.27599432  0.80461476  1.0
  H  H50  1  0.48202953  0.18179467  0.82281881  1.0
  H  H51  1  0.57446812  0.34901972  0.84390857  1.0
  H  H52  1  0.58317406  0.27631965  0.93362427  1.0
  H  H53  1  0.66413745  0.63784070  0.86066114  1.0
  H  H54  1  0.65018324  0.75949005  0.00987451  1.0
  H  H55  1  0.72441008  0.78025591  0.91927780  1.0
  H  H56  1  0.77113040  0.70235407  0.99986307  1.0
  C  C57  1  0.53857595  0.69469109  0.49801810  1.0
  C  C58  1  0.44985126  0.02189257  0.48782086  1.0
  C  C59  1  0.55118427  0.98834329  0.49843623  1.0
  C  C60  1  0.50184436  0.50124196  0.33630215  1.0
  C  C61  1  0.56163122  0.88849600  0.49867128  1.0
  C  C62  1  0.44005070  0.12382911  0.48948340  1.0
  C  C63  1  0.55443955  0.79886350  0.49735972  1.0
  C  C64  1  0.97109461  0.48551781  0.53450483  1.0
  C  C65  1  0.02808614  0.51816056  0.46496200  1.0
  C  C66  1  0.13998348  0.52790199  0.47640338  1.0
  C  C67  1  0.85917580  0.47788492  0.52295602  1.0
  C  C68  1  0.61465995  0.54879669  0.95659817  1.0
  C  C69  1  0.45399845  0.31802277  0.49594461  1.0
  C  C70  1  0.50555551  0.50557057  0.66188456  1.0
  C  C71  1  0.59923602  0.55811119  0.05268709  1.0
  C  C72  1  0.39667572  0.53992179  0.04686599  1.0
  C  C73  1  0.40356250  0.56160909  0.95000771  1.0
  C  C74  1  0.50551774  0.50694523  0.75201048  1.0
  C  C75  1  0.49837905  0.49052224  0.07948495  1.0
  C  C76  1  0.69961349  0.72390278  0.96486098  1.0
  C  C77  1  0.73631981  0.46392703  0.13428342  1.0
  C  C78  1  0.70272780  0.48175760  0.93077821  1.0
  C  C79  1  0.50100790  0.50487998  0.91838634  1.0
  C  C80  1  0.81860392  0.52484214  0.93979736  1.0
  C  C81  1  0.25554383  0.98974857  0.45498692  1.0
  C  C82  1  0.04724455  0.53912321  0.31264756  1.0
  C  C83  1  0.95313128  0.46490608  0.68696647  1.0
  C  C84  1  0.29107472  0.49110443  0.07879438  1.0
  C  C85  1  0.21190915  0.56515248  0.10206127  1.0
  C  C86  1  0.41689023  0.67591985  0.94388280  1.0
  C  C87  1  0.42367004  0.72611715  0.85862472  1.0
  C  C88  1  0.29811332  0.53597085  0.89662585  1.0
  C  C89  1  0.25321315  0.43380163  0.86814832  1.0
  C  C90  1  0.47904100  0.39440167  0.94710280  1.0
  C  C91  1  0.43713648  0.30424821  0.08526225  1.0
  C  C92  1  0.48079964  0.20348415  0.08020405  1.0
  C  C93  1  0.52713824  0.31508165  0.89396045  1.0
  C  C94  1  0.44371212  0.24119527  0.85316625  1.0
  C  C95  1  0.50502611  0.38657071  0.04176095  1.0
  C  C96  1  0.50321563  0.50774385  0.82800478  1.0
  C  C97  1  0.49828063  0.49077836  0.17012626  1.0
  C  C98  1  0.49908733  0.49668631  0.24603825  1.0
  C  C99  1  0.44150601  0.21257961  0.49231464  1.0
  N  N100  1  0.76782752  0.47497321  0.50762447  1.0
  N  N101  1  0.23166634  0.53383919  0.49068447  1.0
  N  N102  1  0.63762939  0.64570132  0.91949030  1.0
  N  N103  1  0.69687568  0.55607650  0.10551566  1.0
  N  N104  1  0.36043794  0.95981088  0.47784155  1.0
  N  N105  1  0.98522942  0.54338303  0.38791435  1.0
  N  N106  1  0.01370903  0.45884883  0.61112840  1.0
  O  O107  1  0.62035328  0.64580923  0.50892050  1.0
  O  O108  1  0.44149844  0.65967650  0.48753447  1.0
  O  O109  1  0.59400874  0.50694938  0.37264557  1.0
  O  O110  1  0.41190612  0.49883504  0.37095464  1.0
  O  O111  1  0.55002659  0.35413327  0.49091240  1.0
  O  O112  1  0.37083318  0.36390992  0.50370086  1.0
  O  O113  1  0.59333440  0.48994927  0.62856017  1.0
  O  O114  1  0.41716755  0.51980723  0.62392532  1.0
