# generated using pymatgen
data_Zn4H8C26S4O17
_symmetry_space_group_name_H-M   'P 1'
_cell_length_a   19.65146354
_cell_length_b   19.66263276
_cell_length_c   33.34037245
_cell_angle_alpha   79.04939164
_cell_angle_beta   79.10696897
_cell_angle_gamma   63.79527512
_symmetry_Int_Tables_number   1
_chemical_formula_structural   Zn4H8C26S4O17
_chemical_formula_sum   'Zn16 H32 C104 S16 O68'
_cell_volume   11267.12664866
_cell_formula_units_Z   4
loop_
 _symmetry_equiv_pos_site_id
 _symmetry_equiv_pos_as_xyz
  1  'x, y, z'
loop_
 _atom_site_type_symbol
 _atom_site_label
 _atom_site_symmetry_multiplicity
 _atom_site_fract_x
 _atom_site_fract_y
 _atom_site_fract_z
 _atom_site_occupancy
  Zn  Zn0  1  0.59862925  0.94478551  0.52181057  1.0
  Zn  Zn1  1  0.51538003  0.01677723  0.43875146  1.0
  Zn  Zn2  1  0.43836525  0.94123405  0.51540478  1.0
  Zn  Zn3  1  0.44696739  0.09986109  0.52062378  1.0
  Zn  Zn4  1  0.65094590  0.30399497  0.72799972  1.0
  Zn  Zn5  1  0.81043307  0.31032272  0.73308672  1.0
  Zn  Zn6  1  0.73551759  0.23259753  0.81000959  1.0
  Zn  Zn7  1  0.80588022  0.15180912  0.72645775  1.0
  Zn  Zn8  1  0.23259155  0.73519662  0.30989954  1.0
  Zn  Zn9  1  0.30305687  0.65219270  0.22761835  1.0
  Zn  Zn10  1  0.15056813  0.80637483  0.22753903  1.0
  Zn  Zn11  1  0.31227373  0.80916700  0.23342486  1.0
  Zn  Zn12  1  0.94034266  0.43943329  0.01600401  1.0
  Zn  Zn13  1  0.94452328  0.59933397  0.02148768  1.0
  Zn  Zn14  1  0.09875356  0.44616079  0.02182576  1.0
  Zn  Zn15  1  0.01646463  0.51661771  0.93921664  1.0
  H  H16  1  0.49582853  0.20137620  0.60237251  1.0
  H  H17  1  0.75115850  0.04394802  0.65075099  1.0
  H  H18  1  0.54371911  0.25054155  0.65002795  1.0
  H  H19  1  0.70409742  0.99568747  0.60222092  1.0
  H  H20  1  0.34269849  0.85217411  0.45026288  1.0
  H  H21  1  0.40226990  0.90328255  0.29865689  1.0
  H  H22  1  0.29452599  0.80421811  0.40207879  1.0
  H  H23  1  0.45277855  0.94880047  0.34682615  1.0
  H  H24  1  0.76039931  0.53461568  0.65695502  1.0
  H  H25  1  0.29335311  0.52170245  0.39757264  1.0
  H  H26  1  0.02044158  0.80346836  0.39749428  1.0
  H  H27  1  0.03041611  0.05349476  0.65036157  1.0
  H  H28  1  0.80444840  0.29454641  0.90206534  1.0
  H  H29  1  0.95030366  0.45149797  0.84697102  1.0
  H  H30  1  0.85032953  0.34465001  0.95030096  1.0
  H  H31  1  0.90360657  0.40218597  0.79876149  1.0
  H  H32  1  0.23043229  0.45528659  0.85143341  1.0
  H  H33  1  0.85542056  0.83797547  0.95875244  1.0
  H  H34  1  0.04377431  0.75500889  0.14796889  1.0
  H  H35  1  0.20279951  0.49882539  0.10142287  1.0
  H  H36  1  0.99646347  0.70632234  0.09971624  1.0
  H  H37  1  0.24945234  0.54687153  0.15027437  1.0
  H  H38  1  0.71926396  0.69835769  0.09733706  1.0
  H  H39  1  0.99168504  0.21319892  0.09020033  1.0
  H  H40  1  0.49378797  0.63543142  0.56875814  1.0
  H  H41  1  0.39579440  0.24753536  0.31338866  1.0
  H  H42  1  0.73899246  0.03026484  0.32033112  1.0
  H  H43  1  0.14093169  0.28507564  0.57915575  1.0
  H  H44  1  0.49831202  0.36202098  0.93640713  1.0
  H  H45  1  0.99319008  0.85007626  0.78791038  1.0
  H  H46  1  0.54169225  0.52598478  0.09961869  1.0
  H  H47  1  0.31559415  0.05034879  0.10881971  1.0
  C  C48  1  0.68260105  0.93955854  0.43849367  1.0
  C  C49  1  0.42871245  0.93189264  0.42991290  1.0
  C  C50  1  0.55922478  0.81663901  0.56055734  1.0
  C  C51  1  0.31836035  0.06324802  0.56094709  1.0
  C  C52  1  0.57002213  0.06786935  0.56988876  1.0
  C  C53  1  0.44043677  0.18410245  0.43748031  1.0
  C  C54  1  0.68694114  0.43493784  0.68963812  1.0
  C  C55  1  0.82357544  0.31628541  0.81898457  1.0
  C  C56  1  0.56815963  0.31140966  0.81184145  1.0
  C  C57  1  0.80977711  0.06651433  0.80968093  1.0
  C  C58  1  0.67941101  0.17993977  0.68073317  1.0
  C  C59  1  0.93479666  0.18994894  0.68764217  1.0
  C  C60  1  0.31381011  0.56783038  0.31104174  1.0
  C  C61  1  0.17771867  0.68255998  0.18043599  1.0
  C  C62  1  0.06473894  0.81070286  0.31057912  1.0
  C  C63  1  0.19093027  0.93302256  0.18834258  1.0
  C  C64  1  0.31696818  0.82256281  0.31910790  1.0
  C  C65  1  0.43360146  0.68643769  0.18886723  1.0
  C  C66  1  0.81665150  0.56043196  0.06161924  1.0
  C  C67  1  0.06913836  0.57121586  0.06884467  1.0
  C  C68  1  0.06159121  0.31693953  0.06176629  1.0
  C  C69  1  0.18407990  0.43749386  0.93825433  1.0
  C  C70  1  0.93071296  0.43033475  0.93002592  1.0
  C  C71  1  0.93657241  0.68470884  0.93825526  1.0
  C  C72  1  0.59772115  0.09615852  0.59917485  1.0
  C  C73  1  0.65048784  0.15038815  0.65274966  1.0
  C  C74  1  0.55190020  0.16777546  0.61282681  1.0
  C  C75  1  0.69574671  0.07821282  0.63965193  1.0
  C  C76  1  0.57834673  0.19486095  0.63936474  1.0
  C  C77  1  0.66954224  0.05139599  0.61285712  1.0
  C  C78  1  0.40011995  0.90343353  0.40122869  1.0
  C  C79  1  0.34570629  0.85105460  0.34768122  1.0
  C  C80  1  0.35556486  0.86272771  0.41704274  1.0
  C  C81  1  0.39000509  0.89201496  0.33186999  1.0
  C  C82  1  0.32879240  0.83631396  0.39037011  1.0
  C  C83  1  0.41757403  0.91767905  0.35856056  1.0
  C  C84  1  0.53977788  0.70018474  0.60190372  1.0
  C  C85  1  0.70203871  0.55351412  0.65066851  1.0
  C  C86  1  0.58173103  0.74307429  0.58729372  1.0
  C  C87  1  0.66075186  0.51039252  0.66500702  1.0
  C  C88  1  0.65833159  0.62244177  0.62758587  1.0
  C  C89  1  0.58421674  0.63059477  0.62476518  1.0
  C  C90  1  0.43371583  0.27428055  0.36984907  1.0
  C  C91  1  0.32641587  0.47699578  0.37783627  1.0
  C  C92  1  0.41886276  0.25899911  0.41222948  1.0
  C  C93  1  0.34053944  0.49244168  0.33564441  1.0
  C  C94  1  0.36000910  0.39768388  0.39035226  1.0
  C  C95  1  0.39924294  0.35408387  0.35728905  1.0
  C  C96  1  0.77130725  0.91911502  0.37023634  1.0
  C  C97  1  0.97503170  0.82919466  0.37777006  1.0
  C  C98  1  0.75710951  0.91281882  0.41292165  1.0
  C  C99  1  0.98947785  0.83558700  0.33530941  1.0
  C  C100  1  0.89575726  0.86003102  0.39057514  1.0
  C  C101  1  0.85108858  0.88937622  0.35748952  1.0
  C  C102  1  0.20483641  0.15574466  0.60532365  1.0
  C  C103  1  0.05186415  0.09691650  0.64696721  1.0
  C  C104  1  0.24530262  0.08763017  0.58807469  1.0
  C  C105  1  0.01082244  0.16494377  0.66369827  1.0
  C  C106  1  0.12244530  0.09337746  0.62570721  1.0
  C  C107  1  0.13390024  0.15909427  0.62664771  1.0
  C  C108  1  0.85146458  0.34554428  0.84769132  1.0
  C  C109  1  0.90293928  0.40090075  0.90136770  1.0
  C  C110  1  0.83634326  0.32902628  0.89037943  1.0
  C  C111  1  0.91821197  0.41723406  0.85868478  1.0
  C  C112  1  0.86179113  0.35675092  0.91709001  1.0
  C  C113  1  0.89242387  0.38985433  0.83197597  1.0
  C  C114  1  0.47818913  0.31935812  0.87987484  1.0
  C  C115  1  0.27510052  0.42374410  0.87140439  1.0
  C  C116  1  0.49344573  0.33278282  0.83736659  1.0
  C  C117  1  0.25953638  0.41126822  0.91366594  1.0
  C  C118  1  0.35454676  0.39068501  0.85904320  1.0
  C  C119  1  0.39826690  0.35333924  0.89225232  1.0
  C  C120  1  0.86934195  0.91928307  0.82034791  1.0
  C  C121  1  0.87127418  0.83047325  0.92630135  1.0
  C  C122  1  0.83121658  0.99081423  0.83413709  1.0
  C  C123  1  0.91024896  0.75926240  0.91279130  1.0
  C  C124  1  0.85649440  0.88887151  0.89277172  1.0
  C  C125  1  0.88446103  0.86084158  0.85418219  1.0
  C  C126  1  0.14934732  0.65379588  0.15172891  1.0
  C  C127  1  0.09708737  0.59996904  0.09771794  1.0
  C  C128  1  0.07802451  0.69904857  0.13758777  1.0
  C  C129  1  0.16846451  0.55474647  0.11183998  1.0
  C  C130  1  0.05187864  0.67212588  0.11082453  1.0
  C  C131  1  0.19435167  0.58140573  0.13885444  1.0
  C  C132  1  0.55289684  0.58880804  0.15015870  1.0
  C  C133  1  0.69997458  0.65304389  0.10274654  1.0
  C  C134  1  0.51040032  0.65865304  0.16544628  1.0
  C  C135  1  0.74223775  0.58398457  0.08719260  1.0
  C  C136  1  0.63104425  0.65503251  0.12558883  1.0
  C  C137  1  0.62198938  0.58719078  0.12700213  1.0
  C  C138  1  0.20508641  0.05601053  0.15366860  1.0
  C  C139  1  0.04788173  0.19677467  0.09899755  1.0
  C  C140  1  0.16575002  0.01002768  0.16512985  1.0
  C  C141  1  0.08702305  0.24237845  0.08723923  1.0
  C  C142  1  0.09074489  0.12885795  0.12306292  1.0
  C  C143  1  0.16199944  0.12400648  0.12921971  1.0
  C  C144  1  0.45754575  0.72409819  0.59736655  1.0
  C  C145  1  0.48456317  0.21657470  0.34115563  1.0
  C  C146  1  0.71291289  0.94498247  0.34082236  1.0
  C  C147  1  0.23192249  0.21637296  0.60438673  1.0
  C  C148  1  0.53581760  0.27153666  0.90915292  1.0
  C  C149  1  0.88823852  0.90344297  0.77640529  1.0
  C  C150  1  0.53303855  0.52167069  0.15870618  1.0
  C  C151  1  0.27987649  0.04063695  0.16688004  1.0
  S  S152  1  0.67320815  0.70019698  0.60180775  1.0
  S  S153  1  0.56861963  0.55319222  0.65095811  1.0
  S  S154  1  0.36538547  0.34032735  0.43665341  1.0
  S  S155  1  0.39520259  0.41138553  0.31085731  1.0
  S  S156  1  0.83935809  0.86998126  0.43726027  1.0
  S  S157  1  0.90735673  0.87851989  0.31062321  1.0
  S  S158  1  0.19886524  0.02783214  0.59847780  1.0
  S  S159  1  0.05766429  0.22472467  0.65425665  1.0
  S  S160  1  0.41199075  0.38441341  0.81277401  1.0
  S  S161  1  0.34080595  0.35881133  0.93869753  1.0
  S  S162  1  0.81223984  0.98708913  0.88728964  1.0
  S  S163  1  0.92849286  0.76236124  0.85945199  1.0
  S  S164  1  0.55435448  0.72068888  0.15264109  1.0
  S  S165  1  0.69931293  0.52070804  0.10044738  1.0
  S  S166  1  0.07721670  0.04950864  0.14718140  1.0
  S  S167  1  0.17546923  0.20391430  0.10555057  1.0
  O  O168  1  0.50023729  0.00017281  0.49941603  1.0
  O  O169  1  0.68375124  0.91660891  0.47707885  1.0
  O  O170  1  0.47316848  0.96391450  0.41384819  1.0
  O  O171  1  0.49815088  0.84006016  0.54410287  1.0
  O  O172  1  0.62470166  0.98348318  0.41992953  1.0
  O  O173  1  0.60452138  0.84905200  0.55615799  1.0
  O  O174  1  0.40617446  0.92208743  0.46826352  1.0
  O  O175  1  0.34793433  0.99379526  0.55360214  1.0
  O  O176  1  0.50329750  0.11053734  0.55964684  1.0
  O  O177  1  0.34395132  0.11343353  0.54688588  1.0
  O  O178  1  0.61538770  0.00355270  0.55730663  1.0
  O  O179  1  0.46381710  0.12593648  0.41850987  1.0
  O  O180  1  0.43221078  0.18527923  0.47637409  1.0
  O  O181  1  0.75037396  0.24988974  0.74951351  1.0
  O  O182  1  0.63884861  0.40525455  0.69923188  1.0
  O  O183  1  0.83452294  0.33769881  0.78062826  1.0
  O  O184  1  0.62685126  0.28706880  0.83054668  1.0
  O  O185  1  0.75497602  0.40624734  0.69903690  1.0
  O  O186  1  0.56611922  0.32081397  0.77299012  1.0
  O  O187  1  0.79093562  0.27232949  0.83516854  1.0
  O  O188  1  0.76704257  0.12353278  0.82946789  1.0
  O  O189  1  0.74493184  0.13605621  0.69232913  1.0
  O  O190  1  0.83669345  0.06818734  0.77185448  1.0
  O  O191  1  0.63662167  0.24694336  0.69069775  1.0
  O  O192  1  0.90823847  0.25530340  0.70051880  1.0
  O  O193  1  0.90250144  0.14454452  0.69331010  1.0
  O  O194  1  0.24930420  0.75118196  0.24948602  1.0
  O  O195  1  0.27437220  0.62564041  0.33058789  1.0
  O  O196  1  0.23983092  0.63584943  0.19484256  1.0
  O  O197  1  0.06459228  0.82386060  0.27147937  1.0
  O  O198  1  0.33263810  0.56799105  0.27214509  1.0
  O  O199  1  0.12294377  0.77842258  0.33030660  1.0
  O  O200  1  0.13772326  0.75140483  0.18816262  1.0
  O  O201  1  0.13915655  0.90829128  0.20002152  1.0
  O  O202  1  0.33193770  0.84007085  0.28061750  1.0
  O  O203  1  0.26108966  0.89824498  0.19388832  1.0
  O  O204  1  0.27981930  0.78275289  0.33542118  1.0
  O  O205  1  0.39513543  0.64802711  0.19041369  1.0
  O  O206  1  0.41276171  0.74789758  0.20480627  1.0
  O  O207  1  0.00001038  0.50046454  0.99961227  1.0
  O  O208  1  0.84498440  0.49341447  0.05064343  1.0
  O  O209  1  0.00258808  0.61394661  0.05824071  1.0
  O  O210  1  0.10736276  0.34925934  0.05494812  1.0
  O  O211  1  0.84586288  0.60871844  0.05274523  1.0
  O  O212  1  0.99661387  0.34226286  0.04884771  1.0
  O  O213  1  0.11401151  0.50618304  0.05701986  1.0
  O  O214  1  0.18400256  0.41999016  0.97724110  1.0
  O  O215  1  0.96944719  0.46853888  0.91373968  1.0
  O  O216  1  0.12608596  0.47511377  0.91859168  1.0
  O  O217  1  0.91359910  0.41489593  0.96853162  1.0
  O  O218  1  0.92094695  0.68528767  0.97716636  1.0
  O  O219  1  0.97286914  0.62614923  0.91880426  1.0
  O  O220  1  0.44491806  0.67494384  0.57880573  1.0
  O  O221  1  0.40466433  0.77913197  0.61071374  1.0
  O  O222  1  0.45041704  0.21419631  0.30968244  1.0
  O  O223  1  0.55193918  0.17743614  0.34340279  1.0
  O  O224  1  0.71009551  0.00597139  0.31269976  1.0
  O  O225  1  0.67463849  0.91136042  0.33949312  1.0
  O  O226  1  0.18263569  0.28814400  0.58961602  1.0
  O  O227  1  0.28949584  0.20650649  0.61735937  1.0
  O  O228  1  0.53402339  0.30823131  0.94066739  1.0
  O  O229  1  0.57842001  0.20482177  0.90760523  1.0
  O  O230  1  0.96380670  0.85866439  0.76537041  1.0
  O  O231  1  0.84196393  0.92353779  0.75235286  1.0
  O  O232  1  0.53374318  0.49292175  0.12417430  1.0
  O  O233  1  0.52107658  0.49106864  0.19264514  1.0
  O  O234  1  0.33422299  0.04406239  0.13508787  1.0
  O  O235  1  0.29230962  0.03012001  0.20223948  1.0
