# generated using pymatgen
data_ZnSiH24C24(N2F)6
_symmetry_space_group_name_H-M   'P 1'
_cell_length_a   7.80613131
_cell_length_b   13.85726518
_cell_length_c   13.85719068
_cell_angle_alpha   90.00007447
_cell_angle_beta   89.99961791
_cell_angle_gamma   89.99965619
_symmetry_Int_Tables_number   1
_chemical_formula_structural   ZnSiH24C24(N2F)6
_chemical_formula_sum   'Zn1 Si1 H24 C24 N12 F6'
_cell_volume   1498.95492508
_cell_formula_units_Z   1
loop_
 _symmetry_equiv_pos_site_id
 _symmetry_equiv_pos_as_xyz
  1  'x, y, z'
loop_
 _atom_site_type_symbol
 _atom_site_label
 _atom_site_symmetry_multiplicity
 _atom_site_fract_x
 _atom_site_fract_y
 _atom_site_fract_z
 _atom_site_occupancy
  Zn  Zn0  1  0.49990619  0.50000322  0.49998867  1.0
  Si  Si1  1  0.99994134  0.49998433  0.49999422  1.0
  H  H2  1  0.75259931  0.65825188  0.45169135  1.0
  H  H3  1  0.24732285  0.65830476  0.54832084  1.0
  H  H4  1  0.75257865  0.34174072  0.54834132  1.0
  H  H5  1  0.24735456  0.34169460  0.45162066  1.0
  H  H6  1  0.75256390  0.45169229  0.34172159  1.0
  H  H7  1  0.24734641  0.54832838  0.34167499  1.0
  H  H8  1  0.75255000  0.54832917  0.65828149  1.0
  H  H9  1  0.24738607  0.45163418  0.65830693  1.0
  H  H10  1  0.20932172  0.91857697  0.56980235  1.0
  H  H11  1  0.10574341  0.80969059  0.57847234  1.0
  H  H12  1  0.79076420  0.91851239  0.43019142  1.0
  H  H13  1  0.89427193  0.80960183  0.42152345  1.0
  H  H14  1  0.20937438  0.08141819  0.43011909  1.0
  H  H15  1  0.10578092  0.19031070  0.42145021  1.0
  H  H16  1  0.79073453  0.08148296  0.56984761  1.0
  H  H17  1  0.89423715  0.19039967  0.57852095  1.0
  H  H18  1  0.20931233  0.56980076  0.08141525  1.0
  H  H19  1  0.10575331  0.57847588  0.19030116  1.0
  H  H20  1  0.79074065  0.43017699  0.08147395  1.0
  H  H21  1  0.89423563  0.42152078  0.19037966  1.0
  H  H22  1  0.20933765  0.43010419  0.91855815  1.0
  H  H23  1  0.10578384  0.42144602  0.80966686  1.0
  H  H24  1  0.79070171  0.56983063  0.91852033  1.0
  H  H25  1  0.89419019  0.57850670  0.80961134  1.0
  C  C26  1  0.64171816  0.70099500  0.47323636  1.0
  C  C27  1  0.64929885  0.80199544  0.47376177  1.0
  C  C28  1  0.50002345  0.85434370  0.49999251  1.0
  C  C29  1  0.35072170  0.80203134  0.52624411  1.0
  C  C30  1  0.35822275  0.70102655  0.52677589  1.0
  C  C31  1  0.50004853  0.95574611  0.49998753  1.0
  C  C32  1  0.50005209  0.04424085  0.49997899  1.0
  C  C33  1  0.50004258  0.14564903  0.49996751  1.0
  C  C34  1  0.64929534  0.19799679  0.52623882  1.0
  C  C35  1  0.64171486  0.29899653  0.52677076  1.0
  C  C36  1  0.35825082  0.29896883  0.47317530  1.0
  C  C37  1  0.35074571  0.19796551  0.47370421  1.0
  C  C38  1  0.64172167  0.47322556  0.29899815  1.0
  C  C39  1  0.64931117  0.47374795  0.19802096  1.0
  C  C40  1  0.50000306  0.49999145  0.14570258  1.0
  C  C41  1  0.35066872  0.52625016  0.19799053  1.0
  C  C42  1  0.35820707  0.52678639  0.29896986  1.0
  C  C43  1  0.50002415  0.49998488  0.04425994  1.0
  C  C44  1  0.50003163  0.49996816  0.95573184  1.0
  C  C45  1  0.50001942  0.49995582  0.85428848  1.0
  C  C46  1  0.64930608  0.52624427  0.80197097  1.0
  C  C47  1  0.64171648  0.52676741  0.70099814  1.0
  C  C48  1  0.35823447  0.47317435  0.70101596  1.0
  C  C49  1  0.35068981  0.47369689  0.80199388  1.0
  N  N50  1  0.49995918  0.65352341  0.50000681  1.0
  N  N51  1  0.49996722  0.34647437  0.49997991  1.0
  N  N52  1  0.49995577  0.50001034  0.34643013  1.0
  N  N53  1  0.49996166  0.49998239  0.65356165  1.0
  N  N54  1  0.19989758  0.84918738  0.54704807  1.0
  N  N55  1  0.80014681  0.84912280  0.45295066  1.0
  N  N56  1  0.19994411  0.15080709  0.45286763  1.0
  N  N57  1  0.80012819  0.15087036  0.54708617  1.0
  N  N58  1  0.19988869  0.54705247  0.15080739  1.0
  N  N59  1  0.80011224  0.45293404  0.15086752  1.0
  N  N60  1  0.19992610  0.45285252  0.84917182  1.0
  N  N61  1  0.80009614  0.54707283  0.84913322  1.0
  F  F62  1  0.77692690  0.49999698  0.50000041  1.0
  F  F63  1  0.22291879  0.49998565  0.49998776  1.0
  F  F64  1  0.99992499  0.58739558  0.58743119  1.0
  F  F65  1  0.99990388  0.41258319  0.41256157  1.0
  F  F66  1  0.99990423  0.58742289  0.41258839  1.0
  F  F67  1  0.99991695  0.41254867  0.58739571  1.0
