# generated using pymatgen
data_AlH5C11NO5F2
_symmetry_space_group_name_H-M   'P 1'
_cell_length_a   6.66085085
_cell_length_b   11.11448997
_cell_length_c   16.94075647
_cell_angle_alpha   85.01565599
_cell_angle_beta   83.83723459
_cell_angle_gamma   73.60316161
_symmetry_Int_Tables_number   1
_chemical_formula_structural   AlH5C11NO5F2
_chemical_formula_sum   'Al2 H10 C22 N2 O10 F4'
_cell_volume   1194.09067416
_cell_formula_units_Z   2
loop_
 _symmetry_equiv_pos_site_id
 _symmetry_equiv_pos_as_xyz
  1  'x, y, z'
loop_
 _atom_site_type_symbol
 _atom_site_label
 _atom_site_symmetry_multiplicity
 _atom_site_fract_x
 _atom_site_fract_y
 _atom_site_fract_z
 _atom_site_occupancy
  Al  Al0  1  0.50000493  0.49999026  0.50000520  1.0
  Al  Al1  1  0.00000142  0.49999532  0.50000415  1.0
  H  H2  1  0.20363512  0.63455107  0.43309754  1.0
  H  H3  1  0.79639830  0.36540683  0.56688799  1.0
  H  H4  1  0.84123546  0.54819463  0.73379455  1.0
  H  H5  1  0.77656175  0.54696922  0.88231304  1.0
  H  H6  1  0.44509908  0.45546448  0.89903105  1.0
  H  H7  1  0.55491313  0.54452006  0.10097137  1.0
  H  H8  1  0.22343672  0.45307622  0.11769543  1.0
  H  H9  1  0.15875222  0.45184796  0.26621279  1.0
  H  H10  1  0.25072588  0.87182137  0.53807651  1.0
  H  H11  1  0.74926840  0.12817337  0.46189794  1.0
  C  C12  1  0.63792289  0.72629915  0.50130735  1.0
  C  C13  1  0.79753884  0.49636249  0.35644445  1.0
  C  C14  1  0.36208175  0.27369122  0.49868806  1.0
  C  C15  1  0.20245864  0.50363411  0.64356105  1.0
  C  C16  1  0.17597157  0.50441999  0.73227280  1.0
  C  C17  1  0.97131876  0.52924505  0.77108042  1.0
  C  C18  1  0.93505991  0.52794159  0.85307339  1.0
  C  C19  1  0.10697506  0.50069104  0.89969878  1.0
  C  C20  1  0.31195523  0.47683881  0.86301233  1.0
  C  C21  1  0.34357765  0.47859367  0.78062093  1.0
  C  C22  1  0.68804288  0.52315966  0.13699364  1.0
  C  C23  1  0.89303092  0.49932257  0.10030611  1.0
  C  C24  1  0.06494509  0.47208990  0.14693129  1.0
  C  C25  1  0.02868419  0.47078450  0.22892563  1.0
  C  C26  1  0.82401778  0.49559062  0.26773478  1.0
  C  C27  1  0.65642281  0.52140297  0.21938383  1.0
  C  C28  1  0.42784237  0.13333854  0.49979474  1.0
  C  C29  1  0.57215173  0.86665045  0.50018294  1.0
  C  C30  1  0.29150401  0.05749506  0.52141083  1.0
  C  C31  1  0.70849445  0.94249700  0.47856000  1.0
  C  C32  1  0.36085973  0.92769172  0.52153993  1.0
  C  C33  1  0.63911802  0.07230289  0.47843590  1.0
  N  N34  1  0.09201623  0.49474881  0.98372135  1.0
  N  N35  1  0.90798997  0.50525814  0.01628561  1.0
  O  O36  1  0.49081654  0.67271676  0.51081780  1.0
  O  O37  1  0.96459044  0.48267517  0.39062260  1.0
  O  O38  1  0.16684620  0.32854052  0.50760121  1.0
  O  O39  1  0.38653951  0.48765897  0.60903643  1.0
  O  O40  1  0.50919732  0.32726770  0.48918750  1.0
  O  O41  1  0.03540614  0.51732331  0.60938286  1.0
  O  O42  1  0.83315865  0.67145330  0.49240407  1.0
  O  O43  1  0.61346339  0.51232634  0.39096993  1.0
  O  O44  1  0.23331388  0.55604675  0.46512936  1.0
  O  O45  1  0.76669576  0.44393097  0.53487999  1.0
  F  F46  1  0.54575657  0.45236367  0.74862691  1.0
  F  F47  1  0.45424874  0.54761977  0.25137943  1.0
  F  F48  1  0.08490731  0.10880019  0.54424532  1.0
  F  F49  1  0.91507416  0.89119561  0.45572319  1.0
