# generated using pymatgen
data_GdH24C24(NO2)6
_symmetry_space_group_name_H-M   'P 1'
_cell_length_a   15.89970506
_cell_length_b   15.89971498
_cell_length_c   16.44036935
_cell_angle_alpha   89.99998706
_cell_angle_beta   89.99984571
_cell_angle_gamma   119.99990459
_symmetry_Int_Tables_number   1
_chemical_formula_structural   GdH24C24(NO2)6
_chemical_formula_sum   'Gd4 H96 C96 N24 O48'
_cell_volume   3599.32470148
_cell_formula_units_Z   4
loop_
 _symmetry_equiv_pos_site_id
 _symmetry_equiv_pos_as_xyz
  1  'x, y, z'
loop_
 _atom_site_type_symbol
 _atom_site_label
 _atom_site_symmetry_multiplicity
 _atom_site_fract_x
 _atom_site_fract_y
 _atom_site_fract_z
 _atom_site_occupancy
  Gd  Gd0  1  0.66666667  0.33333333  0.66690265  1.0
  Gd  Gd1  1  0.33333333  0.66666667  0.83309650  1.0
  Gd  Gd2  1  0.33333333  0.66666667  0.33309800  1.0
  Gd  Gd3  1  0.66666667  0.33333333  0.16690415  1.0
  H  H4  1  0.25608415  0.74889639  0.01327803  1.0
  H  H5  1  0.49281207  0.74391566  0.01327833  1.0
  H  H6  1  0.25110330  0.50718797  0.01327928  1.0
  H  H7  1  0.50718963  0.25110545  0.48672139  1.0
  H  H8  1  0.74889547  0.25608436  0.48672290  1.0
  H  H9  1  0.74391683  0.49281370  0.48672167  1.0
  H  H10  1  0.74391802  0.25110327  0.98672080  1.0
  H  H11  1  0.50719018  0.25608037  0.98672111  1.0
  H  H12  1  0.74889762  0.49281170  0.98672198  1.0
  H  H13  1  0.49280868  0.74889277  0.51327865  1.0
  H  H14  1  0.25110518  0.74391602  0.51327714  1.0
  H  H15  1  0.25608355  0.50718742  0.51327899  1.0
  H  H16  1  0.90549685  0.59087282  0.94025992  1.0
  H  H17  1  0.68537569  0.09450437  0.94026026  1.0
  H  H18  1  0.40912899  0.31462555  0.94025938  1.0
  H  H19  1  0.31462490  0.40912903  0.55973956  1.0
  H  H20  1  0.59087124  0.90549671  0.55973854  1.0
  H  H21  1  0.09450354  0.68537539  0.55974042  1.0
  H  H22  1  0.09450578  0.40912901  0.05973952  1.0
  H  H23  1  0.31462450  0.90549384  0.05974100  1.0
  H  H24  1  0.59087192  0.68537411  0.05974188  1.0
  H  H25  1  0.68537621  0.59087353  0.44025805  1.0
  H  H26  1  0.40912825  0.09450513  0.44026151  1.0
  H  H27  1  0.90549585  0.31462499  0.44025962  1.0
  H  H28  1  0.90841866  0.33868709  0.80374658  1.0
  H  H29  1  0.43026739  0.09158233  0.80374723  1.0
  H  H30  1  0.66131106  0.56973088  0.80374445  1.0
  H  H31  1  0.56973095  0.66131312  0.69625195  1.0
  H  H32  1  0.33868605  0.90841914  0.69625587  1.0
  H  H33  1  0.09158125  0.43026842  0.69625320  1.0
  H  H34  1  0.09158136  0.66131330  0.19625224  1.0
  H  H35  1  0.56973164  0.90841733  0.19625646  1.0
  H  H36  1  0.33868635  0.43026806  0.19625377  1.0
  H  H37  1  0.43026708  0.33868581  0.30374627  1.0
  H  H38  1  0.66131361  0.09158052  0.30374722  1.0
  H  H39  1  0.90841814  0.56973196  0.30374563  1.0
  H  H40  1  0.01053940  0.32391931  0.82068057  1.0
  H  H41  1  0.31337912  0.98946225  0.82068254  1.0
  H  H42  1  0.67608037  0.68662017  0.82068027  1.0
  H  H43  1  0.68662028  0.67608221  0.67931837  1.0
  H  H44  1  0.32391820  0.01054004  0.67932073  1.0
  H  H45  1  0.98946133  0.31337990  0.67931923  1.0
  H  H46  1  0.98946062  0.67608107  0.17931765  1.0
  H  H47  1  0.68662117  0.01053741  0.17932055  1.0
  H  H48  1  0.32391704  0.31337876  0.17931977  1.0
  H  H49  1  0.31337911  0.32391818  0.32068168  1.0
  H  H50  1  0.67608218  0.98946107  0.32068296  1.0
  H  H51  1  0.01053806  0.68662049  0.32067960  1.0
  H  H52  1  0.15298230  0.81176331  0.06986265  1.0
  H  H53  1  0.65878132  0.84701749  0.06986077  1.0
  H  H54  1  0.18823583  0.34121829  0.06986205  1.0
  H  H55  1  0.34121936  0.18823509  0.43013894  1.0
  H  H56  1  0.81176443  0.15298381  0.43013894  1.0
  H  H57  1  0.84701800  0.65878261  0.43013823  1.0
  H  H58  1  0.84702050  0.18823635  0.93013800  1.0
  H  H59  1  0.34121887  0.15298072  0.93014049  1.0
  H  H60  1  0.81176608  0.65878210  0.93013982  1.0
  H  H61  1  0.65877930  0.81176384  0.56985988  1.0
  H  H62  1  0.18823622  0.84701658  0.56986232  1.0
  H  H63  1  0.15298175  0.34121850  0.56986120  1.0
  H  H64  1  0.97747811  0.73520656  0.03197790  1.0
  H  H65  1  0.75772893  0.02252119  0.03197462  1.0
  H  H66  1  0.26479274  0.24227142  0.03197523  1.0
  H  H67  1  0.24227080  0.26479275  0.46802518  1.0
  H  H68  1  0.73520644  0.97747864  0.46802325  1.0
  H  H69  1  0.02252297  0.75773004  0.46802420  1.0
  H  H70  1  0.02252469  0.26479310  0.96802397  1.0
  H  H71  1  0.24227126  0.97747702  0.96802664  1.0
  H  H72  1  0.73520629  0.75772824  0.96802481  1.0
  H  H73  1  0.75772833  0.73520837  0.53197365  1.0
  H  H74  1  0.26479321  0.02252101  0.53197801  1.0
  H  H75  1  0.97747777  0.24227179  0.53197585  1.0
  H  H76  1  0.91320807  0.47240438  0.86375434  1.0
  H  H77  1  0.55919564  0.08679261  0.86375545  1.0
  H  H78  1  0.52759727  0.44080527  0.86375424  1.0
  H  H79  1  0.44080515  0.52759810  0.63624435  1.0
  H  H80  1  0.47240183  0.91320793  0.63624488  1.0
  H  H81  1  0.08679100  0.55919486  0.63624481  1.0
  H  H82  1  0.08679330  0.52759745  0.13624388  1.0
  H  H83  1  0.44080617  0.91320632  0.13624703  1.0
  H  H84  1  0.47240427  0.55919439  0.13624642  1.0
  H  H85  1  0.55919523  0.47240302  0.36375326  1.0
  H  H86  1  0.52759918  0.08679318  0.36375517  1.0
  H  H87  1  0.91320840  0.44080553  0.36375463  1.0
  H  H88  1  0.10879095  0.49531532  0.85272593  1.0
  H  H89  1  0.38652381  0.89120997  0.85272675  1.0
  H  H90  1  0.50468268  0.61347635  0.85272601  1.0
  H  H91  1  0.61347601  0.50468474  0.64727297  1.0
  H  H92  1  0.49531533  0.10879142  0.64727438  1.0
  H  H93  1  0.89120847  0.38652320  0.64727384  1.0
  H  H94  1  0.89120897  0.50468362  0.14727350  1.0
  H  H95  1  0.61347648  0.10878970  0.14727330  1.0
  H  H96  1  0.49531337  0.38652114  0.14727464  1.0
  H  H97  1  0.38652266  0.49531420  0.35272707  1.0
  H  H98  1  0.50468370  0.89120824  0.35272688  1.0
  H  H99  1  0.10879155  0.61347719  0.35272499  1.0
  C  C100  1  0.03897398  0.58927469  0.92451272  1.0
  C  C101  1  0.55030140  0.96102606  0.92451202  1.0
  C  C102  1  0.41072469  0.44969920  0.92451104  1.0
  C  C103  1  0.44969870  0.41072409  0.57548709  1.0
  C  C104  1  0.58927413  0.03897440  0.57548695  1.0
  C  C105  1  0.96102550  0.55030109  0.57548763  1.0
  C  C106  1  0.96102657  0.41072424  0.07548732  1.0
  C  C107  1  0.44969968  0.03897142  0.07548803  1.0
  C  C108  1  0.58927586  0.55029974  0.07548961  1.0
  C  C109  1  0.55030059  0.58927485  0.42451113  1.0
  C  C110  1  0.41072499  0.96102671  0.42451248  1.0
  C  C111  1  0.03897452  0.44969930  0.42451180  1.0
  C  C112  1  0.14100686  0.63486717  0.94376763  1.0
  C  C113  1  0.49386220  0.85899308  0.94376654  1.0
  C  C114  1  0.36513153  0.50613963  0.94376735  1.0
  C  C115  1  0.50613888  0.36513221  0.55623198  1.0
  C  C116  1  0.63486686  0.14100666  0.55623245  1.0
  C  C117  1  0.85899308  0.49386150  0.55623273  1.0
  C  C118  1  0.85899459  0.36513104  0.05623303  1.0
  C  C119  1  0.50613951  0.14100440  0.05623229  1.0
  C  C120  1  0.63486876  0.49386004  0.05623330  1.0
  C  C121  1  0.49385916  0.63486672  0.44376745  1.0
  C  C122  1  0.36513290  0.85899446  0.44376638  1.0
  C  C123  1  0.14100668  0.50613962  0.44376732  1.0
  C  C124  1  0.17920904  0.71499889  0.99797560  1.0
  C  C125  1  0.53579062  0.82078990  0.99797390  1.0
  C  C126  1  0.28499963  0.46421020  0.99797549  1.0
  C  C127  1  0.46421048  0.28499978  0.50202463  1.0
  C  C128  1  0.71499988  0.17921121  0.50202492  1.0
  C  C129  1  0.82079049  0.53579175  0.50202474  1.0
  C  C130  1  0.82079115  0.28499932  0.00202445  1.0
  C  C131  1  0.46421172  0.17920758  0.00202431  1.0
  C  C132  1  0.71500102  0.53579019  0.00202456  1.0
  C  C133  1  0.53578818  0.71499915  0.49797542  1.0
  C  C134  1  0.28500024  0.82079063  0.49797512  1.0
  C  C135  1  0.17920927  0.46420937  0.49797530  1.0
  C  C136  1  0.98186144  0.62675841  0.95712926  1.0
  C  C137  1  0.64489633  0.01813814  0.95712855  1.0
  C  C138  1  0.37324159  0.35510324  0.95712826  1.0
  C  C139  1  0.35510321  0.37324190  0.54287127  1.0
  C  C140  1  0.62675708  0.98186222  0.54287025  1.0
  C  C141  1  0.01813885  0.64489706  0.54287107  1.0
  C  C142  1  0.01814046  0.37324197  0.04287078  1.0
  C  C143  1  0.35510314  0.98185862  0.04287271  1.0
  C  C144  1  0.62675969  0.64489715  0.04287239  1.0
  C  C145  1  0.64489717  0.62675921  0.45712695  1.0
  C  C146  1  0.37324178  0.01813962  0.45712919  1.0
  C  C147  1  0.98186117  0.35510333  0.45712836  1.0
  C  C148  1  0.98709141  0.37278252  0.79529715  1.0
  C  C149  1  0.38569109  0.01291031  0.79529919  1.0
  C  C150  1  0.62721565  0.61430822  0.79529638  1.0
  C  C151  1  0.61430761  0.62721760  0.70470182  1.0
  C  C152  1  0.37278301  0.98709261  0.70470331  1.0
  C  C153  1  0.01290957  0.38569190  0.70470263  1.0
  C  C154  1  0.01290950  0.62721714  0.20470167  1.0
  C  C155  1  0.61430929  0.98709080  0.20470389  1.0
  C  C156  1  0.37278113  0.38569072  0.20470306  1.0
  C  C157  1  0.38569043  0.37278134  0.29529761  1.0
  C  C158  1  0.62721899  0.01290922  0.29529916  1.0
  C  C159  1  0.98709045  0.61430848  0.29529620  1.0
  C  C160  1  0.12128169  0.75003740  0.02827239  1.0
  C  C161  1  0.62875677  0.87871719  0.02827050  1.0
  C  C162  1  0.24996250  0.37124466  0.02827166  1.0
  C  C163  1  0.37124385  0.24996101  0.47172860  1.0
  C  C164  1  0.75004014  0.12128418  0.47172751  1.0
  C  C165  1  0.87871855  0.62875690  0.47172850  1.0
  C  C166  1  0.87872039  0.24996081  0.97172704  1.0
  C  C167  1  0.37124441  0.12128175  0.97172893  1.0
  C  C168  1  0.75003914  0.62875646  0.97172839  1.0
  C  C169  1  0.62875455  0.75003865  0.52827084  1.0
  C  C170  1  0.24996186  0.87871765  0.52827193  1.0
  C  C171  1  0.12128120  0.37124421  0.52827154  1.0
  C  C172  1  0.02201439  0.70667665  0.00768236  1.0
  C  C173  1  0.68466328  0.97798537  0.00768025  1.0
  C  C174  1  0.29332241  0.31533656  0.00768083  1.0
  C  C175  1  0.31533626  0.29332115  0.49231944  1.0
  C  C176  1  0.70667779  0.02201454  0.49231775  1.0
  C  C177  1  0.97798665  0.68466416  0.49231915  1.0
  C  C178  1  0.97798805  0.29332229  0.99231890  1.0
  C  C179  1  0.31533555  0.02201138  0.99232040  1.0
  C  C180  1  0.70667715  0.68466165  0.99231982  1.0
  C  C181  1  0.68466276  0.70667851  0.50767939  1.0
  C  C182  1  0.29332286  0.97798585  0.50768108  1.0
  C  C183  1  0.02201373  0.31533695  0.50768090  1.0
  C  C184  1  0.99124933  0.50513374  0.87491274  1.0
  C  C185  1  0.51388452  0.00875168  0.87491281  1.0
  C  C186  1  0.49486446  0.48611536  0.87491278  1.0
  C  C187  1  0.48611572  0.49486719  0.62508700  1.0
  C  C188  1  0.50513222  0.99124887  0.62508753  1.0
  C  C189  1  0.00875100  0.51388413  0.62508701  1.0
  C  C190  1  0.00875194  0.49486664  0.12508669  1.0
  C  C191  1  0.48611666  0.99124725  0.12508845  1.0
  C  C192  1  0.50513448  0.51388285  0.12508848  1.0
  C  C193  1  0.51388430  0.50513319  0.37491182  1.0
  C  C194  1  0.49486754  0.00875225  0.37491312  1.0
  C  C195  1  0.99124902  0.48611625  0.37491181  1.0
  N  N196  1  0.03505824  0.46266076  0.84123967  1.0
  N  N197  1  0.42760262  0.96494358  0.84124093  1.0
  N  N198  1  0.53733989  0.57239878  0.84123840  1.0
  N  N199  1  0.57239756  0.53734010  0.65875938  1.0
  N  N200  1  0.46266031  0.03505853  0.65876140  1.0
  N  N201  1  0.96494134  0.42760214  0.65875949  1.0
  N  N202  1  0.96494204  0.53733889  0.15875916  1.0
  N  N203  1  0.57239830  0.03505609  0.15876094  1.0
  N  N204  1  0.46265940  0.42760015  0.15876043  1.0
  N  N205  1  0.42760147  0.46265956  0.34124005  1.0
  N  N206  1  0.53734070  0.96494258  0.34124107  1.0
  N  N207  1  0.03505841  0.57239897  0.34123934  1.0
  N  N208  1  0.72061622  0.20946387  0.76082688  1.0
  N  N209  1  0.48884750  0.27938420  0.76082778  1.0
  N  N210  1  0.79053543  0.51115091  0.76082797  1.0
  N  N211  1  0.51115218  0.79053652  0.73917197  1.0
  N  N212  1  0.20946414  0.72061805  0.73917115  1.0
  N  N213  1  0.27938439  0.48884888  0.73917230  1.0
  N  N214  1  0.27938559  0.79053506  0.23917255  1.0
  N  N215  1  0.51115216  0.72061547  0.23917226  1.0
  N  N216  1  0.20946423  0.48884875  0.23917268  1.0
  N  N217  1  0.48884513  0.20946097  0.26082808  1.0
  N  N218  1  0.79053542  0.27938016  0.26082889  1.0
  N  N219  1  0.72061454  0.51114933  0.26082774  1.0
  O  O220  1  0.76984140  0.25798614  0.69869317  1.0
  O  O221  1  0.48814292  0.23015758  0.69869476  1.0
  O  O222  1  0.74201376  0.51185764  0.69869501  1.0
  O  O223  1  0.51185532  0.74201495  0.80130500  1.0
  O  O224  1  0.25798521  0.76984318  0.80130533  1.0
  O  O225  1  0.23015622  0.48814295  0.80130479  1.0
  O  O226  1  0.23015889  0.74201353  0.30130566  1.0
  O  O227  1  0.51185627  0.76983990  0.30130650  1.0
  O  O228  1  0.25798527  0.48814202  0.30130443  1.0
  O  O229  1  0.48814397  0.25798399  0.19869382  1.0
  O  O230  1  0.74201065  0.23015140  0.19869836  1.0
  O  O231  1  0.76984235  0.51185454  0.19869404  1.0
  O  O232  1  0.19548304  0.60278409  0.91253164  1.0
  O  O233  1  0.40730125  0.80451725  0.91253074  1.0
  O  O234  1  0.39721559  0.59269937  0.91253138  1.0
  O  O235  1  0.59270031  0.39721737  0.58746718  1.0
  O  O236  1  0.60278389  0.19548332  0.58746901  1.0
  O  O237  1  0.80451642  0.40730104  0.58746812  1.0
  O  O238  1  0.80451742  0.39721340  0.08746962  1.0
  O  O239  1  0.59269921  0.19548024  0.08746931  1.0
  O  O240  1  0.60278559  0.40729956  0.08746866  1.0
  O  O241  1  0.40729898  0.60278157  0.41253226  1.0
  O  O242  1  0.39721650  0.80451780  0.41253043  1.0
  O  O243  1  0.19548297  0.59269934  0.41253193  1.0
  O  O244  1  0.74568440  0.16151168  0.80305279  1.0
  O  O245  1  0.41582951  0.25431660  0.80305686  1.0
  O  O246  1  0.83848840  0.58416984  0.80305688  1.0
  O  O247  1  0.58417186  0.83848719  0.69694411  1.0
  O  O248  1  0.16151263  0.74568574  0.69694345  1.0
  O  O249  1  0.25431899  0.41583066  0.69694397  1.0
  O  O250  1  0.25431831  0.83848653  0.19694482  1.0
  O  O251  1  0.58417223  0.74568597  0.19694379  1.0
  O  O252  1  0.16151162  0.41583055  0.19694377  1.0
  O  O253  1  0.41582195  0.16150957  0.30305290  1.0
  O  O254  1  0.83848828  0.25431392  0.30305599  1.0
  O  O255  1  0.74568103  0.58416973  0.30305485  1.0
  O  O256  1  0.64360564  0.21409224  0.77672018  1.0
  O  O257  1  0.57048531  0.35639672  0.77671661  1.0
  O  O258  1  0.78590731  0.42951215  0.77671693  1.0
  O  O259  1  0.42951371  0.78590901  0.72327949  1.0
  O  O260  1  0.21409215  0.64360693  0.72327978  1.0
  O  O261  1  0.35639532  0.57048831  0.72328265  1.0
  O  O262  1  0.35639663  0.78590887  0.22328352  1.0
  O  O263  1  0.42951445  0.64360440  0.22328040  1.0
  O  O264  1  0.21409334  0.57048824  0.22328312  1.0
  O  O265  1  0.57048135  0.21408775  0.27672238  1.0
  O  O266  1  0.78591039  0.35639347  0.27671783  1.0
  O  O267  1  0.64360371  0.42951135  0.27671800  1.0
