# generated using pymatgen
data_MgH3C7NO3
_symmetry_space_group_name_H-M   'P 1'
_cell_length_a   6.87483637
_cell_length_b   25.68165600
_cell_length_c   25.68195094
_cell_angle_alpha   119.21619422
_cell_angle_beta   95.11800268
_cell_angle_gamma   95.10884650
_symmetry_Int_Tables_number   1
_chemical_formula_structural   MgH3C7NO3
_chemical_formula_sum   'Mg6 H18 C42 N6 O18'
_cell_volume   3895.59607123
_cell_formula_units_Z   6
loop_
 _symmetry_equiv_pos_site_id
 _symmetry_equiv_pos_as_xyz
  1  'x, y, z'
loop_
 _atom_site_type_symbol
 _atom_site_label
 _atom_site_symmetry_multiplicity
 _atom_site_fract_x
 _atom_site_fract_y
 _atom_site_fract_z
 _atom_site_occupancy
  Mg  Mg0  1  0.86083367  0.70445423  0.37719475  1.0
  Mg  Mg1  1  0.48361380  0.62281145  0.32728144  1.0
  Mg  Mg2  1  0.15640341  0.67274527  0.29555920  1.0
  Mg  Mg3  1  0.13916706  0.29554458  0.62280360  1.0
  Mg  Mg4  1  0.51638424  0.37718781  0.67271706  1.0
  Mg  Mg5  1  0.84359294  0.32725354  0.70443943  1.0
  H  H6  1  0.20478045  0.54161431  0.41702814  1.0
  H  H7  1  0.78787123  0.58297006  0.12459535  1.0
  H  H8  1  0.66310425  0.87540445  0.45833625  1.0
  H  H9  1  0.32020675  0.45886345  0.50423206  1.0
  H  H10  1  0.81583347  0.49577667  0.95462495  1.0
  H  H11  1  0.86136560  0.04532154  0.54113125  1.0
  H  H12  1  0.46006077  0.39956956  0.54845816  1.0
  H  H13  1  0.91150855  0.45155987  0.85112135  1.0
  H  H14  1  0.06052301  0.14886067  0.60042811  1.0
  H  H15  1  0.79521737  0.45838450  0.58297131  1.0
  H  H16  1  0.21212816  0.41703192  0.87540412  1.0
  H  H17  1  0.33689525  0.12459482  0.54166462  1.0
  H  H18  1  0.67979118  0.54113852  0.49576854  1.0
  H  H19  1  0.18416907  0.50422575  0.04537286  1.0
  H  H20  1  0.13863581  0.95467863  0.45886855  1.0
  H  H21  1  0.53994031  0.60043287  0.45154234  1.0
  H  H22  1  0.08849409  0.54843985  0.14887593  1.0
  H  H23  1  0.93947986  0.85113950  0.39957055  1.0
  C  C24  1  0.11141484  0.60548831  0.36573302  1.0
  C  C25  1  0.74562274  0.63424150  0.23978006  1.0
  C  C26  1  0.50578982  0.76023409  0.39447473  1.0
  C  C27  1  0.98571243  0.58913381  0.40075256  1.0
  C  C28  1  0.58508456  0.59918732  0.18838078  1.0
  C  C29  1  0.39655593  0.81162514  0.41078956  1.0
  C  C30  1  0.05956825  0.55508376  0.42513190  1.0
  C  C31  1  0.63457120  0.57485225  0.12995090  1.0
  C  C32  1  0.50443532  0.87004809  0.44484135  1.0
  C  C33  1  0.95338273  0.53836608  0.45974572  1.0
  C  C34  1  0.49380438  0.54023074  0.07861556  1.0
  C  C35  1  0.41499678  0.92138564  0.46154606  1.0
  C  C36  1  0.04661261  0.46163363  0.54025371  1.0
  C  C37  1  0.50619984  0.45977213  0.92138290  1.0
  C  C38  1  0.58500148  0.07861408  0.53845578  1.0
  C  C39  1  0.23721121  0.44540979  0.53109218  1.0
  C  C40  1  0.70594316  0.46894865  0.91431635  1.0
  C  C41  1  0.79182825  0.08565127  0.55465023  1.0
  C  C42  1  0.31383726  0.41261241  0.55529923  1.0
  C  C43  1  0.75842087  0.44474714  0.85731985  1.0
  C  C44  1  0.90123913  0.14265486  0.58742136  1.0
  C  C45  1  0.20559160  0.39330037  0.58888018  1.0
  C  C46  1  0.61661478  0.41116751  0.80442546  1.0
  C  C47  1  0.81231110  0.19554852  0.60673096  1.0
  C  C48  1  0.01428538  0.41086500  0.59924610  1.0
  C  C49  1  0.41491484  0.40081466  0.81161751  1.0
  C  C50  1  0.60344356  0.18837413  0.58921053  1.0
  C  C51  1  0.94042811  0.44491505  0.57486673  1.0
  C  C52  1  0.36543112  0.42514972  0.87004786  1.0
  C  C53  1  0.49556417  0.12995117  0.55515953  1.0
  C  C54  1  0.88858443  0.39451051  0.63426607  1.0
  C  C55  1  0.25437574  0.36575867  0.76021928  1.0
  C  C56  1  0.49420945  0.23976472  0.60552396  1.0
  C  C57  1  0.76278604  0.55459083  0.46890813  1.0
  C  C58  1  0.29405938  0.53105378  0.08568107  1.0
  C  C59  1  0.20817294  0.91434845  0.44535051  1.0
  C  C60  1  0.68616168  0.58738866  0.44470095  1.0
  C  C61  1  0.24157908  0.55525303  0.14267719  1.0
  C  C62  1  0.09876374  0.85734531  0.41257847  1.0
  C  C63  1  0.79440666  0.60669935  0.41111932  1.0
  C  C64  1  0.38338540  0.58883311  0.19557336  1.0
  C  C65  1  0.18769087  0.80444985  0.39326798  1.0
  N  N66  1  0.04846107  0.50641167  0.48341397  1.0
  N  N67  1  0.56509298  0.51658431  0.02298563  1.0
  N  N68  1  0.54202731  0.97698828  0.49355156  1.0
  N  N69  1  0.95153405  0.49358759  0.51658563  1.0
  N  N70  1  0.43491124  0.48341856  0.97701167  1.0
  N  N71  1  0.45797533  0.02301144  0.50644961  1.0
  O  O72  1  0.27283966  0.58474936  0.35324075  1.0
  O  O73  1  0.91956195  0.64675851  0.23156892  1.0
  O  O74  1  0.68792581  0.76844101  0.41520855  1.0
  O  O75  1  0.05458914  0.64240487  0.34882011  1.0
  O  O76  1  0.70562544  0.65117052  0.29359977  1.0
  O  O77  1  0.41200071  0.70641417  0.35760983  1.0
  O  O78  1  0.71381339  0.64058175  0.39126717  1.0
  O  O79  1  0.32261547  0.60873367  0.24930281  1.0
  O  O80  1  0.07315920  0.75072418  0.35945447  1.0
  O  O81  1  0.72715815  0.41524945  0.64675869  1.0
  O  O82  1  0.08043754  0.35324076  0.76843000  1.0
  O  O83  1  0.31207493  0.23155780  0.58478979  1.0
  O  O84  1  0.94541474  0.35759440  0.65117892  1.0
  O  O85  1  0.29437439  0.34882649  0.70639884  1.0
  O  O86  1  0.58800025  0.29358510  0.64238796  1.0
  O  O87  1  0.28618487  0.35941797  0.60873156  1.0
  O  O88  1  0.67738111  0.39126560  0.75069644  1.0
  O  O89  1  0.92683906  0.24927553  0.64054504  1.0
