# generated using pymatgen
data_CuH4(C2N)3
_symmetry_space_group_name_H-M   'P 1'
_cell_length_a   24.71275514
_cell_length_b   27.20300899
_cell_length_c   29.29353622
_cell_angle_alpha   82.49483302
_cell_angle_beta   87.65038059
_cell_angle_gamma   85.51106389
_symmetry_Int_Tables_number   1
_chemical_formula_structural   CuH4(C2N)3
_chemical_formula_sum   'Cu12 H48 C72 N36'
_cell_volume   19454.87517450
_cell_formula_units_Z   12
loop_
 _symmetry_equiv_pos_site_id
 _symmetry_equiv_pos_as_xyz
  1  'x, y, z'
loop_
 _atom_site_type_symbol
 _atom_site_label
 _atom_site_symmetry_multiplicity
 _atom_site_fract_x
 _atom_site_fract_y
 _atom_site_fract_z
 _atom_site_occupancy
  Cu  Cu0  1  0.16510687  0.89545687  0.07785550  1.0
  Cu  Cu1  1  0.06205151  0.84039593  0.12431674  1.0
  Cu  Cu2  1  0.09860558  0.93680156  0.16010678  1.0
  Cu  Cu3  1  0.65520538  0.11220734  0.41665614  1.0
  Cu  Cu4  1  0.56098035  0.18432282  0.36541709  1.0
  Cu  Cu5  1  0.59379440  0.07892673  0.33523420  1.0
  Cu  Cu6  1  0.36743384  0.40731586  0.90891653  1.0
  Cu  Cu7  1  0.42241461  0.33661088  0.83950402  1.0
  Cu  Cu8  1  0.40303867  0.45166828  0.80999290  1.0
  Cu  Cu9  1  0.87021354  0.57942722  0.59948287  1.0
  Cu  Cu10  1  0.90731058  0.65338013  0.66504584  1.0
  Cu  Cu11  1  0.89219630  0.54225502  0.70313864  1.0
  H  H12  1  0.20399654  0.82221820  0.00555539  1.0
  H  H13  1  0.05395925  0.75950801  0.05652900  1.0
  H  H14  1  0.17750284  0.01515597  0.18546242  1.0
  H  H15  1  0.25766334  0.97283030  0.06055076  1.0
  H  H16  1  0.97374890  0.80800981  0.20426197  1.0
  H  H17  1  0.00499508  0.95491555  0.23425892  1.0
  H  H18  1  0.67991850  0.17448131  0.49622336  1.0
  H  H19  1  0.54235434  0.26433570  0.43549166  1.0
  H  H20  1  0.67044742  0.98543800  0.31343291  1.0
  H  H21  1  0.74833622  0.02356349  0.43259500  1.0
  H  H22  1  0.48800756  0.23084708  0.27886568  1.0
  H  H23  1  0.50802540  0.07518114  0.25916857  1.0
  H  H24  1  0.36724704  0.33168578  0.00125217  1.0
  H  H25  1  0.40751952  0.23105864  0.89972368  1.0
  H  H26  1  0.31422787  0.54352484  0.79227311  1.0
  H  H27  1  0.28002621  0.49169631  0.93604331  1.0
  H  H28  1  0.49851561  0.30619955  0.75542148  1.0
  H  H29  1  0.49704695  0.46695630  0.73215748  1.0
  H  H30  1  0.87103595  0.64984326  0.50360108  1.0
  H  H31  1  0.88567347  0.75628993  0.59953149  1.0
  H  H32  1  0.80800003  0.45717780  0.72121665  1.0
  H  H33  1  0.80417595  0.49225747  0.57269679  1.0
  H  H34  1  0.97751730  0.68541437  0.74334439  1.0
  H  H35  1  0.97877265  0.52622648  0.78340362  1.0
  H  H36  1  0.05762605  0.73675475  0.96639438  1.0
  H  H37  1  0.18186827  0.72676141  0.97560246  1.0
  H  H38  1  0.69738198  0.26699483  0.52276803  1.0
  H  H39  1  0.57259704  0.28178229  0.52880948  1.0
  H  H40  1  0.40259057  0.25299955  0.05976891  1.0
  H  H41  1  0.36978444  0.18618914  0.98977256  1.0
  H  H42  1  0.89783706  0.72403908  0.44120945  1.0
  H  H43  1  0.85608128  0.79790938  0.50837539  1.0
  H  H44  1  0.29721864  0.06627704  0.05862674  1.0
  H  H45  1  0.28122719  0.05226912  0.16419818  1.0
  H  H46  1  0.76800470  0.40155392  0.57796244  1.0
  H  H47  1  0.72315336  0.41530323  0.67555336  1.0
  H  H48  1  0.78765535  0.92454881  0.43715174  1.0
  H  H49  1  0.77468722  0.93567336  0.33210765  1.0
  H  H50  1  0.23291386  0.58649680  0.93388706  1.0
  H  H51  1  0.21089551  0.58045496  0.83209100  1.0
  H  H52  1  0.93988809  0.79829067  0.29528158  1.0
  H  H53  1  0.91771818  0.91214066  0.28574039  1.0
  H  H54  1  0.53985282  0.31493960  0.66739857  1.0
  H  H55  1  0.58431172  0.41269556  0.68653011  1.0
  H  H56  1  0.01032517  0.68297377  0.83015009  1.0
  H  H57  1  0.06229062  0.57761880  0.82221298  1.0
  H  H58  1  0.41847960  0.09495596  0.21654460  1.0
  H  H59  1  0.44762070  0.20368933  0.19239413  1.0
  C  C60  1  0.65541704  0.31035823  0.57224130  1.0
  C  C61  1  0.69610852  0.36726314  0.60707750  1.0
  C  C62  1  0.61301539  0.34292870  0.63318058  1.0
  C  C63  1  0.10949467  0.68628144  0.92961429  1.0
  C  C64  1  0.16225970  0.62495043  0.89995841  1.0
  C  C65  1  0.08097804  0.65249731  0.86842980  1.0
  C  C66  1  0.87253978  0.80059820  0.41771712  1.0
  C  C67  1  0.83441247  0.87772082  0.39273722  1.0
  C  C68  1  0.88873927  0.83567539  0.34401020  1.0
  C  C69  1  0.38003750  0.17801395  0.08085672  1.0
  C  C70  1  0.39262842  0.13832693  0.15340225  1.0
  C  C71  1  0.34143246  0.10527667  0.10376934  1.0
  C  C72  1  0.16627149  0.81255340  0.02354663  1.0
  C  C73  1  0.13207093  0.77539979  0.01666966  1.0
  C  C74  1  0.08890482  0.78128931  0.04880988  1.0
  C  C75  1  0.19054128  0.99892698  0.15451916  1.0
  C  C76  1  0.23507788  0.00942553  0.12432181  1.0
  C  C77  1  0.23094580  0.97811819  0.09013638  1.0
  C  C78  1  0.98843580  0.84428781  0.20596624  1.0
  C  C79  1  0.97199859  0.87972205  0.23578439  1.0
  C  C80  1  0.00369084  0.91981258  0.22058652  1.0
  C  C81  1  0.64683873  0.19169362  0.47505995  1.0
  C  C82  1  0.61168569  0.23373307  0.48115036  1.0
  C  C83  1  0.57568123  0.23690019  0.44472606  1.0
  C  C84  1  0.68292338  0.00158255  0.34295659  1.0
  C  C85  1  0.72699319  0.98655682  0.37169358  1.0
  C  C86  1  0.72215103  0.02032965  0.40444765  1.0
  C  C87  1  0.49856215  0.19118232  0.28035915  1.0
  C  C88  1  0.48214693  0.15722360  0.25219522  1.0
  C  C89  1  0.50782578  0.11140567  0.27094650  1.0
  C  C90  1  0.37891886  0.31393537  0.97086934  1.0
  C  C91  1  0.38601098  0.26297389  0.96606625  1.0
  C  C92  1  0.39813702  0.26249604  0.91875160  1.0
  C  C93  1  0.31304722  0.52461292  0.82728760  1.0
  C  C94  1  0.27804233  0.53438392  0.86465009  1.0
  C  C95  1  0.29650130  0.49889095  0.90110564  1.0
  C  C96  1  0.49051641  0.34605610  0.75496313  1.0
  C  C97  1  0.51522194  0.38507422  0.72752939  1.0
  C  C98  1  0.49073971  0.42820557  0.74378451  1.0
  C  C99  1  0.87653980  0.66923700  0.53299485  1.0
  C  C100  1  0.87637290  0.72067522  0.53520021  1.0
  C  C101  1  0.88283341  0.72368311  0.58223423  1.0
  C  C102  1  0.81341357  0.47177968  0.68514935  1.0
  C  C103  1  0.78990749  0.45798384  0.64618462  1.0
  C  C104  1  0.81243849  0.48894786  0.60911133  1.0
  C  C105  1  0.97051837  0.64615803  0.74812797  1.0
  C  C106  1  0.99471553  0.60735816  0.77892670  1.0
  C  C107  1  0.97218931  0.56461694  0.76788244  1.0
  C  C108  1  0.09973352  0.72216503  0.96247935  1.0
  C  C109  1  0.14007870  0.73971571  0.98402257  1.0
  C  C110  1  0.65695493  0.27802235  0.53604577  1.0
  C  C111  1  0.61185064  0.26580507  0.51692083  1.0
  C  C112  1  0.38823418  0.22084057  0.04645885  1.0
  C  C113  1  0.38074118  0.22080858  0.00098723  1.0
  C  C114  1  0.88059829  0.75834220  0.45337551  1.0
  C  C115  1  0.87014433  0.76146737  0.49863127  1.0
  C  C116  1  0.30399337  0.06899053  0.09475773  1.0
  C  C117  1  0.27493730  0.04426460  0.12922861  1.0
  C  C118  1  0.74084649  0.39888300  0.60837203  1.0
  C  C119  1  0.74946086  0.42270970  0.64486608  1.0
  C  C120  1  0.79580681  0.91927027  0.40114716  1.0
  C  C121  1  0.76738912  0.94612720  0.36678937  1.0
  C  C122  1  0.21173642  0.59176112  0.90143720  1.0
  C  C123  1  0.23176731  0.57032593  0.86458128  1.0
  C  C124  1  0.92143151  0.83467110  0.30149369  1.0
  C  C125  1  0.93453914  0.87685950  0.27501322  1.0
  C  C126  1  0.56711304  0.34482016  0.66607327  1.0
  C  C127  1  0.55752280  0.38216143  0.69230094  1.0
  C  C128  1  0.03951197  0.65062675  0.83480076  1.0
  C  C129  1  0.03447782  0.61041501  0.81306800  1.0
  C  C130  1  0.42088866  0.13161538  0.19666534  1.0
  C  C131  1  0.44898334  0.16657778  0.21204106  1.0
  N  N132  1  0.69947597  0.33623367  0.57442468  1.0
  N  N133  1  0.65439331  0.37118831  0.63772460  1.0
  N  N134  1  0.61088507  0.31262506  0.60037708  1.0
  N  N135  1  0.15609263  0.65675423  0.93178287  1.0
  N  N136  1  0.12606680  0.62140544  0.86752426  1.0
  N  N137  1  0.07043847  0.68553423  0.89888458  1.0
  N  N138  1  0.84378749  0.84205871  0.42855395  1.0
  N  N139  1  0.85681452  0.87690402  0.35003605  1.0
  N  N140  1  0.89491612  0.79499545  0.37569450  1.0
  N  N141  1  0.40045786  0.17893248  0.12263523  1.0
  N  N142  1  0.36125857  0.10185558  0.14648804  1.0
  N  N143  1  0.35261578  0.14067697  0.06888582  1.0
  N  N144  1  0.09704353  0.81885285  0.07286776  1.0
  N  N145  1  0.14472405  0.83886353  0.05661727  1.0
  N  N146  1  0.18751184  0.95111202  0.09955980  1.0
  N  N147  1  0.16192515  0.96467867  0.13917756  1.0
  N  N148  1  0.03689924  0.90878599  0.18523049  1.0
  N  N149  1  0.02682933  0.86210111  0.17567510  1.0
  N  N150  1  0.58892594  0.20010224  0.41874576  1.0
  N  N151  1  0.63265839  0.17152105  0.43808669  1.0
  N  N152  1  0.67879618  0.05287737  0.39555177  1.0
  N  N153  1  0.65394799  0.04070932  0.35774569  1.0
  N  N154  1  0.53716891  0.11779269  0.30705796  1.0
  N  N155  1  0.53084607  0.16729324  0.31342545  1.0
  N  N156  1  0.39876689  0.30936534  0.89731194  1.0
  N  N157  1  0.38618906  0.34135938  0.92972492  1.0
  N  N158  1  0.33891854  0.47027900  0.88646839  1.0
  N  N159  1  0.34964364  0.48671688  0.84068665  1.0
  N  N160  1  0.45401018  0.41575836  0.77766656  1.0
  N  N161  1  0.45438841  0.36459133  0.78507513  1.0
  N  N162  1  0.88703989  0.67778772  0.60595201  1.0
  N  N163  1  0.88258653  0.64392541  0.57531253  1.0
  N  N164  1  0.84638966  0.51874870  0.62484612  1.0
  N  N165  1  0.84753704  0.50760382  0.67215295  1.0
  N  N166  1  0.93695897  0.57719901  0.73369960  1.0
  N  N167  1  0.93647303  0.62787096  0.72101064  1.0
