# generated using pymatgen
data_Zn2H12C26N8F7
_symmetry_space_group_name_H-M   'P 1'
_cell_length_a   14.76623380
_cell_length_b   14.88613233
_cell_length_c   14.98914392
_cell_angle_alpha   115.62999762
_cell_angle_beta   99.83426947
_cell_angle_gamma   112.47174574
_symmetry_Int_Tables_number   1
_chemical_formula_structural   Zn2H12C26N8F7
_chemical_formula_sum   'Zn4 H24 C52 N16 F14'
_cell_volume   2511.71717004
_cell_formula_units_Z   2
loop_
 _symmetry_equiv_pos_site_id
 _symmetry_equiv_pos_as_xyz
  1  'x, y, z'
loop_
 _atom_site_type_symbol
 _atom_site_label
 _atom_site_symmetry_multiplicity
 _atom_site_fract_x
 _atom_site_fract_y
 _atom_site_fract_z
 _atom_site_occupancy
  Zn  Zn106  1  0.14253771  0.13222777  0.98738568  1.0
  Zn  Zn107  1  0.00320717  0.84978903  0.83978349  1.0
  Zn  Zn108  1  0.85981894  0.85444893  0.98979863  1.0
  Zn  Zn109  1  0.00085202  0.14300475  0.13986137  1.0
  H  H66  1  0.01395168  0.18708706  0.84095070  1.0
  H  H67  1  0.17714939  0.80113841  0.74285047  1.0
  H  H68  1  0.10833951  0.72873790  0.18379241  1.0
  H  H69  1  0.10572344  0.58122753  0.18330772  1.0
  H  H70  1  0.49956970  0.16222259  0.85885259  1.0
  H  H71  1  0.73177838  0.83438329  0.49566244  1.0
  H  H72  1  0.29662333  0.69786975  0.68447632  1.0
  H  H73  1  0.11750692  0.21776546  0.70028943  1.0
  H  H74  1  0.49368923  0.77917786  0.87166271  1.0
  H  H75  1  0.01247306  0.28695612  0.56778657  1.0
  H  H76  1  0.32516852  0.29444092  0.48969059  1.0
  H  H77  1  0.48485827  0.44034512  0.65159076  1.0
  H  H78  1  0.71916529  0.43724835  0.41265136  1.0
  H  H79  1  0.56011464  0.17775100  0.27894418  1.0
  H  H80  1  0.66529496  0.81199916  0.80700323  1.0
  H  H81  1  0.95792727  0.18588383  0.36279140  1.0
  H  H82  1  0.04563743  0.41155890  0.22748930  1.0
  H  H83  1  0.99512768  0.83549446  0.16752923  1.0
  H  H84  1  0.83494449  0.81103777  0.63870442  1.0
  H  H85  1  0.35900399  0.17689500  0.93448398  1.0
  H  H86  1  0.24085462  0.72050830  0.04578345  1.0
  H  H87  1  0.26825180  0.58767387  0.07865252  1.0
  H  H88  1  0.31111429  0.75524156  0.82234383  1.0
  H  H89  1  0.04377165  0.28914669  0.73909785  1.0
  C  C0  1  0.97753590  0.09440819  0.80592152  1.0
  C  C1  1  0.20673263  0.89337730  0.79234933  1.0
  C  C2  1  0.70875776  0.99898052  0.88808024  1.0
  C  C3  1  0.85857359  0.99819495  0.30586173  1.0
  C  C4  1  0.69225921  0.53881595  0.67208381  1.0
  C  C5  1  0.30203964  0.19182983  0.28136912  1.0
  C  C6  1  0.15169069  0.45371602  0.14300142  1.0
  C  C7  1  0.10651698  0.80291163  0.08938878  1.0
  C  C8  1  0.20385658  0.69955195  0.09658046  1.0
  C  C9  1  0.21562601  0.61406759  0.11123195  1.0
  C  C10  1  0.14305327  0.74549155  0.12984717  1.0
  C  C11  1  0.15889867  0.55611229  0.15043921  1.0
  C  C12  1  0.50968473  0.89293219  0.80932423  1.0
  C  C13  1  0.93211681  0.09865848  0.50727996  1.0
  C  C14  1  0.60804129  0.99243473  0.84800239  1.0
  C  C15  1  0.85529242  0.00289179  0.40421553  1.0
  C  C16  1  0.59444296  0.08438004  0.85680530  1.0
  C  C17  1  0.78271274  0.91263557  0.40997728  1.0
  C  C18  1  0.49814938  0.08314918  0.84408888  1.0
  C  C19  1  0.79141628  0.91204837  0.50384198  1.0
  C  C20  1  0.40281415  0.98533585  0.81723616  1.0
  C  C21  1  0.87570511  0.00625890  0.60499766  1.0
  C  C22  1  0.72166838  0.90362244  0.86745477  1.0
  C  C23  1  0.91511024  0.09432322  0.29941965  1.0
  C  C24  1  0.41178105  0.88793893  0.79268982  1.0
  C  C25  1  0.94230818  0.10094773  0.60229637  1.0
  C  C26  1  0.35143141  0.76612405  0.76937794  1.0
  C  C27  1  0.04467633  0.21922503  0.67178845  1.0
  C  C28  1  0.46369492  0.77671839  0.79768439  1.0
  C  C29  1  0.02865560  0.22005627  0.56613499  1.0
  C  C30  1  0.50486192  0.28998236  0.37995643  1.0
  C  C31  1  0.59769663  0.37416414  0.47514080  1.0
  C  C32  1  0.40134499  0.26039436  0.37741125  1.0
  C  C33  1  0.59781644  0.43696446  0.57681172  1.0
  C  C34  1  0.40128614  0.31515583  0.48184819  1.0
  C  C35  1  0.49409410  0.39920485  0.57629870  1.0
  C  C36  1  0.67142743  0.36372264  0.41791108  1.0
  C  C37  1  0.56856644  0.26381547  0.31256703  1.0
  C  C38  1  0.79553675  0.60674909  0.68204539  1.0
  C  C39  1  0.28303936  0.14621189  0.17132655  1.0
  C  C40  1  0.09066391  0.38996744  0.17996513  1.0
  C  C41  1  0.03016397  0.83514677  0.10932161  1.0
  C  C42  1  0.70310675  0.60763339  0.77837348  1.0
  C  C43  1  0.19956615  0.17401199  0.27578696  1.0
  C  C44  1  0.18730394  0.38103974  0.08536107  1.0
  C  C45  1  0.11762061  0.81905921  0.00512752  1.0
  C  C46  1  0.80767604  0.09305781  0.97324872  1.0
  C  C47  1  0.82423634  0.90508298  0.20024874  1.0
  C  C48  1  0.88508471  0.90238411  0.70303534  1.0
  C  C49  1  0.29903076  0.08509667  0.88862066  1.0
  C  C50  1  0.90410798  0.00089923  0.69985784  1.0
  C  C51  1  0.30768604  0.98830024  0.82710730  1.0
  N  N90  1  0.00089845  0.05384553  0.86591658  1.0
  N  N91  1  0.14368201  0.93068863  0.83029723  1.0
  N  N92  1  0.81841034  0.94004720  0.93555427  1.0
  N  N93  1  0.91336979  0.06043730  0.20016114  1.0
  N  N94  1  0.85900455  0.70219170  0.78015866  1.0
  N  N95  1  0.18392865  0.10994171  0.10965415  1.0
  N  N96  1  0.09084207  0.29053478  0.14674049  1.0
  N  N97  1  0.99933672  0.86448274  0.04133525  1.0
  N  N98  1  0.79947012  0.70292882  0.84260603  1.0
  N  N99  1  0.13052264  0.12692153  0.17685713  1.0
  N  N100  1  0.15214247  0.28480587  0.08641060  1.0
  N  N101  1  0.05418674  0.85434182  0.97599799  1.0
  N  N102  1  0.87232339  0.05839652  0.00154900  1.0
  N  N103  1  0.85575150  0.94047938  0.13714259  1.0
  N  N104  1  0.94431594  0.93574141  0.80238893  1.0
  N  N105  1  0.20133680  0.05027278  0.89047955  1.0
  F  F52  1  0.68183778  0.18410097  0.88403998  1.0
  F  F53  1  0.69787146  0.81699082  0.31666223  1.0
  F  F54  1  0.47121924  0.68922571  0.71491739  1.0
  F  F55  1  0.11470028  0.23074619  0.53406224  1.0
  F  F56  1  0.74086575  0.33048730  0.45239938  1.0
  F  F57  1  0.56086249  0.28603879  0.23022256  1.0
  F  F58  1  0.83489842  0.58815228  0.60536944  1.0
  F  F59  1  0.35187277  0.13695261  0.12546019  1.0
  F  F60  1  0.62906618  0.58799605  0.81969735  1.0
  F  F61  1  0.16686691  0.20042340  0.35701098  1.0
  F  F62  1  0.24698361  0.39546100  0.02847414  1.0
  F  F63  1  0.17992181  0.79953010  0.95213668  1.0
  F  F64  1  0.84029521  0.20641015  0.02943784  1.0
  F  F65  1  0.77019139  0.79035816  0.15798009  1.0
