# generated using pymatgen
data_AlH18(C9O2)3
_symmetry_space_group_name_H-M   'P 1'
_cell_length_a   4.02059277
_cell_length_b   24.49980646
_cell_length_c   24.49966736
_cell_angle_alpha   60.00016087
_cell_angle_beta   89.99965823
_cell_angle_gamma   89.99982873
_symmetry_Int_Tables_number   1
_chemical_formula_structural   AlH18(C9O2)3
_chemical_formula_sum   'Al2 H36 C54 O12'
_cell_volume   2089.99027086
_cell_formula_units_Z   2
loop_
 _symmetry_equiv_pos_site_id
 _symmetry_equiv_pos_as_xyz
  1  'x, y, z'
loop_
 _atom_site_type_symbol
 _atom_site_label
 _atom_site_symmetry_multiplicity
 _atom_site_fract_x
 _atom_site_fract_y
 _atom_site_fract_z
 _atom_site_occupancy
  Al  Al0  1  0.99999608  0.99999824  0.50000177  1.0
  Al  Al1  1  0.99999129  0.66666948  0.16666520  1.0
  H  H2  1  0.41703891  0.17337081  0.32671170  1.0
  H  H3  1  0.58296647  0.17337076  0.49991359  1.0
  H  H4  1  0.41706316  0.49329457  0.33995292  1.0
  H  H5  1  0.58292747  0.49329651  0.16674952  1.0
  H  H6  1  0.15601818  0.30308221  0.23735046  1.0
  H  H7  1  0.53004557  0.27211766  0.22782651  1.0
  H  H8  1  0.84400219  0.30308073  0.45956654  1.0
  H  H9  1  0.46997230  0.27211712  0.50005295  1.0
  H  H10  1  0.15607380  0.36358648  0.42932215  1.0
  H  H11  1  0.53012516  0.39454819  0.43883614  1.0
  H  H12  1  0.84394910  0.36358653  0.20708979  1.0
  H  H13  1  0.46989527  0.39455016  0.16661067  1.0
  H  H14  1  0.41703384  0.82671575  0.49991603  1.0
  H  H15  1  0.58293391  0.99992005  0.32671055  1.0
  H  H16  1  0.41707468  0.83995114  0.16675431  1.0
  H  H17  1  0.58292918  0.66674919  0.33995764  1.0
  H  H18  1  0.15601666  0.73735177  0.45956885  1.0
  H  H19  1  0.53004045  0.72783130  0.50005592  1.0
  H  H20  1  0.84399443  0.95956846  0.23734923  1.0
  H  H21  1  0.46995985  0.00005487  0.22782471  1.0
  H  H22  1  0.15607182  0.92931891  0.20709169  1.0
  H  H23  1  0.53012429  0.93883700  0.16661279  1.0
  H  H24  1  0.84396579  0.70709606  0.42932556  1.0
  H  H25  1  0.46993158  0.66661343  0.43884202  1.0
  H  H26  1  0.41705646  0.99991761  0.67336962  1.0
  H  H27  1  0.58295892  0.82671240  0.67337141  1.0
  H  H28  1  0.41708837  0.66674949  0.99329297  1.0
  H  H29  1  0.58291809  0.83995139  0.99329757  1.0
  H  H30  1  0.15601332  0.95957208  0.80308319  1.0
  H  H31  1  0.53005042  0.00005709  0.77211831  1.0
  H  H32  1  0.84400839  0.73735685  0.80307962  1.0
  H  H33  1  0.46998459  0.72783170  0.77211536  1.0
  H  H34  1  0.15607167  0.70709218  0.86358475  1.0
  H  H35  1  0.53012576  0.66661472  0.89454631  1.0
  H  H36  1  0.84394835  0.92932203  0.86358483  1.0
  H  H37  1  0.46991330  0.93884011  0.89455013  1.0
  C  C38  1  0.49999384  0.95176302  0.59647327  1.0
  C  C39  1  0.50000018  0.09647243  0.45176286  1.0
  C  C40  1  0.49999153  0.95176212  0.45176563  1.0
  C  C41  1  0.49999782  0.57019720  0.21490201  1.0
  C  C42  1  0.49998161  0.71490516  0.21490286  1.0
  C  C43  1  0.49999422  0.71490425  0.07019278  1.0
  C  C44  1  0.42458787  0.30020722  0.24733733  1.0
  C  C45  1  0.57543001  0.30020621  0.45245361  1.0
  C  C46  1  0.42463137  0.36646147  0.41932808  1.0
  C  C47  1  0.57538158  0.36646152  0.21420928  1.0
  C  C48  1  0.45513459  0.19957937  0.35143158  1.0
  C  C49  1  0.46687667  0.26517667  0.31792474  1.0
  C  C50  1  0.54489568  0.19957887  0.44898373  1.0
  C  C51  1  0.53315114  0.26517711  0.41689400  1.0
  C  C52  1  0.45512292  0.46709073  0.31522901  1.0
  C  C53  1  0.46688981  0.40148825  0.34873843  1.0
  C  C54  1  0.54487267  0.46709217  0.21767672  1.0
  C  C55  1  0.53313062  0.40148874  0.24976987  1.0
  C  C56  1  0.50001512  0.16651418  0.41673993  1.0
  C  C57  1  0.50002262  0.29871031  0.35064306  1.0
  C  C58  1  0.49999780  0.50015403  0.24992279  1.0
  C  C59  1  0.50002015  0.36795884  0.31601837  1.0
  C  C60  1  0.42459152  0.74733880  0.45245681  1.0
  C  C61  1  0.57542695  0.95245641  0.24733527  1.0
  C  C62  1  0.42462919  0.91932904  0.21420938  1.0
  C  C63  1  0.57540601  0.71421190  0.41933217  1.0
  C  C64  1  0.45509362  0.85143640  0.44898496  1.0
  C  C65  1  0.46687387  0.81793010  0.41689867  1.0
  C  C66  1  0.54485992  0.94898566  0.35143205  1.0
  C  C67  1  0.53314364  0.91690176  0.31792885  1.0
  C  C68  1  0.45514049  0.81522908  0.21767993  1.0
  C  C69  1  0.46690403  0.84873916  0.24977534  1.0
  C  C70  1  0.54487509  0.71767841  0.31523223  1.0
  C  C71  1  0.53315203  0.74977315  0.34874227  1.0
  C  C72  1  0.49997259  0.91674574  0.41673883  1.0
  C  C73  1  0.50001916  0.85064510  0.35064496  1.0
  C  C74  1  0.49999557  0.74992200  0.24992739  1.0
  C  C75  1  0.50004001  0.81601991  0.31602094  1.0
  C  C76  1  0.42458329  0.95245862  0.80020787  1.0
  C  C77  1  0.57542855  0.74734012  0.80020651  1.0
  C  C78  1  0.42462897  0.71421272  0.86645994  1.0
  C  C79  1  0.57539346  0.91932980  0.86646064  1.0
  C  C80  1  0.45512047  0.94898698  0.69958106  1.0
  C  C81  1  0.46685911  0.91690305  0.76516982  1.0
  C  C82  1  0.54488174  0.85143539  0.69958107  1.0
  C  C83  1  0.53313878  0.81793189  0.76516941  1.0
  C  C84  1  0.45514746  0.71768011  0.96708803  1.0
  C  C85  1  0.46688546  0.74977393  0.90148615  1.0
  C  C86  1  0.54487216  0.81523029  0.96709313  1.0
  C  C87  1  0.53311859  0.84874228  0.90148586  1.0
  C  C88  1  0.49999535  0.91674189  0.66651639  1.0
  C  C89  1  0.49999848  0.85064687  0.79871179  1.0
  C  C90  1  0.50000266  0.74992161  0.00015154  1.0
  C  C91  1  0.49999254  0.81602211  0.86796039  1.0
  O  O92  1  0.73400664  0.99147699  0.43965185  1.0
  O  O93  1  0.73400970  0.93964661  0.56887172  1.0
  O  O94  1  0.73400997  0.06886925  0.49148061  1.0
  O  O95  1  0.26599804  0.93964427  0.49148431  1.0
  O  O96  1  0.26598541  0.06886927  0.43965155  1.0
  O  O97  1  0.26598372  0.99147790  0.56887215  1.0
  O  O98  1  0.73398646  0.72701878  0.09779259  1.0
  O  O99  1  0.73400858  0.59779801  0.17518889  1.0
  O  O100  1  0.73398952  0.67518792  0.22701392  1.0
  O  O101  1  0.26597136  0.67518654  0.09779676  1.0
  O  O102  1  0.26596450  0.72702206  0.17518529  1.0
  O  O103  1  0.26598211  0.59779988  0.22701623  1.0
