# generated using pymatgen
data_Zr3H26(C6O5)8
_symmetry_space_group_name_H-M   'P 1'
_cell_length_a   21.69066091
_cell_length_b   21.69029785
_cell_length_c   21.69049840
_cell_angle_alpha   59.99897040
_cell_angle_beta   59.99869677
_cell_angle_gamma   89.99818755
_symmetry_Int_Tables_number   1
_chemical_formula_structural   Zr3H26(C6O5)8
_chemical_formula_sum   'Zr6 H52 C96 O80'
_cell_volume   7215.79837414
_cell_formula_units_Z   2
loop_
 _symmetry_equiv_pos_site_id
 _symmetry_equiv_pos_as_xyz
  1  'x, y, z'
loop_
 _atom_site_type_symbol
 _atom_site_label
 _atom_site_symmetry_multiplicity
 _atom_site_fract_x
 _atom_site_fract_y
 _atom_site_fract_z
 _atom_site_occupancy
  Zr  Zr0  1  0.58123402  0.08124492  0.99998926  1.0
  Zr  Zr1  1  0.41878432  0.91876389  0.00000635  1.0
  Zr  Zr2  1  0.41878077  0.08125025  0.99999413  1.0
  Zr  Zr3  1  0.58122994  0.91876590  0.00001785  1.0
  Zr  Zr4  1  0.41876822  0.91877915  0.16245042  1.0
  Zr  Zr5  1  0.58122506  0.08124999  0.83753207  1.0
  H  H6  1  0.43594112  0.06404384  0.12810812  1.0
  H  H7  1  0.43595447  0.80785013  0.12809752  1.0
  H  H8  1  0.43595791  0.06405935  0.87189252  1.0
  H  H9  1  0.69215176  0.06405219  0.87190446  1.0
  H  H10  1  0.60544392  0.10364895  0.13303676  1.0
  H  H11  1  0.39635759  0.89448994  0.34218248  1.0
  H  H12  1  0.39541848  0.89558799  0.55271842  1.0
  H  H13  1  0.60436169  0.10466060  0.34368287  1.0
  H  H14  1  0.60442176  0.10460320  0.44727631  1.0
  H  H15  1  0.39538755  0.89562432  0.65629495  1.0
  H  H16  1  0.39639406  0.89451067  0.86696150  1.0
  H  H17  1  0.60552964  0.10362508  0.65782665  1.0
  H  H18  1  0.73668570  0.23848319  0.86696356  1.0
  H  H19  1  0.73666674  0.23854521  0.65782020  1.0
  H  H20  1  0.94830535  0.44813566  0.44728321  1.0
  H  H21  1  0.94834520  0.44804315  0.65631843  1.0
  H  H22  1  0.05187608  0.55169868  0.55272354  1.0
  H  H23  1  0.05191686  0.55168673  0.34370374  1.0
  H  H24  1  0.26146971  0.76335674  0.13303827  1.0
  H  H25  1  0.26145667  0.76335006  0.34217175  1.0
  H  H26  1  0.39638216  0.76334636  0.34212395  1.0
  H  H27  1  0.60554864  0.76337531  0.13299730  1.0
  H  H28  1  0.60445358  0.55173658  0.34368136  1.0
  H  H29  1  0.39538806  0.55168505  0.55268904  1.0
  H  H30  1  0.39543572  0.44815422  0.65628567  1.0
  H  H31  1  0.60440932  0.44811541  0.44727918  1.0
  H  H32  1  0.60550977  0.23854391  0.65784094  1.0
  H  H33  1  0.39640295  0.23856691  0.86696515  1.0
  H  H34  1  0.73671500  0.10367832  0.65786720  1.0
  H  H35  1  0.73667609  0.89450431  0.86699340  1.0
  H  H36  1  0.94830623  0.89558609  0.65632031  1.0
  H  H37  1  0.94838124  0.10467823  0.44730562  1.0
  H  H38  1  0.05190048  0.10461979  0.34371456  1.0
  H  H39  1  0.05192165  0.89562535  0.55271761  1.0
  H  H40  1  0.26146451  0.89450155  0.34215797  1.0
  H  H41  1  0.26146753  0.10362982  0.13303607  1.0
  H  H42  1  0.39634808  0.23848641  0.99820534  1.0
  H  H43  1  0.60551604  0.23852731  0.99811585  1.0
  H  H44  1  0.60443112  0.44811006  0.00016800  1.0
  H  H45  1  0.39535664  0.44805336  0.00030131  1.0
  H  H46  1  0.39540727  0.55170126  0.00017938  1.0
  H  H47  1  0.60438420  0.55166479  0.00023164  1.0
  H  H48  1  0.60550417  0.76334330  0.99810897  1.0
  H  H49  1  0.39638916  0.76335153  0.99810731  1.0
  H  H50  1  0.73671628  0.89458601  0.00179918  1.0
  H  H51  1  0.73666306  0.10367428  0.00187465  1.0
  H  H52  1  0.94828684  0.10464847  0.99983110  1.0
  H  H53  1  0.94838245  0.89570192  0.99969687  1.0
  H  H54  1  0.05189245  0.89561827  0.99981905  1.0
  H  H55  1  0.05193310  0.10465459  0.99976740  1.0
  H  H56  1  0.26148368  0.10364539  0.00188019  1.0
  H  H57  1  0.26147010  0.89451194  0.00189190  1.0
  C  C58  1  0.50146019  0.99851323  0.20990369  1.0
  C  C59  1  0.28862202  0.79160444  0.20989693  1.0
  C  C60  1  0.50150469  0.99851882  0.79010379  1.0
  C  C61  1  0.70841200  0.21136956  0.79009717  1.0
  C  C62  1  0.50148582  0.21136409  0.99704538  1.0
  C  C63  1  0.70842050  0.99855199  0.00295816  1.0
  C  C64  1  0.50149740  0.79159889  0.99701491  1.0
  C  C65  1  0.28863377  0.99852437  0.00297922  1.0
  C  C66  1  0.28862148  0.99851798  0.20989295  1.0
  C  C67  1  0.50150069  0.21139703  0.79010584  1.0
  C  C68  1  0.70842437  0.99852691  0.79012972  1.0
  C  C69  1  0.50150736  0.79161438  0.20986678  1.0
  C  C70  1  0.50072571  0.99925133  0.27684942  1.0
  C  C71  1  0.55754028  0.05683061  0.25279973  1.0
  C  C72  1  0.55678983  0.05673980  0.31764171  1.0
  C  C73  1  0.49996881  0.00003528  0.40664291  1.0
  C  C74  1  0.44327593  0.94318498  0.43119188  1.0
  C  C75  1  0.44317106  0.94242427  0.36720267  1.0
  C  C76  1  0.49987073  0.00014721  0.47164597  1.0
  C  C77  1  0.49988074  0.00014110  0.52833807  1.0
  C  C78  1  0.49999586  0.00002773  0.59334625  1.0
  C  C79  1  0.55684048  0.05672163  0.56880575  1.0
  C  C80  1  0.55760871  0.05681099  0.63279727  1.0
  C  C81  1  0.50078559  0.99924313  0.72315307  1.0
  C  C82  1  0.44321187  0.94242554  0.74719319  1.0
  C  C83  1  0.44329957  0.94318658  0.68234972  1.0
  C  C84  1  0.77609702  0.27757912  0.72315241  1.0
  C  C85  1  0.80962999  0.31034099  0.74720083  1.0
  C  C86  1  0.87438280  0.37443192  0.68235978  1.0
  C  C87  1  0.90667859  0.40661168  0.59335848  1.0
  C  C88  1  0.87437518  0.37446814  0.56881026  1.0
  C  C89  1  0.80962199  0.31037720  0.63279888  1.0
  C  C90  1  0.97179404  0.47151572  0.52835378  1.0
  C  C91  1  0.02848019  0.52821841  0.47166001  1.0
  C  C92  1  0.09337464  0.59334322  0.40665152  1.0
  C  C93  1  0.12552600  0.62564513  0.43119424  1.0
  C  C94  1  0.18960983  0.69040460  0.36720012  1.0
  C  C95  1  0.22239572  0.72393698  0.27684641  1.0
  C  C96  1  0.18961833  0.69040694  0.25280521  1.0
  C  C97  1  0.12553578  0.62564860  0.31765153  1.0
  C  C98  1  0.50079000  0.72394444  0.27680861  1.0
  C  C99  1  0.44320576  0.69040360  0.36716106  1.0
  C  C100  1  0.44330243  0.62565236  0.43115640  1.0
  C  C101  1  0.50001272  0.59336548  0.40661681  1.0
  C  C102  1  0.55685700  0.62566803  0.31761835  1.0
  C  C103  1  0.55762018  0.69042097  0.25276794  1.0
  C  C104  1  0.49992027  0.52825964  0.47163335  1.0
  C  C105  1  0.49991414  0.47156821  0.52833650  1.0
  C  C106  1  0.50000851  0.40665689  0.59334691  1.0
  C  C107  1  0.44331038  0.37449776  0.68234997  1.0
  C  C108  1  0.44321913  0.31041338  0.74719460  1.0
  C  C109  1  0.50078370  0.27762367  0.72315988  1.0
  C  C110  1  0.55759926  0.31040139  0.63280669  1.0
  C  C111  1  0.55684263  0.37448745  0.56881096  1.0
  C  C112  1  0.77611459  0.99926972  0.72318234  1.0
  C  C113  1  0.80965532  0.05685229  0.63283638  1.0
  C  C114  1  0.87440672  0.05675766  0.56883596  1.0
  C  C115  1  0.90668588  0.00003869  0.59337570  1.0
  C  C116  1  0.87438074  0.94319132  0.68237516  1.0
  C  C117  1  0.80963220  0.94244067  0.74722465  1.0
  C  C118  1  0.97180336  0.00014451  0.52836799  1.0
  C  C119  1  0.02849926  0.00015003  0.47166492  1.0
  C  C120  1  0.09338494  0.00003112  0.40665197  1.0
  C  C121  1  0.12553908  0.05672828  0.31765077  1.0
  C  C122  1  0.18962154  0.05681658  0.25280393  1.0
  C  C123  1  0.22240242  0.99924443  0.27684054  1.0
  C  C124  1  0.18962113  0.94242189  0.36719153  1.0
  C  C125  1  0.12553925  0.94318339  0.43118914  1.0
  C  C126  1  0.50075154  0.27757054  0.99851796  1.0
  C  C127  1  0.44317386  0.31034157  0.99929012  1.0
  C  C128  1  0.44327025  0.37443342  0.99994763  1.0
  C  C129  1  0.49997828  0.40660189  0.00006397  1.0
  C  C130  1  0.55682681  0.37445125  0.99990403  1.0
  C  C131  1  0.55758329  0.31036112  0.99924111  1.0
  C  C132  1  0.49987161  0.47150907  0.00027477  1.0
  C  C133  1  0.49986989  0.52821020  0.00026141  1.0
  C  C134  1  0.49998267  0.59333083  0.00003468  1.0
  C  C135  1  0.44329061  0.62564382  0.99988173  1.0
  C  C136  1  0.44320439  0.69040025  0.99920883  1.0
  C  C137  1  0.50077163  0.72392941  0.99846001  1.0
  C  C138  1  0.55758841  0.69039326  0.99921165  1.0
  C  C139  1  0.55682616  0.62563568  0.99988642  1.0
  C  C140  1  0.77609856  0.99929041  0.00150011  1.0
  C  C141  1  0.80965563  0.94249096  0.00071681  1.0
  C  C142  1  0.87440900  0.94325359  0.00005338  1.0
  C  C143  1  0.90668747  0.00007923  0.99994346  1.0
  C  C144  1  0.87436918  0.05676620  0.00010091  1.0
  C  C145  1  0.80961338  0.05685338  0.00076878  1.0
  C  C146  1  0.97179235  0.00019055  0.99973911  1.0
  C  C147  1  0.02848769  0.00017133  0.99975557  1.0
  C  C148  1  0.09338008  0.00004717  0.99997659  1.0
  C  C149  1  0.12553509  0.94320435  0.00011900  1.0
  C  C150  1  0.18962177  0.94243562  0.00078768  1.0
  C  C151  1  0.22240691  0.99925409  0.00153792  1.0
  C  C152  1  0.18963245  0.05682741  0.00078759  1.0
  C  C153  1  0.12554641  0.05674125  0.00011687  1.0
  O  O154  1  0.55377191  0.05059033  0.12815371  1.0
  O  O155  1  0.31806613  0.82127089  0.12814700  1.0
  O  O156  1  0.44942014  0.94621359  0.87185172  1.0
  O  O157  1  0.67873275  0.18193434  0.87184851  1.0
  O  O158  1  0.44940801  0.18192935  0.99681164  1.0
  O  O159  1  0.67875276  0.94624122  0.00319337  1.0
  O  O160  1  0.55379908  0.82126290  0.99679236  1.0
  O  O161  1  0.31807583  0.05060958  0.00319968  1.0
  O  O162  1  0.31805908  0.94620716  0.23253282  1.0
  O  O163  1  0.55379790  0.18194458  0.76746759  1.0
  O  O164  1  0.67874480  0.05059436  0.76748662  1.0
  O  O165  1  0.44942502  0.82127774  0.23250561  1.0
  O  O166  1  0.44941971  0.18195171  0.87185599  1.0
  O  O167  1  0.67874838  0.94620470  0.87187679  1.0
  O  O168  1  0.55381985  0.82128247  0.12811738  1.0
  O  O169  1  0.31806344  0.05060246  0.12814402  1.0
  O  O170  1  0.55380076  0.18193229  0.99679787  1.0
  O  O171  1  0.31807283  0.94621664  0.00320444  1.0
  O  O172  1  0.44941170  0.82126503  0.99679536  1.0
  O  O173  1  0.67874438  0.05062796  0.00319727  1.0
  O  O174  1  0.67874260  0.18193727  0.76745579  1.0
  O  O175  1  0.44938699  0.94619773  0.23254808  1.0
  O  O176  1  0.31806561  0.82126401  0.23253917  1.0
  O  O177  1  0.55381036  0.05060225  0.76745922  1.0
  O  O178  1  0.63737322  0.04579584  0.90842171  1.0
  O  O179  1  0.45421752  0.04580070  0.90841206  1.0
  O  O180  1  0.45421477  0.86262784  0.09157912  1.0
  O  O181  1  0.45420701  0.04578959  0.09158391  1.0
  O  O182  1  0.39856515  0.96619056  0.06762402  1.0
  O  O183  1  0.53381538  0.96618968  0.06762798  1.0
  O  O184  1  0.53381811  0.96619016  0.93237381  1.0
  O  O185  1  0.53381620  0.10144693  0.93236938  1.0
  O  O186  1  0.61324463  0.11268869  0.16946300  1.0
  O  O187  1  0.38733082  0.88669370  0.39544242  1.0
  O  O188  1  0.38756654  0.88782323  0.51623297  1.0
  O  O189  1  0.61213190  0.11247997  0.29159136  1.0
  O  O190  1  0.61218745  0.11244814  0.48376591  1.0
  O  O191  1  0.38756786  0.88783996  0.70839233  1.0
  O  O192  1  0.38736066  0.88671088  0.83053102  1.0
  O  O193  1  0.61333321  0.11265506  0.60456249  1.0
  O  O194  1  0.78215242  0.28270649  0.83053831  1.0
  O  O195  1  0.78212908  0.28278033  0.60455908  1.0
  O  O196  1  0.90405493  0.40380001  0.48376840  1.0
  O  O197  1  0.90407123  0.40372335  0.70841093  1.0
  O  O198  1  0.09621169  0.59595358  0.51623278  1.0
  O  O199  1  0.09623348  0.59596024  0.29160798  1.0
  O  O200  1  0.21723875  0.71789632  0.16946801  1.0
  O  O201  1  0.21722082  0.71789137  0.39543574  1.0
  O  O202  1  0.38734571  0.71787999  0.39538936  1.0
  O  O203  1  0.61335190  0.71791776  0.16943225  1.0
  O  O204  1  0.61221011  0.59598215  0.29158220  1.0
  O  O205  1  0.38756534  0.59595852  0.51619505  1.0
  O  O206  1  0.38758531  0.40381210  0.70838473  1.0
  O  O207  1  0.61218641  0.40379451  0.48377127  1.0
  O  O208  1  0.61331190  0.28277819  0.60457777  1.0
  O  O209  1  0.38737750  0.28280309  0.83053110  1.0
  O  O210  1  0.78218942  0.11272271  0.60460217  1.0
  O  O211  1  0.78214105  0.88670971  0.83055524  1.0
  O  O212  1  0.90405302  0.88782744  0.70841624  1.0
  O  O213  1  0.90411210  0.11250561  0.48379765  1.0
  O  O214  1  0.09623200  0.11246088  0.29161452  1.0
  O  O215  1  0.09622892  0.88783410  0.51622758  1.0
  O  O216  1  0.21723722  0.88670168  0.39542298  1.0
  O  O217  1  0.21723834  0.11266443  0.16946737  1.0
  O  O218  1  0.38731352  0.28271306  0.99944719  1.0
  O  O219  1  0.61331567  0.28275999  0.99934232  1.0
  O  O220  1  0.61218951  0.40377272  0.00025304  1.0
  O  O221  1  0.38753220  0.40373598  0.00034641  1.0
  O  O222  1  0.38756556  0.59595673  0.00025979  1.0
  O  O223  1  0.61217091  0.59594264  0.00026672  1.0
  O  O224  1  0.61330447  0.71787892  0.99934177  1.0
  O  O225  1  0.38735938  0.71789128  0.99933468  1.0
  O  O226  1  0.78218646  0.88678977  0.00055361  1.0
  O  O227  1  0.78211779  0.11269617  0.00065655  1.0
  O  O228  1  0.90404020  0.11248989  0.99973590  1.0
  O  O229  1  0.90411598  0.88791776  0.99964842  1.0
  O  O230  1  0.09622568  0.88785419  0.99973907  1.0
  O  O231  1  0.09624910  0.11247715  0.99972371  1.0
  O  O232  1  0.21724947  0.11267710  0.00065601  1.0
  O  O233  1  0.21723727  0.88671367  0.00066200  1.0
