# generated using pymatgen
data_ZnSiH12C24(N2F5)2
_symmetry_space_group_name_H-M   'P 1'
_cell_length_a   7.76371807
_cell_length_b   14.14892333
_cell_length_c   14.17181480
_cell_angle_alpha   94.36584703
_cell_angle_beta   99.68606786
_cell_angle_gamma   99.69776004
_symmetry_Int_Tables_number   1
_chemical_formula_structural   ZnSiH12C24(N2F5)2
_chemical_formula_sum   'Zn1 Si1 H12 C24 N4 F10'
_cell_volume   1503.86019315
_cell_formula_units_Z   1
loop_
 _symmetry_equiv_pos_site_id
 _symmetry_equiv_pos_as_xyz
  1  'x, y, z'
loop_
 _atom_site_type_symbol
 _atom_site_label
 _atom_site_symmetry_multiplicity
 _atom_site_fract_x
 _atom_site_fract_y
 _atom_site_fract_z
 _atom_site_occupancy
  Zn  Zn0  1  0.49999945  0.50018766  0.49979362  1.0
  Si  Si1  1  0.00000578  0.49894262  0.50108344  1.0
  H  H2  1  0.25288348  0.63419626  0.44082727  1.0
  H  H3  1  0.22907874  0.80511995  0.43633489  1.0
  H  H4  1  0.79041366  0.87820180  0.56376009  1.0
  H  H5  1  0.21117267  0.12233651  0.43059840  1.0
  H  H6  1  0.74429404  0.36583430  0.56418678  1.0
  H  H7  1  0.76652110  0.19475107  0.56979216  1.0
  H  H8  1  0.25523383  0.43757550  0.63474815  1.0
  H  H9  1  0.23244626  0.43247365  0.80547069  1.0
  H  H10  1  0.79060452  0.56661143  0.87790499  1.0
  H  H11  1  0.20798370  0.43901821  0.12162936  1.0
  H  H12  1  0.74747354  0.55735143  0.36515196  1.0
  H  H13  1  0.77167691  0.56138658  0.19457762  1.0
  C  C14  1  0.36983394  0.68994329  0.46670007  1.0
  C  C15  1  0.35665167  0.78617380  0.46435425  1.0
  C  C16  1  0.50813908  0.85786450  0.49979506  1.0
  C  C17  1  0.66744196  0.82755105  0.53548031  1.0
  C  C18  1  0.66487368  0.72905971  0.53450599  1.0
  C  C19  1  0.50137872  0.95722352  0.50008375  1.0
  C  C20  1  0.49648621  0.04294856  0.50088837  1.0
  C  C21  1  0.49014218  0.14233896  0.50083781  1.0
  C  C22  1  0.33303687  0.17284701  0.46143562  1.0
  C  C23  1  0.33692492  0.27138790  0.46141703  1.0
  C  C24  1  0.62820574  0.31015978  0.53620300  1.0
  C  C25  1  0.64042929  0.21385914  0.53916082  1.0
  C  C26  1  0.37175604  0.46470677  0.69031032  1.0
  C  C27  1  0.35919245  0.46201848  0.78643874  1.0
  C  C28  1  0.51008915  0.49912454  0.85788668  1.0
  C  C29  1  0.66816186  0.53693387  0.82744305  1.0
  C  C30  1  0.66469667  0.53659270  0.72905881  1.0
  C  C31  1  0.50355185  0.49920698  0.95710521  1.0
  C  C32  1  0.49846291  0.49994004  0.04267440  1.0
  C  C33  1  0.49152295  0.50032530  0.14186183  1.0
  C  C34  1  0.33144566  0.46619801  0.17215743  1.0
  C  C35  1  0.33382108  0.46748894  0.27050459  1.0
  C  C36  1  0.63014789  0.53238225  0.30953962  1.0
  C  C37  1  0.64353331  0.53448296  0.21344515  1.0
  N  N38  1  0.52271879  0.66017865  0.50224589  1.0
  N  N39  1  0.47765974  0.34010493  0.49695338  1.0
  N  N40  1  0.52327560  0.50243865  0.66040937  1.0
  N  N41  1  0.47648079  0.49834938  0.33928227  1.0
  F  F42  1  0.22435980  0.48876791  0.49115736  1.0
  F  F43  1  0.77565701  0.50928429  0.51072848  1.0
  F  F44  1  0.00006390  0.58117072  0.41824089  1.0
  F  F45  1  0.99977516  0.41679895  0.58395358  1.0
  F  F46  1  0.08256773  0.58838625  0.58972149  1.0
  F  F47  1  0.91766090  0.40943443  0.41247870  1.0
  F  F48  1  0.81694209  0.70080969  0.56887361  1.0
  F  F49  1  0.18797688  0.29987082  0.42189927  1.0
  F  F50  1  0.81502952  0.57405444  0.70067457  1.0
  F  F51  1  0.18070693  0.43511706  0.29867522  1.0
