# generated using pymatgen
data_AlH7C9NO6
_symmetry_space_group_name_H-M   'P 1'
_cell_length_a   6.72108994
_cell_length_b   8.71378515
_cell_length_c   15.32785271
_cell_angle_alpha   94.06370494
_cell_angle_beta   102.31904800
_cell_angle_gamma   104.01733876
_symmetry_Int_Tables_number   1
_chemical_formula_structural   AlH7C9NO6
_chemical_formula_sum   'Al2 H14 C18 N2 O12'
_cell_volume   843.76697552
_cell_formula_units_Z   2
loop_
 _symmetry_equiv_pos_site_id
 _symmetry_equiv_pos_as_xyz
  1  'x, y, z'
loop_
 _atom_site_type_symbol
 _atom_site_label
 _atom_site_symmetry_multiplicity
 _atom_site_fract_x
 _atom_site_fract_y
 _atom_site_fract_z
 _atom_site_occupancy
  Al  Al0  1  0.00007706  0.50007849  0.50001019  1.0
  Al  Al1  1  0.50010745  0.50011123  0.50002613  1.0
  H  H2  1  0.15438116  0.35515547  0.40168236  1.0
  H  H3  1  0.84592883  0.64552132  0.59812430  1.0
  H  H4  1  0.76727043  0.44790054  0.93253943  1.0
  H  H5  1  0.23261461  0.55196489  0.06747134  1.0
  H  H6  1  0.92376907  0.48461168  0.22623343  1.0
  H  H7  1  0.84088111  0.46868613  0.06245929  1.0
  H  H8  1  0.07599660  0.51491217  0.77373095  1.0
  H  H9  1  0.15862314  0.53055409  0.93748082  1.0
  H  H10  1  0.27804470  0.15260850  0.51575407  1.0
  H  H11  1  0.13063443  0.97619800  0.54091549  1.0
  H  H12  1  0.72195683  0.84760143  0.48412594  1.0
  H  H13  1  0.86938932  0.02406946  0.45908435  1.0
  H  H14  1  0.65617078  0.43158455  0.69847135  1.0
  H  H15  1  0.34393866  0.56852954  0.30156784  1.0
  C  C16  1  0.67789723  0.52118818  0.33869833  1.0
  C  C17  1  0.65755140  0.21223989  0.48896174  1.0
  C  C18  1  0.32221362  0.47889545  0.66132243  1.0
  C  C19  1  0.34258241  0.78797099  0.51109541  1.0
  C  C20  1  0.40045245  0.96075394  0.50551361  1.0
  C  C21  1  0.59967441  0.03946076  0.49455688  1.0
  C  C22  1  0.37286698  0.47779319  0.75917621  1.0
  C  C23  1  0.62708381  0.52208570  0.24081982  1.0
  C  C24  1  0.56869380  0.45682604  0.80631100  1.0
  C  C25  1  0.61494480  0.46502893  0.90026735  1.0
  C  C26  1  0.43125400  0.54306343  0.19370641  1.0
  C  C27  1  0.38490473  0.53480074  0.09974012  1.0
  C  C28  1  0.77129731  0.49703635  0.19058512  1.0
  C  C29  1  0.72365560  0.48893892  0.09784520  1.0
  C  C30  1  0.22848187  0.50258080  0.80938584  1.0
  C  C31  1  0.27602031  0.51054792  0.90212311  1.0
  C  C32  1  0.47265234  0.49377359  0.95009282  1.0
  C  C33  1  0.52708123  0.50587040  0.04989314  1.0
  N  N34  1  0.23856144  0.03158855  0.50819650  1.0
  N  N35  1  0.76159130  0.96862271  0.49184274  1.0
  O  O36  1  0.85637175  0.50425873  0.37811017  1.0
  O  O37  1  0.51152201  0.28585107  0.48053885  1.0
  O  O38  1  0.46764523  0.46476651  0.61965426  1.0
  O  O39  1  0.14908114  0.72133148  0.50851506  1.0
  O  O40  1  0.14374148  0.49586498  0.62189615  1.0
  O  O41  1  0.48862978  0.71436733  0.51950033  1.0
  O  O42  1  0.53251426  0.53544200  0.38038186  1.0
  O  O43  1  0.85103761  0.27885854  0.49153486  1.0
  O  O44  1  0.20790873  0.43392600  0.45472752  1.0
  O  O45  1  0.79228059  0.56627693  0.54529121  1.0
  O  O46  1  0.71576124  0.42890140  0.76385838  1.0
  O  O47  1  0.28424614  0.57109768  0.23616550  1.0
