# generated using pymatgen
data_AlH18C21N7O6
_symmetry_space_group_name_H-M   'P 1'
_cell_length_a   4.17158309
_cell_length_b   13.50436547
_cell_length_c   13.50445533
_cell_angle_alpha   119.99985245
_cell_angle_beta   90.00043093
_cell_angle_gamma   89.99995397
_symmetry_Int_Tables_number   1
_chemical_formula_structural   AlH18C21N7O6
_chemical_formula_sum   'Al1 H18 C21 N7 O6'
_cell_volume   658.84526831
_cell_formula_units_Z   1
loop_
 _symmetry_equiv_pos_site_id
 _symmetry_equiv_pos_as_xyz
  1  'x, y, z'
loop_
 _atom_site_type_symbol
 _atom_site_label
 _atom_site_symmetry_multiplicity
 _atom_site_fract_x
 _atom_site_fract_y
 _atom_site_fract_z
 _atom_site_occupancy
  Al  Al0  1  0.00000441  0.00000208  0.50000338  1.0
  H  H1  1  0.79960375  0.13615736  0.10493517  1.0
  H  H2  1  0.20040471  0.39506831  0.36384427  1.0
  H  H3  1  0.20037473  0.13616154  0.03122606  1.0
  H  H4  1  0.79960973  0.39506307  0.03122695  1.0
  H  H5  1  0.20033682  0.46877266  0.10494421  1.0
  H  H6  1  0.79966392  0.46877294  0.36382778  1.0
  H  H7  1  0.03997938  0.23893681  0.50398972  1.0
  H  H8  1  0.99894850  0.36160738  0.50486576  1.0
  H  H9  1  0.96004239  0.99600788  0.26106267  1.0
  H  H10  1  0.00105968  0.99513387  0.13839523  1.0
  H  H11  1  0.03994407  0.99600897  0.73494720  1.0
  H  H12  1  0.99891239  0.99513781  0.85674206  1.0
  H  H13  1  0.96003810  0.23893054  0.73495146  1.0
  H  H14  1  0.00107251  0.36160032  0.85674417  1.0
  H  H15  1  0.03989560  0.76505028  0.26108381  1.0
  H  H16  1  0.99884680  0.64325352  0.13841545  1.0
  H  H17  1  0.96010789  0.76505081  0.50396872  1.0
  H  H18  1  0.00115317  0.64325409  0.50483954  1.0
  C  C19  1  0.50000123  0.08873790  0.67748252  1.0
  C  C20  1  0.50000081  0.82252013  0.41126127  1.0
  C  C21  1  0.50000527  0.08874145  0.41126327  1.0
  C  C22  1  0.67521732  0.11005021  0.24479625  1.0
  C  C23  1  0.66658432  0.16931447  0.18441569  1.0
  C  C24  1  0.49999455  0.27263930  0.22736197  1.0
  C  C25  1  0.33342697  0.31558499  0.33068527  1.0
  C  C26  1  0.32479314  0.25520573  0.38994924  1.0
  C  C27  1  0.50000443  0.15235626  0.34764125  1.0
  C  C28  1  0.33340135  0.16931386  0.98490266  1.0
  C  C29  1  0.32477738  0.11004940  0.86525733  1.0
  C  C30  1  0.49999546  0.15235285  0.80471981  1.0
  C  C31  1  0.67521970  0.25520163  0.86525963  1.0
  C  C32  1  0.66657923  0.31558021  0.98490292  1.0
  C  C33  1  0.50000198  0.27263997  0.04528165  1.0
  C  C34  1  0.33333333  0.51509947  0.18442240  1.0
  C  C35  1  0.32475147  0.63474231  0.24480107  1.0
  C  C36  1  0.50000262  0.69528012  0.34764088  1.0
  C  C37  1  0.67525082  0.63474285  0.38994126  1.0
  C  C38  1  0.66661805  0.51509829  0.33067838  1.0
  C  C39  1  0.49999911  0.45472039  0.22735946  1.0
  N  N40  1  0.49999854  0.33333236  0.16666800  1.0
  N  N41  1  0.15612452  0.29894572  0.49249821  1.0
  N  N42  1  0.84389151  0.00750001  0.20105471  1.0
  N  N43  1  0.15609026  0.00750161  0.80645045  1.0
  N  N44  1  0.84389352  0.29893815  0.80645015  1.0
  N  N45  1  0.15604274  0.69355151  0.20107092  1.0
  N  N46  1  0.84396249  0.69355086  0.49248265  1.0
  O  O47  1  0.26356257  0.02207936  0.39639270  1.0
  O  O48  1  0.26355799  0.10361081  0.62569153  1.0
  O  O49  1  0.26356132  0.87431229  0.47792347  1.0
  O  O50  1  0.73644865  0.10361337  0.47792511  1.0
  O  O51  1  0.73644558  0.87431374  0.39639315  1.0
  O  O52  1  0.73644571  0.02207710  0.62568979  1.0
