# generated using pymatgen
data_Zn4H66C91(N2O)8
_symmetry_space_group_name_H-M   'P 1'
_cell_length_a   19.38925999
_cell_length_b   19.49458949
_cell_length_c   20.24447235
_cell_angle_alpha   107.79399908
_cell_angle_beta   104.99799401
_cell_angle_gamma   113.55194965
_symmetry_Int_Tables_number   1
_chemical_formula_structural   Zn4H66C91(N2O)8
_chemical_formula_sum   'Zn4 H66 C91 N16 O8'
_cell_volume   6009.60196059
_cell_formula_units_Z   1
loop_
 _symmetry_equiv_pos_site_id
 _symmetry_equiv_pos_as_xyz
  1  'x, y, z'
loop_
 _atom_site_type_symbol
 _atom_site_label
 _atom_site_symmetry_multiplicity
 _atom_site_fract_x
 _atom_site_fract_y
 _atom_site_fract_z
 _atom_site_occupancy
  Zn  Zn0  1  0.10054864  0.08928252  0.48936866  1.0
  Zn  Zn1  1  0.87930231  0.88643084  0.50475069  1.0
  Zn  Zn2  1  0.98362875  0.88447885  0.39693158  1.0
  Zn  Zn3  1  0.00675607  0.09137891  0.59964874  1.0
  H  H4  1  0.18912848  0.12329868  0.37364757  1.0
  H  H5  1  0.72123255  0.39776927  0.44664603  1.0
  H  H6  1  0.72446390  0.87104345  0.55272242  1.0
  H  H7  1  0.74003509  0.28245326  0.45571862  1.0
  H  H8  1  0.82219208  0.21131322  0.45460986  1.0
  H  H9  1  0.10278458  0.44928181  0.42048925  1.0
  H  H10  1  0.08295944  0.56399844  0.40958879  1.0
  H  H11  1  0.44983956  0.07175384  0.44598999  1.0
  H  H12  1  0.58494771  0.08519216  0.46745992  1.0
  H  H13  1  0.69899987  0.06724292  0.53164019  1.0
  H  H14  1  0.87924933  0.90848598  0.26515669  1.0
  H  H15  1  0.81051338  0.68970475  0.48409784  1.0
  H  H16  1  0.68528892  0.96562185  0.69205934  1.0
  H  H17  1  0.57015387  0.94018811  0.73269487  1.0
  H  H18  1  0.43553206  0.93211614  0.71601529  1.0
  H  H19  1  0.20464732  0.43605504  0.78341302  1.0
  H  H20  1  0.62012737  0.78151886  0.27142920  1.0
  H  H21  1  0.50631878  0.56056134  0.84929586  1.0
  H  H22  1  0.62270117  0.83068120  0.04586046  1.0
  H  H23  1  0.40478937  0.41823803  0.74080699  1.0
  H  H24  1  0.89589937  0.16285895  0.53634081  1.0
  H  H25  1  0.54360712  0.67460988  0.96049554  1.0
  H  H26  1  0.14777216  0.10187155  0.73410747  1.0
  H  H27  1  0.30603899  0.57657765  0.89341624  1.0
  H  H28  1  0.48979879  0.70154273  0.15129951  1.0
  H  H29  1  0.11753031  0.85748184  0.17203793  1.0
  H  H30  1  0.22644901  0.08577632  0.82971226  1.0
  H  H31  1  0.04623890  0.81848009  0.71248352  1.0
  H  H32  1  0.13882409  0.88514209  0.96904750  1.0
  H  H33  1  0.27195972  0.13173740  0.17371118  1.0
  H  H34  1  0.27143780  0.07975104  0.95158511  1.0
  H  H35  1  0.22104206  0.12631229  0.27226065  1.0
  H  H36  1  0.16811657  0.86322418  0.07323000  1.0
  H  H37  1  0.99036978  0.82931842  0.59980108  1.0
  H  H38  1  0.09043575  0.81296351  0.83487878  1.0
  H  H39  1  0.03006678  0.17224980  0.39506809  1.0
  H  H40  1  0.88038989  0.14239370  0.65799938  1.0
  H  H41  1  0.03262435  0.85129528  0.24251088  1.0
  H  H42  1  0.27622562  0.29092470  0.60431927  1.0
  H  H43  1  0.21403799  0.81254179  0.50860182  1.0
  H  H44  1  0.21840341  0.83320230  0.42848115  1.0
  H  H45  1  0.13936834  0.73289612  0.41173206  1.0
  H  H46  1  0.11926797  0.33192650  0.55011310  1.0
  H  H47  1  0.15580184  0.43120286  0.54734888  1.0
  H  H48  1  0.26324351  0.11501022  0.60356529  1.0
  H  H49  1  0.19119122  0.36260856  0.50937264  1.0
  H  H50  1  0.25650892  0.00911562  0.68515882  1.0
  H  H51  1  0.36173557  0.05165132  0.75356908  1.0
  H  H52  1  0.27595937  0.96029038  0.74386200  1.0
  H  H53  1  0.34227789  0.04101950  0.43369566  1.0
  H  H54  1  0.72576807  0.97014396  0.09900390  1.0
  H  H55  1  0.75565776  0.89630503  0.06045974  1.0
  H  H56  1  0.83416017  0.00205442  0.13363515  1.0
  H  H57  1  0.43294330  0.78547403  0.11055346  1.0
  H  H58  1  0.32346571  0.70710625  0.05657849  1.0
  H  H59  1  0.14141499  0.28549567  0.74468907  1.0
  H  H60  1  0.37565831  0.77040752  0.01677727  1.0
  H  H61  1  0.65664334  0.93131257  0.34007565  1.0
  H  H62  1  0.74037506  0.00770979  0.43476119  1.0
  H  H63  1  0.64379737  0.92805275  0.42414324  1.0
  H  H64  1  0.40721783  0.06501369  0.09242102  1.0
  H  H65  1  0.38648538  0.10477791  0.17277644  1.0
  H  H66  1  0.42816938  0.17107435  0.13101896  1.0
  H  H67  1  0.95219720  0.69903775  0.35013977  1.0
  H  H68  1  0.00178929  0.63395267  0.41030418  1.0
  H  H69  1  0.77072895  0.52817537  0.43042442  1.0
  C  C70  1  0.14481878  0.05630348  0.34980273  1.0
  C  C71  1  0.21723576  0.04839547  0.56587486  1.0
  C  C72  1  0.16348826  0.27296250  0.70077779  1.0
  C  C73  1  0.77465500  0.93624798  0.57838587  1.0
  C  C74  1  0.91780796  0.70881745  0.38299905  1.0
  C  C75  1  0.23578132  0.32704589  0.69796545  1.0
  C  C76  1  0.87935842  0.66036801  0.41588768  1.0
  C  C77  1  0.23009551  0.98039559  0.54529315  1.0
  C  C78  1  0.09048596  0.96139895  0.69475753  1.0
  C  C79  1  0.95406318  0.58398170  0.41475663  1.0
  C  C80  1  0.88462848  0.58850136  0.41870878  1.0
  C  C81  1  0.77325820  0.01007765  0.61076151  1.0
  C  C82  1  0.82540932  0.52588414  0.42787497  1.0
  C  C83  1  0.83438614  0.45937087  0.43306329  1.0
  C  C84  1  0.90527660  0.45540044  0.42874289  1.0
  C  C85  1  0.85352258  0.90647126  0.30663808  1.0
  C  C86  1  0.96569239  0.51904783  0.41949070  1.0
  C  C87  1  0.77521556  0.39471640  0.44290453  1.0
  C  C88  1  0.78570331  0.33086501  0.44800026  1.0
  C  C89  1  0.85642471  0.32570476  0.44401900  1.0
  C  C90  1  0.91649758  0.38948403  0.43463050  1.0
  C  C91  1  0.98870060  0.38755166  0.43223073  1.0
  C  C92  1  0.77345342  0.88984582  0.29906285  1.0
  C  C93  1  0.04853156  0.45221087  0.42305464  1.0
  C  C94  1  0.03717443  0.51505523  0.41672645  1.0
  C  C95  1  0.86908881  0.26113445  0.44916333  1.0
  C  C96  1  0.93983181  0.25815541  0.44737661  1.0
  C  C97  1  0.93110875  0.15500115  0.50370946  1.0
  C  C98  1  0.99969508  0.32282952  0.43996293  1.0
  C  C99  1  0.35089570  0.96891908  0.61694764  1.0
  C  C100  1  0.31262964  0.98853756  0.56243485  1.0
  C  C101  1  0.35390504  0.01569893  0.51927731  1.0
  C  C102  1  0.43267256  0.02507287  0.53010645  1.0
  C  C103  1  0.95425572  0.19331847  0.45812005  1.0
  C  C104  1  0.46963059  0.00338889  0.58498397  1.0
  C  C105  1  0.42865683  0.97482717  0.62870465  1.0
  C  C106  1  0.47639322  0.05437215  0.48815675  1.0
  C  C107  1  0.55251850  0.06256211  0.49992484  1.0
  C  C108  1  0.59066271  0.04037364  0.55379272  1.0
  C  C109  1  0.77763300  0.89617464  0.37168307  1.0
  C  C110  1  0.54797751  0.00984213  0.59583475  1.0
  C  C111  1  0.58410306  0.98490599  0.64807778  1.0
  C  C112  1  0.54171678  0.95758725  0.69171391  1.0
  C  C113  1  0.46740125  0.95314368  0.68271359  1.0
  C  C114  1  0.23312295  0.27545146  0.63008297  1.0
  C  C115  1  0.66680430  0.04454599  0.56416940  1.0
  C  C116  1  0.69993556  0.01549742  0.61178003  1.0
  C  C117  1  0.65881632  0.98681980  0.65386672  1.0
  C  C118  1  0.29688347  0.41477888  0.75538624  1.0
  C  C119  1  0.27117587  0.46279555  0.79844259  1.0
  C  C120  1  0.32809635  0.54255467  0.86008453  1.0
  C  C121  1  0.00059131  0.16051355  0.43242329  1.0
  C  C122  1  0.41483846  0.57905989  0.88181811  1.0
  C  C123  1  0.43975894  0.53338126  0.83469220  1.0
  C  C124  1  0.38249183  0.45318359  0.77325796  1.0
  C  C125  1  0.84518645  0.70363944  0.45079473  1.0
  C  C126  1  0.62278897  0.82098736  0.09605995  1.0
  C  C127  1  0.69624108  0.86771479  0.16491534  1.0
  C  C128  1  0.62056837  0.79448059  0.22279720  1.0
  C  C129  1  0.54709775  0.74934200  0.15533598  1.0
  C  C130  1  0.54807768  0.75968949  0.08988138  1.0
  C  C131  1  0.47960401  0.65550439  0.95231501  1.0
  C  C132  1  0.47352884  0.69859573  0.01544450  1.0
  C  C133  1  0.85326398  0.07450615  0.63009889  1.0
  C  C134  1  0.69721525  0.85324360  0.22956348  1.0
  C  C135  1  0.16335370  0.99114922  0.22924290  1.0
  C  C136  1  0.14860524  0.91049471  0.49423650  1.0
  C  C137  1  0.15089593  0.91804662  0.17256643  1.0
  C  C138  1  0.17965201  0.92123207  0.11671161  1.0
  C  C139  1  0.22243560  0.99783980  0.11484011  1.0
  C  C140  1  0.23933441  0.07169312  0.17418653  1.0
  C  C141  1  0.21013906  0.06822488  0.22956515  1.0
  C  C142  1  0.22266063  0.02223704  0.89925362  1.0
  C  C143  1  0.19658657  0.02519378  0.83006525  1.0
  C  C144  1  0.09611949  0.87620596  0.76454322  1.0
  C  C145  1  0.06579054  0.91769897  0.28352232  1.0
  C  C146  1  0.12125565  0.87306666  0.83377209  1.0
  C  C147  1  0.10215668  0.03647855  0.69196162  1.0
  C  C148  1  0.18212387  0.94653660  0.90390068  1.0
  C  C149  1  0.24110063  0.00329904  0.04991153  1.0
  C  C150  1  0.18950715  0.94239315  0.97566937  1.0
  C  C151  1  0.12974754  0.95355657  0.76183198  1.0
  C  C152  1  0.12766352  0.98805998  0.28426676  1.0
  C  C153  1  0.17683732  0.80084558  0.45086577  1.0
  C  C154  1  0.13791099  0.36495034  0.51662271  1.0
  C  C155  1  0.30075233  0.99354344  0.71292658  1.0
  C  C156  1  0.77068893  0.94969219  0.11282864  1.0
  C  C157  1  0.38222923  0.73860592  0.05253524  1.0
  C  C158  1  0.02161126  0.89749912  0.62368702  1.0
  C  C159  1  0.68817110  0.94187610  0.39897631  1.0
  C  C160  1  0.38614596  0.10632976  0.11878376  1.0
  N  N161  1  0.09731024  0.02873389  0.38462501  1.0
  N  N162  1  0.89910350  0.91829635  0.37633802  1.0
  N  N163  1  0.96272206  0.10497333  0.50587187  1.0
  N  N164  1  0.85247019  0.91275502  0.41689370  1.0
  N  N165  1  0.00514557  0.10824959  0.46173517  1.0
  N  N166  1  0.89866278  0.04145352  0.61094398  1.0
  N  N167  1  0.04784533  0.94232754  0.34325874  1.0
  N  N168  1  0.16435494  0.19753208  0.59528035  1.0
  N  N169  1  0.86314320  0.77280780  0.44034864  1.0
  N  N170  1  0.09300022  0.93586469  0.48668244  1.0
  N  N171  1  0.04378952  0.01769661  0.62549233  1.0
  N  N172  1  0.99440979  0.93254231  0.58347921  1.0
  N  N173  1  0.13562055  0.02136777  0.53085949  1.0
  N  N174  1  0.12150139  0.19617136  0.63974541  1.0
  N  N175  1  0.90842433  0.77567616  0.39776280  1.0
  N  N176  1  0.84932064  0.95514261  0.57791473  1.0
  O  O177  1  0.11757475  0.82708540  0.45201278  1.0
  O  O178  1  0.07168936  0.32398177  0.44013838  1.0
  O  O179  1  0.31099925  0.93666622  0.65682836  1.0
  O  O180  1  0.31213996  0.03043543  0.46464380  1.0
  O  O181  1  0.77080482  0.92834383  0.17428685  1.0
  O  O182  1  0.39655813  0.67308193  0.01634094  1.0
  O  O183  1  0.71881378  0.88551936  0.39888715  1.0
  O  O184  1  0.30472074  0.08072772  0.06560283  1.0
