# generated using pymatgen
data_Zn8H39C67NO27
_symmetry_space_group_name_H-M   'P 1'
_cell_length_a   18.46658296
_cell_length_b   18.47277544
_cell_length_c   18.49299067
_cell_angle_alpha   60.03775171
_cell_angle_beta   60.18302448
_cell_angle_gamma   60.06918495
_symmetry_Int_Tables_number   1
_chemical_formula_structural   Zn8H39C67NO27
_chemical_formula_sum   'Zn8 H39 C67 N1 O27'
_cell_volume   4470.53383232
_cell_formula_units_Z   1
loop_
 _symmetry_equiv_pos_site_id
 _symmetry_equiv_pos_as_xyz
  1  'x, y, z'
loop_
 _atom_site_type_symbol
 _atom_site_label
 _atom_site_symmetry_multiplicity
 _atom_site_fract_x
 _atom_site_fract_y
 _atom_site_fract_z
 _atom_site_occupancy
  Zn  Zn0  1  0.45661208  0.95523553  0.13036400  1.0
  Zn  Zn1  1  0.45495396  0.12853813  0.95816359  1.0
  Zn  Zn2  1  0.45706278  0.95473301  0.95686824  1.0
  Zn  Zn3  1  0.62972665  0.95645453  0.95602116  1.0
  Zn  Zn4  1  0.04272666  0.54205951  0.37009776  1.0
  Zn  Zn5  1  0.04270591  0.54280323  0.54286516  1.0
  Zn  Zn6  1  0.04079535  0.36938733  0.54392553  1.0
  Zn  Zn7  1  0.86862362  0.54372126  0.54245862  1.0
  H  H8  1  0.60578504  0.02845857  0.29733059  1.0
  H  H9  1  0.97033739  0.74279672  0.66053117  1.0
  H  H10  1  0.87028821  0.74220860  0.85329782  1.0
  H  H11  1  0.70856975  0.72173519  0.09950693  1.0
  H  H12  1  0.87363193  0.83880411  0.75747537  1.0
  H  H13  1  0.58348469  0.31938185  0.79543136  1.0
  H  H14  1  0.67846653  0.41452404  0.70145416  1.0
  H  H15  1  0.96456861  0.12964777  0.65563775  1.0
  H  H16  1  0.96430872  0.13004413  0.75192283  1.0
  H  H17  1  0.86841174  0.03275290  0.75185145  1.0
  H  H18  1  0.86790104  0.03332673  0.84815207  1.0
  H  H19  1  0.20105156  0.70184374  0.18217331  1.0
  H  H20  1  0.30101810  0.08541703  0.79298880  1.0
  H  H21  1  0.20619241  0.18138386  0.69729248  1.0
  H  H22  1  0.24263552  0.47022082  0.65985361  1.0
  H  H23  1  0.79861899  0.56756047  0.10463143  1.0
  H  H24  1  0.14787698  0.46384743  0.75747120  1.0
  H  H25  1  0.30637894  0.08549956  0.31841775  1.0
  H  H26  1  0.21047242  0.18020149  0.41374392  1.0
  H  H27  1  0.14210856  0.46376450  0.13326453  1.0
  H  H28  1  0.23821744  0.46939436  0.12794297  1.0
  H  H29  1  0.23851772  0.36812939  0.03630978  1.0
  H  H30  1  0.15417949  0.74838260  0.46771431  1.0
  H  H31  1  0.33464277  0.37350257  0.03098738  1.0
  H  H32  1  0.89429099  0.47170647  0.20065479  1.0
  H  H33  1  0.89939729  0.53071058  0.29071410  1.0
  H  H34  1  0.79263481  0.77901615  0.39739928  1.0
  H  H35  1  0.70161530  0.93280848  0.39309254  1.0
  H  H36  1  0.60157862  0.96974231  0.20640591  1.0
  H  H37  1  0.29571024  0.79737577  0.08710107  1.0
  H  H38  1  0.35795545  0.44010729  0.74724454  1.0
  H  H39  1  0.17032243  0.37928315  0.89798024  1.0
  H  H40  1  0.26668415  0.32019259  0.91391971  1.0
  H  H41  1  0.25062572  0.65203260  0.46740109  1.0
  H  H42  1  0.25052065  0.84512213  0.37147953  1.0
  H  H43  1  0.34689863  0.74881635  0.37102568  1.0
  H  H44  1  0.58754069  0.80147917  0.79227025  1.0
  H  H45  1  0.68249429  0.70800003  0.69578006  1.0
  H  H46  1  0.96638162  0.64616720  0.75635186  1.0
  C  C47  1  0.63502780  0.13920400  0.86131052  1.0
  C  C48  1  0.70056412  0.90608926  0.35282356  1.0
  C  C49  1  0.64610613  0.96042386  0.29843604  1.0
  C  C50  1  0.36054111  0.86164149  0.13808882  1.0
  C  C51  1  0.64399612  0.92772887  0.24743623  1.0
  C  C52  1  0.27636210  0.77592113  0.28745322  1.0
  C  C53  1  0.30397365  0.80452278  0.19541515  1.0
  C  C54  1  0.27530403  0.77621907  0.15885204  1.0
  C  C55  1  0.22232412  0.72264955  0.21209079  1.0
  C  C56  1  0.19463217  0.69399542  0.30530363  1.0
  C  C57  1  0.22316300  0.72225106  0.34081617  1.0
  C  C58  1  0.85716020  0.57280738  0.24951879  1.0
  C  C59  1  0.22023266  0.71837474  0.42599878  1.0
  C  C60  1  0.28055290  0.77902773  0.36562875  1.0
  C  C61  1  0.78815040  0.77335718  0.77914828  1.0
  C  C62  1  0.36178854  0.13700185  0.13918434  1.0
  C  C63  1  0.69605387  0.80372422  0.80511608  1.0
  C  C64  1  0.65935721  0.77868246  0.77340740  1.0
  C  C65  1  0.71254507  0.72631843  0.71934606  1.0
  C  C66  1  0.80583603  0.69544173  0.69372163  1.0
  C  C67  1  0.84148609  0.72058578  0.72517487  1.0
  C  C68  1  0.92673980  0.71349082  0.72542661  1.0
  C  C69  1  0.80539058  0.66181219  0.24905999  1.0
  C  C70  1  0.86635435  0.77346720  0.78630323  1.0
  C  C71  1  0.78416388  0.16012864  0.77756882  1.0
  C  C72  1  0.69200715  0.19586263  0.80480901  1.0
  C  C73  1  0.65531314  0.28928556  0.77583868  1.0
  C  C74  1  0.63866780  0.85939605  0.86299302  1.0
  C  C75  1  0.70858116  0.34260452  0.72302849  1.0
  C  C76  1  0.80193219  0.30585072  0.69570167  1.0
  C  C77  1  0.83752942  0.21359838  0.72450709  1.0
  C  C78  1  0.92284423  0.13534738  0.72163380  1.0
  C  C79  1  0.86248278  0.07474300  0.78187566  1.0
  C  C80  1  0.75007537  0.71711571  0.19370400  1.0
  C  C81  1  0.27542247  0.28579224  0.77760208  1.0
  C  C82  1  0.30522679  0.19367011  0.80433040  1.0
  C  C83  1  0.27903929  0.15729540  0.77352585  1.0
  C  C84  1  0.22599354  0.21111442  0.71976777  1.0
  C  C85  1  0.19603537  0.30446954  0.69333174  1.0
  C  C86  1  0.36047253  0.13654686  0.86287543  1.0
  C  C87  1  0.22250984  0.33966454  0.72400418  1.0
  C  C88  1  0.21445788  0.42524360  0.72435748  1.0
  C  C89  1  0.27552873  0.36385657  0.78602557  1.0
  C  C90  1  0.27206312  0.28628975  0.16029816  1.0
  C  C91  1  0.80466128  0.69646318  0.30228252  1.0
  C  C92  1  0.30496918  0.19416212  0.19560842  1.0
  C  C93  1  0.28140419  0.15731519  0.28870561  1.0
  C  C94  1  0.22770610  0.21038509  0.34209476  1.0
  C  C95  1  0.19435774  0.30367761  0.30579059  1.0
  C  C96  1  0.21847652  0.33948979  0.21387767  1.0
  C  C97  1  0.20963886  0.42493277  0.13605797  1.0
  C  C98  1  0.63903666  0.86136663  0.13739652  1.0
  C  C99  1  0.27013186  0.36477500  0.07541211  1.0
  C  C100  1  0.86190565  0.63902995  0.63653939  1.0
  C  C101  1  0.13652685  0.35995412  0.36310909  1.0
  C  C102  1  0.75157215  0.78363126  0.30285796  1.0
  C  C103  1  0.13805821  0.63690166  0.36163440  1.0
  C  C104  1  0.85853354  0.36294813  0.63887905  1.0
  C  C105  1  0.13822607  0.36116558  0.63721751  1.0
  C  C106  1  0.86161750  0.63879953  0.36015999  1.0
  C  C107  1  0.74971602  0.68039150  0.14179971  1.0
  C  C108  1  0.80030761  0.59444657  0.14435820  1.0
  C  C109  1  0.85462284  0.54001005  0.19888773  1.0
  C  C110  1  0.36319700  0.38102033  0.73963462  1.0
  C  C111  1  0.69622931  0.83890274  0.24752526  1.0
  C  C112  1  0.69686945  0.80420030  0.19442365  1.0
  C  C113  1  0.75163435  0.82031321  0.35497235  1.0
  N  N114  1  0.23515385  0.37509265  0.87179883  1.0
  O  O115  1  0.49967804  0.99862173  0.00050515  1.0
  O  O116  1  0.94221474  0.32264357  0.61667921  1.0
  O  O117  1  0.11698322  0.44485942  0.61514217  1.0
  O  O118  1  0.67545429  0.05554820  0.88160951  1.0
  O  O119  1  0.82161335  0.61591555  0.44334622  1.0
  O  O120  1  0.11462540  0.32191297  0.61634607  1.0
  O  O121  1  0.94507744  0.61762310  0.32103341  1.0
  O  O122  1  0.11736512  0.61311770  0.32233301  1.0
  O  O123  1  0.81956857  0.44678219  0.61690977  1.0
  O  O124  1  0.94558153  0.61400572  0.61770755  1.0
  O  O125  1  0.11568452  0.32062430  0.44667944  1.0
  O  O126  1  0.38795851  0.05326764  0.17813467  1.0
  O  O127  1  0.38259299  0.88358610  0.17794512  1.0
  O  O128  1  0.37964417  0.17707018  0.05572638  1.0
  O  O129  1  0.55507797  0.88150678  0.88470524  1.0
  O  O130  1  0.37423380  0.17644685  0.89256735  1.0
  O  O131  1  0.67822732  0.88597041  0.05410620  1.0
  O  O132  1  0.38873550  0.05320377  0.87922212  1.0
  O  O133  1  0.55579566  0.88019275  0.17732809  1.0
  O  O134  1  0.43203558  0.33783463  0.69768118  1.0
  O  O135  1  0.67846790  0.88019781  0.88629865  1.0
  O  O136  1  0.55126048  0.17812380  0.88504480  1.0
  O  O137  1  0.38227219  0.88396741  0.05450018  1.0
  O  O138  1  0.99869200  0.49952818  0.49994022  1.0
  O  O139  1  0.82230008  0.62035946  0.61112018  1.0
  O  O140  1  0.11226186  0.44367314  0.32309829  1.0
  O  O141  1  0.11490431  0.61646892  0.44522464  1.0
