# generated using pymatgen
data_Cu2H11C24(NO5)2
_symmetry_space_group_name_H-M   'P 1'
_cell_length_a   18.87736732
_cell_length_b   18.87736171
_cell_length_c   34.98241095
_cell_angle_alpha   90.00001506
_cell_angle_beta   89.99997804
_cell_angle_gamma   89.99993194
_symmetry_Int_Tables_number   1
_chemical_formula_structural   Cu2H11C24(NO5)2
_chemical_formula_sum   'Cu16 H88 C192 N16 O80'
_cell_volume   12466.15324212
_cell_formula_units_Z   8
loop_
 _symmetry_equiv_pos_site_id
 _symmetry_equiv_pos_as_xyz
  1  'x, y, z'
loop_
 _atom_site_type_symbol
 _atom_site_label
 _atom_site_symmetry_multiplicity
 _atom_site_fract_x
 _atom_site_fract_y
 _atom_site_fract_z
 _atom_site_occupancy
  Cu  Cu0  1  0.26729445  0.29322621  0.77616532  1.0
  Cu  Cu1  1  0.73270444  0.70677472  0.77616616  1.0
  Cu  Cu2  1  0.23270301  0.79322617  0.72383421  1.0
  Cu  Cu3  1  0.29322577  0.73270392  0.77616564  1.0
  Cu  Cu4  1  0.79322611  0.76729690  0.72383415  1.0
  Cu  Cu5  1  0.70677418  0.26729648  0.77616556  1.0
  Cu  Cu6  1  0.20677335  0.23270347  0.72383388  1.0
  Cu  Cu7  1  0.76729645  0.20677420  0.72383411  1.0
  Cu  Cu8  1  0.73270464  0.70677458  0.22383431  1.0
  Cu  Cu9  1  0.26729624  0.29322554  0.22383432  1.0
  Cu  Cu10  1  0.76729660  0.20677462  0.27616571  1.0
  Cu  Cu11  1  0.70677385  0.26729581  0.22383399  1.0
  Cu  Cu12  1  0.20677457  0.23270336  0.27616577  1.0
  Cu  Cu13  1  0.29322597  0.73270378  0.22383407  1.0
  Cu  Cu14  1  0.79322626  0.76729679  0.27616632  1.0
  Cu  Cu15  1  0.23270370  0.79322606  0.27616552  1.0
  H  H16  1  0.98496535  0.45148522  0.93834219  1.0
  H  H17  1  0.01503449  0.54851419  0.93834201  1.0
  H  H18  1  0.51503525  0.95148484  0.56165755  1.0
  H  H19  1  0.45148550  0.01503525  0.93834250  1.0
  H  H20  1  0.95148516  0.48496494  0.56165804  1.0
  H  H21  1  0.54851540  0.98496469  0.93834256  1.0
  H  H22  1  0.04851495  0.51503482  0.56165728  1.0
  H  H23  1  0.48496539  0.04851333  0.56165806  1.0
  H  H24  1  0.01503427  0.54851451  0.06165744  1.0
  H  H25  1  0.98496513  0.45148554  0.06165762  1.0
  H  H26  1  0.48496490  0.04851489  0.43834237  1.0
  H  H27  1  0.54851465  0.98496501  0.06165770  1.0
  H  H28  1  0.04851499  0.51503532  0.43834188  1.0
  H  H29  1  0.45148634  0.01503451  0.06165793  1.0
  H  H30  1  0.95148679  0.48496597  0.43834235  1.0
  H  H31  1  0.51503529  0.95148481  0.43834243  1.0
  H  H32  1  0.91564150  0.26749005  0.00000034  1.0
  H  H33  1  0.08435811  0.73250968  0.99999986  1.0
  H  H34  1  0.58435967  0.76748873  0.49999997  1.0
  H  H35  1  0.26749032  0.08435838  0.00000039  1.0
  H  H36  1  0.76749081  0.41564178  0.49999964  1.0
  H  H37  1  0.73251071  0.91564005  0.00000041  1.0
  H  H38  1  0.23251039  0.58435901  0.49999999  1.0
  H  H39  1  0.41564101  0.23250941  0.50000052  1.0
  H  H40  1  0.03151255  0.35608898  0.90852787  1.0
  H  H41  1  0.96848731  0.64391095  0.90852751  1.0
  H  H42  1  0.46848908  0.85608860  0.59147224  1.0
  H  H43  1  0.35608869  0.96848898  0.90852788  1.0
  H  H44  1  0.85608834  0.53151123  0.59147161  1.0
  H  H45  1  0.64391116  0.03151148  0.90852836  1.0
  H  H46  1  0.14391068  0.46848802  0.59147225  1.0
  H  H47  1  0.53151100  0.14391118  0.59147218  1.0
  H  H48  1  0.96848707  0.64391075  0.09147233  1.0
  H  H49  1  0.03151284  0.35608931  0.09147241  1.0
  H  H50  1  0.53151160  0.14391113  0.40852825  1.0
  H  H51  1  0.64391093  0.03151181  0.09147203  1.0
  H  H52  1  0.14391181  0.46848903  0.40852802  1.0
  H  H53  1  0.35608898  0.96848825  0.09147156  1.0
  H  H54  1  0.85608894  0.53151224  0.40852767  1.0
  H  H55  1  0.46848915  0.85608855  0.40852802  1.0
  H  H56  1  0.09842022  0.31688906  0.85607493  1.0
  H  H57  1  0.90158073  0.68311190  0.85607430  1.0
  H  H58  1  0.40158145  0.81688879  0.64392546  1.0
  H  H59  1  0.31688890  0.90158293  0.85607409  1.0
  H  H60  1  0.81688843  0.59841786  0.64392569  1.0
  H  H61  1  0.68311205  0.09841804  0.85607428  1.0
  H  H62  1  0.18311108  0.40158353  0.64392517  1.0
  H  H63  1  0.59841913  0.18311102  0.64392540  1.0
  H  H64  1  0.90158098  0.68311173  0.14392613  1.0
  H  H65  1  0.09841836  0.31688836  0.14392590  1.0
  H  H66  1  0.59841764  0.18311200  0.35607445  1.0
  H  H67  1  0.68311178  0.09841839  0.14392611  1.0
  H  H68  1  0.18311172  0.40158240  0.35607394  1.0
  H  H69  1  0.31688915  0.90158169  0.14392563  1.0
  H  H70  1  0.81688800  0.59841673  0.35607475  1.0
  H  H71  1  0.40158102  0.81688872  0.35607480  1.0
  H  H72  1  0.98653832  0.24695395  0.75577729  1.0
  H  H73  1  0.01346324  0.75304591  0.75577714  1.0
  H  H74  1  0.51346305  0.74695259  0.74422356  1.0
  H  H75  1  0.24695386  0.01346360  0.75577706  1.0
  H  H76  1  0.74695445  0.48653630  0.74422324  1.0
  H  H77  1  0.75304610  0.98653519  0.75577708  1.0
  H  H78  1  0.25304711  0.51346355  0.74422329  1.0
  H  H79  1  0.48653692  0.25304726  0.74422353  1.0
  H  H80  1  0.01346448  0.75304578  0.24422320  1.0
  H  H81  1  0.98653532  0.24695277  0.24422278  1.0
  H  H82  1  0.48653551  0.25304714  0.25577721  1.0
  H  H83  1  0.75304628  0.98653560  0.24422314  1.0
  H  H84  1  0.25304623  0.51346396  0.25577668  1.0
  H  H85  1  0.24695405  0.01346507  0.24422284  1.0
  H  H86  1  0.74695198  0.48653724  0.25577691  1.0
  H  H87  1  0.51346323  0.74695247  0.25577667  1.0
  H  H88  1  0.87022913  0.29714273  0.85835114  1.0
  H  H89  1  0.12977129  0.70285717  0.85835124  1.0
  H  H90  1  0.62977165  0.79714225  0.64164944  1.0
  H  H91  1  0.29714296  0.12977275  0.85835090  1.0
  H  H92  1  0.79714270  0.37022762  0.64164882  1.0
  H  H93  1  0.70285693  0.87022821  0.85835119  1.0
  H  H94  1  0.20285682  0.62977218  0.64164890  1.0
  H  H95  1  0.37022840  0.20285702  0.64164942  1.0
  H  H96  1  0.12977155  0.70285753  0.14164878  1.0
  H  H97  1  0.87022832  0.29714309  0.14164867  1.0
  H  H98  1  0.37022850  0.20285695  0.35835134  1.0
  H  H99  1  0.70285719  0.87022804  0.14164902  1.0
  H  H100  1  0.20285745  0.62977211  0.35835110  1.0
  H  H101  1  0.29714269  0.12977205  0.14164844  1.0
  H  H102  1  0.79714227  0.37022808  0.35835102  1.0
  H  H103  1  0.62977175  0.79714218  0.35835078  1.0
  C  C104  1  0.98864680  0.46234880  0.00000006  1.0
  C  C105  1  0.01135282  0.53765146  0.99999985  1.0
  C  C106  1  0.51135414  0.96234863  0.49999999  1.0
  C  C107  1  0.46234911  0.01135283  0.00000008  1.0
  C  C108  1  0.96234951  0.48864710  0.50000020  1.0
  C  C109  1  0.53765140  0.98864613  0.00000015  1.0
  C  C110  1  0.03765117  0.51135369  0.49999972  1.0
  C  C111  1  0.48864654  0.03765057  0.49999993  1.0
  C  C112  1  0.97710674  0.42525276  0.96575196  1.0
  C  C113  1  0.02289308  0.57474720  0.96575207  1.0
  C  C114  1  0.52289442  0.92525235  0.53424777  1.0
  C  C115  1  0.42525248  0.02289442  0.96575228  1.0
  C  C116  1  0.92525270  0.47710580  0.53424798  1.0
  C  C117  1  0.57474787  0.97710553  0.96575233  1.0
  C  C118  1  0.07474795  0.52289342  0.53424750  1.0
  C  C119  1  0.47710570  0.07474634  0.53424800  1.0
  C  C120  1  0.02289288  0.57474750  0.03424795  1.0
  C  C121  1  0.97710707  0.42525253  0.03424784  1.0
  C  C122  1  0.47710573  0.07474685  0.46575215  1.0
  C  C123  1  0.57474767  0.97710531  0.03424792  1.0
  C  C124  1  0.07474745  0.52289446  0.46575165  1.0
  C  C125  1  0.42525334  0.02289420  0.03424816  1.0
  C  C126  1  0.92525325  0.47710631  0.46575213  1.0
  C  C127  1  0.52289445  0.92525233  0.46575220  1.0
  C  C128  1  0.95226857  0.35541833  0.96559388  1.0
  C  C129  1  0.04773125  0.64458163  0.96559371  1.0
  C  C130  1  0.54773373  0.85541842  0.53440641  1.0
  C  C131  1  0.35541858  0.04773321  0.96559421  1.0
  C  C132  1  0.85541882  0.45226656  0.53440607  1.0
  C  C133  1  0.64458177  0.95226622  0.96559396  1.0
  C  C134  1  0.14458183  0.54773213  0.53440557  1.0
  C  C135  1  0.45226586  0.14458027  0.53440666  1.0
  C  C136  1  0.04773105  0.64458193  0.03440603  1.0
  C  C137  1  0.95226837  0.35541863  0.03440620  1.0
  C  C138  1  0.45226642  0.14458131  0.46559436  1.0
  C  C139  1  0.64458157  0.95226652  0.03440628  1.0
  C  C140  1  0.14458132  0.54773370  0.46559328  1.0
  C  C141  1  0.35541944  0.04773457  0.03440624  1.0
  C  C142  1  0.85541938  0.45226708  0.46559377  1.0
  C  C143  1  0.54773376  0.85541840  0.46559383  1.0
  C  C144  1  0.93761805  0.32088150  0.00000006  1.0
  C  C145  1  0.06238103  0.67911823  0.99999986  1.0
  C  C146  1  0.56238411  0.82088180  0.49999997  1.0
  C  C147  1  0.32088231  0.06238388  0.00000039  1.0
  C  C148  1  0.82088278  0.43761675  0.49999963  1.0
  C  C149  1  0.67911819  0.93761614  0.00000013  1.0
  C  C150  1  0.17911790  0.56238298  0.49999942  1.0
  C  C151  1  0.43761604  0.17911687  0.50000051  1.0
  C  C152  1  0.93743974  0.31748559  0.92876566  1.0
  C  C153  1  0.06255905  0.68251435  0.92876520  1.0
  C  C154  1  0.56256155  0.81748515  0.57123463  1.0
  C  C155  1  0.31748638  0.06256157  0.92876542  1.0
  C  C156  1  0.81748451  0.43743984  0.57123458  1.0
  C  C157  1  0.68251452  0.93743890  0.92876544  1.0
  C  C158  1  0.18251506  0.56255940  0.57123436  1.0
  C  C159  1  0.43743855  0.18251355  0.57123517  1.0
  C  C160  1  0.06255882  0.68251520  0.07123454  1.0
  C  C161  1  0.93744110  0.31748485  0.07123471  1.0
  C  C162  1  0.43743966  0.18251458  0.42876586  1.0
  C  C163  1  0.68251429  0.93743922  0.07123478  1.0
  C  C164  1  0.18251511  0.56256095  0.42876505  1.0
  C  C165  1  0.31748616  0.06256083  0.07123504  1.0
  C  C166  1  0.81748562  0.43744033  0.42876526  1.0
  C  C167  1  0.56256160  0.81748512  0.42876560  1.0
  C  C168  1  0.98412689  0.30873062  0.86206871  1.0
  C  C169  1  0.01587353  0.69126929  0.86206798  1.0
  C  C170  1  0.51587335  0.80873080  0.63793158  1.0
  C  C171  1  0.30873045  0.01587548  0.86206761  1.0
  C  C172  1  0.80873059  0.48412541  0.63793210  1.0
  C  C173  1  0.69126997  0.98412549  0.86206793  1.0
  C  C174  1  0.19126841  0.51587439  0.63793217  1.0
  C  C175  1  0.48412723  0.19126900  0.63793183  1.0
  C  C176  1  0.01587379  0.69126911  0.13793207  1.0
  C  C177  1  0.98412609  0.30873097  0.13793194  1.0
  C  C178  1  0.48412574  0.19126999  0.36206805  1.0
  C  C179  1  0.69126917  0.98412531  0.13793230  1.0
  C  C180  1  0.19126956  0.51587538  0.36206810  1.0
  C  C181  1  0.30873070  0.01587477  0.13793199  1.0
  C  C182  1  0.80873121  0.48412534  0.36206832  1.0
  C  C183  1  0.51587292  0.80873020  0.36206838  1.0
  C  C184  1  0.04829619  0.30410075  0.84215279  1.0
  C  C185  1  0.95170371  0.69589861  0.84215273  1.0
  C  C186  1  0.45170338  0.80410043  0.65784674  1.0
  C  C187  1  0.30410161  0.95170381  0.84215253  1.0
  C  C188  1  0.80410172  0.54829593  0.65784726  1.0
  C  C189  1  0.69589936  0.04829556  0.84215271  1.0
  C  C190  1  0.19589726  0.45170441  0.65784645  1.0
  C  C191  1  0.54829666  0.19589938  0.65784640  1.0
  C  C192  1  0.95170396  0.69589845  0.15784769  1.0
  C  C193  1  0.04829591  0.30410112  0.15784747  1.0
  C  C194  1  0.54829518  0.19589931  0.34215261  1.0
  C  C195  1  0.69589854  0.04829592  0.15784739  1.0
  C  C196  1  0.19589896  0.45170486  0.34215237  1.0
  C  C197  1  0.30410185  0.95170417  0.15784721  1.0
  C  C198  1  0.80410130  0.54829532  0.34215346  1.0
  C  C199  1  0.45170296  0.80409982  0.34215323  1.0
  C  C200  1  0.04912737  0.28211727  0.80399619  1.0
  C  C201  1  0.95087309  0.71788420  0.80399527  1.0
  C  C202  1  0.45087381  0.78211378  0.69600477  1.0
  C  C203  1  0.28211497  0.95087319  0.80399593  1.0
  C  C204  1  0.78211506  0.54912658  0.69600472  1.0
  C  C205  1  0.71788443  0.04912669  0.80399496  1.0
  C  C206  1  0.21788389  0.45087378  0.69600506  1.0
  C  C207  1  0.54912620  0.21788551  0.69600501  1.0
  C  C208  1  0.95087331  0.71788352  0.19600516  1.0
  C  C209  1  0.04912653  0.28211553  0.19600493  1.0
  C  C210  1  0.54912634  0.21788489  0.30399515  1.0
  C  C211  1  0.71788518  0.04912654  0.19600456  1.0
  C  C212  1  0.21788403  0.45087368  0.30399491  1.0
  C  C213  1  0.28211519  0.95087410  0.19600467  1.0
  C  C214  1  0.78211467  0.54912595  0.30399515  1.0
  C  C215  1  0.45087342  0.78211475  0.30399491  1.0
  C  C216  1  0.98594181  0.26458354  0.78538331  1.0
  C  C217  1  0.01405813  0.73541686  0.78538316  1.0
  C  C218  1  0.51405901  0.76458323  0.71461697  1.0
  C  C219  1  0.26458290  0.01405743  0.78538279  1.0
  C  C220  1  0.76458404  0.48594192  0.71461693  1.0
  C  C221  1  0.73541652  0.98594191  0.78538281  1.0
  C  C222  1  0.23541490  0.51405792  0.71461641  1.0
  C  C223  1  0.48594152  0.23541661  0.71461665  1.0
  C  C224  1  0.01405833  0.73541672  0.21461718  1.0
  C  C225  1  0.98594149  0.26458340  0.21461676  1.0
  C  C226  1  0.48594167  0.23541703  0.28538323  1.0
  C  C227  1  0.73541725  0.98594177  0.21461712  1.0
  C  C228  1  0.23541611  0.51405834  0.28538270  1.0
  C  C229  1  0.26458363  0.01405888  0.21461682  1.0
  C  C230  1  0.76458366  0.48594128  0.28538350  1.0
  C  C231  1  0.51405863  0.76458259  0.28538326  1.0
  C  C232  1  0.92192281  0.27101298  0.80516640  1.0
  C  C233  1  0.07807712  0.72898690  0.80516623  1.0
  C  C234  1  0.57807747  0.77101258  0.69483503  1.0
  C  C235  1  0.27101331  0.07807909  0.80516617  1.0
  C  C236  1  0.77101507  0.42192237  0.69483412  1.0
  C  C237  1  0.72898557  0.92192238  0.80516589  1.0
  C  C238  1  0.22898759  0.57807693  0.69483476  1.0
  C  C239  1  0.42192307  0.22898831  0.69483557  1.0
  C  C240  1  0.07807734  0.72898569  0.19483409  1.0
  C  C241  1  0.92192250  0.27101389  0.19483368  1.0
  C  C242  1  0.42192215  0.22898609  0.30516603  1.0
  C  C243  1  0.72898578  0.92192223  0.19483432  1.0
  C  C244  1  0.22898561  0.57807789  0.30516551  1.0
  C  C245  1  0.27101458  0.07807788  0.19483402  1.0
  C  C246  1  0.77101203  0.42192227  0.30516573  1.0
  C  C247  1  0.57807761  0.77101195  0.30516520  1.0
  C  C248  1  0.92046549  0.29274272  0.84342220  1.0
  C  C249  1  0.07953495  0.70725718  0.84342232  1.0
  C  C250  1  0.57953477  0.79274283  0.65657809  1.0
  C  C251  1  0.29274302  0.07953480  0.84342139  1.0
  C  C252  1  0.79274375  0.42046452  0.65657804  1.0
  C  C253  1  0.70725689  0.92046457  0.84342198  1.0
  C  C254  1  0.20725629  0.57953529  0.65657782  1.0
  C  C255  1  0.42046474  0.20725645  0.65657835  1.0
  C  C256  1  0.07953519  0.70725701  0.15657772  1.0
  C  C257  1  0.92046467  0.29274308  0.15657760  1.0
  C  C258  1  0.42046432  0.20725690  0.34342212  1.0
  C  C259  1  0.70725660  0.92046493  0.15657824  1.0
  C  C260  1  0.20725746  0.57953574  0.34342188  1.0
  C  C261  1  0.29274326  0.07953569  0.15657765  1.0
  C  C262  1  0.79274280  0.42046444  0.34342238  1.0
  C  C263  1  0.57953488  0.79274222  0.34342214  1.0
  C  C264  1  0.11818309  0.27665619  0.78343385  1.0
  C  C265  1  0.88181579  0.72334209  0.78343494  1.0
  C  C266  1  0.38181492  0.77665809  0.71656425  1.0
  C  C267  1  0.27665769  0.88181534  0.78343530  1.0
  C  C268  1  0.77665821  0.61818603  0.71656363  1.0
  C  C269  1  0.72334226  0.11818506  0.78343549  1.0
  C  C270  1  0.22333755  0.38181169  0.71656138  1.0
  C  C271  1  0.61818454  0.22334175  0.71656447  1.0
  C  C272  1  0.88181600  0.72334248  0.21656550  1.0
  C  C273  1  0.11818488  0.27665817  0.21656469  1.0
  C  C274  1  0.61818470  0.22334217  0.28343566  1.0
  C  C275  1  0.72334193  0.11818439  0.21656490  1.0
  C  C276  1  0.22334194  0.38181529  0.28343514  1.0
  C  C277  1  0.27665842  0.88181626  0.21656471  1.0
  C  C278  1  0.77665889  0.61818592  0.28343682  1.0
  C  C279  1  0.38181507  0.77665798  0.28343573  1.0
  C  C280  1  0.85347155  0.25683253  0.78512519  1.0
  C  C281  1  0.14652893  0.74316733  0.78512501  1.0
  C  C282  1  0.64652981  0.75683260  0.71487452  1.0
  C  C283  1  0.25683015  0.14652828  0.78512353  1.0
  C  C284  1  0.75683304  0.35347108  0.71487476  1.0
  C  C285  1  0.74316715  0.85347106  0.78512496  1.0
  C  C286  1  0.24316749  0.64652982  0.71487426  1.0
  C  C287  1  0.35346912  0.24316724  0.71487337  1.0
  C  C288  1  0.14652913  0.74316720  0.21487472  1.0
  C  C289  1  0.85347069  0.25683240  0.21487462  1.0
  C  C290  1  0.35347034  0.24316714  0.28512569  1.0
  C  C291  1  0.74316735  0.85347039  0.21487524  1.0
  C  C292  1  0.24316711  0.64652971  0.28512515  1.0
  C  C293  1  0.25683300  0.14652973  0.21487438  1.0
  C  C294  1  0.75683213  0.35347044  0.28512565  1.0
  C  C295  1  0.64652996  0.75683249  0.28512569  1.0
  N  N296  1  0.98575950  0.33245375  0.90015471  1.0
  N  N297  1  0.01423983  0.66754617  0.90015454  1.0
  N  N298  1  0.51424229  0.83245338  0.59984559  1.0
  N  N299  1  0.33245408  0.01424177  0.90015446  1.0
  N  N300  1  0.83245319  0.48575909  0.59984553  1.0
  N  N301  1  0.66754684  0.98575869  0.90015478  1.0
  N  N302  1  0.16754530  0.51424122  0.59984531  1.0
  N  N303  1  0.48575778  0.16754640  0.59984583  1.0
  N  N304  1  0.01424011  0.66754651  0.09984550  1.0
  N  N305  1  0.98575979  0.33245409  0.09984566  1.0
  N  N306  1  0.48575891  0.16754635  0.40015462  1.0
  N  N307  1  0.66754660  0.98575902  0.09984545  1.0
  N  N308  1  0.16754749  0.51424117  0.40015410  1.0
  N  N309  1  0.33245331  0.01424104  0.09984570  1.0
  N  N310  1  0.83245379  0.48575904  0.40015432  1.0
  N  N311  1  0.51424236  0.83245280  0.40015466  1.0
  O  O312  1  0.88643477  0.27749380  0.92490972  1.0
  O  O313  1  0.11356296  0.72250878  0.92490926  1.0
  O  O314  1  0.61356657  0.77749225  0.57509056  1.0
  O  O315  1  0.27749349  0.11356660  0.92490863  1.0
  O  O316  1  0.77749220  0.38643380  0.57509109  1.0
  O  O317  1  0.72250795  0.88643334  0.92490893  1.0
  O  O318  1  0.22250949  0.61356385  0.57509002  1.0
  O  O319  1  0.38643406  0.22250805  0.57509083  1.0
  O  O320  1  0.11356273  0.72250963  0.07509019  1.0
  O  O321  1  0.88643719  0.27749095  0.07509065  1.0
  O  O322  1  0.38643358  0.22250695  0.42490907  1.0
  O  O323  1  0.72250666  0.88643366  0.07509157  1.0
  O  O324  1  0.22250795  0.61356646  0.42490854  1.0
  O  O325  1  0.27749220  0.11356586  0.07509128  1.0
  O  O326  1  0.77749013  0.38643694  0.42491019  1.0
  O  O327  1  0.61356662  0.77749168  0.42490994  1.0
  O  O328  1  0.17232568  0.30434011  0.79959883  1.0
  O  O329  1  0.82767531  0.69565924  0.79959821  1.0
  O  O330  1  0.32767548  0.80434048  0.70040185  1.0
  O  O331  1  0.30433849  0.82767482  0.79959885  1.0
  O  O332  1  0.80433789  0.67232599  0.70040093  1.0
  O  O333  1  0.69566039  0.17232506  0.79959819  1.0
  O  O334  1  0.19566000  0.32767437  0.70039983  1.0
  O  O335  1  0.67232400  0.19565935  0.70040149  1.0
  O  O336  1  0.82767552  0.69565909  0.20040223  1.0
  O  O337  1  0.17232431  0.30434049  0.20040170  1.0
  O  O338  1  0.67232467  0.19566031  0.29959806  1.0
  O  O339  1  0.69565954  0.17232438  0.20040221  1.0
  O  O340  1  0.19565961  0.32767533  0.29959784  1.0
  O  O341  1  0.30434082  0.82767573  0.20040201  1.0
  O  O342  1  0.80433803  0.67232483  0.29959951  1.0
  O  O343  1  0.32767562  0.80433985  0.29959843  1.0
  O  O344  1  0.11771537  0.24430685  0.75129827  1.0
  O  O345  1  0.88228248  0.75569459  0.75129851  1.0
  O  O346  1  0.38228268  0.74430506  0.74870183  1.0
  O  O347  1  0.24430468  0.88228258  0.75129859  1.0
  O  O348  1  0.74430570  0.61771777  0.74870178  1.0
  O  O349  1  0.75569530  0.11771781  0.75129848  1.0
  O  O350  1  0.25569268  0.38227997  0.74870067  1.0
  O  O351  1  0.61771729  0.25569532  0.74870148  1.0
  O  O352  1  0.88228266  0.75569447  0.24870165  1.0
  O  O353  1  0.11771820  0.24430514  0.24870169  1.0
  O  O354  1  0.61771693  0.25569573  0.25129837  1.0
  O  O355  1  0.75569494  0.11771768  0.24870162  1.0
  O  O356  1  0.25569551  0.38228302  0.25129842  1.0
  O  O357  1  0.24430538  0.88228298  0.24870144  1.0
  O  O358  1  0.74430588  0.61771765  0.25129867  1.0
  O  O359  1  0.38228233  0.74430441  0.25129843  1.0
  O  O360  1  0.79715753  0.27759766  0.80221493  1.0
  O  O361  1  0.20284293  0.72240169  0.80221531  1.0
  O  O362  1  0.70284274  0.77759764  0.69778535  1.0
  O  O363  1  0.27759837  0.20284493  0.80221469  1.0
  O  O364  1  0.77759763  0.29715705  0.69778474  1.0
  O  O365  1  0.72240104  0.79715706  0.80221555  1.0
  O  O366  1  0.22240238  0.70284225  0.69778483  1.0
  O  O367  1  0.29715938  0.22240430  0.69778507  1.0
  O  O368  1  0.20284315  0.72240207  0.19778470  1.0
  O  O369  1  0.79715669  0.27759804  0.19778461  1.0
  O  O370  1  0.29715635  0.22240209  0.30221542  1.0
  O  O371  1  0.72240072  0.79715639  0.19778465  1.0
  O  O372  1  0.22240252  0.70284321  0.30221518  1.0
  O  O373  1  0.27759805  0.20284320  0.19778437  1.0
  O  O374  1  0.77759724  0.29715748  0.30221509  1.0
  O  O375  1  0.70284235  0.77759755  0.30221456  1.0
  O  O376  1  0.85618700  0.22619265  0.75258255  1.0
  O  O377  1  0.14381350  0.77380720  0.75258266  1.0
  O  O378  1  0.64381440  0.72619114  0.74741744  1.0
  O  O379  1  0.22619242  0.14381340  0.75258290  1.0
  O  O380  1  0.72619210  0.35618600  0.74741712  1.0
  O  O381  1  0.77380755  0.85618593  0.75258289  1.0
  O  O382  1  0.27380840  0.64381438  0.74741719  1.0
  O  O383  1  0.35618611  0.27381030  0.74741830  1.0
  O  O384  1  0.14381368  0.77380761  0.24741708  1.0
  O  O385  1  0.85618612  0.22619253  0.24741725  1.0
  O  O386  1  0.35618628  0.27380753  0.25258305  1.0
  O  O387  1  0.77380773  0.85618580  0.24741702  1.0
  O  O388  1  0.27380752  0.64381426  0.25258222  1.0
  O  O389  1  0.22619260  0.14381433  0.24741731  1.0
  O  O390  1  0.72619175  0.35618588  0.25258273  1.0
  O  O391  1  0.64381457  0.72619102  0.25258248  1.0
