# generated using pymatgen
data_Nd2Cu3H30C24(NO4)6
_symmetry_space_group_name_H-M   'P 1'
_cell_length_a   13.41566169
_cell_length_b   13.41566030
_cell_length_c   14.72949495
_cell_angle_alpha   90.00004039
_cell_angle_beta   90.00012430
_cell_angle_gamma   60.00003278
_symmetry_Int_Tables_number   1
_chemical_formula_structural   Nd2Cu3H30C24(NO4)6
_chemical_formula_sum   'Nd4 Cu6 H60 C48 N12 O48'
_cell_volume   2295.84615039
_cell_formula_units_Z   2
loop_
 _symmetry_equiv_pos_site_id
 _symmetry_equiv_pos_as_xyz
  1  'x, y, z'
loop_
 _atom_site_type_symbol
 _atom_site_label
 _atom_site_symmetry_multiplicity
 _atom_site_fract_x
 _atom_site_fract_y
 _atom_site_fract_z
 _atom_site_occupancy
  Nd  Nd0  1  0.33333333  0.33333333  0.33165134  1.0
  Nd  Nd1  1  0.66666667  0.66666667  0.16835122  1.0
  Nd  Nd2  1  0.66666667  0.66666667  0.66834868  1.0
  Nd  Nd3  1  0.33333333  0.33333333  0.83164880  1.0
  Cu  Cu4  1  0.50000024  0.99999995  0.50000001  1.0
  Cu  Cu5  1  0.50000006  0.49999977  0.50000017  1.0
  Cu  Cu6  1  0.00000096  0.49999959  0.49999968  1.0
  Cu  Cu7  1  0.49999998  0.49999963  0.99999967  1.0
  Cu  Cu8  1  0.50000032  0.00000009  0.00000052  1.0
  Cu  Cu9  1  0.00000045  0.50000031  0.99999985  1.0
  H  H10  1  0.36161220  0.96092447  0.58164896  1.0
  H  H11  1  0.16926413  0.13704048  0.52682346  1.0
  H  H12  1  0.25937556  0.02776728  0.44824920  1.0
  H  H13  1  0.31442986  0.07978773  0.70207603  1.0
  H  H14  1  0.26063706  0.20069349  0.63138452  1.0
  H  H15  1  0.67746507  0.36161338  0.58164840  1.0
  H  H16  1  0.69369642  0.16926310  0.52682331  1.0
  H  H17  1  0.71285925  0.25937525  0.44824972  1.0
  H  H18  1  0.60578312  0.31443051  0.70207571  1.0
  H  H19  1  0.53866868  0.26063865  0.63138346  1.0
  H  H20  1  0.96092032  0.67746681  0.58164743  1.0
  H  H21  1  0.13704082  0.69369570  0.52682293  1.0
  H  H22  1  0.02776538  0.71285855  0.44824851  1.0
  H  H23  1  0.07978543  0.60578522  0.70207665  1.0
  H  H24  1  0.20069092  0.53867136  0.63138457  1.0
  H  H25  1  0.63838728  0.32253404  0.91835200  1.0
  H  H26  1  0.83073530  0.30630406  0.97317724  1.0
  H  H27  1  0.74062426  0.28714055  0.05175179  1.0
  H  H28  1  0.68557102  0.39421361  0.79792400  1.0
  H  H29  1  0.73936356  0.46132753  0.86861557  1.0
  H  H30  1  0.32253534  0.03907605  0.91835228  1.0
  H  H31  1  0.30630261  0.86295996  0.97317690  1.0
  H  H32  1  0.28714006  0.97223433  0.05175157  1.0
  H  H33  1  0.39421516  0.92021280  0.79792456  1.0
  H  H34  1  0.46132822  0.79930704  0.86861608  1.0
  H  H35  1  0.03907744  0.63838715  0.91835219  1.0
  H  H36  1  0.86295966  0.83073601  0.97317676  1.0
  H  H37  1  0.97223374  0.74062505  0.05175081  1.0
  H  H38  1  0.92021390  0.68557033  0.79792364  1.0
  H  H39  1  0.79930816  0.73936296  0.86861436  1.0
  H  H40  1  0.63838827  0.03907544  0.41835106  1.0
  H  H41  1  0.83073634  0.86295944  0.47317657  1.0
  H  H42  1  0.74062448  0.97223350  0.55175083  1.0
  H  H43  1  0.68557061  0.92021219  0.29792400  1.0
  H  H44  1  0.73936342  0.79930642  0.36861550  1.0
  H  H45  1  0.32253423  0.63838739  0.41835162  1.0
  H  H46  1  0.30630405  0.83073681  0.47317604  1.0
  H  H47  1  0.28714122  0.74062467  0.55175098  1.0
  H  H48  1  0.39421617  0.68557027  0.29792431  1.0
  H  H49  1  0.46133062  0.73936212  0.36861589  1.0
  H  H50  1  0.03907897  0.32253397  0.41835260  1.0
  H  H51  1  0.86295966  0.30630420  0.47317710  1.0
  H  H52  1  0.97223392  0.28714222  0.55175152  1.0
  H  H53  1  0.92021472  0.39421384  0.29792338  1.0
  H  H54  1  0.79930881  0.46132855  0.36861545  1.0
  H  H55  1  0.36161319  0.67746587  0.08164802  1.0
  H  H56  1  0.16926442  0.69369586  0.02682279  1.0
  H  H57  1  0.25937546  0.71285937  0.94824891  1.0
  H  H58  1  0.31442870  0.60578631  0.20207603  1.0
  H  H59  1  0.26063691  0.53867238  0.13138446  1.0
  H  H60  1  0.67746438  0.96092387  0.08164707  1.0
  H  H61  1  0.69369712  0.13703995  0.02682313  1.0
  H  H62  1  0.71285967  0.02776558  0.94824846  1.0
  H  H63  1  0.60578457  0.07978711  0.20207547  1.0
  H  H64  1  0.53867151  0.20069287  0.13138395  1.0
  H  H65  1  0.96092229  0.36161276  0.08164783  1.0
  H  H66  1  0.13704081  0.16926390  0.02682327  1.0
  H  H67  1  0.02776556  0.25937572  0.94824921  1.0
  H  H68  1  0.07978625  0.31442873  0.20207706  1.0
  H  H69  1  0.20069157  0.26063695  0.13138567  1.0
  C  C70  1  0.26501544  0.18228036  0.43450676  1.0
  C  C71  1  0.25462666  0.09455498  0.49411840  1.0
  C  C72  1  0.33406104  0.11325218  0.64063132  1.0
  C  C73  1  0.43997278  0.12415053  0.65911679  1.0
  C  C74  1  0.55270556  0.26501456  0.43450639  1.0
  C  C75  1  0.65081933  0.25462667  0.49411885  1.0
  C  C76  1  0.55268707  0.33406245  0.64063093  1.0
  C  C77  1  0.43587839  0.43997545  0.65911824  1.0
  C  C78  1  0.18227851  0.55270444  0.43450747  1.0
  C  C79  1  0.09455364  0.65081939  0.49411842  1.0
  C  C80  1  0.11324932  0.55268886  0.64063192  1.0
  C  C81  1  0.12414623  0.43587921  0.65911861  1.0
  C  C82  1  0.73498369  0.44729558  0.06549298  1.0
  C  C83  1  0.74537284  0.34918060  0.00588195  1.0
  C  C84  1  0.66593904  0.44731083  0.85936874  1.0
  C  C85  1  0.56002634  0.56412044  0.84088874  1.0
  C  C86  1  0.44729423  0.81771873  0.06549349  1.0
  C  C87  1  0.34917956  0.90544494  0.00588242  1.0
  C  C88  1  0.44731208  0.88674751  0.85937002  1.0
  C  C89  1  0.56412036  0.87585268  0.84089020  1.0
  C  C90  1  0.81771988  0.73498475  0.06549247  1.0
  C  C91  1  0.90544558  0.74537273  0.00588156  1.0
  C  C92  1  0.88674920  0.66593834  0.85936835  1.0
  C  C93  1  0.87585461  0.56002444  0.84088837  1.0
  C  C94  1  0.73498503  0.81771955  0.56549327  1.0
  C  C95  1  0.74537306  0.90544494  0.50588162  1.0
  C  C96  1  0.66593869  0.88674773  0.35936871  1.0
  C  C97  1  0.56002695  0.87584938  0.34088324  1.0
  C  C98  1  0.44729535  0.73498448  0.56549363  1.0
  C  C99  1  0.34918114  0.74537325  0.50588186  1.0
  C  C100  1  0.44731223  0.66593832  0.35936910  1.0
  C  C101  1  0.56412016  0.56002533  0.34088246  1.0
  C  C102  1  0.81772122  0.44729547  0.56549255  1.0
  C  C103  1  0.90544566  0.34918138  0.50588160  1.0
  C  C104  1  0.88675040  0.44731106  0.35936810  1.0
  C  C105  1  0.87585350  0.56412069  0.34088141  1.0
  C  C106  1  0.26501604  0.55270433  0.93450773  1.0
  C  C107  1  0.25462688  0.65081932  0.99411808  1.0
  C  C108  1  0.33406069  0.55268908  0.14063129  1.0
  C  C109  1  0.43997413  0.43587947  0.15911128  1.0
  C  C110  1  0.55270550  0.18228118  0.93450654  1.0
  C  C111  1  0.65082016  0.09455498  0.99411761  1.0
  C  C112  1  0.55268764  0.11325241  0.14063001  1.0
  C  C113  1  0.43587894  0.12414809  0.15911050  1.0
  C  C114  1  0.18228059  0.26501516  0.93450755  1.0
  C  C115  1  0.09455414  0.25462719  0.99411847  1.0
  C  C116  1  0.11325095  0.33406071  0.14063236  1.0
  C  C117  1  0.12414629  0.43997461  0.15911165  1.0
  N  N118  1  0.34814855  0.04071237  0.56088384  1.0
  N  N119  1  0.61114034  0.34814889  0.56088352  1.0
  N  N120  1  0.04071014  0.61114145  0.56088372  1.0
  N  N121  1  0.65185219  0.38885907  0.93911685  1.0
  N  N122  1  0.38886001  0.95928732  0.93911746  1.0
  N  N123  1  0.95928833  0.65185195  0.93911589  1.0
  N  N124  1  0.65185192  0.95928755  0.43911619  1.0
  N  N125  1  0.38885970  0.65185188  0.43911651  1.0
  N  N126  1  0.95928959  0.38885846  0.43911631  1.0
  N  N127  1  0.34814828  0.61114084  0.06088317  1.0
  N  N128  1  0.61114046  0.04071260  0.06088257  1.0
  N  N129  1  0.04071215  0.34814796  0.06088414  1.0
  O  O130  1  0.35703565  0.18791977  0.44256619  1.0
  O  O131  1  0.18556048  0.24327031  0.37919184  1.0
  O  O132  1  0.52506554  0.07685108  0.60441029  1.0
  O  O133  1  0.43941580  0.18074312  0.72776138  1.0
  O  O134  1  0.45504537  0.35703485  0.44256566  1.0
  O  O135  1  0.57117039  0.18555980  0.37919220  1.0
  O  O136  1  0.39808277  0.52506446  0.60440896  1.0
  O  O137  1  0.37984427  0.43942025  0.72776480  1.0
  O  O138  1  0.18791809  0.45504561  0.44256611  1.0
  O  O139  1  0.24326991  0.57116930  0.37919268  1.0
  O  O140  1  0.07685071  0.39808454  0.60440995  1.0
  O  O141  1  0.18073896  0.37984350  0.72776323  1.0
  O  O142  1  0.64296598  0.54495438  0.05743426  1.0
  O  O143  1  0.81444240  0.42882905  0.12080791  1.0
  O  O144  1  0.47493526  0.60191420  0.89558708  1.0
  O  O145  1  0.56058875  0.62015704  0.77223671  1.0
  O  O146  1  0.54495273  0.81207852  0.05743696  1.0
  O  O147  1  0.42882486  0.75672874  0.12080831  1.0
  O  O148  1  0.60191349  0.92315132  0.89558731  1.0
  O  O149  1  0.62015814  0.81925238  0.77223751  1.0
  O  O150  1  0.81207980  0.64296617  0.05743513  1.0
  O  O151  1  0.75672840  0.81444296  0.12080594  1.0
  O  O152  1  0.92314766  0.47493629  0.89558884  1.0
  O  O153  1  0.81925885  0.56058476  0.77223287  1.0
  O  O154  1  0.64296482  0.81208015  0.55743383  1.0
  O  O155  1  0.81444000  0.75672959  0.62080819  1.0
  O  O156  1  0.47493494  0.92314883  0.39559041  1.0
  O  O157  1  0.56058275  0.81925766  0.27223796  1.0
  O  O158  1  0.54495435  0.64296507  0.55743436  1.0
  O  O159  1  0.42882965  0.81444098  0.62080715  1.0
  O  O160  1  0.60191653  0.47493631  0.39559107  1.0
  O  O161  1  0.62015503  0.56058052  0.27223522  1.0
  O  O162  1  0.81208164  0.54495430  0.55743392  1.0
  O  O163  1  0.75672982  0.42883061  0.62080735  1.0
  O  O164  1  0.92314977  0.60191537  0.39559007  1.0
  O  O165  1  0.81926119  0.62015555  0.27223680  1.0
  O  O166  1  0.35703406  0.45504640  0.94256577  1.0
  O  O167  1  0.18555733  0.57117086  0.87919211  1.0
  O  O168  1  0.52506447  0.39808571  0.10441294  1.0
  O  O169  1  0.43941098  0.37984287  0.22776331  1.0
  O  O170  1  0.45504700  0.18792139  0.94256306  1.0
  O  O171  1  0.57117486  0.24327118  0.87919171  1.0
  O  O172  1  0.39808624  0.07684859  0.10441271  1.0
  O  O173  1  0.37984233  0.18074753  0.22776251  1.0
  O  O174  1  0.18792067  0.35703374  0.94256489  1.0
  O  O175  1  0.24327132  0.18555696  0.87919408  1.0
  O  O176  1  0.07685399  0.52506276  0.10441050  1.0
  O  O177  1  0.18074162  0.43941516  0.22776715  1.0
