# generated using pymatgen
data_MgH4C8O3
_symmetry_space_group_name_H-M   'P 1'
_cell_length_a   6.85347658
_cell_length_b   25.76409602
_cell_length_c   25.76045285
_cell_angle_alpha   119.21313100
_cell_angle_beta   95.08366580
_cell_angle_gamma   95.08752556
_symmetry_Int_Tables_number   1
_chemical_formula_structural   MgH4C8O3
_chemical_formula_sum   'Mg6 H24 C48 O18'
_cell_volume   3908.66774336
_cell_formula_units_Z   6
loop_
 _symmetry_equiv_pos_site_id
 _symmetry_equiv_pos_as_xyz
  1  'x, y, z'
loop_
 _atom_site_type_symbol
 _atom_site_label
 _atom_site_symmetry_multiplicity
 _atom_site_fract_x
 _atom_site_fract_y
 _atom_site_fract_z
 _atom_site_occupancy
  Mg  Mg0  1  0.19686602  0.30277681  0.68282642  1.0
  Mg  Mg1  1  0.51384427  0.31713537  0.61994063  1.0
  Mg  Mg2  1  0.89405320  0.37998358  0.69719202  1.0
  Mg  Mg3  1  0.18049489  0.62122881  0.32199194  1.0
  Mg  Mg4  1  0.85856162  0.67806983  0.29919491  1.0
  Mg  Mg5  1  0.55937031  0.70084680  0.37882746  1.0
  H  H6  1  0.99226025  0.43151081  0.85496586  1.0
  H  H7  1  0.13756042  0.14495676  0.57664185  1.0
  H  H8  1  0.56058366  0.42348938  0.56850659  1.0
  H  H9  1  0.01131932  0.49776488  0.96054516  1.0
  H  H10  1  0.05133574  0.03942928  0.53742928  1.0
  H  H11  1  0.51326941  0.46269426  0.50223257  1.0
  H  H12  1  0.43168775  0.56081717  0.02782743  1.0
  H  H13  1  0.40431241  0.97208431  0.53299501  1.0
  H  H14  1  0.87051086  0.46701531  0.43912164  1.0
  H  H15  1  0.49489282  0.60649607  0.13026337  1.0
  H  H16  1  0.36460460  0.86963011  0.47627964  1.0
  H  H17  1  0.88804520  0.52378949  0.39352002  1.0
  H  H18  1  0.78987403  0.56819167  0.14762637  1.0
  H  H19  1  0.64250892  0.85252315  0.42051531  1.0
  H  H20  1  0.22157655  0.57958332  0.43187087  1.0
  H  H21  1  0.88473812  0.53750774  0.04741837  1.0
  H  H22  1  0.83777065  0.95265736  0.49003332  1.0
  H  H23  1  0.34678415  0.51001978  0.46254651  1.0
  H  H24  1  0.55336039  0.54375441  0.95436688  1.0
  H  H25  1  0.59953610  0.04561396  0.58946898  1.0
  H  H26  1  0.00899760  0.41046082  0.45606918  1.0
  H  H27  1  0.70117695  0.49542476  0.86109534  1.0
  H  H28  1  0.84045521  0.13890064  0.63436874  1.0
  H  H29  1  0.20532325  0.36560473  0.50442875  1.0
  C  C30  1  0.23014336  0.41817613  0.80340404  1.0
  C  C31  1  0.42699337  0.19654523  0.61483720  1.0
  C  C32  1  0.81173236  0.38518814  0.58177054  1.0
  C  C33  1  0.14855069  0.44629450  0.85722684  1.0
  C  C34  1  0.29161433  0.14272814  0.58918500  1.0
  C  C35  1  0.70197556  0.41090068  0.55367500  1.0
  C  C36  1  0.26084343  0.49002681  0.91226243  1.0
  C  C37  1  0.34901014  0.08770839  0.57789012  1.0
  C  C38  1  0.77047654  0.42218150  0.50991501  1.0
  C  C39  1  0.17026592  0.51301066  0.96694241  1.0
  C  C40  1  0.20386372  0.03303415  0.54621946  1.0
  C  C41  1  0.65689562  0.45388222  0.48695042  1.0
  C  C42  1  0.27199767  0.54788793  0.02322265  1.0
  C  C43  1  0.24920260  0.97673013  0.52471916  1.0
  C  C44  1  0.72374145  0.47534698  0.45210476  1.0
  C  C45  1  0.20019175  0.56830473  0.08043380  1.0
  C  C46  1  0.12005822  0.91956578  0.48785746  1.0
  C  C47  1  0.63149038  0.51218286  0.43173044  1.0
  C  C48  1  0.33885726  0.59717387  0.13301424  1.0
  C  C49  1  0.20593081  0.86695773  0.46415473  1.0
  C  C50  1  0.74131624  0.53586697  0.40282794  1.0
  C  C51  1  0.28811367  0.61448925  0.19026758  1.0
  C  C52  1  0.09789277  0.80974081  0.42418640  1.0
  C  C53  1  0.67349031  0.57584077  0.38553561  1.0
  C  C54  1  0.08523538  0.60285452  0.19590127  1.0
  C  C55  1  0.88939372  0.80414162  0.40690170  1.0
  C  C56  1  0.48228716  0.59314059  0.39718875  1.0
  C  C57  1  0.94444377  0.57596806  0.14283806  1.0
  C  C58  1  0.80185514  0.85724714  0.43306357  1.0
  C  C59  1  0.36833211  0.56698654  0.42410207  1.0
  C  C60  1  0.99920582  0.55899497  0.08699956  1.0
  C  C61  1  0.91254867  0.91305540  0.47192307  1.0
  C  C62  1  0.43988735  0.52811416  0.44108508  1.0
  C  C63  1  0.44923036  0.64390092  0.24198939  1.0
  C  C64  1  0.20711998  0.75800092  0.40184936  1.0
  C  C65  1  0.80519771  0.59815163  0.35612172  1.0
  C  C66  1  0.46257022  0.50852789  0.91296445  1.0
  C  C67  1  0.55005810  0.08700356  0.59563679  1.0
  C  C68  1  0.95363692  0.40437595  0.49137772  1.0
  C  C69  1  0.54581816  0.48186716  0.86100860  1.0
  C  C70  1  0.68517231  0.13895080  0.62089383  1.0
  C  C71  1  0.06358151  0.37908119  0.51802298  1.0
  C  C72  1  0.43622177  0.43608410  0.80581614  1.0
  C  C73  1  0.63068221  0.19412631  0.63028334  1.0
  C  C74  1  0.99991015  0.36970953  0.56384898  1.0
  C  C75  1  0.54231186  0.40890043  0.75392191  1.0
  C  C76  1  0.78854481  0.24602622  0.65497666  1.0
  C  C77  1  0.13331838  0.34504631  0.59105025  1.0
  O  O78  1  0.72305573  0.42883940  0.75762114  1.0
  O  O79  1  0.96560769  0.24239801  0.67128951  1.0
  O  O80  1  0.29410690  0.32879859  0.57109692  1.0
  O  O81  1  0.44896512  0.36308681  0.70444127  1.0
  O  O82  1  0.74449089  0.29545606  0.65856244  1.0
  O  O83  1  0.08592802  0.34141755  0.63690657  1.0
  O  O84  1  0.11239410  0.37571596  0.75302961  1.0
  O  O85  1  0.35954309  0.24691932  0.62274193  1.0
  O  O86  1  0.73647267  0.37722561  0.62421514  1.0
  O  O87  1  0.62458850  0.65848460  0.23589652  1.0
  O  O88  1  0.38850441  0.76400302  0.42249429  1.0
  O  O89  1  0.96598446  0.57750651  0.34151370  1.0
  O  O90  1  0.40838491  0.65385807  0.29390664  1.0
  O  O91  1  0.11424892  0.70612911  0.35987260  1.0
  O  O92  1  0.75439822  0.64010862  0.34617060  1.0
  O  O93  1  0.02228325  0.61576506  0.24812557  1.0
  O  O94  1  0.77409731  0.75193548  0.36761598  1.0
  O  O95  1  0.40646172  0.63246223  0.38427901  1.0
