# generated using pymatgen
data_Zn4H16C37I4(NO4)4
_symmetry_space_group_name_H-M   'P 1'
_cell_length_a   13.13640855
_cell_length_b   19.16089683
_cell_length_c   19.29988536
_cell_angle_alpha   85.41530201
_cell_angle_beta   84.56634144
_cell_angle_gamma   85.19672937
_symmetry_Int_Tables_number   1
_chemical_formula_structural   Zn4H16C37I4(NO4)4
_chemical_formula_sum   'Zn4 H16 C37 I4 N4 O16'
_cell_volume   4806.36097975
_cell_formula_units_Z   1
loop_
 _symmetry_equiv_pos_site_id
 _symmetry_equiv_pos_as_xyz
  1  'x, y, z'
loop_
 _atom_site_type_symbol
 _atom_site_label
 _atom_site_symmetry_multiplicity
 _atom_site_fract_x
 _atom_site_fract_y
 _atom_site_fract_z
 _atom_site_occupancy
  Zn  Zn0  1  0.41220381  0.56502012  0.44287197  1.0
  Zn  Zn1  1  0.41495316  0.44497713  0.56929606  1.0
  Zn  Zn2  1  0.59156018  0.54788517  0.54872386  1.0
  Zn  Zn3  1  0.58318603  0.43690535  0.43454842  1.0
  H  H4  1  0.90367795  0.53721962  0.54600194  1.0
  H  H5  1  0.59539902  0.22416011  0.42256672  1.0
  H  H6  1  0.09277035  0.49829748  0.44198407  1.0
  H  H7  1  0.92484303  0.46028225  0.40928230  1.0
  H  H8  1  0.36571730  0.46777781  0.78140598  1.0
  H  H9  1  0.35580226  0.78293059  0.47214120  1.0
  H  H10  1  0.36649293  0.60014298  0.10020314  1.0
  H  H11  1  0.36371134  0.09967173  0.60137809  1.0
  H  H12  1  0.37308359  0.59712110  0.23087089  1.0
  H  H13  1  0.36595514  0.23167694  0.59666913  1.0
  H  H14  1  0.13751791  0.55978796  0.64551591  1.0
  H  H15  1  0.71652520  0.46152070  0.69783606  1.0
  H  H16  1  0.59199525  0.42447074  0.09075100  1.0
  H  H17  1  0.70637762  0.69781521  0.45358615  1.0
  H  H18  1  0.59189128  0.09278760  0.42651997  1.0
  H  H19  1  0.59757320  0.42075751  0.22108907  1.0
  C  C20  1  0.52055970  0.48430340  0.68684963  1.0
  C  C21  1  0.54313464  0.12388754  0.46328214  1.0
  C  C22  1  0.54422508  0.46141854  0.12223258  1.0
  C  C23  1  0.47828508  0.51246023  0.08904662  1.0
  C  C24  1  0.47728391  0.08963907  0.51433396  1.0
  C  C25  1  0.41621899  0.56123650  0.12786513  1.0
  C  C26  1  0.41336669  0.12812724  0.56243627  1.0
  C  C27  1  0.50777662  0.68573304  0.48863558  1.0
  C  C28  1  0.42002723  0.55948252  0.19973934  1.0
  C  C29  1  0.41483450  0.20079731  0.55978362  1.0
  C  C30  1  0.43252674  0.47627336  0.87819891  1.0
  C  C31  1  0.42799289  0.87928203  0.47827189  1.0
  C  C32  1  0.43548505  0.47340927  0.80605973  1.0
  C  C33  1  0.42707480  0.80678266  0.47645490  1.0
  C  C34  1  0.52365841  0.48274190  0.90929644  1.0
  C  C35  1  0.52096508  0.90910870  0.48417405  1.0
  C  C36  1  0.52733710  0.47961983  0.76416476  1.0
  C  C37  1  0.51703952  0.76334539  0.48204908  1.0
  C  C38  1  0.62045595  0.48646353  0.79379911  1.0
  C  C39  1  0.61218222  0.79178863  0.48694473  1.0
  C  C40  1  0.48999510  0.50634678  0.31027622  1.0
  C  C41  1  0.48504919  0.31297101  0.50676252  1.0
  C  C42  1  0.61645785  0.48728972  0.86661751  1.0
  C  C43  1  0.54729266  0.45965613  0.19394829  1.0
  C  C44  1  0.61206799  0.86488280  0.48780141  1.0
  C  C45  1  0.77648880  0.48453529  0.46871589  1.0
  C  C46  1  0.22681969  0.52330283  0.52623492  1.0
  C  C47  1  0.11308044  0.53233564  0.54054299  1.0
  C  C48  1  0.05354079  0.51519829  0.49115462  1.0
  C  C49  1  0.54481600  0.19623834  0.46121839  1.0
  C  C50  1  0.88919320  0.48534124  0.45534934  1.0
  C  C51  1  0.94384314  0.51441617  0.50010998  1.0
  C  C52  1  0.48549528  0.50864473  0.23309897  1.0
  C  C53  1  0.48088929  0.23514249  0.50933588  1.0
  C  C54  1  0.07529083  0.55537632  0.61105692  1.0
  C  C55  1  0.71888715  0.48549305  0.74819245  1.0
  C  C56  1  0.70883948  0.74452881  0.48390445  1.0
  I  I57  1  0.74486403  0.49776439  0.92170045  1.0
  I  I58  1  0.74442783  0.91744633  0.49683868  1.0
  I  I59  1  0.28962796  0.46754451  0.93605560  1.0
  I  I60  1  0.28796118  0.93951417  0.46849796  1.0
  N  N61  1  0.47115971  0.52036663  0.01601603  1.0
  N  N62  1  0.47057248  0.01602488  0.52215759  1.0
  N  N63  1  0.53059552  0.47765932  0.98196310  1.0
  N  N64  1  0.53059733  0.98201450  0.47972959  1.0
  O  O65  1  0.49984851  0.49876851  0.49837977  1.0
  O  O66  1  0.41942947  0.34659981  0.54754789  1.0
  O  O67  1  0.57070829  0.64953257  0.52632123  1.0
  O  O68  1  0.57537343  0.52816514  0.65039193  1.0
  O  O69  1  0.55427982  0.33949333  0.46419767  1.0
  O  O70  1  0.54561052  0.45590023  0.33811827  1.0
  O  O71  1  0.73368252  0.51924709  0.51879146  1.0
  O  O72  1  0.27453644  0.49134010  0.57569370  1.0
  O  O73  1  0.26651681  0.54760687  0.46733129  1.0
  O  O74  1  0.73123115  0.44889103  0.42909976  1.0
  O  O75  1  0.98547313  0.57028203  0.63100943  1.0
  O  O76  1  0.79845040  0.50638149  0.76377905  1.0
  O  O77  1  0.45809599  0.44588715  0.66433537  1.0
  O  O78  1  0.78724968  0.75568588  0.50908468  1.0
  O  O79  1  0.43684734  0.66270951  0.45805084  1.0
  O  O80  1  0.43770768  0.55514344  0.34238475  1.0
