# generated using pymatgen
data_Tb4H36C57(O11F6)3
_symmetry_space_group_name_H-M   'P 1'
_cell_length_a   7.92275397
_cell_length_b   21.38297355
_cell_length_c   23.00501718
_cell_angle_alpha   82.10291113
_cell_angle_beta   82.76411019
_cell_angle_gamma   79.56444663
_symmetry_Int_Tables_number   1
_chemical_formula_structural   Tb4H36C57(O11F6)3
_chemical_formula_sum   'Tb8 H72 C114 O66 F36'
_cell_volume   3776.02389056
_cell_formula_units_Z   2
loop_
 _symmetry_equiv_pos_site_id
 _symmetry_equiv_pos_as_xyz
  1  'x, y, z'
loop_
 _atom_site_type_symbol
 _atom_site_label
 _atom_site_symmetry_multiplicity
 _atom_site_fract_x
 _atom_site_fract_y
 _atom_site_fract_z
 _atom_site_occupancy
  Tb  Tb0  1  0.72927243  0.09537547  0.53479159  1.0
  Tb  Tb1  1  0.96905387  0.24656917  0.59590848  1.0
  Tb  Tb2  1  0.68028222  0.57981005  0.21318719  1.0
  Tb  Tb3  1  0.12059761  0.52661522  0.06759090  1.0
  Tb  Tb4  1  0.27073286  0.90462288  0.46520750  1.0
  Tb  Tb5  1  0.03094335  0.75343301  0.40409092  1.0
  Tb  Tb6  1  0.31971480  0.42019260  0.78681303  1.0
  Tb  Tb7  1  0.87940133  0.47338599  0.93241115  1.0
  H  H8  1  0.40832459  0.03149318  0.55497629  1.0
  H  H9  1  0.36456089  0.10255490  0.57511721  1.0
  H  H10  1  0.89126463  0.95659621  0.57391468  1.0
  H  H11  1  0.69468780  0.95463056  0.56880902  1.0
  H  H12  1  0.33062171  0.26215360  0.54135949  1.0
  H  H13  1  0.32542036  0.26494537  0.61218155  1.0
  H  H14  1  0.96689565  0.36945678  0.63779310  1.0
  H  H15  1  0.11550154  0.36396243  0.58551646  1.0
  H  H16  1  0.59631988  0.31609574  0.61105762  1.0
  H  H17  1  0.71389210  0.36491364  0.57538728  1.0
  H  H18  1  0.29069892  0.60225426  0.24763131  1.0
  H  H19  1  0.31558163  0.57469135  0.18757763  1.0
  H  H20  1  0.98566452  0.57965060  0.27729086  1.0
  H  H21  1  0.01123854  0.51999627  0.24265816  1.0
  H  H22  1  0.49643046  0.50336966  0.30447811  1.0
  H  H23  1  0.67341084  0.49728426  0.32934353  1.0
  H  H24  1  0.44107632  0.57164058  0.09713916  1.0
  H  H25  1  0.50020162  0.53208609  0.04482559  1.0
  H  H26  1  0.11006356  0.23670211  0.37945096  1.0
  H  H27  1  0.71057340  0.25457530  0.26347726  1.0
  H  H28  1  0.49361649  0.25457099  0.35040364  1.0
  H  H29  1  0.91843371  0.35888074  0.25463672  1.0
  H  H30  1  0.96766358  0.28571702  0.05769341  1.0
  H  H31  1  0.06006520  0.20849738  0.14137793  1.0
  H  H32  1  0.85483551  0.90386803  0.28486219  1.0
  H  H33  1  0.58785928  0.09615366  0.24026471  1.0
  H  H34  1  0.65003487  0.12505522  0.33404065  1.0
  H  H35  1  0.46416880  0.93317656  0.29094360  1.0
  H  H36  1  0.74123968  0.75026997  0.18355902  1.0
  H  H37  1  0.79567798  0.85856598  0.14350365  1.0
  H  H38  1  0.83288646  0.29026048  0.93447398  1.0
  H  H39  1  0.72939596  0.13317447  0.85210608  1.0
  H  H40  1  0.83122364  0.18604541  0.75535456  1.0
  H  H41  1  0.48119810  0.26914228  0.91111700  1.0
  H  H42  1  0.49206413  0.30982966  0.11721852  1.0
  H  H43  1  0.66339002  0.21054699  0.08259041  1.0
  H  H44  1  0.59167731  0.96850708  0.44502358  1.0
  H  H45  1  0.63544864  0.89744536  0.42488189  1.0
  H  H46  1  0.10873960  0.04340453  0.42608502  1.0
  H  H47  1  0.30531306  0.04537208  0.43119581  1.0
  H  H48  1  0.66938020  0.73784665  0.45864169  1.0
  H  H49  1  0.67458217  0.73505632  0.38781855  1.0
  H  H50  1  0.03310393  0.63054299  0.36220867  1.0
  H  H51  1  0.88450463  0.63603686  0.41448682  1.0
  H  H52  1  0.40368054  0.68390499  0.38894355  1.0
  H  H53  1  0.28610427  0.63508758  0.42461184  1.0
  H  H54  1  0.70929938  0.39774552  0.75237008  1.0
  H  H55  1  0.68441307  0.42530795  0.81242398  1.0
  H  H56  1  0.01433019  0.42034870  0.72271162  1.0
  H  H57  1  0.98875446  0.48000399  0.75734297  1.0
  H  H58  1  0.50356167  0.49662964  0.69552101  1.0
  H  H59  1  0.32658109  0.50271552  0.67065640  1.0
  H  H60  1  0.55892176  0.42835968  0.90286088  1.0
  H  H61  1  0.49980283  0.46791417  0.95517547  1.0
  H  H62  1  0.88995001  0.76328906  0.62054475  1.0
  H  H63  1  0.28942042  0.74542879  0.73652205  1.0
  H  H64  1  0.50638011  0.74542975  0.64959684  1.0
  H  H65  1  0.08156862  0.64112143  0.74536550  1.0
  H  H66  1  0.03232578  0.71429138  0.94230729  1.0
  H  H67  1  0.93992053  0.79150768  0.85861900  1.0
  H  H68  1  0.14516043  0.09613128  0.71513588  1.0
  H  H69  1  0.41212353  0.90384374  0.75973549  1.0
  H  H70  1  0.34995281  0.87494265  0.66595797  1.0
  H  H71  1  0.53581864  0.06682467  0.70905243  1.0
  H  H72  1  0.25876924  0.24972884  0.81644333  1.0
  H  H73  1  0.20432584  0.14143284  0.85649719  1.0
  H  H74  1  0.16714158  0.70973258  0.06552955  1.0
  H  H75  1  0.27060896  0.86682194  0.14789892  1.0
  H  H76  1  0.16877618  0.81395101  0.24465023  1.0
  H  H77  1  0.51881100  0.73086180  0.08888251  1.0
  H  H78  1  0.50792378  0.69017059  0.88278414  1.0
  H  H79  1  0.33660361  0.78945470  0.91741095  1.0
  C  C80  1  0.54451536  0.23042455  0.46521511  1.0
  C  C81  1  0.67907231  0.23930609  0.41354712  1.0
  C  C82  1  0.85376941  0.23681628  0.42064694  1.0
  C  C83  1  0.97653971  0.23923085  0.37134998  1.0
  C  C84  1  0.92840804  0.24274472  0.31439745  1.0
  C  C85  1  0.75225654  0.24950677  0.30749467  1.0
  C  C86  1  0.62961143  0.24890958  0.35638168  1.0
  C  C87  1  0.90935633  0.23275836  0.48078174  1.0
  C  C88  1  0.05843417  0.23396984  0.25938323  1.0
  C  C89  1  0.99810847  0.27825551  0.20475232  1.0
  C  C90  1  0.93438857  0.34268937  0.21109420  1.0
  C  C91  1  0.89307879  0.38739873  0.16253903  1.0
  C  C92  1  0.90575998  0.36635022  0.10666482  1.0
  C  C93  1  0.96033600  0.30140465  0.10106210  1.0
  C  C94  1  0.01086189  0.25786738  0.14883928  1.0
  C  C95  1  0.83343359  0.45527713  0.17563326  1.0
  C  C96  1  0.87515080  0.40905341  0.05080720  1.0
  C  C97  1  0.23895940  0.24849204  0.26778067  1.0
  C  C98  1  0.08087278  0.16174196  0.24990462  1.0
  C  C99  1  0.78790333  0.04820652  0.42328739  1.0
  C  C100  1  0.78874129  0.03166427  0.36208828  1.0
  C  C101  1  0.84687354  0.96917928  0.34752674  1.0
  C  C102  1  0.81183691  0.95313134  0.29408449  1.0
  C  C103  1  0.71580607  0.99743876  0.25527999  1.0
  C  C104  1  0.66143518  0.05999481  0.26952359  1.0
  C  C105  1  0.69770147  0.07674307  0.32254825  1.0
  C  C106  1  0.92921842  0.91762550  0.39092333  1.0
  C  C107  1  0.67494450  0.97363680  0.19922747  1.0
  C  C108  1  0.63838366  0.90459094  0.21507112  1.0
  C  C109  1  0.52581696  0.89387984  0.26612037  1.0
  C  C110  1  0.49110743  0.83306684  0.28788475  1.0
  C  C111  1  0.57388879  0.77998662  0.25905881  1.0
  C  C112  1  0.67833608  0.79111426  0.20629497  1.0
  C  C113  1  0.71056484  0.85263482  0.18412802  1.0
  C  C114  1  0.35578845  0.82920075  0.33930572  1.0
  C  C115  1  0.56896674  0.71231614  0.28689204  1.0
  C  C116  1  0.83368709  0.97992685  0.15302632  1.0
  C  C117  1  0.51108087  0.01417421  0.17347664  1.0
  C  C118  1  0.94077717  0.29765957  0.72888327  1.0
  C  C119  1  0.88976452  0.26691723  0.78952877  1.0
  C  C120  1  0.88994071  0.29588819  0.84083752  1.0
  C  C121  1  0.83298074  0.26621972  0.89567066  1.0
  C  C122  1  0.77457369  0.20727046  0.90111844  1.0
  C  C123  1  0.77474753  0.17851488  0.85012444  1.0
  C  C124  1  0.83292454  0.20801275  0.79517997  1.0
  C  C125  1  0.96195098  0.35612295  0.84007299  1.0
  C  C126  1  0.70948751  0.17965642  0.96379725  1.0
  C  C127  1  0.58951737  0.23379953  0.99341620  1.0
  C  C128  1  0.48411553  0.27721869  0.95662716  1.0
  C  C129  1  0.38928550  0.33319964  0.97583513  1.0
  C  C130  1  0.39631631  0.34565297  0.03383722  1.0
  C  C131  1  0.48915040  0.29979391  0.07221133  1.0
  C  C132  1  0.58634330  0.24413205  0.05232034  1.0
  C  C133  1  0.28753838  0.37800230  0.93172257  1.0
  C  C134  1  0.32275066  0.41023458  0.05119096  1.0
  C  C135  1  0.87248153  0.15272637  0.99671011  1.0
  C  C136  1  0.60385524  0.12466941  0.96430626  1.0
  C  C137  1  0.45550988  0.76956900  0.53478283  1.0
  C  C138  1  0.32093276  0.76069560  0.58645242  1.0
  C  C139  1  0.14623654  0.76318062  0.57935491  1.0
  C  C140  1  0.02346282  0.76076511  0.62864692  1.0
  C  C141  1  0.07159681  0.75725172  0.68559973  1.0
  C  C142  1  0.24774214  0.75049493  0.69250212  1.0
  C  C143  1  0.37038749  0.75109164  0.64361907  1.0
  C  C144  1  0.09064981  0.76724094  0.51921720  1.0
  C  C145  1  0.94156321  0.76602900  0.74060832  1.0
  C  C146  1  0.00187876  0.72174620  0.79524497  1.0
  C  C147  1  0.06560761  0.65731232  0.78890791  1.0
  C  C148  1  0.10692120  0.61260297  0.83746162  1.0
  C  C149  1  0.09423703  0.63365244  0.89333583  1.0
  C  C150  1  0.03965805  0.69859896  0.89893900  1.0
  C  C151  1  0.98912578  0.74213624  0.85116036  1.0
  C  C152  1  0.16656621  0.54472504  0.82437081  1.0
  C  C153  1  0.12484833  0.59095307  0.94919418  1.0
  C  C154  1  0.76103248  0.75150488  0.73221310  1.0
  C  C155  1  0.91912268  0.83825833  0.75008684  1.0
  C  C156  1  0.21210153  0.95179278  0.57671073  1.0
  C  C157  1  0.21126122  0.96833456  0.63790870  1.0
  C  C158  1  0.15312536  0.03082195  0.65246966  1.0
  C  C159  1  0.18816646  0.04686557  0.70591313  1.0
  C  C160  1  0.28418925  0.00255911  0.74471960  1.0
  C  C161  1  0.33855846  0.94000114  0.73047675  1.0
  C  C162  1  0.30228853  0.92325815  0.67745072  1.0
  C  C163  1  0.07079467  0.08237525  0.60907076  1.0
  C  C164  1  0.32504825  0.02636395  0.80076970  1.0
  C  C165  1  0.36160825  0.09540884  0.78492707  1.0
  C  C166  1  0.47417517  0.10611946  0.73387875  1.0
  C  C167  1  0.50888937  0.16693342  0.71211447  1.0
  C  C168  1  0.42611926  0.22001412  0.74094159  1.0
  C  C169  1  0.32166942  0.20888647  0.79370468  1.0
  C  C170  1  0.28943875  0.14736448  0.81587146  1.0
  C  C171  1  0.64421111  0.17079616  0.66069206  1.0
  C  C172  1  0.43103516  0.28768411  0.71310913  1.0
  C  C173  1  0.16630481  0.02007582  0.84697108  1.0
  C  C174  1  0.48890680  0.98582654  0.82652162  1.0
  C  C175  1  0.05922094  0.70233781  0.27112061  1.0
  C  C176  1  0.11024273  0.73307966  0.21047650  1.0
  C  C177  1  0.11007714  0.70410775  0.15916566  1.0
  C  C178  1  0.16703903  0.73377478  0.10433393  1.0
  C  C179  1  0.22544587  0.79272451  0.09888610  1.0
  C  C180  1  0.22526142  0.82148106  0.14988088  1.0
  C  C181  1  0.16708546  0.79198367  0.20482394  1.0
  C  C182  1  0.03805095  0.64387443  0.15993028  1.0
  C  C183  1  0.29052229  0.82034334  0.03620885  1.0
  C  C184  1  0.41048919  0.76620169  0.00658334  1.0
  C  C185  1  0.51589590  0.72278300  0.04337167  1.0
  C  C186  1  0.61071575  0.66680206  0.02416415  1.0
  C  C187  1  0.60368302  0.65435016  0.96616153  1.0
  C  C188  1  0.51084406  0.70020874  0.92778856  1.0
  C  C189  1  0.41365518  0.75587012  0.94767857  1.0
  C  C190  1  0.71246881  0.62199748  0.06827626  1.0
  C  C191  1  0.67724296  0.58976999  0.94881003  1.0
  C  C192  1  0.12751977  0.84727244  0.00329518  1.0
  C  C193  1  0.39614435  0.87533036  0.03569812  1.0
  O  O194  1  0.53990724  0.17201384  0.48713622  1.0
  O  O195  1  0.45697083  0.06693500  0.56749003  1.0
  O  O196  1  0.44476631  0.27850491  0.48189388  1.0
  O  O197  1  0.77310173  0.98236541  0.57558849  1.0
  O  O198  1  0.84452480  0.19553893  0.52352008  1.0
  O  O199  1  0.25947421  0.25529988  0.58134422  1.0
  O  O200  1  0.01536959  0.26709905  0.49050246  1.0
  O  O201  1  0.99150642  0.36505110  0.59483820  1.0
  O  O202  1  0.69507586  0.46735668  0.20968538  1.0
  O  O203  1  0.70377009  0.31988090  0.58378260  1.0
  O  O204  1  0.92399444  0.49958828  0.15698290  1.0
  O  O205  1  0.37638126  0.57418205  0.22270604  1.0
  O  O206  1  0.93451486  0.46199228  0.04147966  1.0
  O  O207  1  0.92919818  0.54334859  0.27084711  1.0
  O  O208  1  0.80291687  0.39124750  0.01137031  1.0
  O  O209  1  0.57936728  0.52831100  0.31359793  1.0
  O  O210  1  0.89409265  0.08014057  0.43789529  1.0
  O  O211  1  0.41138415  0.53650638  0.07927299  1.0
  O  O212  1  0.66308039  0.03282778  0.46031573  1.0
  O  O213  1  0.99931968  0.93442698  0.43172620  1.0
  O  O214  1  0.91583456  0.86020097  0.38559991  1.0
  O  O215  1  0.34425452  0.86912251  0.37626624  1.0
  O  O216  1  0.25466754  0.78922462  0.34077819  1.0
  O  O217  1  0.57571645  0.69956393  0.34213473  1.0
  O  O218  1  0.56610105  0.67006287  0.25283135  1.0
  O  O219  1  0.01478547  0.26137070  0.69108166  1.0
  O  O220  1  0.90230843  0.35920726  0.71688714  1.0
  O  O221  1  0.11945386  0.35448603  0.82128209  1.0
  O  O222  1  0.86162025  0.40426209  0.85963898  1.0
  O  O223  1  0.37465806  0.39316651  0.88193499  1.0
  O  O224  1  0.12848036  0.39497352  0.94357531  1.0
  O  O225  1  0.33041979  0.45800965  0.01064498  1.0
  O  O226  1  0.25196542  0.41849117  0.10278923  1.0
  O  O227  1  0.46010418  0.82798786  0.51286131  1.0
  O  O228  1  0.54303320  0.93306334  0.43251042  1.0
  O  O229  1  0.55523240  0.72149678  0.51810595  1.0
  O  O230  1  0.22690463  0.01763628  0.42441318  1.0
  O  O231  1  0.15547918  0.80446229  0.47647610  1.0
  O  O232  1  0.74052768  0.74470325  0.41865529  1.0
  O  O233  1  0.98464948  0.73289690  0.50949415  1.0
  O  O234  1  0.00849995  0.63494772  0.40516339  1.0
  O  O235  1  0.30492223  0.53264645  0.79031734  1.0
  O  O236  1  0.29623416  0.68011983  0.41622015  1.0
  O  O237  1  0.07599726  0.50041485  0.84301706  1.0
  O  O238  1  0.62361788  0.42581869  0.77729389  1.0
  O  O239  1  0.06548913  0.53801181  0.95851920  1.0
  O  O240  1  0.07079608  0.45665167  0.72915396  1.0
  O  O241  1  0.19708376  0.60875275  0.98863092  1.0
  O  O242  1  0.42062465  0.47168878  0.68640201  1.0
  O  O243  1  0.10590435  0.91985922  0.56210182  1.0
  O  O244  1  0.58861818  0.46349292  0.92072785  1.0
  O  O245  1  0.33691959  0.96717105  0.53968223  1.0
  O  O246  1  0.00069785  0.06557808  0.56826629  1.0
  O  O247  1  0.08417220  0.13979977  0.61439795  1.0
  O  O248  1  0.65574462  0.13087823  0.62373325  1.0
  O  O249  1  0.74534220  0.21077515  0.65922096  1.0
  O  O250  1  0.42429309  0.30043632  0.65786611  1.0
  O  O251  1  0.43390319  0.32993786  0.74717010  1.0
  O  O252  1  0.98520562  0.73862812  0.30892017  1.0
  O  O253  1  0.09768841  0.64079012  0.28311723  1.0
  O  O254  1  0.88054465  0.64551614  0.17871942  1.0
  O  O255  1  0.13837659  0.59573529  0.14036408  1.0
  O  O256  1  0.62534426  0.60683279  0.11806411  1.0
  O  O257  1  0.87151559  0.60502579  0.05642320  1.0
  O  O258  1  0.66958187  0.54199397  0.98935317  1.0
  O  O259  1  0.74803137  0.58151197  0.89721050  1.0
  F  F260  1  0.32553840  0.20246143  0.30593773  1.0
  F  F261  1  0.34400146  0.25209053  0.21639710  1.0
  F  F262  1  0.22527679  0.30544992  0.28973741  1.0
  F  F263  1  0.10744342  0.12217576  0.30046224  1.0
  F  F264  1  0.21663321  0.14462361  0.20940911  1.0
  F  F265  1  0.93697294  0.14906811  0.23026715  1.0
  F  F266  1  0.97293054  0.93607205  0.16882279  1.0
  F  F267  1  0.88097041  0.03842862  0.14962411  1.0
  F  F268  1  0.80545800  0.97122095  0.09794071  1.0
  F  F269  1  0.46214194  0.98614627  0.13029961  1.0
  F  F270  1  0.53378175  0.07456872  0.14981972  1.0
  F  F271  1  0.37548166  0.01999468  0.21618595  1.0
  F  F272  1  0.98987616  0.11321870  0.96465193  1.0
  F  F273  1  0.83631604  0.11951848  0.05014397  1.0
  F  F274  1  0.95373332  0.20110388  0.00628940  1.0
  F  F275  1  0.52713975  0.10847284  0.01911434  1.0
  F  F276  1  0.70178636  0.07050571  0.94592675  1.0
  F  F277  1  0.47507655  0.14372588  0.92828672  1.0
  F  F278  1  0.67447339  0.79753359  0.69404975  1.0
  F  F279  1  0.65596876  0.74791216  0.78359473  1.0
  F  F280  1  0.77472765  0.69454460  0.71026002  1.0
  F  F281  1  0.89255461  0.87781878  0.69952896  1.0
  F  F282  1  0.78335229  0.85537907  0.79058422  1.0
  F  F283  1  0.06302382  0.85093216  0.76972642  1.0
  F  F284  1  0.02705861  0.06392535  0.83117452  1.0
  F  F285  1  0.11902579  0.96157307  0.85037974  1.0
  F  F286  1  0.19452922  0.02878650  0.90205672  1.0
  F  F287  1  0.53784173  0.01385207  0.86970261  1.0
  F  F288  1  0.46621163  0.92543060  0.85017630  1.0
  F  F289  1  0.62450730  0.98000893  0.78381667  1.0
  F  F290  1  0.01010322  0.88676955  0.03536783  1.0
  F  F291  1  0.16368082  0.88049611  0.94986866  1.0
  F  F292  1  0.04629467  0.79888920  0.99370674  1.0
  F  F293  1  0.47285199  0.89152741  0.98088902  1.0
  F  F294  1  0.29820455  0.92949072  0.05407800  1.0
  F  F295  1  0.52493173  0.85627436  0.07171635  1.0
