# generated using pymatgen
data_Cu3H18(C3N)7
_symmetry_space_group_name_H-M   'P 1'
_cell_length_a   29.99773237
_cell_length_b   30.04791872
_cell_length_c   30.20306569
_cell_angle_alpha   89.88891276
_cell_angle_beta   89.73141403
_cell_angle_gamma   90.83264663
_symmetry_Int_Tables_number   1
_chemical_formula_structural   Cu3H18(C3N)7
_chemical_formula_sum   'Cu12 H72 C84 N28'
_cell_volume   27220.89130410
_cell_formula_units_Z   4
loop_
 _symmetry_equiv_pos_site_id
 _symmetry_equiv_pos_as_xyz
  1  'x, y, z'
loop_
 _atom_site_type_symbol
 _atom_site_label
 _atom_site_symmetry_multiplicity
 _atom_site_fract_x
 _atom_site_fract_y
 _atom_site_fract_z
 _atom_site_occupancy
  Cu  Cu0  1  0.56967679  0.60651795  0.66228363  1.0
  Cu  Cu1  1  0.61443411  0.65455529  0.57920202  1.0
  Cu  Cu2  1  0.64826858  0.55974619  0.61132682  1.0
  Cu  Cu3  1  0.91783144  0.38473950  0.17372740  1.0
  Cu  Cu4  1  0.88364837  0.34428060  0.08336108  1.0
  Cu  Cu5  1  0.84343574  0.43498698  0.11991607  1.0
  Cu  Cu6  1  0.42913449  0.11296756  0.84923440  1.0
  Cu  Cu7  1  0.39092628  0.15389987  0.93806924  1.0
  Cu  Cu8  1  0.33611804  0.07857112  0.88885272  1.0
  Cu  Cu9  1  0.07662033  0.89126579  0.34987588  1.0
  Cu  Cu10  1  0.11470138  0.85066832  0.43831075  1.0
  Cu  Cu11  1  0.17052960  0.92519341  0.38745114  1.0
  H  H12  1  0.50125218  0.68006973  0.69242143  1.0
  H  H13  1  0.56021806  0.74476819  0.57749522  1.0
  H  H14  1  0.66464569  0.47671927  0.67458476  1.0
  H  H15  1  0.54891589  0.53451353  0.73730635  1.0
  H  H16  1  0.67848370  0.67126519  0.49679228  1.0
  H  H17  1  0.71629847  0.53770006  0.53393430  1.0
  H  H18  1  0.97965958  0.30637344  0.20705871  1.0
  H  H19  1  0.94426838  0.25846963  0.07641177  1.0
  H  H20  1  0.83214541  0.52164901  0.17914197  1.0
  H  H21  1  0.94191420  0.45800525  0.24573618  1.0
  H  H22  1  0.82776732  0.33236644  0.99548359  1.0
  H  H23  1  0.77422093  0.45640303  0.04383386  1.0
  H  H24  1  0.51680707  0.17277183  0.83679416  1.0
  H  H25  1  0.47242958  0.21622937  0.96621381  1.0
  H  H26  1  0.30803055  0.00827965  0.81578733  1.0
  H  H27  1  0.43548686  0.05331293  0.76296295  1.0
  H  H28  1  0.31812469  0.18633171  0.00737647  1.0
  H  H29  1  0.24767737  0.07517271  0.94721711  1.0
  H  H30  1  0.99000709  0.83017325  0.33716903  1.0
  H  H31  1  0.03559375  0.78421643  0.46507598  1.0
  H  H32  1  0.19917471  0.99329727  0.31180212  1.0
  H  H33  1  0.06900754  0.95167905  0.26441947  1.0
  H  H34  1  0.18507598  0.82133065  0.51018604  1.0
  H  H35  1  0.25847292  0.92889741  0.44608254  1.0
  H  H36  1  0.01411681  0.20874826  0.08511944  1.0
  H  H37  1  0.05602066  0.15767909  0.16429278  1.0
  H  H38  1  0.01322334  0.22259949  0.18619064  1.0
  H  H39  1  0.07146933  0.15060249  0.06297297  1.0
  H  H40  1  0.48740634  0.79415614  0.58208189  1.0
  H  H41  1  0.44394611  0.84172275  0.66283738  1.0
  H  H42  1  0.47832111  0.77023798  0.68093610  1.0
  H  H43  1  0.43192480  0.85473736  0.56182296  1.0
  H  H44  1  0.94256367  0.75645018  0.33809136  1.0
  H  H45  1  0.88962143  0.70476372  0.41145132  1.0
  H  H46  1  0.95263445  0.74928038  0.43931282  1.0
  H  H47  1  0.88834253  0.69767663  0.30905974  1.0
  H  H48  1  0.56352562  0.24662676  0.83839355  1.0
  H  H49  1  0.61960571  0.29490984  0.91102801  1.0
  H  H50  1  0.55719048  0.24913701  0.94019447  1.0
  H  H51  1  0.61619004  0.30616397  0.80902789  1.0
  H  H52  1  0.07584773  0.02164749  0.21397420  1.0
  H  H53  1  0.15467626  0.06427402  0.16036743  1.0
  H  H54  1  0.17764190  0.02474476  0.22692641  1.0
  H  H55  1  0.05270539  0.07847830  0.15517600  1.0
  H  H56  1  0.67282529  0.43677354  0.75332370  1.0
  H  H57  1  0.60139124  0.38638589  0.81054391  1.0
  H  H58  1  0.57240459  0.44979067  0.76952818  1.0
  H  H59  1  0.70462935  0.38476511  0.81292608  1.0
  H  H60  1  0.42944222  0.98140054  0.71462328  1.0
  H  H61  1  0.35013446  0.93956915  0.66200311  1.0
  H  H62  1  0.32779693  0.97795828  0.72955893  1.0
  H  H63  1  0.45181978  0.92373770  0.65547336  1.0
  H  H64  1  0.82703652  0.56559495  0.25670897  1.0
  H  H65  1  0.90234263  0.61548005  0.30850046  1.0
  H  H66  1  0.92687033  0.54788835  0.27033405  1.0
  H  H67  1  0.79943378  0.61934075  0.31570586  1.0
  H  H68  1  0.20039752  0.07846695  0.02267287  1.0
  H  H69  1  0.15448945  0.15979574  0.06682680  1.0
  H  H70  1  0.22632725  0.17767229  0.03049197  1.0
  H  H71  1  0.14125603  0.05823199  0.08046056  1.0
  H  H72  1  0.75074062  0.67106799  0.45057671  1.0
  H  H73  1  0.79895610  0.60012461  0.39321300  1.0
  H  H74  1  0.75354127  0.56864416  0.45350155  1.0
  H  H75  1  0.81026332  0.70274353  0.39808723  1.0
  H  H76  1  0.75553888  0.32999167  0.94787310  1.0
  H  H77  1  0.70506676  0.40199863  0.89393565  1.0
  H  H78  1  0.74510753  0.43123186  0.95855237  1.0
  H  H79  1  0.69769456  0.29902586  0.89411423  1.0
  H  H80  1  0.30418810  0.92759751  0.52315165  1.0
  H  H81  1  0.34853743  0.84593417  0.56814686  1.0
  H  H82  1  0.27673555  0.82894571  0.53308078  1.0
  H  H83  1  0.36345748  0.94721670  0.58181134  1.0
  C  C84  1  0.52027273  0.68974614  0.66319222  1.0
  C  C85  1  0.51818572  0.72913418  0.63804886  1.0
  C  C86  1  0.54967752  0.72252608  0.60403644  1.0
  C  C87  1  0.63690467  0.49696488  0.68524635  1.0
  C  C88  1  0.60675241  0.49034222  0.72063352  1.0
  C  C89  1  0.57726648  0.52611429  0.71662547  1.0
  C  C90  1  0.68334535  0.63902932  0.51216566  1.0
  C  C91  1  0.71130373  0.60403964  0.49927967  1.0
  C  C92  1  0.70206910  0.57057841  0.53080645  1.0
  C  C93  1  0.96632224  0.30077349  0.17413524  1.0
  C  C94  1  0.97492795  0.26593540  0.14434855  1.0
  C  C95  1  0.94888068  0.27653549  0.10718664  1.0
  C  C96  1  0.85785622  0.49971396  0.19121490  1.0
  C  C97  1  0.88859826  0.50617242  0.22579106  1.0
  C  C98  1  0.91451400  0.46753263  0.22452799  1.0
  C  C99  1  0.81876939  0.36203102  0.01372545  1.0
  C  C100  1  0.78789921  0.39521178  0.00306093  1.0
  C  C101  1  0.79208011  0.42574876  0.03811834  1.0
  C  C102  1  0.49946208  0.17923258  0.86769267  1.0
  C  C103  1  0.51137306  0.20777352  0.90278237  1.0
  C  C104  1  0.47709726  0.20076648  0.93409077  1.0
  C  C105  1  0.34012897  0.02405302  0.80889681  1.0
  C  C106  1  0.36936820  0.01755230  0.77299183  1.0
  C  C107  1  0.40554306  0.04641808  0.78224700  1.0
  C  C108  1  0.30702433  0.15790108  0.98798666  1.0
  C  C109  1  0.26630254  0.13411476  0.99008433  1.0
  C  C110  1  0.27129891  0.10059006  0.95799285  1.0
  C  C111  1  0.00747339  0.82333027  0.36777789  1.0
  C  C112  1  0.99644833  0.79332748  0.40217535  1.0
  C  C113  1  0.03047681  0.80048086  0.43339743  1.0
  C  C114  1  0.16646051  0.97840770  0.30635299  1.0
  C  C115  1  0.13639994  0.98555760  0.27151241  1.0
  C  C116  1  0.09972316  0.95778280  0.28241137  1.0
  C  C117  1  0.19698882  0.84880515  0.48972150  1.0
  C  C118  1  0.23802250  0.87201961  0.49125160  1.0
  C  C119  1  0.23419765  0.90433938  0.45770391  1.0
  C  C120  1  0.00407862  0.22886517  0.15168569  1.0
  C  C121  1  0.02159516  0.20212592  0.11996785  1.0
  C  C122  1  0.05055218  0.16584995  0.12943705  1.0
  C  C123  1  0.07236636  0.14192779  0.09809982  1.0
  C  C124  1  0.49038678  0.76701124  0.64682831  1.0
  C  C125  1  0.47752577  0.79799178  0.61680912  1.0
  C  C126  1  0.45022446  0.83525402  0.62773922  1.0
  C  C127  1  0.43049998  0.86178313  0.59727134  1.0
  C  C128  1  0.95982949  0.76178232  0.40590289  1.0
  C  C129  1  0.93480540  0.74561980  0.37195296  1.0
  C  C130  1  0.89918684  0.71372739  0.37754952  1.0
  C  C131  1  0.87785021  0.69307056  0.34348223  1.0
  C  C132  1  0.54876596  0.23833103  0.90661099  1.0
  C  C133  1  0.57273697  0.25578012  0.87226959  1.0
  C  C134  1  0.60861364  0.28733395  0.87735650  1.0
  C  C135  1  0.62824102  0.30949708  0.84294866  1.0
  C  C136  1  0.14312687  0.01442647  0.23375869  1.0
  C  C137  1  0.11077088  0.03010584  0.20675889  1.0
  C  C138  1  0.11972232  0.05842711  0.16944621  1.0
  C  C139  1  0.08789609  0.07946110  0.14569260  1.0
  C  C140  1  0.60489848  0.45550005  0.75365247  1.0
  C  C141  1  0.63954100  0.43021918  0.76715623  1.0
  C  C142  1  0.63517034  0.39559158  0.79974176  1.0
  C  C143  1  0.66999966  0.37449178  0.81879465  1.0
  C  C144  1  0.36234883  0.98844990  0.73562352  1.0
  C  C145  1  0.39447891  0.97288403  0.70803400  1.0
  C  C146  1  0.38516901  0.94482982  0.67077161  1.0
  C  C147  1  0.41658618  0.92356980  0.64644005  1.0
  C  C148  1  0.89369411  0.54317473  0.25595316  1.0
  C  C149  1  0.86100804  0.57125277  0.26881639  1.0
  C  C150  1  0.86794620  0.60699313  0.29960774  1.0
  C  C151  1  0.83439565  0.62902853  0.31995869  1.0
  C  C152  1  0.22870702  0.14338551  0.01855408  1.0
  C  C153  1  0.19720608  0.11341350  0.03232672  1.0
  C  C154  1  0.16050662  0.12450110  0.06071746  1.0
  C  C155  1  0.13432195  0.09380233  0.08182674  1.0
  C  C156  1  0.74261823  0.60193486  0.46294606  1.0
  C  C157  1  0.76008668  0.63744493  0.44053590  1.0
  C  C158  1  0.79143505  0.63364899  0.40487949  1.0
  C  C159  1  0.81321648  0.66877422  0.38568785  1.0
  C  C160  1  0.75822847  0.39817885  0.96569852  1.0
  C  C161  1  0.74437533  0.36362731  0.93997744  1.0
  C  C162  1  0.71382919  0.36823671  0.90395902  1.0
  C  C163  1  0.69350783  0.33339881  0.88322919  1.0
  C  C164  1  0.27497718  0.86300691  0.52030416  1.0
  C  C165  1  0.30672777  0.89277471  0.53351212  1.0
  C  C166  1  0.34304471  0.88132469  0.56194291  1.0
  C  C167  1  0.36970956  0.91149564  0.58286293  1.0
  N  N168  1  0.56878417  0.68245266  0.60881465  1.0
  N  N169  1  0.55028222  0.66193163  0.64538542  1.0
  N  N170  1  0.58923855  0.55212305  0.68203013  1.0
  N  N171  1  0.62606467  0.53379317  0.66234126  1.0
  N  N172  1  0.67149961  0.58474555  0.56025781  1.0
  N  N173  1  0.65966130  0.62717519  0.54846265  1.0
  N  N174  1  0.92681050  0.31461008  0.11451649  1.0
  N  N175  1  0.93787898  0.32987115  0.15598134  1.0
  N  N176  1  0.90001869  0.44017249  0.19217221  1.0
  N  N177  1  0.86507151  0.46034636  0.17121985  1.0
  N  N178  1  0.82260045  0.41160959  0.06740060  1.0
  N  N179  1  0.83939409  0.37217287  0.05204596  1.0
  N  N180  1  0.44696356  0.17100021  0.91858615  1.0
  N  N181  1  0.46108349  0.15737114  0.87747567  1.0
  N  N182  1  0.39819135  0.06816115  0.82053532  1.0
  N  N183  1  0.35768757  0.05404633  0.83727712  1.0
  N  N184  1  0.31176072  0.10432967  0.93857446  1.0
  N  N185  1  0.33411210  0.13969927  0.95746492  1.0
  N  N186  1  0.05956128  0.83177479  0.41854115  1.0
  N  N187  1  0.04506811  0.84617388  0.37791382  1.0
  N  N188  1  0.10757287  0.93601661  0.32060011  1.0
  N  N189  1  0.14892729  0.94904512  0.33566284  1.0
  N  N190  1  0.19408498  0.90042255  0.43796805  1.0
  N  N191  1  0.17081779  0.86616582  0.45812374  1.0
  N  N192  1  0.09712611  0.10422531  0.10753325  1.0
  N  N193  1  0.40679406  0.89991443  0.60792057  1.0
  N  N194  1  0.84093984  0.66479223  0.34877090  1.0
  N  N195  1  0.66496314  0.33807226  0.84725733  1.0
