# generated using pymatgen
data_AlH8C15ClO6
_symmetry_space_group_name_H-M   'P 1'
_cell_length_a   6.64978558
_cell_length_b   15.33068740
_cell_length_c   17.79203766
_cell_angle_alpha   88.60893621
_cell_angle_beta   79.36836029
_cell_angle_gamma   77.58758239
_symmetry_Int_Tables_number   1
_chemical_formula_structural   AlH8C15ClO6
_chemical_formula_sum   'Al2 H16 C30 Cl2 O12'
_cell_volume   1740.79391171
_cell_formula_units_Z   2
loop_
 _symmetry_equiv_pos_site_id
 _symmetry_equiv_pos_as_xyz
  1  'x, y, z'
loop_
 _atom_site_type_symbol
 _atom_site_label
 _atom_site_symmetry_multiplicity
 _atom_site_fract_x
 _atom_site_fract_y
 _atom_site_fract_z
 _atom_site_occupancy
  Al  Al0  1  0.99944068  0.49986106  0.49981075  1.0
  Al  Al1  1  0.49930721  0.49975640  0.50014628  1.0
  H  H2  1  0.17862851  0.55892245  0.58702750  1.0
  H  H3  1  0.81868724  0.44197572  0.41253125  1.0
  H  H4  1  0.09040667  0.45812582  0.26837975  1.0
  H  H5  1  0.16344146  0.44989093  0.12612150  1.0
  H  H6  1  0.68938226  0.57394121  0.12492278  1.0
  H  H7  1  0.31536587  0.42626773  0.87610539  1.0
  H  H8  1  0.91117657  0.54237537  0.73054081  1.0
  H  H9  1  0.84099467  0.55111274  0.87276304  1.0
  H  H10  1  0.76523907  0.06270707  0.53513051  1.0
  H  H11  1  0.23240407  0.93692923  0.46501087  1.0
  H  H12  1  0.91182179  0.77096064  0.52233151  1.0
  H  H13  1  0.83332132  0.93402769  0.52865367  1.0
  H  H14  1  0.08632397  0.22885706  0.47743387  1.0
  H  H15  1  0.16469926  0.06574920  0.47111437  1.0
  H  H16  1  0.66677334  0.29545376  0.53661406  1.0
  H  H17  1  0.33089661  0.70413879  0.46369091  1.0
  C  C18  1  0.66584653  0.66250168  0.49517261  1.0
  C  C19  1  0.69334066  0.48968995  0.63760260  1.0
  C  C20  1  0.33237223  0.33718722  0.50485993  1.0
  C  C21  1  0.30635173  0.51008934  0.36233909  1.0
  C  C22  1  0.35176773  0.51570335  0.27728490  1.0
  C  C23  1  0.22316424  0.48200218  0.23608035  1.0
  C  C24  1  0.26303511  0.47772690  0.15687854  1.0
  C  C25  1  0.43499379  0.50929192  0.11559832  1.0
  C  C26  1  0.56019524  0.54672883  0.15602953  1.0
  C  C27  1  0.51979876  0.54957771  0.23570184  1.0
  C  C28  1  0.48215874  0.50350713  0.03483206  1.0
  C  C29  1  0.52372787  0.49727041  0.96515226  1.0
  C  C30  1  0.56965681  0.49137885  0.88437512  1.0
  C  C31  1  0.44375845  0.45359632  0.84452585  1.0
  C  C32  1  0.48249644  0.45048540  0.76487063  1.0
  C  C33  1  0.64950059  0.48450084  0.72269722  1.0
  C  C34  1  0.77893560  0.51853369  0.76330706  1.0
  C  C35  1  0.74076172  0.52303425  0.84249880  1.0
  C  C36  1  0.38049903  0.23924238  0.50624830  1.0
  C  C37  1  0.61732374  0.76046416  0.49388896  1.0
  C  C38  1  0.57337985  0.19011293  0.52307543  1.0
  C  C39  1  0.61573690  0.09661836  0.52109989  1.0
  C  C40  1  0.42428966  0.80953523  0.47715269  1.0
  C  C41  1  0.38188293  0.90303922  0.47908319  1.0
  C  C42  1  0.76164995  0.80831038  0.51132586  1.0
  C  C43  1  0.71680260  0.90059297  0.51402414  1.0
  C  C44  1  0.23624771  0.19146005  0.48862831  1.0
  C  C45  1  0.28100357  0.09918142  0.48593832  1.0
  C  C46  1  0.47354354  0.04942370  0.50180835  1.0
  C  C47  1  0.52406076  0.95029888  0.49828091  1.0
  Cl  Cl48  1  0.67761405  0.59972327  0.27984831  1.0
  Cl  Cl49  1  0.32409556  0.39984896  0.72146102  1.0
  O  O50  1  0.84349083  0.62148278  0.50812147  1.0
  O  O51  1  0.53704264  0.50604827  0.60363207  1.0
  O  O52  1  0.47829330  0.37706096  0.51589011  1.0
  O  O53  1  0.11519086  0.51888057  0.39444551  1.0
  O  O54  1  0.15521448  0.37826999  0.49150627  1.0
  O  O55  1  0.46200517  0.49336395  0.39661259  1.0
  O  O56  1  0.51976687  0.62257312  0.48444536  1.0
  O  O57  1  0.88417609  0.48085852  0.60515261  1.0
  O  O58  1  0.21327524  0.53963693  0.53385122  1.0
  O  O59  1  0.78530147  0.46012936  0.46599052  1.0
  O  O60  1  0.72140913  0.22978806  0.54109511  1.0
  O  O61  1  0.27620627  0.76980176  0.45922123  1.0
