# generated using pymatgen
data_ZnH12C20NO4
_symmetry_space_group_name_H-M   'P 1'
_cell_length_a   20.07545465
_cell_length_b   20.24732828
_cell_length_c   20.24734861
_cell_angle_alpha   66.78401844
_cell_angle_beta   61.63608524
_cell_angle_gamma   61.63578948
_symmetry_Int_Tables_number   1
_chemical_formula_structural   ZnH12C20NO4
_chemical_formula_sum   'Zn8 H96 C160 N8 O32'
_cell_volume   6219.83394186
_cell_formula_units_Z   8
loop_
 _symmetry_equiv_pos_site_id
 _symmetry_equiv_pos_as_xyz
  1  'x, y, z'
loop_
 _atom_site_type_symbol
 _atom_site_label
 _atom_site_symmetry_multiplicity
 _atom_site_fract_x
 _atom_site_fract_y
 _atom_site_fract_z
 _atom_site_occupancy
  Zn  Zn0  1  0.57910260  0.07400019  0.54462654  1.0
  Zn  Zn1  1  0.92089863  0.45537390  0.92600123  1.0
  Zn  Zn2  1  0.42089590  0.92599771  0.45537593  1.0
  Zn  Zn3  1  0.07910071  0.54462630  0.07400044  1.0
  Zn  Zn4  1  0.48202789  0.14225508  0.67475579  1.0
  Zn  Zn5  1  0.01797275  0.32524274  0.85774967  1.0
  Zn  Zn6  1  0.51797471  0.85774396  0.32524482  1.0
  Zn  Zn7  1  0.98202357  0.67475803  0.14225071  1.0
  H  H8  1  0.31518551  0.24983037  0.71907830  1.0
  H  H9  1  0.18480828  0.28093242  0.75016307  1.0
  H  H10  1  0.68481644  0.75017040  0.28092292  1.0
  H  H11  1  0.81517974  0.71907870  0.24982821  1.0
  H  H12  1  0.32225485  0.01474567  0.80068063  1.0
  H  H13  1  0.17775114  0.19932854  0.98524839  1.0
  H  H14  1  0.67775037  0.98524476  0.19932611  1.0
  H  H15  1  0.82226097  0.80067392  0.01474400  1.0
  H  H16  1  0.19216115  0.44370226  0.83534559  1.0
  H  H17  1  0.30783769  0.16465672  0.55629542  1.0
  H  H18  1  0.80784030  0.55629679  0.16465704  1.0
  H  H19  1  0.69216001  0.83534347  0.44370159  1.0
  H  H20  1  0.21819175  0.39353603  0.08147029  1.0
  H  H21  1  0.28180814  0.91852852  0.60646795  1.0
  H  H22  1  0.78181763  0.60646759  0.91852637  1.0
  H  H23  1  0.71818803  0.08147111  0.39353493  1.0
  H  H24  1  0.74565600  0.19855938  0.41384119  1.0
  H  H25  1  0.75434371  0.58615999  0.80144245  1.0
  H  H26  1  0.25433530  0.80144428  0.58615891  1.0
  H  H27  1  0.24565457  0.41384309  0.19855809  1.0
  H  H28  1  0.12574194  0.82388215  0.99815741  1.0
  H  H29  1  0.37426435  0.00184164  0.17611321  1.0
  H  H30  1  0.87425084  0.17611920  0.00183698  1.0
  H  H31  1  0.62574411  0.99816141  0.82388459  1.0
  H  H32  1  0.93398447  0.39835120  0.21756573  1.0
  H  H33  1  0.56600480  0.78242886  0.60166179  1.0
  H  H34  1  0.06601211  0.60164899  0.78243081  1.0
  H  H35  1  0.43398998  0.21756676  0.39834824  1.0
  H  H36  1  0.63935950  0.41856078  0.53567194  1.0
  H  H37  1  0.86064380  0.46432265  0.58144548  1.0
  H  H38  1  0.36063808  0.58144573  0.46432510  1.0
  H  H39  1  0.13936523  0.53567580  0.41855485  1.0
  H  H40  1  0.47662033  0.90292962  0.61029008  1.0
  H  H41  1  0.02339554  0.38971921  0.09706322  1.0
  H  H42  1  0.52338370  0.09706252  0.38971406  1.0
  H  H43  1  0.97661735  0.61028267  0.90292903  1.0
  H  H44  1  0.57800916  0.31621515  0.59851122  1.0
  H  H45  1  0.92199351  0.40148890  0.68378999  1.0
  H  H46  1  0.42198691  0.68379080  0.40148971  1.0
  H  H47  1  0.07800345  0.59850845  0.31621983  1.0
  H  H48  1  0.24788953  0.90208077  0.93308519  1.0
  H  H49  1  0.25211384  0.06691873  0.09791250  1.0
  H  H50  1  0.75211007  0.09790965  0.06691872  1.0
  H  H51  1  0.74789003  0.93308146  0.90208806  1.0
  H  H52  1  0.17875037  0.95934788  0.88445375  1.0
  H  H53  1  0.32125648  0.11554594  0.04064933  1.0
  H  H54  1  0.82125089  0.04065174  0.11554677  1.0
  H  H55  1  0.67875216  0.88444907  0.95934957  1.0
  H  H56  1  0.31083797  0.29533417  0.00086468  1.0
  H  H57  1  0.18916189  0.99913938  0.70466673  1.0
  H  H58  1  0.68917408  0.70467290  0.99912987  1.0
  H  H59  1  0.81083026  0.00086656  0.29533058  1.0
  H  H60  1  0.22058842  0.33718023  0.81100210  1.0
  H  H61  1  0.27940758  0.18900764  0.66281301  1.0
  H  H62  1  0.77941912  0.66282225  0.18899635  1.0
  H  H63  1  0.72057981  0.81100520  0.33717640  1.0
  H  H64  1  0.71917487  0.51032513  0.44552859  1.0
  H  H65  1  0.78082185  0.55447088  0.48967856  1.0
  H  H66  1  0.28083119  0.48967218  0.55447307  1.0
  H  H67  1  0.21917581  0.44552472  0.51032521  1.0
  H  H68  1  0.32754385  0.71330117  0.76604613  1.0
  H  H69  1  0.17246462  0.23395472  0.28669225  1.0
  H  H70  1  0.67246188  0.28669097  0.23395673  1.0
  H  H71  1  0.82753094  0.76604204  0.71330957  1.0
  H  H72  1  0.81416546  0.57745191  0.34217294  1.0
  H  H73  1  0.68582392  0.65782486  0.42255756  1.0
  H  H74  1  0.18583718  0.42254712  0.65782420  1.0
  H  H75  1  0.31417046  0.34217191  0.57744925  1.0
  H  H76  1  0.41389387  0.80304121  0.67336350  1.0
  H  H77  1  0.08612187  0.32664137  0.19695175  1.0
  H  H78  1  0.58611136  0.19694921  0.32664125  1.0
  H  H79  1  0.91388471  0.67335765  0.80304554  1.0
  H  H80  1  0.23107638  0.64907441  0.87201169  1.0
  H  H81  1  0.26892249  0.12798135  0.35092748  1.0
  H  H82  1  0.76891387  0.35092923  0.12798100  1.0
  H  H83  1  0.73107380  0.87201943  0.64907587  1.0
  H  H84  1  0.49703160  0.16627525  0.80447034  1.0
  H  H85  1  0.00296757  0.19553253  0.83372353  1.0
  H  H86  1  0.50297696  0.83373067  0.19552184  1.0
  H  H87  1  0.99702285  0.80447514  0.16627046  1.0
  H  H88  1  0.10145295  0.53224239  0.92604509  1.0
  H  H89  1  0.39854618  0.07395393  0.46775803  1.0
  H  H90  1  0.89854916  0.46775493  0.07395692  1.0
  H  H91  1  0.60145355  0.92604224  0.53224357  1.0
  H  H92  1  0.41442280  0.25512657  0.89570656  1.0
  H  H93  1  0.08557659  0.10429821  0.74487093  1.0
  H  H94  1  0.58558887  0.74487704  0.10428706  1.0
  H  H95  1  0.91441289  0.89570889  0.25512470  1.0
  H  H96  1  0.81475667  0.31545281  0.27939815  1.0
  H  H97  1  0.68524387  0.72060095  0.68454750  1.0
  H  H98  1  0.18524504  0.68454565  0.72060063  1.0
  H  H99  1  0.31475593  0.27939809  0.31545145  1.0
  H  H100  1  0.88402393  0.26221079  0.32807650  1.0
  H  H101  1  0.61597865  0.67192107  0.73779379  1.0
  H  H102  1  0.11597167  0.73778884  0.67192713  1.0
  H  H103  1  0.38402444  0.32807510  0.26220970  1.0
  C  C104  1  0.33301590  0.25220608  0.76089741  1.0
  C  C105  1  0.16697955  0.23910964  0.74779129  1.0
  C  C106  1  0.66698628  0.74779411  0.23910344  1.0
  C  C107  1  0.83300994  0.76089746  0.25220384  1.0
  C  C108  1  0.93490888  0.53314863  0.21396029  1.0
  C  C109  1  0.56508214  0.78603269  0.46686003  1.0
  C  C110  1  0.06508586  0.46685501  0.78603377  1.0
  C  C111  1  0.43492019  0.21396406  0.53314112  1.0
  C  C112  1  0.25910990  0.36077518  0.91080280  1.0
  C  C113  1  0.24089046  0.08919877  0.63922462  1.0
  C  C114  1  0.74089792  0.63922500  0.08919692  1.0
  C  C115  1  0.75910277  0.91080430  0.36077382  1.0
  C  C116  1  0.31033032  0.30511345  0.86049245  1.0
  C  C117  1  0.18966786  0.13951269  0.69488340  1.0
  C  C118  1  0.68967719  0.69488615  0.13950418  1.0
  C  C119  1  0.81032311  0.86049498  0.30511182  1.0
  C  C120  1  0.61800106  0.19419403  0.54679503  1.0
  C  C121  1  0.88199526  0.45320799  0.80580999  1.0
  C  C122  1  0.38199487  0.80580618  0.45320971  1.0
  C  C123  1  0.11799364  0.54679282  0.19419975  1.0
  C  C124  1  0.11764619  0.69285457  0.00380885  1.0
  C  C125  1  0.38235635  0.99618546  0.30714586  1.0
  C  C126  1  0.88234915  0.30714735  0.99619005  1.0
  C  C127  1  0.61764803  0.00381186  0.69285511  1.0
  C  C128  1  0.40391311  0.96332339  0.70258349  1.0
  C  C129  1  0.09609314  0.29742330  0.03667349  1.0
  C  C130  1  0.59608710  0.03666991  0.29742049  1.0
  C  C131  1  0.90391648  0.70257974  0.96332130  1.0
  C  C132  1  0.44479970  0.02111053  0.66523601  1.0
  C  C133  1  0.05520147  0.33477046  0.97888762  1.0
  C  C134  1  0.55520488  0.97888332  0.33476029  1.0
  C  C135  1  0.94479750  0.66523835  0.02111034  1.0
  C  C136  1  0.65843354  0.25243299  0.50952374  1.0
  C  C137  1  0.84156747  0.49047639  0.74756939  1.0
  C  C138  1  0.34156070  0.74757182  0.49047700  1.0
  C  C139  1  0.15842820  0.50952151  0.25243439  1.0
  C  C140  1  0.34054275  0.96827077  0.77423195  1.0
  C  C141  1  0.15946478  0.22577677  0.03172248  1.0
  C  C142  1  0.65946248  0.03171965  0.22577280  1.0
  C  C143  1  0.84054574  0.77422685  0.96827216  1.0
  C  C144  1  0.30341099  0.91421116  0.80886440  1.0
  C  C145  1  0.19660024  0.19113884  0.08578272  1.0
  C  C146  1  0.69659622  0.08578155  0.19113755  1.0
  C  C147  1  0.80340989  0.80886133  0.91421198  1.0
  C  C148  1  0.87881299  0.49182325  0.27451337  1.0
  C  C149  1  0.62117639  0.72548323  0.50818515  1.0
  C  C150  1  0.12118572  0.50817578  0.72548213  1.0
  C  C151  1  0.37881998  0.27451583  0.49181884  1.0
  C  C152  1  0.19976868  0.42913358  0.88976820  1.0
  C  C153  1  0.30023275  0.11023276  0.57086633  1.0
  C  C154  1  0.80023604  0.57086431  0.11023337  1.0
  C  C155  1  0.69976613  0.88976571  0.42913327  1.0
  C  C156  1  0.75803701  0.30343936  0.40373505  1.0
  C  C157  1  0.74196524  0.59626389  0.69656216  1.0
  C  C158  1  0.24195925  0.69656314  0.59626320  1.0
  C  C159  1  0.25803717  0.40373572  0.30343634  1.0
  C  C160  1  0.21488891  0.40137321  0.02652880  1.0
  C  C161  1  0.28511159  0.97347028  0.59862885  1.0
  C  C162  1  0.78511815  0.59862755  0.97346907  1.0
  C  C163  1  0.71488571  0.02652934  0.40137301  1.0
  C  C164  1  0.77321465  0.41661189  0.38825186  1.0
  C  C165  1  0.72678294  0.61174607  0.58339377  1.0
  C  C166  1  0.22678584  0.58338830  0.61174780  1.0
  C  C167  1  0.27321675  0.38825011  0.41661130  1.0
  C  C168  1  0.72379218  0.24696455  0.43914466  1.0
  C  C169  1  0.77620765  0.56085660  0.75303598  1.0
  C  C170  1  0.27620102  0.75303853  0.56085577  1.0
  C  C171  1  0.22379070  0.43914475  0.24696520  1.0
  C  C172  1  0.22374822  0.83667287  0.88911146  1.0
  C  C173  1  0.27625558  0.11088715  0.16332625  1.0
  C  C174  1  0.77624765  0.16332617  0.11088536  1.0
  C  C175  1  0.72374885  0.88911304  0.83667455  1.0
  C  C176  1  0.17343215  0.73315457  0.94026222  1.0
  C  C177  1  0.32656886  0.05973464  0.26684422  1.0
  C  C178  1  0.82656078  0.26684792  0.05973066  1.0
  C  C179  1  0.67343337  0.94026842  0.73315597  1.0
  C  C180  1  0.17007789  0.80116847  0.94695535  1.0
  C  C181  1  0.32992586  0.05304280  0.19882847  1.0
  C  C182  1  0.82991544  0.19883287  0.05304076  1.0
  C  C183  1  0.67008042  0.94695853  0.80116953  1.0
  C  C184  1  0.83321252  0.38522471  0.32346289  1.0
  C  C185  1  0.66678711  0.67653187  0.61478038  1.0
  C  C186  1  0.16678829  0.61477317  0.67653456  1.0
  C  C187  1  0.33321471  0.32346316  0.38522365  1.0
  C  C188  1  0.88647251  0.42203456  0.26730289  1.0
  C  C189  1  0.61352265  0.73269149  0.57797271  1.0
  C  C190  1  0.11352618  0.57796448  0.73269410  1.0
  C  C191  1  0.38647593  0.26730469  0.42203041  1.0
  C  C192  1  0.72727100  0.36572262  0.43820785  1.0
  C  C193  1  0.77273091  0.56178987  0.63427820  1.0
  C  C194  1  0.27272703  0.63427815  0.56179124  1.0
  C  C195  1  0.22727036  0.43820975  0.36572182  1.0
  C  C196  1  0.32997795  0.85360136  0.77357582  1.0
  C  C197  1  0.17003225  0.22642739  0.14639240  1.0
  C  C198  1  0.67002899  0.14638905  0.22642716  1.0
  C  C199  1  0.82997314  0.77357336  0.85360378  1.0
  C  C200  1  0.66283196  0.37081871  0.50878012  1.0
  C  C201  1  0.83717056  0.49121912  0.62918479  1.0
  C  C202  1  0.33716456  0.62918608  0.49121859  1.0
  C  C203  1  0.16283337  0.50877934  0.37081790  1.0
  C  C204  1  0.42917600  0.90405344  0.66699261  1.0
  C  C205  1  0.07083684  0.33301651  0.09594004  1.0
  C  C206  1  0.57082924  0.09593698  0.33301215  1.0
  C  C207  1  0.92917389  0.66698653  0.90405622  1.0
  C  C208  1  0.62879436  0.31397511  0.54396245  1.0
  C  C209  1  0.87120821  0.45603660  0.68603126  1.0
  C  C210  1  0.37120252  0.68603026  0.45603586  1.0
  C  C211  1  0.12878947  0.54396189  0.31397581  1.0
  C  C212  1  0.23403485  0.90786215  0.88408213  1.0
  C  C213  1  0.26597113  0.11591867  0.09213309  1.0
  C  C214  1  0.76596610  0.09213230  0.11591809  1.0
  C  C215  1  0.73403623  0.88407979  0.90786407  1.0
  C  C216  1  0.26688114  0.34781056  0.98057607  1.0
  C  C217  1  0.23311937  0.01942595  0.65219052  1.0
  C  C218  1  0.73312950  0.65218962  0.01942382  1.0
  C  C219  1  0.76687491  0.98057426  0.34781053  1.0
  C  C220  1  0.28194141  0.30184871  0.81088328  1.0
  C  C221  1  0.21805484  0.18912560  0.69814576  1.0
  C  C222  1  0.71806338  0.69815205  0.18911613  1.0
  C  C223  1  0.78193556  0.81088667  0.30184594  1.0
  C  C224  1  0.76556672  0.48595324  0.39575337  1.0
  C  C225  1  0.73442703  0.60424436  0.51405256  1.0
  C  C226  1  0.23443598  0.51404407  0.60424590  1.0
  C  C227  1  0.26556883  0.39575298  0.48595432  1.0
  C  C228  1  0.28356407  0.73800928  0.81625066  1.0
  C  C229  1  0.21644165  0.18374807  0.26198750  1.0
  C  C230  1  0.71643724  0.26198573  0.18374769  1.0
  C  C231  1  0.78355666  0.81625040  0.73801336  1.0
  C  C232  1  0.28081888  0.80535368  0.82353281  1.0
  C  C233  1  0.21918754  0.17646682  0.19464378  1.0
  C  C234  1  0.71918085  0.19464249  0.17646780  1.0
  C  C235  1  0.78081544  0.82353279  0.80535446  1.0
  C  C236  1  0.81813630  0.52339109  0.33836400  1.0
  C  C237  1  0.68185423  0.66163222  0.47661714  1.0
  C  C238  1  0.18186407  0.47660795  0.66163369  1.0
  C  C239  1  0.31814251  0.33836281  0.52338777  1.0
  C  C240  1  0.39328538  0.84845924  0.70224404  1.0
  C  C241  1  0.10672780  0.29776200  0.15153366  1.0
  C  C242  1  0.60671986  0.15153118  0.29776071  1.0
  C  C243  1  0.89328161  0.70223702  0.84846331  1.0
  C  C244  1  0.22996037  0.70220651  0.87497959  1.0
  C  C245  1  0.27004276  0.12501547  0.29779259  1.0
  C  C246  1  0.77003452  0.29779368  0.12501526  1.0
  C  C247  1  0.72995737  0.87498415  0.70220845  1.0
  C  C248  1  0.43561196  0.20585324  0.80800984  1.0
  C  C249  1  0.06438689  0.19199323  0.79414533  1.0
  C  C250  1  0.56439673  0.79414923  0.19198560  1.0
  C  C251  1  0.93560223  0.80801330  0.20585168  1.0
  C  C252  1  0.14969984  0.47947195  0.93904920  1.0
  C  C253  1  0.35029814  0.06095077  0.52053142  1.0
  C  C254  1  0.85030083  0.52052768  0.06095406  1.0
  C  C255  1  0.64970171  0.93904655  0.47947065  1.0
  C  C256  1  0.38875615  0.25486929  0.85898291  1.0
  C  C257  1  0.11124238  0.14102282  0.74512729  1.0
  C  C258  1  0.61125276  0.74513261  0.14101266  1.0
  C  C259  1  0.88874555  0.85898543  0.25486811  1.0
  C  C260  1  0.82722089  0.31164663  0.32855250  1.0
  C  C261  1  0.67277731  0.67144765  0.68835670  1.0
  C  C262  1  0.17277608  0.68835242  0.67144826  1.0
  C  C263  1  0.32722267  0.32855083  0.31164585  1.0
  N  N264  1  0.15676492  0.46564422  0.00651272  1.0
  N  N265  1  0.34323393  0.99348427  0.53436145  1.0
  N  N266  1  0.84323562  0.53435884  0.99348727  1.0
  N  N267  1  0.65676569  0.00651364  0.46564248  1.0
  N  N268  1  0.40853464  0.20515890  0.75901499  1.0
  N  N269  1  0.09146259  0.24099011  0.79484131  1.0
  N  N270  1  0.59147001  0.79484071  0.24098494  1.0
  N  N271  1  0.90852630  0.75901700  0.20515706  1.0
  O  O272  1  0.49312500  0.02225929  0.59567293  1.0
  O  O273  1  0.00687604  0.40433000  0.97774270  1.0
  O  O274  1  0.50687686  0.97773113  0.40433043  1.0
  O  O275  1  0.99311803  0.59566448  0.02226910  1.0
  O  O276  1  0.06507671  0.72538830  0.05999456  1.0
  O  O277  1  0.43492938  0.94000483  0.27460770  1.0
  O  O278  1  0.93493116  0.27460269  0.94000677  1.0
  O  O279  1  0.56506474  0.05999711  0.72540015  1.0
  O  O280  1  0.55744355  0.20390152  0.60927379  1.0
  O  O281  1  0.94255124  0.39072692  0.79610917  1.0
  O  O282  1  0.44255501  0.79610044  0.39074187  1.0
  O  O283  1  0.05743012  0.60926068  0.20390925  1.0
  O  O284  1  0.00051772  0.49462476  0.16870484  1.0
  O  O285  1  0.49947341  0.83129077  0.50538253  1.0
  O  O286  1  0.99948710  0.50537140  0.83129538  1.0
  O  O287  1  0.50051787  0.16870370  0.49462563  1.0
  O  O288  1  0.64589759  0.14011236  0.51286759  1.0
  O  O289  1  0.85409872  0.48713893  0.85989050  1.0
  O  O290  1  0.35408755  0.85989707  0.48713902  1.0
  O  O291  1  0.14590510  0.51286757  0.14010316  1.0
  O  O292  1  0.91198370  0.60425555  0.21203820  1.0
  O  O293  1  0.58800962  0.78795279  0.39575207  1.0
  O  O294  1  0.08800713  0.39574520  0.78794646  1.0
  O  O295  1  0.41199798  0.21205545  0.60424951  1.0
  O  O296  1  0.12701727  0.62878774  0.99705285  1.0
  O  O297  1  0.37297562  0.00294098  0.37121665  1.0
  O  O298  1  0.87297631  0.37121302  0.00293992  1.0
  O  O299  1  0.62702325  0.99706497  0.62878643  1.0
  O  O300  1  0.42815279  0.06475827  0.70653239  1.0
  O  O301  1  0.07184441  0.29346958  0.93524925  1.0
  O  O302  1  0.57184354  0.93524709  0.29346321  1.0
  O  O303  1  0.92816317  0.70653748  0.06474244  1.0
