# generated using pymatgen
data_AlH7C14N6O17
_symmetry_space_group_name_H-M   'P 1'
_cell_length_a   6.96388398
_cell_length_b   20.30657981
_cell_length_c   23.57139605
_cell_angle_alpha   89.99994470
_cell_angle_beta   89.99482361
_cell_angle_gamma   89.99995577
_symmetry_Int_Tables_number   1
_chemical_formula_structural   AlH7C14N6O17
_chemical_formula_sum   'Al4 H28 C56 N24 O68'
_cell_volume   3333.29393910
_cell_formula_units_Z   4
loop_
 _symmetry_equiv_pos_site_id
 _symmetry_equiv_pos_as_xyz
  1  'x, y, z'
loop_
 _atom_site_type_symbol
 _atom_site_label
 _atom_site_symmetry_multiplicity
 _atom_site_fract_x
 _atom_site_fract_y
 _atom_site_fract_z
 _atom_site_occupancy
  Al  Al0  1  0.03561587  0.74993803  0.49988488  1.0
  Al  Al1  1  0.46443272  0.25006089  0.99987977  1.0
  Al  Al2  1  0.53561699  0.75006210  0.50011717  1.0
  Al  Al3  1  0.96442988  0.24993587  0.00011487  1.0
  H  H4  1  0.23838057  0.46977994  0.34879088  1.0
  H  H5  1  0.26164870  0.53021176  0.84878759  1.0
  H  H6  1  0.73841964  0.03022566  0.65121122  1.0
  H  H7  1  0.76161496  0.96978937  0.15119044  1.0
  H  H8  1  0.41939121  0.39654295  0.26204890  1.0
  H  H9  1  0.08061953  0.60344097  0.76204728  1.0
  H  H10  1  0.91941101  0.10344996  0.73795487  1.0
  H  H11  1  0.58062202  0.89651720  0.23791170  1.0
  H  H12  1  0.01164565  0.52159452  0.17406715  1.0
  H  H13  1  0.48847321  0.47840970  0.67406320  1.0
  H  H14  1  0.51157234  0.97840861  0.82593101  1.0
  H  H15  1  0.98833102  0.02156583  0.32593065  1.0
  H  H16  1  0.93509421  0.45972590  0.22150945  1.0
  H  H17  1  0.56496994  0.54027673  0.72149695  1.0
  H  H18  1  0.43506264  0.04028323  0.77849931  1.0
  H  H19  1  0.06487103  0.95970708  0.27847188  1.0
  H  H20  1  0.54916818  0.56408408  0.25705504  1.0
  H  H21  1  0.95092070  0.43589635  0.75705788  1.0
  H  H22  1  0.04911568  0.93589484  0.74293807  1.0
  H  H23  1  0.45079613  0.06405218  0.24293509  1.0
  H  H24  1  0.47033047  0.48472610  0.32228968  1.0
  H  H25  1  0.02970642  0.51525627  0.82229406  1.0
  H  H26  1  0.97035024  0.01526670  0.67770774  1.0
  H  H27  1  0.52965807  0.98472121  0.17769842  1.0
  H  H28  1  0.78535808  0.66384889  0.51005267  1.0
  H  H29  1  0.71469221  0.33613380  0.01010394  1.0
  H  H30  1  0.28535898  0.83614924  0.48995089  1.0
  H  H31  1  0.21470198  0.16384082  0.98998889  1.0
  C  C32  1  0.78510811  0.82292792  0.42157036  1.0
  C  C33  1  0.71499408  0.17706019  0.92158416  1.0
  C  C34  1  0.28505323  0.67706183  0.57841920  1.0
  C  C35  1  0.21494148  0.32293856  0.07841999  1.0
  C  C36  1  0.78687524  0.82880474  0.57439624  1.0
  C  C37  1  0.71312989  0.17120299  0.07440018  1.0
  C  C38  1  0.28690620  0.67120323  0.42560090  1.0
  C  C39  1  0.21315110  0.32879479  0.92560233  1.0
  C  C40  1  0.05257682  0.54658633  0.26179950  1.0
  C  C41  1  0.44749860  0.45341484  0.76179352  1.0
  C  C42  1  0.55253944  0.95342312  0.73819689  1.0
  C  C43  1  0.94738152  0.04658344  0.23820337  1.0
  C  C44  1  0.40683035  0.56388972  0.23749046  1.0
  C  C45  1  0.09326510  0.43608783  0.73749068  1.0
  C  C46  1  0.90677272  0.93609288  0.76250399  1.0
  C  C47  1  0.59312534  0.06386686  0.26250307  1.0
  C  C48  1  0.39650199  0.50907846  0.19192907  1.0
  C  C49  1  0.10359404  0.49090259  0.69192254  1.0
  C  C50  1  0.89643876  0.99090367  0.80807124  1.0
  C  C51  1  0.60344867  0.00904764  0.30806068  1.0
  C  C52  1  0.21674699  0.36734778  0.12606413  1.0
  C  C53  1  0.28325528  0.63264419  0.62605792  1.0
  C  C54  1  0.71678427  0.13264211  0.87394336  1.0
  C  C55  1  0.78330032  0.86733228  0.37392237  1.0
  C  C56  1  0.25916267  0.55039422  0.28673861  1.0
  C  C57  1  0.24091268  0.44959312  0.78673988  1.0
  C  C58  1  0.75912245  0.94960839  0.71325266  1.0
  C  C59  1  0.74081582  0.05039081  0.21325663  1.0
  C  C60  1  0.04640162  0.49653904  0.21386610  1.0
  C  C61  1  0.45366632  0.50346514  0.71385691  1.0
  C  C62  1  0.54636865  0.00346844  0.78613386  1.0
  C  C63  1  0.95356411  0.99652230  0.28612836  1.0
  C  C64  1  0.23579212  0.45775683  0.20738437  1.0
  C  C65  1  0.26425579  0.54223602  0.70737589  1.0
  C  C66  1  0.73576102  0.04224040  0.79261612  1.0
  C  C67  1  0.76417884  0.95773112  0.29259569  1.0
  C  C68  1  0.29010967  0.42692191  0.26581278  1.0
  C  C69  1  0.20991599  0.57306694  0.76580862  1.0
  C  C70  1  0.79012708  0.07307669  0.73418889  1.0
  C  C71  1  0.70990109  0.92690918  0.23416264  1.0
  C  C72  1  0.31887327  0.48109986  0.31022247  1.0
  C  C73  1  0.18116787  0.51888549  0.81022311  1.0
  C  C74  1  0.81888597  0.01889819  0.68977528  1.0
  C  C75  1  0.68112671  0.98110300  0.18976309  1.0
  C  C76  1  0.21986757  0.40804048  0.16357859  1.0
  C  C77  1  0.28018194  0.59194948  0.66356870  1.0
  C  C78  1  0.71983553  0.09195187  0.83642667  1.0
  C  C79  1  0.78012857  0.90801074  0.33639854  1.0
  C  C80  1  0.27754671  0.59649500  0.33324847  1.0
  C  C81  1  0.22251634  0.40349426  0.83325293  1.0
  C  C82  1  0.77751386  0.90351053  0.66674304  1.0
  C  C83  1  0.72242808  0.09650152  0.16675436  1.0
  C  C84  1  0.28573130  0.62900512  0.37627674  1.0
  C  C85  1  0.21433177  0.37099394  0.87628150  1.0
  C  C86  1  0.78569944  0.87099695  0.62371237  1.0
  C  C87  1  0.71430423  0.12900678  0.12372140  1.0
  N  N88  1  0.90680264  0.52834009  0.31056444  1.0
  N  N89  1  0.59324216  0.47166884  0.81055784  1.0
  N  N90  1  0.40680618  0.97168240  0.68943341  1.0
  N  N91  1  0.09317125  0.02836169  0.18943336  1.0
  N  N92  1  0.96698310  0.61428315  0.24195186  1.0
  N  N93  1  0.53314377  0.38572291  0.74194902  1.0
  N  N94  1  0.46689481  0.88573036  0.75803679  1.0
  N  N95  1  0.03291726  0.11428362  0.25806581  1.0
  N  N96  1  0.38315991  0.63417683  0.21466315  1.0
  N  N97  1  0.11695235  0.36581060  0.71466562  1.0
  N  N98  1  0.88306874  0.86581026  0.78532869  1.0
  N  N99  1  0.61673209  0.13414847  0.28533923  1.0
  N  N100  1  0.38061601  0.53692713  0.12971409  1.0
  N  N101  1  0.11954767  0.46304859  0.62971257  1.0
  N  N102  1  0.88048906  0.96305061  0.87028208  1.0
  N  N103  1  0.61934508  0.03688438  0.37027649  1.0
  N  N104  1  0.58516394  0.46951277  0.18976361  1.0
  N  N105  1  0.91492771  0.53045198  0.68975525  1.0
  N  N106  1  0.08510618  0.03045376  0.81023889  1.0
  N  N107  1  0.41479855  0.96947201  0.31021942  1.0
  N  N108  1  0.14369724  0.37504182  0.28650513  1.0
  N  N109  1  0.35630206  0.62495537  0.78649778  1.0
  N  N110  1  0.64373308  0.12496496  0.71350265  1.0
  N  N111  1  0.85632576  0.87503965  0.21345973  1.0
  O  O112  1  0.62199810  0.81313660  0.55540391  1.0
  O  O113  1  0.87801721  0.18687312  0.05540621  1.0
  O  O114  1  0.12202053  0.68686679  0.44459952  1.0
  O  O115  1  0.37803953  0.31312973  0.94458873  1.0
  O  O116  1  0.94978691  0.80658919  0.44021525  1.0
  O  O117  1  0.55030375  0.19341121  0.94022217  1.0
  O  O118  1  0.44974809  0.69340613  0.55977608  1.0
  O  O119  1  0.05025958  0.30659527  0.05977511  1.0
  O  O120  1  0.95143493  0.81275363  0.55555290  1.0
  O  O121  1  0.54859039  0.18724674  0.05555759  1.0
  O  O122  1  0.45145022  0.68725647  0.44443669  1.0
  O  O123  1  0.04859695  0.31274104  0.94444102  1.0
  O  O124  1  0.12058553  0.69352171  0.55965679  1.0
  O  O125  1  0.37943079  0.30648167  0.05965046  1.0
  O  O126  1  0.62063437  0.80647135  0.44034329  1.0
  O  O127  1  0.87947062  0.19351478  0.94034571  1.0
  O  O128  1  0.78558767  0.71065293  0.50184778  1.0
  O  O129  1  0.71444731  0.28934356  0.00184734  1.0
  O  O130  1  0.28559609  0.78934470  0.49815279  1.0
  O  O131  1  0.21446296  0.21065225  0.99815810  1.0
  O  O132  1  0.92180454  0.47256455  0.33018630  1.0
  O  O133  1  0.78817922  0.56993855  0.32495416  1.0
  O  O134  1  0.57824861  0.52745224  0.83016573  1.0
  O  O135  1  0.71184356  0.43007283  0.82496065  1.0
  O  O136  1  0.42181540  0.02746332  0.66982247  1.0
  O  O137  1  0.28818987  0.93008764  0.67503148  1.0
  O  O138  1  0.07816230  0.97259753  0.16978696  1.0
  O  O139  1  0.21178948  0.06996829  0.17505888  1.0
  O  O140  1  0.84232418  0.61017084  0.20504521  1.0
  O  O141  1  0.02268432  0.66421867  0.26581074  1.0
  O  O142  1  0.65783858  0.38983181  0.70504291  1.0
  O  O143  1  0.47743898  0.33578544  0.76580641  1.0
  O  O144  1  0.34221442  0.88983948  0.79494501  1.0
  O  O145  1  0.52260038  0.83579773  0.73417349  1.0
  O  O146  1  0.15756607  0.11017987  0.29497756  1.0
  O  O147  1  0.97716356  0.16421868  0.23421707  1.0
  O  O148  1  0.26574867  0.64298988  0.17605685  1.0
  O  O149  1  0.47731455  0.67638471  0.23924562  1.0
  O  O150  1  0.23439844  0.35699316  0.67606011  1.0
  O  O151  1  0.02281352  0.32359629  0.73925207  1.0
  O  O152  1  0.76562109  0.85699696  0.82393377  1.0
  O  O153  1  0.97721276  0.82359922  0.76074184  1.0
  O  O154  1  0.73411185  0.14297355  0.32395443  1.0
  O  O155  1  0.52255935  0.17635018  0.26075207  1.0
  O  O156  1  0.52111998  0.56904909  0.11505331  1.0
  O  O157  1  0.23871275  0.52292690  0.10159506  1.0
  O  O158  1  0.97904654  0.43092609  0.61505140  1.0
  O  O159  1  0.26147902  0.47705032  0.60159988  1.0
  O  O160  1  0.02098546  0.93092792  0.88494327  1.0
  O  O161  1  0.73855646  0.97705064  0.89839603  1.0
  O  O162  1  0.47884440  0.06899923  0.38494700  1.0
  O  O163  1  0.76126681  0.02288186  0.39838704  1.0
  O  O164  1  0.65952206  0.45969417  0.23682917  1.0
  O  O165  1  0.63622531  0.44529891  0.14477647  1.0
  O  O166  1  0.84058446  0.54028234  0.73682369  1.0
  O  O167  1  0.86388546  0.55465259  0.64476427  1.0
  O  O168  1  0.15946823  0.04028254  0.76317341  1.0
  O  O169  1  0.13616024  0.05465224  0.85522986  1.0
  O  O170  1  0.34045897  0.95965707  0.26315258  1.0
  O  O171  1  0.36377707  0.94523900  0.35520021  1.0
  O  O172  1  0.17525721  0.35420763  0.33458492  1.0
  O  O173  1  0.01634812  0.35641107  0.25403568  1.0
  O  O174  1  0.32471938  0.64578508  0.83458115  1.0
  O  O175  1  0.48364870  0.64359651  0.75402411  1.0
  O  O176  1  0.67531890  0.14579909  0.66542139  1.0
  O  O177  1  0.51637520  0.14359697  0.74597588  1.0
  O  O178  1  0.82475690  0.85422084  0.16537528  1.0
  O  O179  1  0.98368038  0.85639874  0.24592495  1.0
