# generated using pymatgen
data_AlH9C18O5F
_symmetry_space_group_name_H-M   'P 1'
_cell_length_a   6.68712235
_cell_length_b   21.72278428
_cell_length_c   25.29977573
_cell_angle_alpha   95.86587684
_cell_angle_beta   89.99185472
_cell_angle_gamma   89.99015659
_symmetry_Int_Tables_number   1
_chemical_formula_structural   AlH9C18O5F
_chemical_formula_sum   'Al4 H36 C72 O20 F4'
_cell_volume   3655.87566354
_cell_formula_units_Z   4
loop_
 _symmetry_equiv_pos_site_id
 _symmetry_equiv_pos_as_xyz
  1  'x, y, z'
loop_
 _atom_site_type_symbol
 _atom_site_label
 _atom_site_symmetry_multiplicity
 _atom_site_fract_x
 _atom_site_fract_y
 _atom_site_fract_z
 _atom_site_occupancy
  Al  Al0  1  0.19454588  0.74942572  0.74954411  1.0
  Al  Al1  1  0.80546088  0.25057604  0.25045704  1.0
  Al  Al2  1  0.69454526  0.75061564  0.75046471  1.0
  Al  Al3  1  0.30546000  0.24938575  0.24953723  1.0
  H  H4  1  0.15558452  0.61832304  0.41792537  1.0
  H  H5  1  0.84443570  0.38167966  0.58207220  1.0
  H  H6  1  0.65721615  0.88172530  0.08194768  1.0
  H  H7  1  0.34275472  0.11828222  0.91804789  1.0
  H  H8  1  0.04495043  0.63127893  0.58952612  1.0
  H  H9  1  0.95505632  0.36872404  0.41046986  1.0
  H  H10  1  0.54559824  0.86882003  0.91038732  1.0
  H  H11  1  0.45439805  0.13118848  0.08961262  1.0
  H  H12  1  0.81626816  0.54516680  0.72255213  1.0
  H  H13  1  0.18373710  0.45483401  0.27744504  1.0
  H  H14  1  0.31487029  0.95480483  0.77754370  1.0
  H  H15  1  0.68509909  0.04519484  0.22245546  1.0
  H  H16  1  0.19773338  0.55630961  0.33279824  1.0
  H  H17  1  0.80227039  0.44368914  0.66720092  1.0
  H  H18  1  0.69945486  0.94371636  0.16708290  1.0
  H  H19  1  0.30049507  0.05628230  0.83291547  1.0
  H  H20  1  0.07938033  0.62681360  0.51279198  1.0
  H  H21  1  0.92062942  0.37318573  0.48720440  1.0
  H  H22  1  0.58056442  0.87324262  0.98711729  1.0
  H  H23  1  0.41941842  0.12676071  0.01287789  1.0
  H  H24  1  0.65633786  0.92916194  0.55030917  1.0
  H  H25  1  0.34365245  0.07083345  0.44969636  1.0
  H  H26  1  0.15631981  0.57085168  0.94967515  1.0
  H  H27  1  0.84367798  0.42914695  0.05032680  1.0
  H  H28  1  0.63606778  0.85888816  0.62257387  1.0
  H  H29  1  0.36394347  0.14110723  0.37743166  1.0
  H  H30  1  0.13617340  0.64113396  0.87742067  1.0
  H  H31  1  0.86381840  0.35886549  0.12258048  1.0
  H  H32  1  0.27011303  0.87872458  0.64881805  1.0
  H  H33  1  0.72990569  0.12127509  0.35118111  1.0
  H  H34  1  0.77025695  0.62125458  0.85118403  1.0
  H  H35  1  0.22974832  0.37874480  0.14882030  1.0
  H  H36  1  0.44757516  0.71288642  0.68623207  1.0
  H  H37  1  0.55244207  0.28711323  0.31377067  1.0
  H  H38  1  0.94739129  0.78710433  0.81380173  1.0
  H  H39  1  0.05261996  0.21289716  0.18620101  1.0
  C  C40  1  0.44472141  0.67985659  0.81874593  1.0
  C  C41  1  0.55527488  0.32014177  0.18125761  1.0
  C  C42  1  0.94463125  0.82016608  0.68125377  1.0
  C  C43  1  0.05539644  0.17983195  0.31874699  1.0
  C  C44  1  0.44282883  0.84584189  0.80793276  1.0
  C  C45  1  0.55718091  0.15415880  0.19206719  1.0
  C  C46  1  0.94307840  0.65419951  0.69206102  1.0
  C  C47  1  0.05694481  0.34580215  0.30793933  1.0
  C  C48  1  0.06560246  0.40637690  0.34160200  1.0
  C  C49  1  0.93439832  0.59362452  0.65839636  1.0
  C  C50  1  0.56592836  0.09358106  0.15839571  1.0
  C  C51  1  0.43408438  0.90642307  0.84160225  1.0
  C  C52  1  0.14753093  0.51486983  0.34993122  1.0
  C  C53  1  0.85246985  0.48512996  0.65006516  1.0
  C  C54  1  0.64879180  0.98513346  0.14997576  1.0
  C  C55  1  0.35115962  0.01486893  0.85002300  1.0
  C  C56  1  0.13827054  0.45888454  0.31904723  1.0
  C  C57  1  0.86173024  0.54111520  0.68094875  1.0
  C  C58  1  0.63929171  0.04110389  0.18088326  1.0
  C  C59  1  0.36068813  0.95889748  0.81911471  1.0
  C  C60  1  0.01070813  0.41023345  0.39462076  1.0
  C  C61  1  0.98929414  0.58976869  0.60537601  1.0
  C  C62  1  0.51064524  0.08971465  0.10541492  1.0
  C  C63  1  0.48936152  0.91029413  0.89458343  1.0
  C  C64  1  0.03094435  0.46619704  0.42805373  1.0
  C  C65  1  0.96907138  0.53380239  0.57194345  1.0
  C  C66  1  0.53113357  0.03377999  0.07195416  1.0
  C  C67  1  0.46886421  0.96622717  0.92804220  1.0
  C  C68  1  0.09619364  0.51982082  0.40448040  1.0
  C  C69  1  0.90381162  0.48018242  0.59551398  1.0
  C  C70  1  0.59706083  0.98019369  0.09545795  1.0
  C  C71  1  0.40290256  0.01981008  0.90454080  1.0
  C  C72  1  0.98997556  0.47096374  0.48455249  1.0
  C  C73  1  0.01004316  0.52903319  0.51544310  1.0
  C  C74  1  0.48986334  0.02903246  0.01546431  1.0
  C  C75  1  0.51013295  0.97097240  0.98453206  1.0
  C  C76  1  0.06821528  0.58179378  0.48976621  1.0
  C  C77  1  0.93179746  0.41820705  0.51022738  1.0
  C  C78  1  0.56903154  0.91823340  0.01016727  1.0
  C  C79  1  0.43094979  0.08177175  0.98983148  1.0
  C  C80  1  0.11026864  0.57741320  0.43662218  1.0
  C  C81  1  0.88974410  0.42258819  0.56337221  1.0
  C  C82  1  0.61129098  0.92261202  0.06330188  1.0
  C  C83  1  0.38866643  0.07739129  0.93669688  1.0
  C  C84  1  0.78949500  0.91810152  0.57218742  1.0
  C  C85  1  0.21050577  0.08189587  0.42781572  1.0
  C  C86  1  0.28952388  0.58190488  0.92780640  1.0
  C  C87  1  0.71047391  0.41809291  0.07219236  1.0
  C  C88  1  0.77809492  0.87915486  0.61233992  1.0
  C  C89  1  0.22191035  0.12084157  0.38766283  1.0
  C  C90  1  0.27818025  0.62085059  0.88765532  1.0
  C  C91  1  0.72181006  0.37914657  0.11234584  1.0
  C  C92  1  0.95092805  0.86440427  0.63981581  1.0
  C  C93  1  0.04907721  0.13559482  0.36018614  1.0
  C  C94  1  0.45103542  0.63561052  0.86017920  1.0
  C  C95  1  0.54896536  0.36438922  0.13982434  1.0
  C  C96  1  0.13561431  0.89009452  0.62758977  1.0
  C  C97  1  0.86439395  0.10990554  0.37241257  1.0
  C  C98  1  0.63570122  0.60989876  0.87240963  1.0
  C  C99  1  0.36429208  0.39009628  0.12759312  1.0
  C  C100  1  0.14316644  0.92952622  0.58820456  1.0
  C  C101  1  0.85683433  0.07047379  0.41179738  1.0
  C  C102  1  0.64321834  0.57046847  0.91179522  1.0
  C  C103  1  0.35677645  0.42952754  0.08820793  1.0
  C  C104  1  0.97387146  0.94434267  0.55884847  1.0
  C  C105  1  0.02612932  0.05565514  0.44115427  1.0
  C  C106  1  0.47388003  0.55565334  0.94114772  1.0
  C  C107  1  0.52610878  0.44434488  0.05885463  1.0
  C  C108  1  0.99103202  0.98334334  0.51786861  1.0
  C  C109  1  0.00896278  0.01665253  0.48213334  1.0
  C  C110  1  0.49102271  0.51665037  0.98213262  1.0
  C  C111  1  0.50895563  0.48335578  0.01787050  1.0
  O  O112  1  0.61357498  0.82214777  0.79671087  1.0
  O  O113  1  0.38644972  0.17785198  0.20329267  1.0
  O  O114  1  0.11383825  0.67777397  0.70338129  1.0
  O  O115  1  0.88616701  0.32222929  0.29661707  1.0
  O  O116  1  0.27357676  0.69670180  0.80330243  1.0
  O  O117  1  0.72643747  0.30329516  0.19669713  1.0
  O  O118  1  0.77345223  0.80343593  0.69677861  1.0
  O  O119  1  0.22655453  0.19656466  0.30322055  1.0
  O  O120  1  0.27503386  0.82263747  0.79295550  1.0
  O  O121  1  0.72497588  0.17736026  0.20705042  1.0
  O  O122  1  0.77528357  0.67751704  0.70694695  1.0
  O  O123  1  0.22471721  0.32248328  0.29305380  1.0
  O  O124  1  0.11359621  0.80196199  0.69687327  1.0
  O  O125  1  0.88641205  0.19803766  0.30312947  1.0
  O  O126  1  0.61372733  0.69795911  0.80305514  1.0
  O  O127  1  0.38626896  0.30204391  0.19694878  1.0
  O  O128  1  0.44527436  0.74260549  0.71757586  1.0
  O  O129  1  0.55473090  0.25739258  0.28242529  1.0
  O  O130  1  0.94522379  0.75742460  0.78243214  1.0
  O  O131  1  0.05478446  0.24257771  0.21756980  1.0
  F  F132  1  0.32201266  0.95510554  0.57667642  1.0
  F  F133  1  0.67798064  0.04489418  0.42332314  1.0
  F  F134  1  0.82205513  0.54488116  0.92333119  1.0
  F  F135  1  0.17793667  0.45511583  0.07667235  1.0
