# generated using pymatgen
data_La2H24C51(O2F3)6
_symmetry_space_group_name_H-M   'P 1'
_cell_length_a   7.66837542
_cell_length_b   21.35813964
_cell_length_c   36.89329755
_cell_angle_alpha   89.99996504
_cell_angle_beta   89.99989567
_cell_angle_gamma   89.99998348
_symmetry_Int_Tables_number   1
_chemical_formula_structural   La2H24C51(O2F3)6
_chemical_formula_sum   'La8 H96 C204 O48 F72'
_cell_volume   6042.46665665
_cell_formula_units_Z   4
loop_
 _symmetry_equiv_pos_site_id
 _symmetry_equiv_pos_as_xyz
  1  'x, y, z'
loop_
 _atom_site_type_symbol
 _atom_site_label
 _atom_site_symmetry_multiplicity
 _atom_site_fract_x
 _atom_site_fract_y
 _atom_site_fract_z
 _atom_site_occupancy
  La  La0  1  0.29961955  0.50045345  0.66247532  1.0
  La  La1  1  0.20038091  0.50045362  0.33752499  1.0
  La  La2  1  0.20037887  0.99954634  0.16247522  1.0
  La  La3  1  0.29962119  0.99954692  0.83752465  1.0
  La  La4  1  0.70037991  0.49954668  0.33752490  1.0
  La  La5  1  0.79961985  0.49954697  0.66247523  1.0
  La  La6  1  0.79961928  0.00045426  0.83752500  1.0
  La  La7  1  0.70037957  0.00045274  0.16247530  1.0
  H  H8  1  0.78933212  0.33920435  0.68119790  1.0
  H  H9  1  0.71066776  0.33920361  0.31880201  1.0
  H  H10  1  0.71066713  0.16079675  0.18119873  1.0
  H  H11  1  0.78933420  0.16079501  0.81880206  1.0
  H  H12  1  0.21066603  0.66079484  0.31880205  1.0
  H  H13  1  0.28933430  0.66079559  0.68119794  1.0
  H  H14  1  0.28933624  0.83920337  0.81880122  1.0
  H  H15  1  0.21066525  0.83920278  0.18119816  1.0
  H  H16  1  0.25632379  0.27923851  0.62651789  1.0
  H  H17  1  0.24367685  0.27923771  0.37348142  1.0
  H  H18  1  0.24367664  0.22076130  0.12651787  1.0
  H  H19  1  0.25632013  0.22076184  0.87348227  1.0
  H  H20  1  0.74367827  0.72076209  0.37348206  1.0
  H  H21  1  0.75632652  0.72076242  0.62651826  1.0
  H  H22  1  0.75632412  0.77923742  0.87348181  1.0
  H  H23  1  0.74367411  0.77923688  0.12651849  1.0
  H  H24  1  0.12546957  0.17558389  0.61560132  1.0
  H  H25  1  0.37452724  0.17558307  0.38439884  1.0
  H  H26  1  0.37452966  0.32441593  0.11560148  1.0
  H  H27  1  0.12546964  0.32441694  0.88439889  1.0
  H  H28  1  0.87452989  0.82441624  0.38439890  1.0
  H  H29  1  0.62547091  0.82441659  0.61560165  1.0
  H  H30  1  0.62546980  0.67558327  0.88439847  1.0
  H  H31  1  0.87452982  0.67558272  0.11560132  1.0
  H  H32  1  0.45833266  0.08053110  0.64933558  1.0
  H  H33  1  0.04166553  0.08053035  0.35066407  1.0
  H  H34  1  0.04166627  0.41947055  0.14933611  1.0
  H  H35  1  0.45833165  0.41946923  0.85066504  1.0
  H  H36  1  0.54166680  0.91946809  0.35066382  1.0
  H  H37  1  0.95833393  0.91947025  0.64933588  1.0
  H  H38  1  0.95833319  0.58053051  0.85066384  1.0
  H  H39  1  0.54166781  0.58052997  0.14933572  1.0
  H  H40  1  0.33665736  0.04735075  0.70815876  1.0
  H  H41  1  0.16334216  0.04735051  0.29184090  1.0
  H  H42  1  0.16334236  0.45264990  0.20815923  1.0
  H  H43  1  0.33665814  0.45265146  0.79184191  1.0
  H  H44  1  0.66333949  0.95264891  0.29184064  1.0
  H  H45  1  0.83665730  0.95265008  0.70815905  1.0
  H  H46  1  0.83665840  0.54735022  0.79184099  1.0
  H  H47  1  0.66334393  0.54734914  0.20815912  1.0
  H  H48  1  0.80901009  0.10398532  0.76193239  1.0
  H  H49  1  0.69099129  0.10398747  0.23806706  1.0
  H  H50  1  0.69099107  0.39601430  0.26193314  1.0
  H  H51  1  0.80900747  0.39601544  0.73806757  1.0
  H  H52  1  0.19098676  0.89601481  0.23806729  1.0
  H  H53  1  0.30900817  0.89601359  0.76193288  1.0
  H  H54  1  0.30900969  0.60398489  0.73806708  1.0
  H  H55  1  0.19099069  0.60398468  0.26193292  1.0
  H  H56  1  0.93062801  0.13935874  0.70350765  1.0
  H  H57  1  0.56937204  0.13935991  0.29649206  1.0
  H  H58  1  0.56937366  0.36064140  0.20350792  1.0
  H  H59  1  0.93062360  0.36063967  0.79649225  1.0
  H  H60  1  0.06937145  0.86063998  0.29649230  1.0
  H  H61  1  0.43062611  0.86064069  0.70350789  1.0
  H  H62  1  0.43062710  0.63935919  0.79649176  1.0
  H  H63  1  0.06937455  0.63935859  0.20350796  1.0
  H  H64  1  0.23189365  0.67606149  0.57458373  1.0
  H  H65  1  0.26810406  0.67606110  0.42541679  1.0
  H  H66  1  0.26810684  0.82393933  0.07458366  1.0
  H  H67  1  0.23189467  0.82393982  0.92541626  1.0
  H  H68  1  0.76810580  0.32393958  0.42541676  1.0
  H  H69  1  0.73189279  0.32393997  0.57458343  1.0
  H  H70  1  0.73189653  0.17606220  0.92541628  1.0
  H  H71  1  0.76810479  0.17606125  0.07458423  1.0
  H  H72  1  0.08521999  0.74425472  0.53017704  1.0
  H  H73  1  0.41477767  0.74425521  0.46982292  1.0
  H  H74  1  0.41477828  0.75574661  0.03017667  1.0
  H  H75  1  0.08522198  0.75574613  0.96982274  1.0
  H  H76  1  0.91477816  0.25574587  0.46982291  1.0
  H  H77  1  0.58522179  0.25574633  0.53017703  1.0
  H  H78  1  0.58522248  0.24425586  0.96982301  1.0
  H  H79  1  0.91478009  0.24425447  0.03017747  1.0
  H  H80  1  0.63740479  0.62128986  0.53176721  1.0
  H  H81  1  0.86259748  0.62129035  0.46823260  1.0
  H  H82  1  0.86259798  0.87871001  0.03176791  1.0
  H  H83  1  0.63740539  0.87871093  0.96823263  1.0
  H  H84  1  0.36259597  0.37871026  0.46823192  1.0
  H  H85  1  0.13740328  0.37871071  0.53176735  1.0
  H  H86  1  0.13740539  0.12128965  0.96823313  1.0
  H  H87  1  0.36259407  0.12128873  0.03176705  1.0
  H  H88  1  0.78721993  0.55324177  0.57571800  1.0
  H  H89  1  0.71277588  0.55324186  0.42428265  1.0
  H  H90  1  0.71278246  0.94675759  0.07571845  1.0
  H  H91  1  0.78722216  0.94675994  0.92428260  1.0
  H  H92  1  0.21277692  0.44675976  0.42428249  1.0
  H  H93  1  0.28722097  0.44675968  0.57571730  1.0
  H  H94  1  0.28722613  0.05324254  0.92428204  1.0
  H  H95  1  0.21277860  0.05324065  0.07571789  1.0
  H  H96  1  0.65875044  0.23522854  0.67151895  1.0
  H  H97  1  0.84124822  0.23522778  0.32848127  1.0
  H  H98  1  0.84124759  0.26477210  0.17151969  1.0
  H  H99  1  0.65874844  0.26477036  0.82848133  1.0
  H  H100  1  0.34125032  0.76476971  0.32848127  1.0
  H  H101  1  0.15875124  0.76477095  0.67151922  1.0
  H  H102  1  0.15875056  0.73522896  0.82848080  1.0
  H  H103  1  0.34125102  0.73522743  0.17151916  1.0
  C  C104  1  0.11498207  0.37771337  0.65994565  1.0
  C  C105  1  0.38501980  0.37771305  0.34005416  1.0
  C  C106  1  0.38501808  0.12228687  0.15994615  1.0
  C  C107  1  0.11498399  0.12228653  0.84005483  1.0
  C  C108  1  0.88501609  0.62228629  0.34005484  1.0
  C  C109  1  0.61498488  0.62228661  0.65994551  1.0
  C  C110  1  0.61498399  0.87771325  0.84005379  1.0
  C  C111  1  0.88501547  0.87771173  0.15994593  1.0
  C  C112  1  0.03279652  0.31551601  0.65485017  1.0
  C  C113  1  0.46720148  0.31551474  0.34514966  1.0
  C  C114  1  0.46720367  0.18448330  0.15485035  1.0
  C  C115  1  0.03279965  0.18448436  0.84515007  1.0
  C  C116  1  0.96720033  0.68448412  0.34515032  1.0
  C  C117  1  0.53279797  0.68448445  0.65485055  1.0
  C  C118  1  0.53279709  0.81551589  0.84514960  1.0
  C  C119  1  0.96720111  0.81551483  0.15485014  1.0
  C  C120  1  0.86362825  0.30303781  0.66725444  1.0
  C  C121  1  0.63637166  0.30303706  0.33274603  1.0
  C  C122  1  0.63637243  0.19696237  0.16725528  1.0
  C  C123  1  0.86363018  0.19696060  0.83274631  1.0
  C  C124  1  0.13637121  0.69696044  0.33274605  1.0
  C  C125  1  0.36362910  0.69696260  0.66725419  1.0
  C  C126  1  0.36362964  0.80303776  0.83274521  1.0
  C  C127  1  0.13637189  0.80303672  0.16725445  1.0
  C  C128  1  0.12558159  0.26891739  0.63644059  1.0
  C  C129  1  0.37441775  0.26891611  0.36355981  1.0
  C  C130  1  0.37441876  0.23108288  0.13644078  1.0
  C  C131  1  0.12557800  0.23108251  0.86356017  1.0
  C  C132  1  0.87442048  0.73108274  0.36356044  1.0
  C  C133  1  0.62558301  0.73108308  0.63644068  1.0
  C  C134  1  0.62558200  0.76891725  0.86355889  1.0
  C  C135  1  0.87441754  0.76891575  0.13644059  1.0
  C  C136  1  0.05079135  0.21046427  0.63036579  1.0
  C  C137  1  0.44920934  0.21046345  0.36963381  1.0
  C  C138  1  0.44920514  0.28953554  0.13036621  1.0
  C  C139  1  0.05079288  0.28953470  0.86963417  1.0
  C  C140  1  0.94920680  0.78953492  0.36963415  1.0
  C  C141  1  0.55079272  0.78953621  0.63036641  1.0
  C  C142  1  0.55079171  0.71046412  0.86963373  1.0
  C  C143  1  0.94920918  0.71046356  0.13036632  1.0
  C  C144  1  0.88233901  0.19764007  0.64290911  1.0
  C  C145  1  0.61766099  0.19763930  0.35709112  1.0
  C  C146  1  0.61766188  0.30235967  0.14290884  1.0
  C  C147  1  0.88233542  0.30235881  0.85709136  1.0
  C  C148  1  0.11766436  0.80235819  0.35709138  1.0
  C  C149  1  0.38234108  0.80236036  0.64290937  1.0
  C  C150  1  0.38234018  0.69764046  0.85709084  1.0
  C  C151  1  0.11766273  0.69763991  0.14290913  1.0
  C  C152  1  0.65613352  0.14583362  0.60520096  1.0
  C  C153  1  0.84386782  0.14583325  0.39479902  1.0
  C  C154  1  0.84386770  0.35416663  0.10520112  1.0
  C  C155  1  0.65613348  0.35416669  0.89479932  1.0
  C  C156  1  0.34386463  0.85416651  0.39479899  1.0
  C  C157  1  0.15613294  0.85416687  0.60520120  1.0
  C  C158  1  0.15613176  0.64583303  0.89479882  1.0
  C  C159  1  0.34386989  0.64583297  0.10520090  1.0
  C  C160  1  0.70293977  0.11319684  0.67221421  1.0
  C  C161  1  0.79706030  0.11319702  0.32778551  1.0
  C  C162  1  0.79706217  0.38680380  0.17221411  1.0
  C  C163  1  0.70293637  0.38680159  0.82778578  1.0
  C  C164  1  0.29706230  0.88680235  0.32778574  1.0
  C  C165  1  0.20293916  0.88680357  0.67221444  1.0
  C  C166  1  0.20293729  0.61319680  0.82778611  1.0
  C  C167  1  0.29706308  0.61319573  0.17221390  1.0
  C  C168  1  0.53595916  0.08684390  0.67370368  1.0
  C  C169  1  0.96403962  0.08684359  0.32629605  1.0
  C  C170  1  0.96404146  0.41315721  0.17370405  1.0
  C  C171  1  0.53595837  0.41315642  0.82629665  1.0
  C  C172  1  0.46404029  0.91315529  0.32629600  1.0
  C  C173  1  0.03595984  0.91315747  0.67370390  1.0
  C  C174  1  0.03595800  0.58684339  0.82629617  1.0
  C  C175  1  0.46403979  0.58684231  0.17370384  1.0
  C  C176  1  0.46654276  0.06793072  0.70679507  1.0
  C  C177  1  0.03345674  0.06793050  0.29320458  1.0
  C  C178  1  0.03345698  0.43207040  0.20679506  1.0
  C  C179  1  0.46654093  0.43207054  0.79320528  1.0
  C  C180  1  0.53345539  0.93206894  0.29320461  1.0
  C  C181  1  0.96654271  0.93207057  0.70679509  1.0
  C  C182  1  0.96654248  0.56792972  0.79320435  1.0
  C  C183  1  0.53345722  0.56792865  0.20679548  1.0
  C  C184  1  0.56338321  0.07453193  0.73875533  1.0
  C  C185  1  0.93661819  0.07453310  0.26124440  1.0
  C  C186  1  0.93661815  0.42546864  0.23875543  1.0
  C  C187  1  0.56338297  0.42546979  0.76124499  1.0
  C  C188  1  0.43661364  0.92546820  0.26124462  1.0
  C  C189  1  0.06338126  0.92546796  0.73875527  1.0
  C  C190  1  0.06338391  0.57453149  0.76124479  1.0
  C  C191  1  0.43661649  0.57452987  0.23875523  1.0
  C  C192  1  0.73170047  0.09981503  0.73729405  1.0
  C  C193  1  0.76829960  0.09981621  0.26270540  1.0
  C  C194  1  0.76830090  0.40018508  0.23729423  1.0
  C  C195  1  0.73169894  0.40018527  0.76270593  1.0
  C  C196  1  0.26829638  0.90018463  0.26270590  1.0
  C  C197  1  0.23169855  0.90018485  0.73729455  1.0
  C  C198  1  0.23170247  0.59981505  0.76270626  1.0
  C  C199  1  0.26829791  0.59981392  0.23729402  1.0
  C  C200  1  0.80033444  0.11913320  0.70431325  1.0
  C  C201  1  0.69966692  0.11913436  0.29568620  1.0
  C  C202  1  0.69966722  0.38086741  0.20431346  1.0
  C  C203  1  0.80033133  0.38086616  0.79568671  1.0
  C  C204  1  0.19966502  0.88086599  0.29568670  1.0
  C  C205  1  0.30033253  0.88086671  0.70431348  1.0
  C  C206  1  0.30033354  0.61913225  0.79568676  1.0
  C  C207  1  0.19966813  0.61913210  0.20431324  1.0
  C  C208  1  0.11277316  0.57083836  0.60475348  1.0
  C  C209  1  0.38722464  0.57083893  0.39524735  1.0
  C  C210  1  0.38722577  0.92916149  0.10475333  1.0
  C  C211  1  0.11277435  0.92916296  0.89524683  1.0
  C  C212  1  0.88722630  0.42916270  0.39524701  1.0
  C  C213  1  0.61277221  0.42916261  0.60475314  1.0
  C  C214  1  0.61277630  0.07083958  0.89524716  1.0
  C  C215  1  0.88722641  0.07083858  0.10475284  1.0
  C  C216  1  0.02041471  0.61010304  0.57770034  1.0
  C  C217  1  0.47958305  0.61010216  0.42229994  1.0
  C  C218  1  0.47958575  0.88989731  0.07770044  1.0
  C  C219  1  0.02041571  0.88989923  0.92229974  1.0
  C  C220  1  0.97958344  0.38989943  0.42229988  1.0
  C  C221  1  0.52041380  0.38989844  0.57770055  1.0
  C  C222  1  0.52041762  0.11010282  0.92229951  1.0
  C  C223  1  0.97958375  0.11010184  0.07770048  1.0
  C  C224  1  0.10220652  0.66417142  0.56467328  1.0
  C  C225  1  0.39779120  0.66417241  0.43532616  1.0
  C  C226  1  0.39779275  0.83582894  0.06467344  1.0
  C  C227  1  0.10220744  0.83582943  0.93532622  1.0
  C  C228  1  0.89779294  0.33582918  0.43532612  1.0
  C  C229  1  0.60220695  0.33582912  0.56467379  1.0
  C  C230  1  0.60220931  0.16417259  0.93532624  1.0
  C  C231  1  0.89779202  0.16417116  0.06467346  1.0
  C  C232  1  0.01843528  0.70242851  0.53957849  1.0
  C  C233  1  0.48156371  0.70242900  0.46042121  1.0
  C  C234  1  0.48156551  0.79757234  0.03957835  1.0
  C  C235  1  0.01843602  0.79757235  0.96042104  1.0
  C  C236  1  0.98156417  0.29757208  0.46042118  1.0
  C  C237  1  0.51843574  0.29757300  0.53957847  1.0
  C  C238  1  0.51843655  0.20242826  0.96042105  1.0
  C  C239  1  0.98156605  0.20242825  0.03957891  1.0
  C  C240  1  0.85112280  0.68721882  0.52713597  1.0
  C  C241  1  0.64887550  0.68721933  0.47286355  1.0
  C  C242  1  0.64887740  0.81278153  0.02713595  1.0
  C  C243  1  0.85112471  0.81278242  0.97286352  1.0
  C  C244  1  0.14887666  0.31278131  0.47286344  1.0
  C  C245  1  0.35112526  0.31278174  0.52713586  1.0
  C  C246  1  0.35112597  0.18721907  0.97286400  1.0
  C  C247  1  0.14887605  0.18721864  0.02713643  1.0
  C  C248  1  0.76820820  0.63349878  0.54082276  1.0
  C  C249  1  0.73179015  0.63349929  0.45917731  1.0
  C  C250  1  0.73179188  0.86650108  0.04082324  1.0
  C  C251  1  0.76820889  0.86650200  0.95917703  1.0
  C  C252  1  0.23179126  0.36650135  0.45917691  1.0
  C  C253  1  0.26820931  0.36650130  0.54082236  1.0
  C  C254  1  0.26821149  0.13349811  0.95917725  1.0
  C  C255  1  0.23179057  0.13349813  0.04082265  1.0
  C  C256  1  0.75000109  0.72824114  0.49999989  1.0
  C  C257  1  0.75000019  0.77176011  0.99999964  1.0
  C  C258  1  0.25000097  0.27176040  0.49999979  1.0
  C  C259  1  0.24999926  0.22824048  0.00000004  1.0
  C  C260  1  0.48513050  0.05337745  0.77342289  1.0
  C  C261  1  0.01486901  0.05337730  0.22657704  1.0
  C  C262  1  0.01486995  0.44662360  0.27342315  1.0
  C  C263  1  0.48512925  0.44662334  0.72657746  1.0
  C  C264  1  0.51486765  0.94662221  0.22657706  1.0
  C  C265  1  0.98512914  0.94662330  0.77342291  1.0
  C  C266  1  0.98512950  0.55337746  0.72657707  1.0
  C  C267  1  0.51487151  0.55337632  0.27342276  1.0
  C  C268  1  0.85234718  0.59507454  0.56565409  1.0
  C  C269  1  0.64765120  0.59507462  0.43434600  1.0
  C  C270  1  0.64765268  0.90492577  0.06565431  1.0
  C  C271  1  0.85234805  0.90492670  0.93434594  1.0
  C  C272  1  0.14765228  0.40492653  0.43434613  1.0
  C  C273  1  0.35234695  0.40492645  0.56565368  1.0
  C  C274  1  0.35235199  0.09507483  0.93434618  1.0
  C  C275  1  0.14765271  0.09507436  0.06565428  1.0
  C  C276  1  0.78965044  0.24457065  0.66144555  1.0
  C  C277  1  0.71034822  0.24457082  0.33855439  1.0
  C  C278  1  0.71034768  0.25542954  0.16144607  1.0
  C  C279  1  0.78964966  0.25542731  0.83855387  1.0
  C  C280  1  0.21035032  0.75542667  0.33855413  1.0
  C  C281  1  0.28965124  0.75542977  0.66144582  1.0
  C  C282  1  0.28965047  0.74456965  0.83855361  1.0
  C  C283  1  0.21034849  0.74456955  0.16144635  1.0
  C  C284  1  0.91562780  0.08085275  0.62504734  1.0
  C  C285  1  0.58437359  0.08085243  0.37495266  1.0
  C  C286  1  0.58437455  0.41914794  0.12504786  1.0
  C  C287  1  0.91562918  0.41914613  0.87495121  1.0
  C  C288  1  0.08436905  0.91914644  0.37495179  1.0
  C  C289  1  0.41562847  0.91914770  0.62504756  1.0
  C  C290  1  0.41562752  0.58085218  0.87495182  1.0
  C  C291  1  0.08437549  0.58085260  0.12504765  1.0
  C  C292  1  0.87190053  0.77103420  0.47673872  1.0
  C  C293  1  0.62810032  0.77103512  0.52326104  1.0
  C  C294  1  0.62809966  0.72896661  0.97673908  1.0
  C  C295  1  0.87189861  0.72896570  0.02326069  1.0
  C  C296  1  0.12810023  0.22896546  0.52326123  1.0
  C  C297  1  0.37190045  0.22896594  0.47673918  1.0
  C  C298  1  0.37189850  0.27103445  0.02326087  1.0
  C  C299  1  0.12809824  0.27103396  0.97673844  1.0
  C  C300  1  0.78935848  0.13471559  0.63671614  1.0
  C  C301  1  0.71064157  0.13471574  0.36328384  1.0
  C  C302  1  0.71064246  0.36528463  0.13671636  1.0
  C  C303  1  0.78935740  0.36528330  0.86328381  1.0
  C  C304  1  0.21064228  0.86528314  0.36328380  1.0
  C  C305  1  0.28935919  0.86528486  0.63671611  1.0
  C  C306  1  0.28935830  0.63471550  0.86328386  1.0
  C  C307  1  0.21064467  0.63471589  0.13671613  1.0
  O  O308  1  0.26943986  0.38692203  0.64884089  1.0
  O  O309  1  0.23056069  0.38692359  0.35115892  1.0
  O  O310  1  0.23055908  0.11307775  0.14884119  1.0
  O  O311  1  0.26944039  0.11307691  0.85115953  1.0
  O  O312  1  0.73055829  0.61307669  0.35115932  1.0
  O  O313  1  0.76944268  0.61307841  0.64884103  1.0
  O  O314  1  0.76944168  0.88692284  0.85115903  1.0
  O  O315  1  0.73055646  0.88692087  0.14884150  1.0
  O  O316  1  0.03604370  0.52131345  0.61787946  1.0
  O  O317  1  0.46395544  0.52131355  0.38212084  1.0
  O  O318  1  0.46395772  0.97868686  0.11787954  1.0
  O  O319  1  0.03604236  0.97868788  0.88212060  1.0
  O  O320  1  0.96395837  0.47868762  0.38212075  1.0
  O  O321  1  0.53604010  0.47868798  0.61787938  1.0
  O  O322  1  0.53604304  0.02131421  0.88212095  1.0
  O  O323  1  0.96395709  0.02131225  0.11787961  1.0
  O  O324  1  0.57306295  0.05728976  0.80336950  1.0
  O  O325  1  0.92693716  0.05728912  0.19662996  1.0
  O  O326  1  0.92693654  0.44271028  0.30336988  1.0
  O  O327  1  0.57306196  0.44271149  0.69663081  1.0
  O  O328  1  0.42693651  0.94271037  0.19663017  1.0
  O  O329  1  0.07306230  0.94271054  0.80336971  1.0
  O  O330  1  0.07306292  0.55728891  0.69663007  1.0
  O  O331  1  0.42693750  0.55728910  0.30336995  1.0
  O  O332  1  0.33142651  0.03143735  0.77325270  1.0
  O  O333  1  0.16857302  0.03143765  0.22674669  1.0
  O  O334  1  0.16857264  0.46856371  0.27325316  1.0
  O  O335  1  0.33142524  0.46856299  0.72674743  1.0
  O  O336  1  0.66857034  0.96856278  0.22674670  1.0
  O  O337  1  0.83142644  0.96856342  0.77325326  1.0
  O  O338  1  0.83142551  0.53143736  0.72674705  1.0
  O  O339  1  0.66857552  0.53143714  0.27325306  1.0
  O  O340  1  0.26499048  0.58530777  0.61492494  1.0
  O  O341  1  0.23500861  0.58530743  0.38507507  1.0
  O  O342  1  0.23500965  0.91469206  0.11492486  1.0
  O  O343  1  0.26499309  0.91469400  0.88507558  1.0
  O  O344  1  0.73500636  0.41469423  0.38507555  1.0
  O  O345  1  0.76499085  0.41469410  0.61492434  1.0
  O  O346  1  0.76499241  0.08530806  0.88507482  1.0
  O  O347  1  0.73500767  0.08530707  0.11492518  1.0
  O  O348  1  0.02835216  0.42247850  0.67551244  1.0
  O  O349  1  0.47164967  0.42247819  0.32448735  1.0
  O  O350  1  0.47164785  0.07752032  0.17551239  1.0
  O  O351  1  0.02835425  0.07752141  0.82448780  1.0
  O  O352  1  0.97164600  0.57752116  0.32448777  1.0
  O  O353  1  0.52835370  0.57752147  0.67551205  1.0
  O  O354  1  0.52835161  0.92247840  0.82448756  1.0
  O  O355  1  0.97164651  0.92247778  0.17551214  1.0
  F  F356  1  0.05288173  0.07619929  0.64845339  1.0
  F  F357  1  0.44711907  0.07619849  0.35154626  1.0
  F  F358  1  0.44711982  0.42380143  0.14845403  1.0
  F  F359  1  0.05288592  0.42379687  0.85154550  1.0
  F  F360  1  0.94711121  0.92379663  0.35154629  1.0
  F  F361  1  0.55288299  0.92380071  0.64845341  1.0
  F  F362  1  0.55288225  0.57619963  0.85154565  1.0
  F  F363  1  0.94712006  0.57620045  0.14845418  1.0
  F  F364  1  0.98314811  0.08846625  0.59123848  1.0
  F  F365  1  0.51685197  0.08846591  0.40876152  1.0
  F  F366  1  0.51685192  0.41153401  0.09123875  1.0
  F  F367  1  0.98314530  0.41153496  0.90876059  1.0
  F  F368  1  0.01685525  0.91153387  0.40876147  1.0
  F  F369  1  0.48314749  0.91153422  0.59123843  1.0
  F  F370  1  0.48314753  0.58846519  0.90876066  1.0
  F  F371  1  0.01685155  0.58846564  0.09123908  1.0
  F  F372  1  0.73370809  0.17516858  0.57671067  1.0
  F  F373  1  0.76629323  0.17516773  0.42328903  1.0
  F  F374  1  0.76629208  0.32483076  0.07671142  1.0
  F  F375  1  0.73370782  0.32483172  0.92328904  1.0
  F  F376  1  0.26629267  0.82483154  0.42328928  1.0
  F  F377  1  0.23370622  0.82483100  0.57671119  1.0
  F  F378  1  0.23370477  0.67516797  0.92328880  1.0
  F  F379  1  0.26629425  0.67516701  0.07671064  1.0
  F  F380  1  0.52201509  0.18334578  0.61621707  1.0
  F  F381  1  0.97798752  0.18334541  0.38378235  1.0
  F  F382  1  0.97798864  0.31665586  0.11621828  1.0
  F  F383  1  0.52201257  0.31665547  0.88378299  1.0
  F  F384  1  0.47798697  0.81665481  0.38378315  1.0
  F  F385  1  0.02201193  0.81665565  0.61621814  1.0
  F  F386  1  0.02201212  0.68334474  0.88378221  1.0
  F  F387  1  0.47798819  0.68334559  0.11621696  1.0
  F  F388  1  0.83283584  0.02451077  0.62540516  1.0
  F  F389  1  0.66716299  0.02451044  0.37459486  1.0
  F  F390  1  0.66716781  0.47548946  0.12540508  1.0
  F  F391  1  0.83284370  0.47548905  0.87459126  1.0
  F  F392  1  0.16715710  0.97548889  0.37459235  1.0
  F  F393  1  0.33283777  0.97548922  0.62540536  1.0
  F  F394  1  0.33283686  0.52451067  0.87459406  1.0
  F  F395  1  0.16716358  0.52450967  0.12540543  1.0
  F  F396  1  0.58377538  0.09225780  0.59210782  1.0
  F  F397  1  0.91622600  0.09225695  0.40789191  1.0
  F  F398  1  0.91622204  0.40774339  0.09210766  1.0
  F  F399  1  0.58377779  0.40774345  0.90789222  1.0
  F  F400  1  0.41622147  0.90774326  0.40789213  1.0
  F  F401  1  0.08377737  0.90774412  0.59210777  1.0
  F  F402  1  0.08377611  0.59225627  0.90789147  1.0
  F  F403  1  0.41622688  0.59225668  0.09210800  1.0
  F  F404  1  0.94882024  0.81798631  0.49588310  1.0
  F  F405  1  0.55118187  0.81798679  0.50411719  1.0
  F  F406  1  0.55118369  0.68201448  0.99588296  1.0
  F  F407  1  0.94881983  0.68201405  0.00411629  1.0
  F  F408  1  0.05118313  0.18201429  0.50411658  1.0
  F  F409  1  0.44881758  0.18201334  0.49588303  1.0
  F  F410  1  0.44881837  0.31798658  0.00411672  1.0
  F  F411  1  0.05117311  0.31798327  0.99588366  1.0
  F  F412  1  0.78196633  0.79857126  0.44925081  1.0
  F  F413  1  0.71803579  0.79857168  0.55074866  1.0
  F  F414  1  0.71803409  0.70143052  0.94925142  1.0
  F  F415  1  0.78196550  0.70142958  0.05074864  1.0
  F  F416  1  0.21803573  0.20143027  0.55074886  1.0
  F  F417  1  0.28196497  0.20142939  0.44925155  1.0
  F  F418  1  0.28196406  0.29857195  0.05074853  1.0
  F  F419  1  0.21802874  0.29857148  0.94925158  1.0
  F  F420  1  0.00210751  0.73657666  0.46134422  1.0
  F  F421  1  0.49789276  0.73657706  0.53865546  1.0
  F  F422  1  0.49789221  0.76342422  0.96134443  1.0
  F  F423  1  0.00210935  0.76342379  0.03865498  1.0
  F  F424  1  0.99789325  0.26342440  0.53865518  1.0
  F  F425  1  0.50210930  0.26342260  0.46134394  1.0
  F  F426  1  0.50210594  0.23657779  0.03865579  1.0
  F  F427  1  0.99789402  0.23657353  0.96134416  1.0
