# generated using pymatgen
data_CuH6C10N3
_symmetry_space_group_name_H-M   'P 1'
_cell_length_a   32.90665066
_cell_length_b   32.93151838
_cell_length_c   33.64202259
_cell_angle_alpha   89.70421044
_cell_angle_beta   92.83116300
_cell_angle_gamma   89.82663620
_symmetry_Int_Tables_number   1
_chemical_formula_structural   CuH6C10N3
_chemical_formula_sum   'Cu12 H72 C120 N36'
_cell_volume   36411.53509482
_cell_formula_units_Z   12
loop_
 _symmetry_equiv_pos_site_id
 _symmetry_equiv_pos_as_xyz
  1  'x, y, z'
loop_
 _atom_site_type_symbol
 _atom_site_label
 _atom_site_symmetry_multiplicity
 _atom_site_fract_x
 _atom_site_fract_y
 _atom_site_fract_z
 _atom_site_occupancy
  Cu  Cu0  1  0.87595002  0.91256442  0.83313086  1.0
  Cu  Cu1  1  0.83887877  0.87641383  0.91035160  1.0
  Cu  Cu2  1  0.91130938  0.82994754  0.87020616  1.0
  Cu  Cu3  1  0.13205074  0.59053014  0.33883161  1.0
  Cu  Cu4  1  0.17167277  0.62630399  0.41922192  1.0
  Cu  Cu5  1  0.09015086  0.66495018  0.37894531  1.0
  Cu  Cu6  1  0.36106563  0.09996980  0.66889707  1.0
  Cu  Cu7  1  0.32836248  0.12574183  0.58234795  1.0
  Cu  Cu8  1  0.41503605  0.15462136  0.61505805  1.0
  Cu  Cu9  1  0.62430006  0.41361359  0.16421341  1.0
  Cu  Cu10  1  0.66154064  0.37352097  0.08895474  1.0
  Cu  Cu11  1  0.58709047  0.33133103  0.12878078  1.0
  H  H12  1  0.81404402  0.98570411  0.81392403  1.0
  H  H13  1  0.77340249  0.94448475  0.92776613  1.0
  H  H14  1  0.97780719  0.80907615  0.80731190  1.0
  H  H15  1  0.93927634  0.92894698  0.76716014  1.0
  H  H16  1  0.82214447  0.81610858  0.98125553  1.0
  H  H17  1  0.92587486  0.75709598  0.93176614  1.0
  H  H18  1  0.19633662  0.52274401  0.32023859  1.0
  H  H19  1  0.24504945  0.56341382  0.43513216  1.0
  H  H20  1  0.01677918  0.68249316  0.31519468  1.0
  H  H21  1  0.06897306  0.57387438  0.26624433  1.0
  H  H22  1  0.18693080  0.68691731  0.49172041  1.0
  H  H23  1  0.07109893  0.73172698  0.44261284  1.0
  H  H24  1  0.29484538  0.03479836  0.69071151  1.0
  H  H25  1  0.25972397  0.05841178  0.56695326  1.0
  H  H26  1  0.49707171  0.15782086  0.66949051  1.0
  H  H27  1  0.41604530  0.09950964  0.74965940  1.0
  H  H28  1  0.31205685  0.19015525  0.51149376  1.0
  H  H29  1  0.43664947  0.21839585  0.54859058  1.0
  H  H30  1  0.68636182  0.48665218  0.17978486  1.0
  H  H31  1  0.73096617  0.43678404  0.07124441  1.0
  H  H32  1  0.52092358  0.31278602  0.19196450  1.0
  H  H33  1  0.56223309  0.43142000  0.23120347  1.0
  H  H34  1  0.67708193  0.31174947  0.01970702  1.0
  H  H35  1  0.56948846  0.25880981  0.06777416  1.0
  H  H36  1  0.70883797  0.08005036  0.93366310  1.0
  H  H37  1  0.67852449  0.05932650  0.80985420  1.0
  H  H38  1  0.73202818  0.00574553  0.80844602  1.0
  H  H39  1  0.76174575  0.02577948  0.93300468  1.0
  H  H40  1  0.31568338  0.42771511  0.43570182  1.0
  H  H41  1  0.32837538  0.45210974  0.31141981  1.0
  H  H42  1  0.27564827  0.50641048  0.31345700  1.0
  H  H43  1  0.26422702  0.48307777  0.43862005  1.0
  H  H44  1  0.19571612  0.92286997  0.57168643  1.0
  H  H45  1  0.16612715  0.95525880  0.69029546  1.0
  H  H46  1  0.21611620  0.01183017  0.68986292  1.0
  H  H47  1  0.24524406  0.97977431  0.57045320  1.0
  H  H48  1  0.80006749  0.57066332  0.06110489  1.0
  H  H49  1  0.82097392  0.55698413  0.18749689  1.0
  H  H50  1  0.76677302  0.50432087  0.18852940  1.0
  H  H51  1  0.74717240  0.51666291  0.06138049  1.0
  H  H52  1  0.07211533  0.93217865  0.70421030  1.0
  H  H53  1  0.04543878  0.80788164  0.67550367  1.0
  H  H54  1  0.99306531  0.80637941  0.72646292  1.0
  H  H55  1  0.01933510  0.93141654  0.75473113  1.0
  H  H56  1  0.45412685  0.30898430  0.32148938  1.0
  H  H57  1  0.43085964  0.43554777  0.29856773  1.0
  H  H58  1  0.48301115  0.43584796  0.24741758  1.0
  H  H59  1  0.50569312  0.30855051  0.26979822  1.0
  H  H60  1  0.94583517  0.69138127  0.17912533  1.0
  H  H61  1  0.93185473  0.56280138  0.19538207  1.0
  H  H62  1  0.98715301  0.56310263  0.24873085  1.0
  H  H63  1  0.99950418  0.69253057  0.23401963  1.0
  H  H64  1  0.51842175  0.14953513  0.85405967  1.0
  H  H65  1  0.60426993  0.10923842  0.77053733  1.0
  H  H66  1  0.54985079  0.11033561  0.71638480  1.0
  H  H67  1  0.46318677  0.14857159  0.80066757  1.0
  H  H68  1  0.93876296  0.68993038  0.06561748  1.0
  H  H69  1  0.80833514  0.68419729  0.05342838  1.0
  H  H70  1  0.80817178  0.73688659  0.00003966  1.0
  H  H71  1  0.93920169  0.74077830  0.01055696  1.0
  H  H72  1  0.31837789  0.32568449  0.44301177  1.0
  H  H73  1  0.43978988  0.28895893  0.41820975  1.0
  H  H74  1  0.43743037  0.23476258  0.46996422  1.0
  H  H75  1  0.31508584  0.27092499  0.49404400  1.0
  H  H76  1  0.55873378  0.18913098  0.93501341  1.0
  H  H77  1  0.68902895  0.18216022  0.94879313  1.0
  H  H78  1  0.68867181  0.23444031  0.00198172  1.0
  H  H79  1  0.55773930  0.24000082  0.98946351  1.0
  H  H80  1  0.18872142  0.81950487  0.56464895  1.0
  H  H81  1  0.06098328  0.79752799  0.57422483  1.0
  H  H82  1  0.06292177  0.74586941  0.52059565  1.0
  H  H83  1  0.19155548  0.76658273  0.51234643  1.0
  C  C84  1  0.35507168  0.40308151  0.37206500  1.0
  C  C85  1  0.38069346  0.34365530  0.39763047  1.0
  C  C86  1  0.40851635  0.37253988  0.34375204  1.0
  C  C87  1  0.65765724  0.10362426  0.87285529  1.0
  C  C88  1  0.59728789  0.12869874  0.84744163  1.0
  C  C89  1  0.62458854  0.15278342  0.90597737  1.0
  C  C90  1  0.84563134  0.59837852  0.12398341  1.0
  C  C91  1  0.87376146  0.65344352  0.09515070  1.0
  C  C92  1  0.90315247  0.62653664  0.15198648  1.0
  C  C93  1  0.14838242  0.90175362  0.63110999  1.0
  C  C94  1  0.09346382  0.87111681  0.65681066  1.0
  C  C95  1  0.12310654  0.84353189  0.60350373  1.0
  C  C96  1  0.80858645  0.97010469  0.84164023  1.0
  C  C97  1  0.78085300  0.97931644  0.87072449  1.0
  C  C98  1  0.78853293  0.94960180  0.90024205  1.0
  C  C99  1  0.96314206  0.83829318  0.80194639  1.0
  C  C100  1  0.97168543  0.86871064  0.77417502  1.0
  C  C101  1  0.94409870  0.89990769  0.78209136  1.0
  C  C102  1  0.84726822  0.80633754  0.96384707  1.0
  C  C103  1  0.87384593  0.77323368  0.96997908  1.0
  C  C104  1  0.90084730  0.77677041  0.93912276  1.0
  C  C105  1  0.20346975  0.53800218  0.34822484  1.0
  C  C106  1  0.23457666  0.52983017  0.37724992  1.0
  C  C107  1  0.22777810  0.55813480  0.40733001  1.0
  C  C108  1  0.03496370  0.65622018  0.30804927  1.0
  C  C109  1  0.02913425  0.62817572  0.27700021  1.0
  C  C110  1  0.06102672  0.60017154  0.28360259  1.0
  C  C111  1  0.15895273  0.69338236  0.47437055  1.0
  C  C112  1  0.12855087  0.72226521  0.48095757  1.0
  C  C113  1  0.09934670  0.71561103  0.44983804  1.0
  C  C114  1  0.29066671  0.04613108  0.66042275  1.0
  C  C115  1  0.26402313  0.03277301  0.62934705  1.0
  C  C116  1  0.27343558  0.05755349  0.59696109  1.0
  C  C117  1  0.47225137  0.14302215  0.68388604  1.0
  C  C118  1  0.47036763  0.12898577  0.72322473  1.0
  C  C119  1  0.43052226  0.11423285  0.72514599  1.0
  C  C120  1  0.34223959  0.19237527  0.52584092  1.0
  C  C121  1  0.37484444  0.21757667  0.51652772  1.0
  C  C122  1  0.40621282  0.20609016  0.54414576  1.0
  C  C123  1  0.69260384  0.46908937  0.15355987  1.0
  C  C124  1  0.72203588  0.47535018  0.12534994  1.0
  C  C125  1  0.71476446  0.44421601  0.09758982  1.0
  C  C126  1  0.53618376  0.34160681  0.19701591  1.0
  C  C127  1  0.52847371  0.37210941  0.22469767  1.0
  C  C128  1  0.55664054  0.40259265  0.21645731  1.0
  C  C129  1  0.65113619  0.30347658  0.03669156  1.0
  C  C130  1  0.62314296  0.27178355  0.03048490  1.0
  C  C131  1  0.59561167  0.27701486  0.06064533  1.0
  C  C132  1  0.71413423  0.06347909  0.90644125  1.0
  C  C133  1  0.69045012  0.07310159  0.87174895  1.0
  C  C134  1  0.69741136  0.05211194  0.83648212  1.0
  C  C135  1  0.72730544  0.02226905  0.83587536  1.0
  C  C136  1  0.75056562  0.01186300  0.87071408  1.0
  C  C137  1  0.74345941  0.03306851  0.90594735  1.0
  C  C138  1  0.30696334  0.44550430  0.40922471  1.0
  C  C139  1  0.32513622  0.43641431  0.37340684  1.0
  C  C140  1  0.31388382  0.45895678  0.33905981  1.0
  C  C141  1  0.28438960  0.48917711  0.34034271  1.0
  C  C142  1  0.26605855  0.49850725  0.37615061  1.0
  C  C143  1  0.27830063  0.47645342  0.41067467  1.0
  C  C144  1  0.20027551  0.94276528  0.59728079  1.0
  C  C145  1  0.17783662  0.93545333  0.63103604  1.0
  C  C146  1  0.18381801  0.96079120  0.66427148  1.0
  C  C147  1  0.21186472  0.99227668  0.66390171  1.0
  C  C148  1  0.23428574  0.99992567  0.63006443  1.0
  C  C149  1  0.22772571  0.97467961  0.59671434  1.0
  C  C150  1  0.79275489  0.55562755  0.08877621  1.0
  C  C151  1  0.81377580  0.56705191  0.12427944  1.0
  C  C152  1  0.80425403  0.54816888  0.16014106  1.0
  C  C153  1  0.77399428  0.51887522  0.16054223  1.0
  C  C154  1  0.75322537  0.50677283  0.12499914  1.0
  C  C155  1  0.76331466  0.52548597  0.08909627  1.0
  C  C156  1  0.05437934  0.90489257  0.70917010  1.0
  C  C157  1  0.06209341  0.87012568  0.68668262  1.0
  C  C158  1  0.03962650  0.83469880  0.69322545  1.0
  C  C159  1  0.01051509  0.83398800  0.72183441  1.0
  C  C160  1  0.00244879  0.86882613  0.74426162  1.0
  C  C161  1  0.02480583  0.90432391  0.73721332  1.0
  C  C162  1  0.46050542  0.33654006  0.30486972  1.0
  C  C163  1  0.43922617  0.37228774  0.31324857  1.0
  C  C164  1  0.44768089  0.40798248  0.29217517  1.0
  C  C165  1  0.47691361  0.40798794  0.26376231  1.0
  C  C166  1  0.49807977  0.37218241  0.25492131  1.0
  C  C167  1  0.48917045  0.33643589  0.27589230  1.0
  C  C168  1  0.95482609  0.66353200  0.19490185  1.0
  C  C169  1  0.93549711  0.62703908  0.18393053  1.0
  C  C170  1  0.94724329  0.59096320  0.20380189  1.0
  C  C171  1  0.97810418  0.59130854  0.23353694  1.0
  C  C172  1  0.99715921  0.62787626  0.24520656  1.0
  C  C173  1  0.98474287  0.66400453  0.22556224  1.0
  C  C174  1  0.52485727  0.14048984  0.82389004  1.0
  C  C175  1  0.56473853  0.12922755  0.81565918  1.0
  C  C176  1  0.57332259  0.11824994  0.77667857  1.0
  C  C177  1  0.54284912  0.11892069  0.74658153  1.0
  C  C178  1  0.50259434  0.12931771  0.75476525  1.0
  C  C179  1  0.49414015  0.13989671  0.79400051  1.0
  C  C180  1  0.91037485  0.70010825  0.05067735  1.0
  C  C181  1  0.87357538  0.68394316  0.06289875  1.0
  C  C182  1  0.83681324  0.69713509  0.04410251  1.0
  C  C183  1  0.83688922  0.72654557  0.01430312  1.0
  C  C184  1  0.87369150  0.74252346  0.00150233  1.0
  C  C185  1  0.91044257  0.72845992  0.01994564  1.0
  C  C186  1  0.34410156  0.30526480  0.44894117  1.0
  C  C187  1  0.37923435  0.31075375  0.42744667  1.0
  C  C188  1  0.41271055  0.28486475  0.43517272  1.0
  C  C189  1  0.41126906  0.25474369  0.46417280  1.0
  C  C190  1  0.37610982  0.24897385  0.48574446  1.0
  C  C191  1  0.34242144  0.27459446  0.47730608  1.0
  C  C192  1  0.58695752  0.19882694  0.95035239  1.0
  C  C193  1  0.62388849  0.18236138  0.93866808  1.0
  C  C194  1  0.66046368  0.19524019  0.95779864  1.0
  C  C195  1  0.66009654  0.22447220  0.98738829  1.0
  C  C196  1  0.62316834  0.24088017  0.99952189  1.0
  C  C197  1  0.58658618  0.22721101  0.98075275  1.0
  C  C198  1  0.16142609  0.80283725  0.55508884  1.0
  C  C199  1  0.12468361  0.81183053  0.57274763  1.0
  C  C200  1  0.08936516  0.79072410  0.56022105  1.0
  C  C201  1  0.09060891  0.76195838  0.53020134  1.0
  C  C202  1  0.12737852  0.75252691  0.51255513  1.0
  C  C203  1  0.16283115  0.77323093  0.52587846  1.0
  N  N204  1  0.35330128  0.37386378  0.40000133  1.0
  N  N205  1  0.40902998  0.34163255  0.37017752  1.0
  N  N206  1  0.38195420  0.40379613  0.34321318  1.0
  N  N207  1  0.62948934  0.10428894  0.84244074  1.0
  N  N208  1  0.59268306  0.15253360  0.87931077  1.0
  N  N209  1  0.65733720  0.12836588  0.90455712  1.0
  N  N210  1  0.84363573  0.62587194  0.09417073  1.0
  N  N211  1  0.90419113  0.65518855  0.12336102  1.0
  N  N212  1  0.87471268  0.59737683  0.15355902  1.0
  N  N213  1  0.12017948  0.90204403  0.65871453  1.0
  N  N214  1  0.09337111  0.84130374  0.62952765  1.0
  N  N215  1  0.15143107  0.87289240  0.60317705  1.0
  N  N216  1  0.81840297  0.92450595  0.88938515  1.0
  N  N217  1  0.83119597  0.93750785  0.85322800  1.0
  N  N218  1  0.92079077  0.88874981  0.81209660  1.0
  N  N219  1  0.93292100  0.85067926  0.82477257  1.0
  N  N220  1  0.89089212  0.80943224  0.91626617  1.0
  N  N221  1  0.85788507  0.82802351  0.93188292  1.0
  N  N222  1  0.19519892  0.58148834  0.39678043  1.0
  N  N223  1  0.17988355  0.56867371  0.36026205  1.0
  N  N224  1  0.08415805  0.61092647  0.31602433  1.0
  N  N225  1  0.06775067  0.64546790  0.33146495  1.0
  N  N226  1  0.11160513  0.68524874  0.42644542  1.0
  N  N227  1  0.14844023  0.67113163  0.44191475  1.0
  N  N228  1  0.30324773  0.08375042  0.60806603  1.0
  N  N229  1  0.31423889  0.07637123  0.64740671  1.0
  N  N230  1  0.41033360  0.11900994  0.68954486  1.0
  N  N231  1  0.43614591  0.13721296  0.66401892  1.0
  N  N232  1  0.39316558  0.17645022  0.56814492  1.0
  N  N233  1  0.35354797  0.16763426  0.55654145  1.0
  N  N234  1  0.68350400  0.42107523  0.10866553  1.0
  N  N235  1  0.66946916  0.43674719  0.14317275  1.0
  N  N236  1  0.57945801  0.39094284  0.18629534  1.0
  N  N237  1  0.56645712  0.35325471  0.17392658  1.0
  N  N238  1  0.60663328  0.30929122  0.08319209  1.0
  N  N239  1  0.64084659  0.32593975  0.06803866  1.0
