# generated using pymatgen
data_AlH12C22O5
_symmetry_space_group_name_H-M   'P 1'
_cell_length_a   13.15594825
_cell_length_b   15.84905336
_cell_length_c   30.17670960
_cell_angle_alpha   89.91343228
_cell_angle_beta   88.99449133
_cell_angle_gamma   88.41154467
_symmetry_Int_Tables_number   1
_chemical_formula_structural   AlH12C22O5
_chemical_formula_sum   'Al8 H96 C176 O40'
_cell_volume   6288.73560150
_cell_formula_units_Z   8
loop_
 _symmetry_equiv_pos_site_id
 _symmetry_equiv_pos_as_xyz
  1  'x, y, z'
loop_
 _atom_site_type_symbol
 _atom_site_label
 _atom_site_symmetry_multiplicity
 _atom_site_fract_x
 _atom_site_fract_y
 _atom_site_fract_z
 _atom_site_occupancy
  Al  Al0  1  0.86815368  0.99821167  0.25051502  1.0
  Al  Al1  1  0.63025575  0.00298200  0.74924288  1.0
  Al  Al2  1  0.87997104  0.00044914  0.75039687  1.0
  Al  Al3  1  0.61828251  0.99706210  0.24969512  1.0
  Al  Al4  1  0.36862313  0.99919082  0.25047726  1.0
  Al  Al5  1  0.12981263  0.99732959  0.74936471  1.0
  Al  Al6  1  0.38001264  0.99997838  0.74879707  1.0
  Al  Al7  1  0.11875355  0.00039710  0.24906305  1.0
  H  H8  1  0.73703662  0.03356982  0.30441162  1.0
  H  H9  1  0.75576012  0.71459743  0.04049791  1.0
  H  H10  1  0.74693227  0.49982529  0.15281697  1.0
  H  H11  1  0.76038914  0.96843935  0.69514479  1.0
  H  H12  1  0.75527584  0.71465907  0.95916074  1.0
  H  H13  1  0.74928523  0.49992033  0.84726281  1.0
  H  H14  1  0.73768731  0.28532423  0.95959978  1.0
  H  H15  1  0.73618531  0.28534713  0.04088757  1.0
  H  H16  1  0.00282891  0.03338205  0.80440333  1.0
  H  H17  1  0.00351714  0.71536495  0.53945318  1.0
  H  H18  1  0.00251654  0.50121468  0.65227112  1.0
  H  H19  1  0.99139593  0.02991285  0.19352045  1.0
  H  H20  1  0.00056504  0.71479651  0.45821868  1.0
  H  H21  1  0.99147924  0.49909036  0.34682601  1.0
  H  H22  1  0.98752363  0.28521333  0.45969336  1.0
  H  H23  1  0.99148862  0.28572815  0.54091280  1.0
  H  H24  1  0.84329632  0.69873264  0.39844099  1.0
  H  H25  1  0.84710186  0.82869072  0.35124339  1.0
  H  H26  1  0.64679718  0.62883739  0.35094113  1.0
  H  H27  1  0.64709599  0.76176937  0.30615653  1.0
  H  H28  1  0.90496310  0.76480628  0.18858035  1.0
  H  H29  1  0.59849882  0.82655228  0.15094044  1.0
  H  H30  1  0.59673048  0.69681794  0.10380969  1.0
  H  H31  1  0.90208829  0.63246110  0.14350444  1.0
  H  H32  1  0.89318072  0.17144263  0.14764458  1.0
  H  H33  1  0.89623802  0.30205137  0.10133737  1.0
  H  H34  1  0.59140233  0.36730834  0.14589262  1.0
  H  H35  1  0.58719090  0.23427342  0.19033233  1.0
  H  H36  1  0.64306596  0.16819558  0.35132596  1.0
  H  H37  1  0.83975944  0.36983668  0.35512325  1.0
  H  H38  1  0.83378269  0.23702679  0.31084108  1.0
  H  H39  1  0.64730226  0.29843692  0.39746568  1.0
  H  H40  1  0.66892059  0.76871685  0.68655291  1.0
  H  H41  1  0.85523288  0.83039876  0.64916781  1.0
  H  H42  1  0.66485405  0.63521266  0.64263399  1.0
  H  H43  1  0.85060364  0.70094519  0.60242242  1.0
  H  H44  1  0.85432865  0.37113738  0.65019254  1.0
  H  H45  1  0.85378666  0.23815617  0.69486439  1.0
  H  H46  1  0.65578071  0.17642878  0.65204034  1.0
  H  H47  1  0.66219045  0.30752047  0.60573077  1.0
  H  H48  1  0.89760691  0.16971061  0.85388629  1.0
  H  H49  1  0.89740347  0.29986408  0.90038141  1.0
  H  H50  1  0.59881519  0.23728976  0.80823487  1.0
  H  H51  1  0.60015042  0.37024784  0.85278932  1.0
  H  H52  1  0.60092906  0.82849171  0.85199897  1.0
  H  H53  1  0.90604311  0.76399459  0.80881125  1.0
  H  H54  1  0.90125885  0.63108713  0.85351011  1.0
  H  H55  1  0.59753708  0.69852990  0.89874768  1.0
  H  H56  1  0.24176369  0.96554781  0.30449329  1.0
  H  H57  1  0.26270802  0.71486112  0.03859977  1.0
  H  H58  1  0.25208443  0.50228541  0.15196257  1.0
  H  H59  1  0.25322109  0.03541005  0.69473664  1.0
  H  H60  1  0.26450020  0.71341109  0.95729228  1.0
  H  H61  1  0.25588112  0.49673507  0.84634795  1.0
  H  H62  1  0.24590737  0.28409625  0.95974257  1.0
  H  H63  1  0.24543959  0.28549771  0.04100741  1.0
  H  H64  1  0.50573940  0.96570189  0.80355677  1.0
  H  H65  1  0.51816320  0.71552050  0.53862825  1.0
  H  H66  1  0.51238165  0.50426845  0.65281064  1.0
  H  H67  1  0.49284371  0.03434828  0.19535142  1.0
  H  H68  1  0.51251434  0.71318401  0.45738873  1.0
  H  H69  1  0.49192466  0.49567694  0.34764845  1.0
  H  H70  1  0.49629181  0.28377501  0.46167589  1.0
  H  H71  1  0.50180580  0.28621186  0.54289881  1.0
  H  H72  1  0.34638218  0.69489561  0.40073925  1.0
  H  H73  1  0.34503643  0.82499303  0.35397494  1.0
  H  H74  1  0.14514973  0.62860830  0.35179912  1.0
  H  H75  1  0.15032712  0.76094078  0.30670697  1.0
  H  H76  1  0.40427542  0.76633765  0.18901602  1.0
  H  H77  1  0.10149886  0.82950370  0.14693291  1.0
  H  H78  1  0.10221005  0.69941719  0.09998944  1.0
  H  H79  1  0.40347869  0.63346227  0.14439705  1.0
  H  H80  1  0.39580567  0.17029035  0.14676473  1.0
  H  H81  1  0.40097165  0.30028880  0.10024787  1.0
  H  H82  1  0.10044980  0.37291294  0.14754513  1.0
  H  H83  1  0.09374232  0.24018155  0.19214535  1.0
  H  H84  1  0.13685262  0.16877128  0.35078298  1.0
  H  H85  1  0.34185918  0.36448845  0.35855665  1.0
  H  H86  1  0.33664620  0.23150375  0.31417825  1.0
  H  H87  1  0.14137472  0.29910853  0.39732736  1.0
  H  H88  1  0.15877120  0.76259144  0.68869253  1.0
  H  H89  1  0.36398810  0.83240899  0.64748569  1.0
  H  H90  1  0.15293011  0.63035727  0.64376532  1.0
  H  H91  1  0.36103250  0.70113061  0.60145818  1.0
  H  H92  1  0.35157232  0.36893836  0.64324099  1.0
  H  H93  1  0.34444679  0.23583962  0.68770952  1.0
  H  H94  1  0.15229272  0.17115906  0.64420306  1.0
  H  H95  1  0.15108425  0.30128929  0.59747776  1.0
  H  H96  1  0.39917026  0.16855487  0.84914806  1.0
  H  H97  1  0.40394330  0.29875515  0.89581620  1.0
  H  H98  1  0.09339243  0.23385575  0.81190274  1.0
  H  H99  1  0.09909628  0.36621365  0.85659464  1.0
  H  H100  1  0.11014180  0.82668697  0.85071027  1.0
  H  H101  1  0.41329886  0.75976554  0.80570797  1.0
  H  H102  1  0.40921156  0.62759530  0.85083334  1.0
  H  H103  1  0.10762066  0.69706092  0.89806970  1.0
  C  C104  1  0.75334116  0.88121125  0.19974315  1.0
  C  C105  1  0.75189106  0.65522740  0.02252382  1.0
  C  C106  1  0.74705631  0.49994353  0.02372696  1.0
  C  C107  1  0.74774126  0.57708073  0.09425574  1.0
  C  C108  1  0.74794982  0.57825328  0.04732697  1.0
  C  C109  1  0.74695524  0.49982601  0.11665314  1.0
  C  C110  1  0.83772431  0.74884592  0.17008344  1.0
  C  C111  1  0.83575676  0.67534095  0.14492157  1.0
  C  C112  1  0.66422631  0.71166233  0.12247581  1.0
  C  C113  1  0.66499903  0.78412067  0.14847615  1.0
  C  C114  1  0.75739428  0.88279549  0.80055220  1.0
  C  C115  1  0.75164773  0.65526120  0.97728451  1.0
  C  C116  1  0.74735811  0.49995607  0.97635368  1.0
  C  C117  1  0.74777433  0.57720500  0.90570569  1.0
  C  C118  1  0.74783608  0.57831801  0.95263857  1.0
  C  C119  1  0.74858061  0.49995684  0.88342789  1.0
  C  C120  1  0.74752089  0.11798404  0.80082649  1.0
  C  C121  1  0.74196256  0.34468733  0.97756080  1.0
  C  C122  1  0.74869835  0.42272992  0.90584349  1.0
  C  C123  1  0.74721242  0.42160846  0.95277809  1.0
  C  C124  1  0.74804587  0.19566601  0.82846738  1.0
  C  C125  1  0.74866454  0.34369392  0.87963276  1.0
  C  C126  1  0.75393121  0.80432017  0.82783421  1.0
  C  C127  1  0.83856244  0.74855030  0.82832128  1.0
  C  C128  1  0.83562545  0.67474163  0.85333163  1.0
  C  C129  1  0.74934879  0.65621734  0.87927292  1.0
  C  C130  1  0.66507348  0.71266701  0.87889359  1.0
  C  C131  1  0.66683118  0.78537999  0.85295073  1.0
  C  C132  1  0.73739319  0.11619336  0.19878761  1.0
  C  C133  1  0.74112259  0.34469832  0.02279815  1.0
  C  C134  1  0.74603964  0.42266745  0.09433320  1.0
  C  C135  1  0.74578935  0.42159987  0.04742296  1.0
  C  C136  1  0.73978371  0.19459607  0.17146986  1.0
  C  C137  1  0.65472307  0.24992915  0.17089001  1.0
  C  C138  1  0.65738285  0.32402752  0.14609730  1.0
  C  C139  1  0.74397259  0.34340137  0.12054994  1.0
  C  C140  1  0.82855933  0.28727866  0.12095709  1.0
  C  C141  1  0.82699814  0.21423308  0.14660576  1.0
  C  C142  1  0.75214687  0.80349328  0.17211971  1.0
  C  C143  1  0.74936022  0.65611549  0.12056427  1.0
  C  C144  1  0.66408427  0.25212514  0.82825894  1.0
  C  C145  1  0.66512914  0.32593877  0.85315197  1.0
  C  C146  1  0.83205540  0.28629806  0.88006238  1.0
  C  C147  1  0.83234450  0.21357525  0.85427111  1.0
  C  C148  1  0.01067676  0.88217400  0.69904196  1.0
  C  C149  1  0.99970872  0.65577180  0.52167280  1.0
  C  C150  1  0.99711577  0.50040400  0.52325207  1.0
  C  C151  1  0.99929073  0.57810995  0.59361218  1.0
  C  C152  1  0.99757452  0.57895992  0.54667464  1.0
  C  C153  1  0.00111737  0.50098056  0.61613003  1.0
  C  C154  1  0.00754953  0.80453742  0.67143337  1.0
  C  C155  1  0.60180795  0.75314343  0.66788109  1.0
  C  C156  1  0.59922059  0.67885507  0.64342348  1.0
  C  C157  1  0.51289655  0.65959805  0.61905140  1.0
  C  C158  1  0.91817793  0.71433087  0.62134887  1.0
  C  C159  1  0.92059384  0.78673371  0.64731306  1.0
  C  C160  1  0.00198771  0.88136818  0.29965647  1.0
  C  C161  1  0.99811137  0.65544633  0.47644617  1.0
  C  C162  1  0.99527044  0.50006293  0.47588433  1.0
  C  C163  1  0.99279910  0.57670207  0.40508543  1.0
  C  C164  1  0.99421677  0.57825759  0.45200453  1.0
  C  C165  1  0.99238659  0.49930049  0.38298283  1.0
  C  C166  1  0.99435657  0.65542472  0.37842634  1.0
  C  C167  1  0.98221365  0.11623163  0.30138140  1.0
  C  C168  1  0.99205250  0.34474308  0.47746738  1.0
  C  C169  1  0.99320303  0.42220991  0.40553576  1.0
  C  C170  1  0.99461985  0.42151521  0.45247019  1.0
  C  C171  1  0.99948009  0.80307690  0.32689632  1.0
  C  C172  1  0.58123550  0.74592044  0.32661141  1.0
  C  C173  1  0.58077362  0.67207206  0.35162259  1.0
  C  C174  1  0.91059231  0.71244056  0.37833061  1.0
  C  C175  1  0.91248091  0.78501215  0.35231726  1.0
  C  C176  1  0.00122989  0.11795336  0.69933769  1.0
  C  C177  1  0.99419358  0.34504080  0.52267592  1.0
  C  C178  1  0.00135675  0.42356763  0.59402242  1.0
  C  C179  1  0.99877813  0.42217148  0.54711263  1.0
  C  C180  1  0.49961944  0.19825256  0.67217317  1.0
  C  C181  1  0.91891364  0.25315366  0.67376135  1.0
  C  C182  1  0.91945897  0.32698437  0.64873992  1.0
  C  C183  1  0.00241076  0.34477373  0.62062000  1.0
  C  C184  1  0.59272269  0.29187680  0.62386678  1.0
  C  C185  1  0.58939725  0.21870873  0.64935450  1.0
  C  C186  1  0.48940430  0.19186684  0.33014433  1.0
  C  C187  1  0.90098829  0.25139019  0.32975138  1.0
  C  C188  1  0.90460467  0.32534970  0.35447172  1.0
  C  C189  1  0.99066161  0.34302677  0.37942898  1.0
  C  C190  1  0.57916763  0.28389798  0.37916644  1.0
  C  C191  1  0.57695646  0.21103623  0.35354070  1.0
  C  C192  1  0.25343192  0.88390676  0.19798348  1.0
  C  C193  1  0.25908708  0.65516664  0.02091265  1.0
  C  C194  1  0.25432734  0.49989722  0.02285550  1.0
  C  C195  1  0.25294833  0.57841735  0.09303494  1.0
  C  C196  1  0.25439020  0.57867280  0.04608080  1.0
  C  C197  1  0.25270612  0.50154575  0.11580397  1.0
  C  C198  1  0.33825682  0.75059643  0.16966120  1.0
  C  C199  1  0.33755550  0.67682952  0.14468130  1.0
  C  C200  1  0.16836877  0.71399320  0.11961151  1.0
  C  C201  1  0.16776130  0.78666676  0.14553451  1.0
  C  C202  1  0.26405997  0.87946581  0.79835678  1.0
  C  C203  1  0.26008087  0.65432878  0.97566050  1.0
  C  C204  1  0.25493688  0.49904944  0.97545400  1.0
  C  C205  1  0.25645846  0.57506634  0.90441338  1.0
  C  C206  1  0.25615701  0.57697024  0.95135938  1.0
  C  C207  1  0.25577844  0.49741352  0.88251452  1.0
  C  C208  1  0.24345441  0.11467660  0.80108814  1.0
  C  C209  1  0.24970750  0.34381978  0.97740608  1.0
  C  C210  1  0.25451945  0.42057535  0.90529368  1.0
  C  C211  1  0.25409501  0.42031234  0.95223302  1.0
  C  C212  1  0.24567899  0.19295513  0.82834730  1.0
  C  C213  1  0.25165900  0.34111257  0.87934764  1.0
  C  C214  1  0.26225641  0.80138185  0.82586528  1.0
  C  C215  1  0.34650410  0.74520930  0.82588671  1.0
  C  C216  1  0.34390910  0.67158809  0.85109841  1.0
  C  C217  1  0.25837891  0.65375492  0.87767928  1.0
  C  C218  1  0.17453376  0.71073540  0.87771278  1.0
  C  C219  1  0.17573913  0.78318580  0.85158350  1.0
  C  C220  1  0.24000425  0.11883948  0.19948066  1.0
  C  C221  1  0.24947732  0.34460211  0.02265106  1.0
  C  C222  1  0.25317654  0.42388664  0.09390155  1.0
  C  C223  1  0.25345781  0.42194929  0.04695208  1.0
  C  C224  1  0.24398105  0.19684018  0.17193128  1.0
  C  C225  1  0.16084871  0.25417161  0.17205378  1.0
  C  C226  1  0.16492050  0.32805605  0.14713503  1.0
  C  C227  1  0.25075675  0.34519364  0.12059576  1.0
  C  C228  1  0.33362633  0.28721648  0.12045324  1.0
  C  C229  1  0.33084723  0.21444669  0.14630395  1.0
  C  C230  1  0.25309354  0.80582840  0.17042563  1.0
  C  C231  1  0.25302111  0.65785481  0.11905518  1.0
  C  C232  1  0.16111753  0.24873046  0.83034538  1.0
  C  C233  1  0.16464608  0.32249870  0.85524051  1.0
  C  C234  1  0.33583247  0.28454949  0.87741281  1.0
  C  C235  1  0.33343690  0.21179063  0.85169462  1.0
  C  C236  1  0.51796125  0.88660019  0.69659304  1.0
  C  C237  1  0.51237259  0.65569149  0.52123798  1.0
  C  C238  1  0.50717867  0.50047566  0.52378096  1.0
  C  C239  1  0.51086347  0.57974581  0.59356918  1.0
  C  C240  1  0.50910671  0.57946592  0.54667955  1.0
  C  C241  1  0.51144827  0.50319926  0.61665998  1.0
  C  C242  1  0.51689182  0.80856030  0.66921246  1.0
  C  C243  1  0.09149123  0.74806582  0.66988896  1.0
  C  C244  1  0.08789806  0.67461446  0.64479227  1.0
  C  C245  1  0.00170010  0.65708570  0.61989231  1.0
  C  C246  1  0.42849443  0.71598889  0.62015073  1.0
  C  C247  1  0.42987443  0.78924198  0.64548865  1.0
  C  C248  1  0.49704000  0.87929000  0.29982073  1.0
  C  C249  1  0.50923231  0.65437753  0.47605615  1.0
  C  C250  1  0.50395703  0.49905142  0.47648662  1.0
  C  C251  1  0.49754282  0.57437761  0.40540797  1.0
  C  C252  1  0.50252660  0.57673231  0.45220551  1.0
  C  C253  1  0.49536671  0.49661175  0.38374607  1.0
  C  C254  1  0.49657559  0.65307621  0.37872628  1.0
  C  C255  1  0.48670066  0.11413432  0.30246726  1.0
  C  C256  1  0.50051492  0.34376052  0.47904830  1.0
  C  C257  1  0.49783406  0.41992134  0.40671046  1.0
  C  C258  1  0.50181222  0.42004159  0.45358541  1.0
  C  C259  1  0.49610530  0.80123131  0.32734139  1.0
  C  C260  1  0.08339286  0.74660041  0.32685183  1.0
  C  C261  1  0.08018841  0.67294763  0.35197580  1.0
  C  C262  1  0.41202165  0.70927706  0.37972519  1.0
  C  C263  1  0.41119160  0.78205625  0.35381349  1.0
  C  C264  1  0.49660687  0.12017426  0.69953921  1.0
  C  C265  1  0.50344912  0.34512182  0.52424527  1.0
  C  C266  1  0.50999003  0.42547255  0.59497396  1.0
  C  C267  1  0.50791977  0.42290331  0.54812298  1.0
  C  C268  1  0.00285056  0.19659968  0.67214432  1.0
  C  C269  1  0.41375942  0.25235116  0.66978280  1.0
  C  C270  1  0.41807549  0.32643505  0.64505852  1.0
  C  C271  1  0.50726478  0.34675177  0.62159864  1.0
  C  C272  1  0.08604287  0.28762422  0.61898340  1.0
  C  C273  1  0.08686491  0.21488038  0.64494418  1.0
  C  C274  1  0.98467863  0.19466355  0.32856303  1.0
  C  C275  1  0.40445208  0.24721167  0.33233928  1.0
  C  C276  1  0.40770927  0.32109163  0.35712640  1.0
  C  C277  1  0.49479900  0.34024898  0.38104926  1.0
  C  C278  1  0.07398491  0.28554740  0.37829591  1.0
  C  C279  1  0.07169213  0.21271595  0.35263034  1.0
  O  O280  1  0.74167653  0.99805218  0.27827477  1.0
  O  O281  1  0.83723878  0.90028138  0.21701534  1.0
  O  O282  1  0.75676126  0.00290856  0.72166766  1.0
  O  O283  1  0.67444233  0.92557894  0.79571249  1.0
  O  O284  1  0.83074321  0.07494137  0.79649368  1.0
  O  O285  1  0.84337787  0.90187375  0.78405513  1.0
  O  O286  1  0.65129963  0.09596761  0.21507633  1.0
  O  O287  1  0.67019749  0.92383480  0.20417012  1.0
  O  O288  1  0.82091893  0.07478463  0.20403276  1.0
  O  O289  1  0.66389210  0.09953441  0.78326908  1.0
  O  O290  1  0.00428897  0.99806253  0.77817685  1.0
  O  O291  1  0.60299126  0.90635528  0.71296920  1.0
  O  O292  1  0.99381862  0.00144090  0.22190753  1.0
  O  O293  1  0.91908200  0.92342921  0.29524326  1.0
  O  O294  1  0.56991389  0.07142186  0.29704600  1.0
  O  O295  1  0.58160137  0.89867067  0.28213644  1.0
  O  O296  1  0.91631257  0.09939420  0.71701861  1.0
  O  O297  1  0.92808452  0.92570424  0.70420510  1.0
  O  O298  1  0.57996596  0.07929571  0.70502416  1.0
  O  O299  1  0.89626148  0.09596264  0.28602644  1.0
  O  O300  1  0.24199198  0.99986012  0.27787371  1.0
  O  O301  1  0.33753931  0.90238735  0.21531747  1.0
  O  O302  1  0.25549992  0.99971157  0.72084749  1.0
  O  O303  1  0.18070455  0.92071860  0.79352467  1.0
  O  O304  1  0.32656913  0.07263825  0.79574500  1.0
  O  O305  1  0.34965241  0.90012333  0.78155200  1.0
  O  O306  1  0.15361721  0.09877092  0.21546896  1.0
  O  O307  1  0.17026645  0.92674872  0.20221593  1.0
  O  O308  1  0.32303436  0.07716180  0.20533692  1.0
  O  O309  1  0.15804518  0.09498902  0.78504027  1.0
  O  O310  1  0.50400043  0.00041575  0.77708927  1.0
  O  O311  1  0.09538399  0.90039715  0.71568292  1.0
  O  O312  1  0.49417494  0.00046080  0.22208723  1.0
  O  O313  1  0.41370703  0.92183478  0.29574366  1.0
  O  O314  1  0.06565415  0.07495170  0.29543322  1.0
  O  O315  1  0.08752981  0.90145954  0.28263645  1.0
  O  O316  1  0.41047357  0.09936214  0.71571568  1.0
  O  O317  1  0.43435987  0.92800419  0.70185426  1.0
  O  O318  1  0.08415040  0.07452936  0.70293281  1.0
  O  O319  1  0.40171426  0.09566814  0.28610236  1.0
