# generated using pymatgen
data_ZnH14C26N3O4
_symmetry_space_group_name_H-M   'P 1'
_cell_length_a   14.69250977
_cell_length_b   15.73596951
_cell_length_c   19.32540875
_cell_angle_alpha   90.14480601
_cell_angle_beta   105.66774939
_cell_angle_gamma   98.36103740
_symmetry_Int_Tables_number   1
_chemical_formula_structural   ZnH14C26N3O4
_chemical_formula_sum   'Zn2 H28 C52 N6 O8'
_cell_volume   4252.21298513
_cell_formula_units_Z   2
loop_
 _symmetry_equiv_pos_site_id
 _symmetry_equiv_pos_as_xyz
  1  'x, y, z'
loop_
 _atom_site_type_symbol
 _atom_site_label
 _atom_site_symmetry_multiplicity
 _atom_site_fract_x
 _atom_site_fract_y
 _atom_site_fract_z
 _atom_site_occupancy
  Zn  Zn0  1  0.59381353  0.48271106  0.52055682  1.0
  Zn  Zn1  1  0.40575555  0.51605960  0.48167995  1.0
  H  H2  1  0.64529427  0.47918988  0.30945037  1.0
  H  H3  1  0.35879063  0.53392893  0.69331598  1.0
  H  H4  1  0.97691613  0.67019615  0.37419676  1.0
  H  H5  1  0.02226907  0.32804400  0.62610014  1.0
  H  H6  1  0.76566680  0.53747324  0.47848865  1.0
  H  H7  1  0.23511111  0.46471658  0.52593442  1.0
  H  H8  1  0.69357514  0.35160436  0.61200084  1.0
  H  H9  1  0.30577344  0.64583333  0.38837597  1.0
  H  H10  1  0.14271692  0.69157100  0.35827850  1.0
  H  H11  1  0.85663698  0.30624697  0.64182597  1.0
  H  H12  1  0.85905162  0.59536841  0.42971443  1.0
  H  H13  1  0.14049190  0.40377926  0.57132376  1.0
  H  H14  1  0.65285925  0.49657602  0.18184055  1.0
  H  H15  1  0.36534014  0.55117116  0.82383365  1.0
  H  H16  1  0.36702570  0.55944186  0.12413486  1.0
  H  H17  1  0.65603769  0.50066491  0.88234756  1.0
  H  H18  1  0.75331987  0.04913063  0.48242906  1.0
  H  H19  1  0.23878564  0.94711696  0.40087255  1.0
  H  H20  1  0.54004781  0.21948148  0.47915063  1.0
  H  H21  1  0.45747200  0.77834080  0.46752340  1.0
  H  H22  1  0.24629172  0.25032679  0.43553135  1.0
  H  H23  1  0.75191980  0.74766423  0.52013213  1.0
  H  H24  1  0.79834839  0.90473893  0.50574796  1.0
  H  H25  1  0.19634822  0.09212458  0.40770534  1.0
  H  H26  1  0.63233241  0.14510330  0.46318170  1.0
  H  H27  1  0.35995974  0.85115438  0.42172616  1.0
  H  H28  1  0.36084648  0.54159589  0.25198800  1.0
  H  H29  1  0.64851546  0.48468811  0.75153632  1.0
  C  C30  1  0.57183447  0.66225575  0.50479166  1.0
  C  C31  1  0.42838075  0.33610348  0.47962724  1.0
  C  C32  1  0.60104750  0.75546821  0.49406194  1.0
  C  C33  1  0.39694567  0.24223609  0.45966196  1.0
  C  C34  1  0.72331939  0.87691989  0.49658955  1.0
  C  C35  1  0.27185639  0.12009619  0.42297136  1.0
  C  C36  1  0.69828904  0.79028232  0.50458539  1.0
  C  C37  1  0.29881983  0.20723739  0.43846761  1.0
  C  C38  1  0.53108703  0.80803117  0.47402498  1.0
  C  C39  1  0.46554804  0.18942707  0.46236396  1.0
  C  C40  1  0.55424146  0.89681253  0.46562318  1.0
  C  C41  1  0.44035858  0.10017113  0.44662213  1.0
  C  C42  1  0.65300131  0.93209038  0.47847460  1.0
  C  C43  1  0.34110149  0.06467088  0.42797540  1.0
  C  C44  1  0.48238072  0.95325345  0.44872632  1.0
  C  C45  1  0.51131473  0.04349591  0.45292458  1.0
  C  C46  1  0.61038328  0.07606140  0.46416572  1.0
  C  C47  1  0.38258030  0.92042365  0.42863330  1.0
  C  C48  1  0.67818143  0.02258342  0.47484824  1.0
  C  C49  1  0.31469571  0.97384708  0.41699361  1.0
  C  C50  1  0.16017411  0.64079997  0.39566659  1.0
  C  C51  1  0.83942632  0.35780998  0.60524026  1.0
  C  C52  1  0.50017669  0.50283563  0.36478364  1.0
  C  C53  1  0.50048479  0.50214749  0.63688522  1.0
  C  C54  1  0.24961350  0.61655604  0.41171655  1.0
  C  C55  1  0.75004850  0.38209729  0.58950288  1.0
  C  C56  1  0.20950814  0.51379358  0.48914701  1.0
  C  C57  1  0.79076214  0.48698648  0.51386876  1.0
  C  C58  1  0.11576185  0.53303143  0.47613677  1.0
  C  C59  1  0.88419905  0.46713758  0.52608076  1.0
  C  C60  1  0.09048082  0.59908232  0.42734477  1.0
  C  C61  1  0.90928580  0.40028050  0.57408334  1.0
  C  C62  1  0.04646048  0.48855228  0.50941906  1.0
  C  C63  1  0.95345980  0.51161442  0.49272722  1.0
  C  C64  1  0.93058667  0.57783381  0.44330483  1.0
  C  C65  1  0.06916725  0.42173673  0.55820689  1.0
  C  C66  1  0.99622171  0.62010056  0.41189354  1.0
  C  C67  1  0.00336832  0.37896671  0.58918520  1.0
  C  C68  1  0.58508003  0.49686342  0.26819957  1.0
  C  C69  1  0.42319230  0.52642024  0.73536714  1.0
  C  C70  1  0.58912954  0.50626777  0.19757540  1.0
  C  C71  1  0.42681503  0.53588923  0.80762247  1.0
  C  C72  1  0.51057514  0.52953250  0.14531808  1.0
  C  C73  1  0.51117718  0.52725519  0.86108841  1.0
  C  C74  1  0.42765781  0.54166175  0.16491342  1.0
  C  C75  1  0.59098066  0.50750424  0.84070862  1.0
  C  C76  1  0.42420616  0.53205980  0.23567119  1.0
  C  C77  1  0.58691527  0.49856576  0.76830218  1.0
  C  C78  1  0.50303525  0.51028063  0.28796023  1.0
  C  C79  1  0.50333974  0.50852721  0.71503422  1.0
  C  C80  1  0.51593577  0.54010162  0.93729181  1.0
  C  C81  1  0.51555337  0.54138571  0.07111261  1.0
  N  N82  1  0.43947397  0.56541953  0.02230517  1.0
  N  N83  1  0.59930331  0.53503529  0.98751854  1.0
  N  N84  1  0.43975608  0.56496820  0.95433503  1.0
  N  N85  1  0.59917935  0.53589968  0.05557244  1.0
  N  N86  1  0.27330793  0.55345966  0.45804162  1.0
  N  N87  1  0.72681420  0.44646568  0.54445198  1.0
  O  O88  1  0.63674109  0.61425418  0.51946906  1.0
  O  O89  1  0.36409653  0.38472691  0.46867012  1.0
  O  O90  1  0.48311442  0.63758868  0.49796912  1.0
  O  O91  1  0.51791205  0.36045642  0.50596183  1.0
  O  O92  1  0.57465414  0.48401864  0.40969896  1.0
  O  O93  1  0.42102485  0.50741112  0.59114668  1.0
  O  O94  1  0.42384223  0.51682340  0.37911302  1.0
  O  O95  1  0.57820601  0.49286801  0.62247180  1.0
