# generated using pymatgen
data_Zr3H33C44N7O16
_symmetry_space_group_name_H-M   'P 1'
_cell_length_a   19.02956992
_cell_length_b   19.06804019
_cell_length_c   19.06822008
_cell_angle_alpha   89.90587583
_cell_angle_beta   60.05831075
_cell_angle_gamma   119.93918303
_symmetry_Int_Tables_number   1
_chemical_formula_structural   Zr3H33C44N7O16
_chemical_formula_sum   'Zr6 H66 C88 N14 O32'
_cell_volume   4897.27722373
_cell_formula_units_Z   2
loop_
 _symmetry_equiv_pos_site_id
 _symmetry_equiv_pos_as_xyz
  1  'x, y, z'
loop_
 _atom_site_type_symbol
 _atom_site_label
 _atom_site_symmetry_multiplicity
 _atom_site_fract_x
 _atom_site_fract_y
 _atom_site_fract_z
 _atom_site_occupancy
  Zr  Zr0  1  0.31414972  0.90782636  0.09307119  1.0
  Zr  Zr1  1  0.68530248  0.09303696  0.90782002  1.0
  Zr  Zr2  1  0.49956416  0.09292613  0.90751772  1.0
  Zr  Zr3  1  0.49987015  0.90749123  0.09295377  1.0
  Zr  Zr4  1  0.49972757  0.90769029  0.90771839  1.0
  Zr  Zr5  1  0.49976280  0.09302126  0.09299952  1.0
  H  H6  1  0.35318501  0.92787966  0.92768837  1.0
  H  H7  1  0.64624579  0.92763979  0.92790394  1.0
  H  H8  1  0.64563966  0.21901480  0.92723253  1.0
  H  H9  1  0.35387889  0.92723449  0.21903276  1.0
  H  H10  1  0.92189874  0.28908565  0.93091835  1.0
  H  H11  1  0.07844784  0.64353614  0.13392439  1.0
  H  H12  1  0.28183649  0.71958351  0.86069652  1.0
  H  H13  1  0.14843332  0.59314198  0.85843816  1.0
  H  H14  1  0.71967691  0.35972285  0.06230842  1.0
  H  H15  1  0.85541295  0.49562822  0.05255687  1.0
  H  H16  1  0.92111658  0.13373542  0.64370187  1.0
  H  H17  1  0.07757887  0.93081790  0.28930576  1.0
  H  H18  1  0.27989942  0.06208355  0.35985939  1.0
  H  H19  1  0.14417739  0.05220562  0.49588506  1.0
  H  H20  1  0.71765706  0.86051196  0.71977824  1.0
  H  H21  1  0.85109749  0.85816559  0.59348041  1.0
  H  H22  1  0.42900454  0.28641064  0.13423116  1.0
  H  H23  1  0.42876461  0.64354578  0.93689823  1.0
  H  H24  1  0.58092090  0.72045663  0.05915301  1.0
  H  H25  1  0.59165352  0.59496056  0.04959462  1.0
  H  H26  1  0.57923790  0.35992827  0.86041146  1.0
  H  H27  1  0.59018572  0.49633045  0.85881100  1.0
  H  H28  1  0.57096903  0.93701414  0.64348136  1.0
  H  H29  1  0.57099469  0.13448498  0.28607711  1.0
  H  H30  1  0.42068567  0.86063524  0.35977326  1.0
  H  H31  1  0.40993661  0.85916630  0.49608327  1.0
  H  H32  1  0.41888846  0.05933763  0.72025461  1.0
  H  H33  1  0.40844726  0.04999341  0.59459879  1.0
  H  H34  1  0.93169625  0.11429683  0.89055639  1.0
  H  H35  1  0.70830719  0.89397010  0.11542745  1.0
  H  H36  1  0.06770017  0.89054160  0.11427535  1.0
  H  H37  1  0.29108167  0.11548261  0.89405334  1.0
  H  H38  1  0.71983852  0.29096272  0.64796522  1.0
  H  H39  1  0.27962191  0.64801624  0.29108471  1.0
  H  H40  1  0.07720294  0.71775039  0.35759548  1.0
  H  H41  1  0.94989352  0.59252110  0.49389955  1.0
  H  H42  1  0.92214999  0.35762862  0.71785134  1.0
  H  H43  1  0.04943404  0.49390233  0.59261221  1.0
  H  H44  1  0.12114221  0.46695112  0.93238909  1.0
  H  H45  1  0.07816315  0.37192648  0.91330181  1.0
  H  H46  1  0.87266794  0.45320718  0.14997025  1.0
  H  H47  1  0.91128655  0.51841128  0.20275058  1.0
  H  H48  1  0.12691978  0.14963787  0.45350457  1.0
  H  H49  1  0.08833660  0.20247793  0.51865321  1.0
  H  H50  1  0.87826686  0.93201482  0.46741060  1.0
  H  H51  1  0.92126259  0.91303108  0.37232557  1.0
  H  H52  1  0.43168858  0.47772122  0.15011422  1.0
  H  H53  1  0.40376559  0.38552175  0.20328809  1.0
  H  H54  1  0.42856342  0.45317179  0.92043642  1.0
  H  H55  1  0.40194038  0.51825719  0.89392752  1.0
  H  H56  1  0.57165014  0.92087129  0.45286942  1.0
  H  H57  1  0.59810705  0.89427929  0.51805270  1.0
  H  H58  1  0.56851962  0.15044785  0.47730367  1.0
  H  H59  1  0.59637152  0.20362660  0.38515237  1.0
  H  H60  1  0.90057738  0.46976016  0.44823853  1.0
  H  H61  1  0.78763894  0.37371418  0.50863821  1.0
  H  H62  1  0.09878701  0.44819282  0.46975781  1.0
  H  H63  1  0.21171928  0.50858748  0.37372715  1.0
  H  H64  1  0.31496652  0.20349121  0.81996094  1.0
  H  H65  1  0.27851710  0.25594665  0.79307401  1.0
  H  H66  1  0.07001309  0.18165343  0.79770424  1.0
  H  H67  1  0.18623212  0.21059259  0.74825654  1.0
  H  H68  1  0.92945043  0.79792201  0.18184842  1.0
  H  H69  1  0.81331631  0.74823940  0.21053642  1.0
  H  H70  1  0.68445141  0.82012105  0.20369165  1.0
  H  H71  1  0.72097252  0.79296059  0.25589422  1.0
  C  C72  1  0.26471421  0.76395973  0.00069520  1.0
  C  C73  1  0.73476715  0.00058645  0.76401134  1.0
  C  C74  1  0.73468791  0.23534603  0.00166714  1.0
  C  C75  1  0.26485572  0.00163732  0.23541314  1.0
  C  C76  1  0.26264782  0.00283123  0.00404833  1.0
  C  C77  1  0.26313465  0.76375471  0.23485206  1.0
  C  C78  1  0.73677835  0.00402656  0.00281195  1.0
  C  C79  1  0.73627467  0.23477422  0.76376277  1.0
  C  C80  1  0.50162468  0.00202898  0.76369254  1.0
  C  C81  1  0.49721720  0.23460204  0.00049758  1.0
  C  C82  1  0.50244090  0.00057840  0.23448143  1.0
  C  C83  1  0.49789420  0.76369305  0.00202669  1.0
  C  C84  1  0.81337916  0.31611113  0.99822587  1.0
  C  C85  1  0.18697489  0.68817806  0.99801463  1.0
  C  C86  1  0.90784032  0.33439647  0.95882318  1.0
  C  C87  1  0.98341544  0.40838693  0.95647094  1.0
  C  C88  1  0.09296000  0.63127916  0.07385973  1.0
  C  C89  1  0.01893491  0.55763172  0.07422227  1.0
  C  C90  1  0.20842608  0.67429666  0.91968281  1.0
  C  C91  1  0.13411536  0.60338659  0.91913502  1.0
  C  C92  1  0.79309572  0.37364826  0.03336492  1.0
  C  C93  1  0.86869710  0.44848295  0.02859292  1.0
  C  C94  1  0.96339881  0.46676074  0.99257072  1.0
  C  C95  1  0.03951909  0.54374643  0.99486728  1.0
  C  C96  1  0.81254232  0.99783115  0.68834162  1.0
  C  C97  1  0.18614229  0.99805543  0.31629178  1.0
  C  C98  1  0.90659882  0.07365294  0.63149442  1.0
  C  C99  1  0.98064262  0.07395799  0.55791506  1.0
  C  C100  1  0.09164995  0.95865219  0.33464025  1.0
  C  C101  1  0.01606839  0.95620793  0.40871403  1.0
  C  C102  1  0.20644053  0.03310587  0.37385457  1.0
  C  C103  1  0.13084987  0.02827439  0.44875134  1.0
  C  C104  1  0.79111375  0.91947643  0.67452605  1.0
  C  C105  1  0.86544434  0.91887714  0.60368674  1.0
  C  C106  1  0.96003928  0.99458581  0.54407408  1.0
  C  C107  1  0.03612400  0.99225818  0.46709391  1.0
  C  C108  1  0.50243457  0.31528604  0.99806219  1.0
  C  C109  1  0.50311475  0.68821981  0.99900859  1.0
  C  C110  1  0.46310021  0.33267877  0.07423828  1.0
  C  C111  1  0.46378017  0.40666283  0.07488339  1.0
  C  C112  1  0.46315488  0.63136379  0.96254204  1.0
  C  C113  1  0.46342586  0.55782377  0.96137221  1.0
  C  C114  1  0.54840000  0.67488171  0.03214426  1.0
  C  C115  1  0.55274531  0.60418006  0.02764144  1.0
  C  C116  1  0.54725667  0.37346555  0.91971012  1.0
  C  C117  1  0.55181109  0.44860492  0.91961558  1.0
  C  C118  1  0.50968005  0.46631540  0.99572451  1.0
  C  C119  1  0.50982211  0.54412624  0.99421770  1.0
  C  C120  1  0.49663232  0.99914431  0.68809451  1.0
  C  C121  1  0.49747563  0.99828325  0.31504841  1.0
  C  C122  1  0.53666012  0.96271951  0.63123659  1.0
  C  C123  1  0.53659359  0.96169690  0.55759145  1.0
  C  C124  1  0.53691389  0.07450313  0.33235706  1.0
  C  C125  1  0.53632905  0.07521041  0.40629509  1.0
  C  C126  1  0.45271138  0.91996565  0.37324666  1.0
  C  C127  1  0.44825772  0.91993702  0.44833700  1.0
  C  C128  1  0.45146693  0.03236731  0.67465875  1.0
  C  C129  1  0.44728117  0.02798190  0.60387748  1.0
  C  C130  1  0.49026527  0.99458716  0.54381835  1.0
  C  C131  1  0.49044388  0.99608132  0.46597991  1.0
  C  C132  1  0.91522765  0.06655204  0.93841205  1.0
  C  C133  1  0.99017002  0.06737957  0.93681457  1.0
  C  C134  1  0.09362330  0.13100970  0.87124354  1.0
  C  C135  1  0.78758441  0.94092289  0.06730953  1.0
  C  C136  1  0.85959108  0.93860606  0.06836963  1.0
  C  C137  1  0.83317226  0.87371692  0.13321589  1.0
  C  C138  1  0.08417082  0.93840374  0.06654097  1.0
  C  C139  1  0.00923897  0.93680226  0.06736126  1.0
  C  C140  1  0.90577772  0.87125605  0.13102107  1.0
  C  C141  1  0.21180132  0.06734348  0.94097884  1.0
  C  C142  1  0.13980821  0.06838747  0.93861783  1.0
  C  C143  1  0.16623163  0.13321551  0.87369841  1.0
  C  C144  1  0.81512339  0.00410991  0.00303868  1.0
  C  C145  1  0.96259357  0.00280611  0.00261931  1.0
  C  C146  1  0.18428805  0.00306699  0.00414314  1.0
  C  C147  1  0.03680857  0.00261913  0.00279120  1.0
  C  C148  1  0.81400806  0.31604295  0.68897298  1.0
  C  C149  1  0.18539923  0.68896066  0.31610586  1.0
  C  C150  1  0.79321324  0.33566277  0.63426497  1.0
  C  C151  1  0.86534355  0.41017250  0.56164299  1.0
  C  C152  1  0.20621894  0.63429349  0.33575534  1.0
  C  C153  1  0.13405741  0.56162998  0.41023464  1.0
  C  C154  1  0.09233923  0.67397310  0.37279014  1.0
  C  C155  1  0.02168873  0.60375789  0.44817120  1.0
  C  C156  1  0.90702054  0.37276076  0.67404356  1.0
  C  C157  1  0.97765784  0.44814816  0.60382178  1.0
  C  C158  1  0.96000116  0.46808125  0.54579185  1.0
  C  C159  1  0.03937459  0.54575030  0.46811853  1.0
  N  N160  1  0.07617108  0.42396591  0.91743959  1.0
  N  N161  1  0.93005646  0.49785845  0.15166727  1.0
  N  N162  1  0.06955704  0.15137364  0.49814022  1.0
  N  N163  1  0.92327910  0.91713655  0.42435703  1.0
  N  N164  1  0.41555265  0.41811477  0.15227374  1.0
  N  N165  1  0.41442175  0.49801168  0.93286842  1.0
  N  N166  1  0.58570433  0.93326592  0.49776253  1.0
  N  N167  1  0.58460672  0.15260920  0.41771000  1.0
  N  N168  1  0.84209975  0.42629862  0.50784907  1.0
  N  N169  1  0.15729365  0.50781661  0.42634580  1.0
  N  N170  1  0.26594399  0.19779202  0.80858466  1.0
  N  N171  1  0.12404414  0.19522793  0.80541544  1.0
  N  N172  1  0.87534787  0.80546444  0.19528259  1.0
  N  N173  1  0.73345797  0.80863012  0.19781429  1.0
  O  O174  1  0.23555665  0.79208730  0.06260428  1.0
  O  O175  1  0.76388106  0.06251454  0.79214209  1.0
  O  O176  1  0.76326540  0.20182237  0.94506338  1.0
  O  O177  1  0.23625287  0.94509333  0.20184303  1.0
  O  O178  1  0.35309465  0.06265268  0.94481727  1.0
  O  O179  1  0.35342374  0.79154865  0.20117738  1.0
  O  O180  1  0.64633844  0.94484450  0.06268235  1.0
  O  O181  1  0.64598864  0.20105840  0.79153372  1.0
  O  O182  1  0.50720480  0.94543863  0.79182340  1.0
  O  O183  1  0.49140728  0.20095975  0.06286144  1.0
  O  O184  1  0.50819177  0.06291102  0.20085522  1.0
  O  O185  1  0.49222518  0.79178990  0.94548758  1.0
  O  O186  1  0.50023975  0.20575907  0.93923317  1.0
  O  O187  1  0.49928100  0.93924789  0.20572544  1.0
  O  O188  1  0.50065606  0.79526185  0.06049652  1.0
  O  O189  1  0.49877434  0.06045621  0.79529528  1.0
  O  O190  1  0.23373130  0.94186019  0.06241536  1.0
  O  O191  1  0.76582842  0.20550531  0.79522592  1.0
  O  O192  1  0.76570161  0.06237443  0.94182272  1.0
  O  O193  1  0.23360334  0.79522727  0.20556068  1.0
  O  O194  1  0.35508290  0.06039148  0.20623988  1.0
  O  O195  1  0.35508037  0.79568372  0.93990789  1.0
  O  O196  1  0.64440716  0.93982962  0.79568247  1.0
  O  O197  1  0.64446367  0.20623442  0.06038536  1.0
  O  O198  1  0.39539636  0.94803057  0.15679771  1.0
  O  O199  1  0.60409261  0.15678328  0.94802592  1.0
  O  O200  1  0.60461140  0.94832797  0.94830082  1.0
  O  O201  1  0.39480624  0.94826867  0.94838596  1.0
  O  O202  1  0.57662444  0.03874010  0.88507000  1.0
  O  O203  1  0.42281752  0.88506071  0.03877487  1.0
  O  O204  1  0.57676799  0.03872518  0.03890746  1.0
  O  O205  1  0.42272159  0.03891677  0.03873732  1.0
