# generated using pymatgen
data_CuH5(C2O)5
_symmetry_space_group_name_H-M   'P 1'
_cell_length_a   17.63276207
_cell_length_b   17.63318175
_cell_length_c   17.63346825
_cell_angle_alpha   63.96745925
_cell_angle_beta   63.98301116
_cell_angle_gamma   63.98730289
_symmetry_Int_Tables_number   1
_chemical_formula_structural   CuH5(C2O)5
_chemical_formula_sum   'Cu6 H30 C60 O30'
_cell_volume   4216.61639753
_cell_formula_units_Z   6
loop_
 _symmetry_equiv_pos_site_id
 _symmetry_equiv_pos_as_xyz
  1  'x, y, z'
loop_
 _atom_site_type_symbol
 _atom_site_label
 _atom_site_symmetry_multiplicity
 _atom_site_fract_x
 _atom_site_fract_y
 _atom_site_fract_z
 _atom_site_occupancy
  Cu  Cu0  1  0.50050830  0.07008942  0.50247360  1.0
  Cu  Cu1  1  0.07017555  0.50231175  0.50067352  1.0
  Cu  Cu2  1  0.50265831  0.50050171  0.07012564  1.0
  Cu  Cu3  1  0.92990431  0.49729141  0.49958228  1.0
  Cu  Cu4  1  0.49934293  0.92980196  0.49756529  1.0
  Cu  Cu5  1  0.49755638  0.49950488  0.92987069  1.0
  H  H6  1  0.51804768  0.99558524  0.22778946  1.0
  H  H7  1  0.99552033  0.22778448  0.51803753  1.0
  H  H8  1  0.22787549  0.51806284  0.99564435  1.0
  H  H9  1  0.00555594  0.48144210  0.77454043  1.0
  H  H10  1  0.77442086  0.00531362  0.48144869  1.0
  H  H11  1  0.48144786  0.77449830  0.00549080  1.0
  H  H12  1  0.48182819  0.00452085  0.77216170  1.0
  H  H13  1  0.00432160  0.77198997  0.48205242  1.0
  H  H14  1  0.77225177  0.48200116  0.00444428  1.0
  H  H15  1  0.99463653  0.51850930  0.22562341  1.0
  H  H16  1  0.22552826  0.99457655  0.51817984  1.0
  H  H17  1  0.51862111  0.22558721  0.99447594  1.0
  H  H18  1  0.51480332  0.23267123  0.42492100  1.0
  H  H19  1  0.55822280  0.19409908  0.49896250  1.0
  H  H20  1  0.23327878  0.42592317  0.51416324  1.0
  H  H21  1  0.19404842  0.49986720  0.55780946  1.0
  H  H22  1  0.42395079  0.51568724  0.23178852  1.0
  H  H23  1  0.49779827  0.55913992  0.19399766  1.0
  H  H24  1  0.76806785  0.57570713  0.48447369  1.0
  H  H25  1  0.80600601  0.50178701  0.44110307  1.0
  H  H26  1  0.48541448  0.76699806  0.57475425  1.0
  H  H27  1  0.44178451  0.80584873  0.50083462  1.0
  H  H28  1  0.57534224  0.48516061  0.76752034  1.0
  H  H29  1  0.50147399  0.44155655  0.80591942  1.0
  H  H30  1  0.52822837  0.23391373  0.22988921  1.0
  H  H31  1  0.23388256  0.22975272  0.52830383  1.0
  H  H32  1  0.23017253  0.52767814  0.23415676  1.0
  H  H33  1  0.77019412  0.47178069  0.76611513  1.0
  H  H34  1  0.76577849  0.76977455  0.47237487  1.0
  H  H35  1  0.47176411  0.76610898  0.77013953  1.0
  C  C36  1  0.52087596  0.06742989  0.33347728  1.0
  C  C37  1  0.52431520  0.10979871  0.23792000  1.0
  C  C38  1  0.52064875  0.06329512  0.19333640  1.0
  C  C39  1  0.06743568  0.33333333  0.52101555  1.0
  C  C40  1  0.10976995  0.23783806  0.52432819  1.0
  C  C41  1  0.06324009  0.19332088  0.52058932  1.0
  C  C42  1  0.33360700  0.52072249  0.06755161  1.0
  C  C43  1  0.23810598  0.52403800  0.10995433  1.0
  C  C44  1  0.19346867  0.52053523  0.06338827  1.0
  C  C45  1  0.93632771  0.47830130  0.66624898  1.0
  C  C46  1  0.89282173  0.47524247  0.76159585  1.0
  C  C47  1  0.93773619  0.47899436  0.80760392  1.0
  C  C48  1  0.66601999  0.93602681  0.47865773  1.0
  C  C49  1  0.76135824  0.89247867  0.47558685  1.0
  C  C50  1  0.80744369  0.93746261  0.47910955  1.0
  C  C51  1  0.47845798  0.66617499  0.93624724  1.0
  C  C52  1  0.47525195  0.76156380  0.89276532  1.0
  C  C53  1  0.47895469  0.80759702  0.93767621  1.0
  C  C54  1  0.47898683  0.93259549  0.66654837  1.0
  C  C55  1  0.47560751  0.89025846  0.76209225  1.0
  C  C56  1  0.47927839  0.93678976  0.80664212  1.0
  C  C57  1  0.93238614  0.66631163  0.47935084  1.0
  C  C58  1  0.88999169  0.76179866  0.47606503  1.0
  C  C59  1  0.93657686  0.80642204  0.47957196  1.0
  C  C60  1  0.66660280  0.47916984  0.93255613  1.0
  C  C61  1  0.76213644  0.47573008  0.89022978  1.0
  C  C62  1  0.80670745  0.47939371  0.93674762  1.0
  C  C63  1  0.06393293  0.52132607  0.33398113  1.0
  C  C64  1  0.10746178  0.52442848  0.23863503  1.0
  C  C65  1  0.06247666  0.52088667  0.19257049  1.0
  C  C66  1  0.33380938  0.06372104  0.52145152  1.0
  C  C67  1  0.23843799  0.10721613  0.52458381  1.0
  C  C68  1  0.19243271  0.06234916  0.52074850  1.0
  C  C69  1  0.52167554  0.33385211  0.06374796  1.0
  C  C70  1  0.52478165  0.23848300  0.10723299  1.0
  C  C71  1  0.52107585  0.19247753  0.06229966  1.0
  C  C72  1  0.52662084  0.19720171  0.19493663  1.0
  C  C73  1  0.51876030  0.10426993  0.10498443  1.0
  C  C74  1  0.51189512  0.05888444  0.06038832  1.0
  C  C75  1  0.50425916  0.02091180  0.02135735  1.0
  C  C76  1  0.19718190  0.19484978  0.52658277  1.0
  C  C77  1  0.10421154  0.10504753  0.51851566  1.0
  C  C78  1  0.05879903  0.06045485  0.51163831  1.0
  C  C79  1  0.02081908  0.02142037  0.50401708  1.0
  C  C80  1  0.19517939  0.52619395  0.19740090  1.0
  C  C81  1  0.10511943  0.51867923  0.10434037  1.0
  C  C82  1  0.06046318  0.51196599  0.05890943  1.0
  C  C83  1  0.02140882  0.50439551  0.02089981  1.0
  C  C84  1  0.80512285  0.47340996  0.80284206  1.0
  C  C85  1  0.89504553  0.48132362  0.89579511  1.0
  C  C86  1  0.93960439  0.48821577  0.94121205  1.0
  C  C87  1  0.97862090  0.49584506  0.97920655  1.0
  C  C88  1  0.80256270  0.80474926  0.47385999  1.0
  C  C89  1  0.89565503  0.89478114  0.48137438  1.0
  C  C90  1  0.94110602  0.93946037  0.48807077  1.0
  C  C91  1  0.97910520  0.97855393  0.49558138  1.0
  C  C92  1  0.47335593  0.80284070  0.80507840  1.0
  C  C93  1  0.48120909  0.89582993  0.89498313  1.0
  C  C94  1  0.48806961  0.94122986  0.93956123  1.0
  C  C95  1  0.49571241  0.97922900  0.97856872  1.0
  O  O96  1  0.51712405  0.98815252  0.36902757  1.0
  O  O97  1  0.51988343  0.11474139  0.37200512  1.0
  O  O98  1  0.98820017  0.36889303  0.51717300  1.0
  O  O99  1  0.11473807  0.37180114  0.52015468  1.0
  O  O100  1  0.36911216  0.51702794  0.98826545  1.0
  O  O101  1  0.37214742  0.51979217  0.11482129  1.0
  O  O102  1  0.01550822  0.48261262  0.63061625  1.0
  O  O103  1  0.88919933  0.47856300  0.62813106  1.0
  O  O104  1  0.63049697  0.01530464  0.48269552  1.0
  O  O105  1  0.62782071  0.88886921  0.47912109  1.0
  O  O106  1  0.48276578  0.63053193  0.01544196  1.0
  O  O107  1  0.47883008  0.62802087  0.88909378  1.0
  O  O108  1  0.48287052  0.01182560  0.63094314  1.0
  O  O109  1  0.47980853  0.88531634  0.62809119  1.0
  O  O110  1  0.01169098  0.63082534  0.48299209  1.0
  O  O111  1  0.88510209  0.62777033  0.48030181  1.0
  O  O112  1  0.63107696  0.48290280  0.01183715  1.0
  O  O113  1  0.62805379  0.48019102  0.88524721  1.0
  O  O114  1  0.98467559  0.51722318  0.36953141  1.0
  O  O115  1  0.11109095  0.52086476  0.37217660  1.0
  O  O116  1  0.36940998  0.98452628  0.51717935  1.0
  O  O117  1  0.37196400  0.11084948  0.52111546  1.0
  O  O118  1  0.51738940  0.36950257  0.98453849  1.0
  O  O119  1  0.52136281  0.37196345  0.11089797  1.0
  O  O120  1  0.50368701  0.20551037  0.48876386  1.0
  O  O121  1  0.20537179  0.48965209  0.50331440  1.0
  O  O122  1  0.48789006  0.50435736  0.20568694  1.0
  O  O123  1  0.79440225  0.51178406  0.49580558  1.0
  O  O124  1  0.49635382  0.79446170  0.51095967  1.0
  O  O125  1  0.51149473  0.49621038  0.79444166  1.0
