# generated using pymatgen
data_ZnH21C28N2O7
_symmetry_space_group_name_H-M   'P 1'
_cell_length_a   9.56470448
_cell_length_b   10.84592829
_cell_length_c   28.12808115
_cell_angle_alpha   90.07411420
_cell_angle_beta   90.23076920
_cell_angle_gamma   89.85188861
_symmetry_Int_Tables_number   1
_chemical_formula_structural   ZnH21C28N2O7
_chemical_formula_sum   'Zn2 H42 C56 N4 O14'
_cell_volume   2917.91784507
_cell_formula_units_Z   2
loop_
 _symmetry_equiv_pos_site_id
 _symmetry_equiv_pos_as_xyz
  1  'x, y, z'
loop_
 _atom_site_type_symbol
 _atom_site_label
 _atom_site_symmetry_multiplicity
 _atom_site_fract_x
 _atom_site_fract_y
 _atom_site_fract_z
 _atom_site_occupancy
  Zn  Zn0  1  0.64698677  0.49967163  0.49996462  1.0
  Zn  Zn1  1  0.35314038  0.50062330  0.50050484  1.0
  H  H2  1  0.27847467  0.49966793  0.65354813  1.0
  H  H3  1  0.28103346  0.49612814  0.74286798  1.0
  H  H4  1  0.27189148  0.50258036  0.34849476  1.0
  H  H5  1  0.26678379  0.49683616  0.25911287  1.0
  H  H6  1  0.50710882  0.17467087  0.03375673  1.0
  H  H7  1  0.58511386  0.18671265  0.96732279  1.0
  H  H8  1  0.72656938  0.49533781  0.65229314  1.0
  H  H9  1  0.73039373  0.49138329  0.74162611  1.0
  H  H10  1  0.41010268  0.78651671  0.87764449  1.0
  H  H11  1  0.45715741  0.79872886  0.03456288  1.0
  H  H12  1  0.71969184  0.48854038  0.34665486  1.0
  H  H13  1  0.45923209  0.79503850  0.12224472  1.0
  H  H14  1  0.71590525  0.48227811  0.25728861  1.0
  H  H15  1  0.40717964  0.79137865  0.96592462  1.0
  H  H16  1  0.67899121  0.10759684  0.45446459  1.0
  H  H17  1  0.29333432  0.10880364  0.53198139  1.0
  H  H18  1  0.51840482  0.10727114  0.42330618  1.0
  H  H19  1  0.29053618  0.10821190  0.46943947  1.0
  H  H20  1  0.51803647  0.89233901  0.42332834  1.0
  H  H21  1  0.28999141  0.89269254  0.46971556  1.0
  H  H22  1  0.67868016  0.89117930  0.45445256  1.0
  H  H23  1  0.29351406  0.89331929  0.53225082  1.0
  H  H24  1  0.68275279  0.10817937  0.54419723  1.0
  H  H25  1  0.52473076  0.10776389  0.57640334  1.0
  H  H26  1  0.68291978  0.89175390  0.54405903  1.0
  H  H27  1  0.52518730  0.89283252  0.57643605  1.0
  H  H28  1  0.12619939  0.37814458  0.55863070  1.0
  H  H29  1  0.87741600  0.37791777  0.55880733  1.0
  H  H30  1  0.12540117  0.30730472  0.50201586  1.0
  H  H31  1  0.87686269  0.30678437  0.50224745  1.0
  H  H32  1  0.12504794  0.59805837  0.56539420  1.0
  H  H33  1  0.87608305  0.59762071  0.56547940  1.0
  H  H34  1  0.12279191  0.59526757  0.43626891  1.0
  H  H35  1  0.87465162  0.59499014  0.43642483  1.0
  H  H36  1  0.12331367  0.43303153  0.43134797  1.0
  H  H37  1  0.87551759  0.43273989  0.43138036  1.0
  H  H38  1  0.12368201  0.69102291  0.51375090  1.0
  H  H39  1  0.87485952  0.69044309  0.51381989  1.0
  H  H40  1  0.64483735  0.08291504  0.90332932  1.0
  H  H41  1  0.53849214  0.11302573  0.85205485  1.0
  H  H42  1  0.71034491  0.16557514  0.85309837  1.0
  H  H43  1  0.37476654  0.03763259  0.16459416  1.0
  C  C44  1  0.50144133  0.26056619  0.49977713  1.0
  C  C45  1  0.49960574  0.49913520  0.59439965  1.0
  C  C46  1  0.50086614  0.73968944  0.49991325  1.0
  C  C47  1  0.49759707  0.49866218  0.40604561  1.0
  C  C48  1  0.54117308  0.37931910  0.82064226  1.0
  C  C49  1  0.47086769  0.60224721  0.82118040  1.0
  C  C50  1  0.63186603  0.49328658  0.72202798  1.0
  C  C51  1  0.62972710  0.49537243  0.67253825  1.0
  C  C52  1  0.37669384  0.49768937  0.67326057  1.0
  C  C53  1  0.37813262  0.49537581  0.72270960  1.0
  C  C54  1  0.50585536  0.49307485  0.74675447  1.0
  C  C55  1  0.50055747  0.48682440  0.89849513  1.0
  C  C56  1  0.53791215  0.37751609  0.87329627  1.0
  C  C57  1  0.57134540  0.26934069  0.89856459  1.0
  C  C58  1  0.46918677  0.59722722  0.87359007  1.0
  C  C59  1  0.50229751  0.49749913  0.64780582  1.0
  C  C60  1  0.49596924  0.49558449  0.35261598  1.0
  C  C61  1  0.50218657  0.37294723  0.02599979  1.0
  C  C62  1  0.47092504  0.60081973  0.02613273  1.0
  C  C63  1  0.48508609  0.48657173  0.05096219  1.0
  C  C64  1  0.50140998  0.26325267  0.05192326  1.0
  C  C65  1  0.49264732  0.26151197  0.10171134  1.0
  C  C66  1  0.49148735  0.37249128  0.12706671  1.0
  C  C67  1  0.48351491  0.48554385  0.10180689  1.0
  C  C68  1  0.47268169  0.59860590  0.12693278  1.0
  C  C69  1  0.46842412  0.60151298  0.17939812  1.0
  C  C70  1  0.50756908  0.37320775  0.17946187  1.0
  C  C71  1  0.36543768  0.49445606  0.27863307  1.0
  C  C72  1  0.36826936  0.49786818  0.32807625  1.0
  C  C73  1  0.62122836  0.49008032  0.32705661  1.0
  C  C74  1  0.61917140  0.48675112  0.27756635  1.0
  C  C75  1  0.49106890  0.48888924  0.25376502  1.0
  C  C76  1  0.51902036  0.37532464  0.97430767  1.0
  C  C77  1  0.49469933  0.48777156  0.94932000  1.0
  C  C78  1  0.46547504  0.59984464  0.97414400  1.0
  C  C79  1  0.55933023  0.27158819  0.94846399  1.0
  C  C80  1  0.43504672  0.70420722  0.89826044  1.0
  C  C81  1  0.46314515  0.71001568  0.05253962  1.0
  C  C82  1  0.46424730  0.70911129  0.10216563  1.0
  C  C83  1  0.43401097  0.70578956  0.94781555  1.0
  C  C84  1  0.57198303  0.07110015  0.45507774  1.0
  C  C85  1  0.34691162  0.07180251  0.50053520  1.0
  C  C86  1  0.57176497  0.92836925  0.45508498  1.0
  C  C87  1  0.34678599  0.92940242  0.50066010  1.0
  C  C88  1  0.57578445  0.07152711  0.54427601  1.0
  C  C89  1  0.49763918  0.12030255  0.49993292  1.0
  C  C90  1  0.49742551  0.87999198  0.49997431  1.0
  C  C91  1  0.57588017  0.92872482  0.54426059  1.0
  C  C92  1  0.08198583  0.38411915  0.52263206  1.0
  C  C93  1  0.92026019  0.38383984  0.52273508  1.0
  C  C94  1  0.08091245  0.60672967  0.52947332  1.0
  C  C95  1  0.91905524  0.60639340  0.52952562  1.0
  C  C96  1  0.08005697  0.51052084  0.45165267  1.0
  C  C97  1  0.91865132  0.51027248  0.45170645  1.0
  C  C98  1  0.61886810  0.15111843  0.87584029  1.0
  C  C99  1  0.48582637  0.13583786  0.12415573  1.0
  N  N100  1  0.50666529  0.49183796  0.79807599  1.0
  N  N101  1  0.48712698  0.48729692  0.20242234  1.0
  N  N102  1  0.13429250  0.50056547  0.50115879  1.0
  N  N103  1  0.86598453  0.50000016  0.50125111  1.0
  O  O104  1  0.62098424  0.31179186  0.49953612  1.0
  O  O105  1  0.38456791  0.31682923  0.49988804  1.0
  O  O106  1  0.61723275  0.49979666  0.57323741  1.0
  O  O107  1  0.37990874  0.49952676  0.57442099  1.0
  O  O108  1  0.62028447  0.68763514  0.49916959  1.0
  O  O109  1  0.38382219  0.68423281  0.50064635  1.0
  O  O110  1  0.61654648  0.49845666  0.42650351  1.0
  O  O111  1  0.37951151  0.50099908  0.42665391  1.0
  O  O112  1  0.57062008  0.28883527  0.79610708  1.0
  O  O113  1  0.53951442  0.28058534  0.20225434  1.0
  O  O114  1  0.44291860  0.69619660  0.79849953  1.0
  O  O115  1  0.45160369  0.69695441  0.20238400  1.0
  O  O116  1  0.57063136  0.05413629  0.11597320  1.0
  O  O117  1  0.36795991  0.11936730  0.14981704  1.0
