# generated using pymatgen
data_Al4H23C44N3(ClO13)2
_symmetry_space_group_name_H-M   'P 1'
_cell_length_a   6.64421681
_cell_length_b   15.84119347
_cell_length_c   17.18600737
_cell_angle_alpha   101.72906523
_cell_angle_beta   91.34794750
_cell_angle_gamma   91.81446495
_symmetry_Int_Tables_number   1
_chemical_formula_structural   Al4H23C44N3(ClO13)2
_chemical_formula_sum   'Al4 H23 C44 N3 Cl2 O26'
_cell_volume   1769.37992535
_cell_formula_units_Z   1
loop_
 _symmetry_equiv_pos_site_id
 _symmetry_equiv_pos_as_xyz
  1  'x, y, z'
loop_
 _atom_site_type_symbol
 _atom_site_label
 _atom_site_symmetry_multiplicity
 _atom_site_fract_x
 _atom_site_fract_y
 _atom_site_fract_z
 _atom_site_occupancy
  Al  Al0  1  0.11517712  0.50226601  0.49559310  1.0
  Al  Al1  1  0.61810313  0.49780896  0.49949500  1.0
  Al  Al2  1  0.65389735  0.99815033  0.00505632  1.0
  Al  Al3  1  0.15138979  0.00050662  0.00132656  1.0
  H  H4  1  0.63184137  0.80863642  0.14147533  1.0
  H  H5  1  0.23966517  0.90582935  0.20033178  1.0
  H  H6  1  0.49038314  0.69093401  0.20347240  1.0
  H  H7  1  0.27755323  0.80824896  0.29648703  1.0
  H  H8  1  0.52826776  0.59381840  0.30006198  1.0
  H  H9  1  0.13700516  0.69025939  0.35773242  1.0
  H  H10  1  0.71639562  0.80084678  0.64164981  1.0
  H  H11  1  0.53176860  0.77989207  0.78490538  1.0
  H  H12  1  0.70961350  0.61544428  0.76755681  1.0
  H  H13  1  0.05044073  0.69658654  0.85960520  1.0
  H  H14  1  0.23435824  0.71783931  0.71696696  1.0
  H  H15  1  0.05736483  0.88253942  0.73410628  1.0
  H  H16  1  0.24333218  0.11134259  0.27210055  1.0
  H  H17  1  0.74487576  0.23401823  0.22437476  1.0
  H  H18  1  0.52604749  0.38807660  0.23240873  1.0
  H  H19  1  0.21217959  0.28737304  0.13509362  1.0
  H  H20  1  0.02266140  0.26314386  0.27853121  1.0
  H  H21  1  0.64076615  0.06695658  0.77845511  1.0
  H  H22  1  0.57548077  0.28107596  0.62224896  1.0
  H  H23  1  0.38172095  0.60817792  0.53728955  1.0
  H  H24  1  0.87070905  0.39708322  0.52274878  1.0
  H  H25  1  0.38949459  0.88945635  0.96610656  1.0
  H  H26  1  0.90071359  0.09955725  0.97282608  1.0
  C  C27  1  0.34608910  0.37977671  0.38852928  1.0
  C  C28  1  0.36794059  0.41854471  0.60382324  1.0
  C  C29  1  0.88739872  0.62147421  0.60930732  1.0
  C  C30  1  0.85234136  0.58065186  0.39334315  1.0
  C  C31  1  0.93221552  0.86230804  0.16586579  1.0
  C  C32  1  0.83637342  0.63686495  0.33387614  1.0
  C  C33  1  0.63085458  0.69136960  0.23780742  1.0
  C  C34  1  0.65173123  0.63707938  0.29036057  1.0
  C  C35  1  0.99632159  0.69143835  0.32397769  1.0
  C  C36  1  0.97733681  0.74953641  0.27190208  1.0
  C  C37  1  0.79085996  0.74956492  0.22769763  1.0
  C  C38  1  0.77223389  0.80758264  0.17548477  1.0
  C  C39  1  0.11644517  0.86230808  0.20969025  1.0
  C  C40  1  0.13723195  0.80785993  0.26205492  1.0
  C  C41  1  0.68738121  0.76564287  0.76923204  1.0
  C  C42  1  0.78975450  0.77867657  0.69115422  1.0
  C  C43  1  0.89063358  0.68861438  0.68282830  1.0
  C  C44  1  0.78565399  0.67582043  0.76139960  1.0
  C  C45  1  0.97661226  0.71932838  0.81057676  1.0
  C  C46  1  0.07894183  0.73239282  0.73255958  1.0
  C  C47  1  0.98061034  0.82221156  0.74034045  1.0
  C  C48  1  0.87584317  0.80934858  0.81908167  1.0
  C  C49  1  0.48007319  0.22799150  0.31233753  1.0
  C  C50  1  0.30255145  0.17335219  0.26225174  1.0
  C  C51  1  0.41021484  0.18809777  0.18463920  1.0
  C  C52  1  0.58527678  0.24182990  0.23607710  1.0
  C  C53  1  0.46256976  0.32536088  0.23871517  1.0
  C  C54  1  0.28650532  0.27147904  0.18740375  1.0
  C  C55  1  0.18156155  0.25689598  0.26465801  1.0
  C  C56  1  0.35457114  0.31081721  0.31629282  1.0
  C  C57  1  0.40745950  0.14247975  0.84088129  1.0
  C  C58  1  0.35265840  0.36931359  0.66964146  1.0
  C  C59  1  0.17749697  0.33797213  0.78421743  1.0
  C  C60  1  0.20655353  0.38823527  0.72829904  1.0
  C  C61  1  0.46688148  0.29814484  0.66882185  1.0
  C  C62  1  0.44379893  0.24541799  0.72546727  1.0
  C  C63  1  0.29854539  0.26591492  0.78734459  1.0
  C  C64  1  0.29079392  0.21459503  0.84675683  1.0
  C  C65  1  0.54573311  0.12192850  0.77956665  1.0
  C  C66  1  0.56520723  0.17242846  0.72368784  1.0
  C  C67  1  0.39807050  0.08553584  0.90099279  1.0
  C  C68  1  0.42326379  0.11875667  0.11277215  1.0
  C  C69  1  0.91757012  0.91872569  0.10661792  1.0
  C  C70  1  0.87850815  0.87766200  0.89173317  1.0
  N  N71  1  0.57369807  0.20717437  0.38411914  1.0
  N  N72  1  0.00772956  0.36109570  0.83814131  1.0
  N  N73  1  0.08573216  0.46550876  0.73088296  1.0
  Cl  Cl74  1  0.15569415  0.24509448  0.93199711  1.0
  Cl  Cl75  1  0.74306654  0.14725054  0.65197892  1.0
  O  O76  1  0.54294197  0.43972449  0.58534738  1.0
  O  O77  1  0.17939765  0.41465789  0.40606895  1.0
  O  O78  1  0.02567124  0.57120293  0.42318762  1.0
  O  O79  1  0.20058651  0.43129120  0.57158316  1.0
  O  O80  1  0.05555754  0.59254866  0.58380032  1.0
  O  O81  1  0.51429876  0.39915802  0.42580340  1.0
  O  O82  1  0.37276899  0.55195832  0.50183208  1.0
  O  O83  1  0.71431734  0.59751687  0.57652072  1.0
  O  O84  1  0.68749188  0.54762314  0.41163052  1.0
  O  O85  1  0.86559909  0.44744131  0.49890326  1.0
  O  O86  1  0.25901718  0.10053759  0.07229463  1.0
  O  O87  1  0.56538289  0.07413656  0.93387492  1.0
  O  O88  1  0.71100468  0.91087729  0.91328571  1.0
  O  O89  1  0.59064792  0.08335820  0.09685707  1.0
  O  O90  1  0.74611649  0.92614164  0.07420983  1.0
  O  O91  1  0.22639849  0.05362737  0.91237748  1.0
  O  O92  1  0.39735448  0.94685555  0.99944209  1.0
  O  O93  1  0.08199564  0.95427781  0.09085015  1.0
  O  O94  1  0.04979014  0.89913427  0.92710566  1.0
  O  O95  1  0.90484791  0.05247827  0.00112543  1.0
  O  O96  1  0.75640868  0.19368092  0.38431965  1.0
  O  O97  1  0.45998647  0.20503649  0.44011900  1.0
  O  O98  1  0.85930654  0.31081047  0.82715197  1.0
  O  O99  1  0.02553951  0.42974595  0.88733995  1.0
  O  O100  1  0.18214040  0.53506314  0.74104399  1.0
  O  O101  1  0.90073542  0.45491658  0.72337064  1.0
