# generated using pymatgen
data_Zn4H54C78N18O13
_symmetry_space_group_name_H-M   'P 1'
_cell_length_a   17.80915648
_cell_length_b   19.13872026
_cell_length_c   19.13879797
_cell_angle_alpha   60.00008077
_cell_angle_beta   89.99996603
_cell_angle_gamma   90.00002653
_symmetry_Int_Tables_number   1
_chemical_formula_structural   Zn4H54C78N18O13
_chemical_formula_sum   'Zn8 H108 C156 N36 O26'
_cell_volume   5649.39430324
_cell_formula_units_Z   2
loop_
 _symmetry_equiv_pos_site_id
 _symmetry_equiv_pos_as_xyz
  1  'x, y, z'
loop_
 _atom_site_type_symbol
 _atom_site_label
 _atom_site_symmetry_multiplicity
 _atom_site_fract_x
 _atom_site_fract_y
 _atom_site_fract_z
 _atom_site_occupancy
  Zn  Zn0  1  0.59990022  0.66666667  0.66666667  1.0
  Zn  Zn1  1  0.09990095  0.33333333  0.33333333  1.0
  Zn  Zn2  1  0.96521542  0.44793358  0.29266559  1.0
  Zn  Zn3  1  0.96521420  0.25940196  0.44793121  1.0
  Zn  Zn4  1  0.46521506  0.70733226  0.55206903  1.0
  Zn  Zn5  1  0.96521370  0.29266636  0.25940173  1.0
  Zn  Zn6  1  0.46521445  0.74060006  0.70733393  1.0
  Zn  Zn7  1  0.46521552  0.55206960  0.74059858  1.0
  H  H8  1  0.74143640  0.57120088  0.57953914  1.0
  H  H9  1  0.74143648  0.84926049  0.57120159  1.0
  H  H10  1  0.24143712  0.42046125  0.42879812  1.0
  H  H11  1  0.74143632  0.57953854  0.84926101  1.0
  H  H12  1  0.24143649  0.15074009  0.42046087  1.0
  H  H13  1  0.24143665  0.42879962  0.15073944  1.0
  H  H14  1  0.81731142  0.49406069  0.52951230  1.0
  H  H15  1  0.81731042  0.97642795  0.49406043  1.0
  H  H16  1  0.31731044  0.47048757  0.50593911  1.0
  H  H17  1  0.81731128  0.52951281  0.97642707  1.0
  H  H18  1  0.31731146  0.02357249  0.47048773  1.0
  H  H19  1  0.31731116  0.50593988  0.02357268  1.0
  H  H20  1  0.64066776  0.52889913  0.36107780  1.0
  H  H21  1  0.64066648  0.11002310  0.52889883  1.0
  H  H22  1  0.14066741  0.63892093  0.47110067  1.0
  H  H23  1  0.64066723  0.36107786  0.11002301  1.0
  H  H24  1  0.14066798  0.88997755  0.63892133  1.0
  H  H25  1  0.14066723  0.47110045  0.88997884  1.0
  H  H26  1  0.56600312  0.60583128  0.41210152  1.0
  H  H27  1  0.56600203  0.98206717  0.60583390  1.0
  H  H28  1  0.06600214  0.58790078  0.39416583  1.0
  H  H29  1  0.56600176  0.41210039  0.98206719  1.0
  H  H30  1  0.06600250  0.01793314  0.58789871  1.0
  H  H31  1  0.06600221  0.39416761  0.01793356  1.0
  H  H32  1  0.90862940  0.60242181  0.28466116  1.0
  H  H33  1  0.90862861  0.11291779  0.60242097  1.0
  H  H34  1  0.40862848  0.71533903  0.39757821  1.0
  H  H35  1  0.90862881  0.28466139  0.11291709  1.0
  H  H36  1  0.40862843  0.88708339  0.71533825  1.0
  H  H37  1  0.40862881  0.39757801  0.88708277  1.0
  H  H38  1  0.87865602  0.60291683  0.37435630  1.0
  H  H39  1  0.87865524  0.02272759  0.60291576  1.0
  H  H40  1  0.37865512  0.62564296  0.39708475  1.0
  H  H41  1  0.87865495  0.37435592  0.02272841  1.0
  H  H42  1  0.37865513  0.97727198  0.62564431  1.0
  H  H43  1  0.37865488  0.39708342  0.97727324  1.0
  H  H44  1  0.81485236  0.62951201  0.29343059  1.0
  H  H45  1  0.81485155  0.07705802  0.62951051  1.0
  H  H46  1  0.31485145  0.70656898  0.37048939  1.0
  H  H47  1  0.81485234  0.29343135  0.07705827  1.0
  H  H48  1  0.31485140  0.92294247  0.70656889  1.0
  H  H49  1  0.31485175  0.37048825  0.92294230  1.0
  H  H50  1  0.40446243  0.28682326  0.74284797  1.0
  H  H51  1  0.40446275  0.97032817  0.28682315  1.0
  H  H52  1  0.90446278  0.25715264  0.71317641  1.0
  H  H53  1  0.40446360  0.74284629  0.97032933  1.0
  H  H54  1  0.90446287  0.02967133  0.25715268  1.0
  H  H55  1  0.90446311  0.71317642  0.02967133  1.0
  H  H56  1  0.40679463  0.21850427  0.65948825  1.0
  H  H57  1  0.40679531  0.12200683  0.21850484  1.0
  H  H58  1  0.90679504  0.34051219  0.78149574  1.0
  H  H59  1  0.40679435  0.65948836  0.12200750  1.0
  H  H60  1  0.90679475  0.87799283  0.34051138  1.0
  H  H61  1  0.90679456  0.78149604  0.87799255  1.0
  H  H62  1  0.50917860  0.42930694  0.46408006  1.0
  H  H63  1  0.50917853  0.10661422  0.42930616  1.0
  H  H64  1  0.00917825  0.53591965  0.57069473  1.0
  H  H65  1  0.50917872  0.46408032  0.10661361  1.0
  H  H66  1  0.00917835  0.89338761  0.53591925  1.0
  H  H67  1  0.00917872  0.57069313  0.89338586  1.0
  H  H68  1  0.50714568  0.49684558  0.54885941  1.0
  H  H69  1  0.50714525  0.95429659  0.49684375  1.0
  H  H70  1  0.00714527  0.45114176  0.50315552  1.0
  H  H71  1  0.50714669  0.54885780  0.95429712  1.0
  H  H72  1  0.00714574  0.04570517  0.45114032  1.0
  H  H73  1  0.00714655  0.50315474  0.04570295  1.0
  H  H74  1  0.29283030  0.26080617  0.44415170  1.0
  H  H75  1  0.29283093  0.29504152  0.26080722  1.0
  H  H76  1  0.79283070  0.55584964  0.73919266  1.0
  H  H77  1  0.29283040  0.44414996  0.29504305  1.0
  H  H78  1  0.79283079  0.70495760  0.55584873  1.0
  H  H79  1  0.79283132  0.73919260  0.70495846  1.0
  H  H80  1  0.32020949  0.33910432  0.46362047  1.0
  H  H81  1  0.32021062  0.19727462  0.33910429  1.0
  H  H82  1  0.82021045  0.53637964  0.66089502  1.0
  H  H83  1  0.32020961  0.46362018  0.19727536  1.0
  H  H84  1  0.82020944  0.80272542  0.53637923  1.0
  H  H85  1  0.82021044  0.66089513  0.80272495  1.0
  H  H86  1  0.30325580  0.24024051  0.54513752  1.0
  H  H87  1  0.30325645  0.21462162  0.24024098  1.0
  H  H88  1  0.80325620  0.45486239  0.75975899  1.0
  H  H89  1  0.30325598  0.54513719  0.21462224  1.0
  H  H90  1  0.80325582  0.78537869  0.45486225  1.0
  H  H91  1  0.80325571  0.75975938  0.78537738  1.0
  H  H92  1  0.58589407  0.16871389  0.64119706  1.0
  H  H93  1  0.58589310  0.19008968  0.16871076  1.0
  H  H94  1  0.08589259  0.35879982  0.83128950  1.0
  H  H95  1  0.58589321  0.64120004  0.19008888  1.0
  H  H96  1  0.08589454  0.80991061  0.35880236  1.0
  H  H97  1  0.08589272  0.83128961  0.80991088  1.0
  H  H98  1  0.71481201  0.17755369  0.68681952  1.0
  H  H99  1  0.71481160  0.13562608  0.17755191  1.0
  H  H100  1  0.21481166  0.31317741  0.82244827  1.0
  H  H101  1  0.71481119  0.68682268  0.13562567  1.0
  H  H102  1  0.21481196  0.86437412  0.31317852  1.0
  H  H103  1  0.21481177  0.82244773  0.86437454  1.0
  H  H104  1  0.80606288  0.27631516  0.58996279  1.0
  H  H105  1  0.80606238  0.13372029  0.27631441  1.0
  H  H106  1  0.30606253  0.41003376  0.72368562  1.0
  H  H107  1  0.80606254  0.58996556  0.13371976  1.0
  H  H108  1  0.30606386  0.86627906  0.41003572  1.0
  H  H109  1  0.30606087  0.72368529  0.86627926  1.0
  H  H110  1  0.63627165  0.36390572  0.40297426  1.0
  H  H111  1  0.63627107  0.23311953  0.36390275  1.0
  H  H112  1  0.13627073  0.59702274  0.63609671  1.0
  H  H113  1  0.63627059  0.40297686  0.23311962  1.0
  H  H114  1  0.13627191  0.76688034  0.59702442  1.0
  H  H115  1  0.13627014  0.63609689  0.76687972  1.0
  C  C116  1  0.60754632  0.63856946  0.53041793  1.0
  C  C117  1  0.60754914  0.83101149  0.63857301  1.0
  C  C118  1  0.10754816  0.46958471  0.36142682  1.0
  C  C119  1  0.60754788  0.53041652  0.83101342  1.0
  C  C120  1  0.10754749  0.16898760  0.46958276  1.0
  C  C121  1  0.10754764  0.36142802  0.16898784  1.0
  C  C122  1  0.65041191  0.59347313  0.49806743  1.0
  C  C123  1  0.65041364  0.90845925  0.59347590  1.0
  C  C124  1  0.15041431  0.50193486  0.40652382  1.0
  C  C125  1  0.65041288  0.49806710  0.90845915  1.0
  C  C126  1  0.15041249  0.09154073  0.50193329  1.0
  C  C127  1  0.15041326  0.40652585  0.09154025  1.0
  C  C128  1  0.72070382  0.56162231  0.53158837  1.0
  C  C129  1  0.72070446  0.90678993  0.56162311  1.0
  C  C130  1  0.22070510  0.46841283  0.43837535  1.0
  C  C131  1  0.72070482  0.53158817  0.90679028  1.0
  C  C132  1  0.22070443  0.09321039  0.46841229  1.0
  C  C133  1  0.22070464  0.43837802  0.09321021  1.0
  C  C134  1  0.76231276  0.51890370  0.50410795  1.0
  C  C135  1  0.76231287  0.97698952  0.51890555  1.0
  C  C136  1  0.26231290  0.49589426  0.48109403  1.0
  C  C137  1  0.76231372  0.50410538  0.97698881  1.0
  C  C138  1  0.26231334  0.02301176  0.49589395  1.0
  C  C139  1  0.26231361  0.48109541  0.02301163  1.0
  C  C140  1  0.73289893  0.50870317  0.44215371  1.0
  C  C141  1  0.73289711  0.04914513  0.50870176  1.0
  C  C142  1  0.23289803  0.55784732  0.49129590  1.0
  C  C143  1  0.73289792  0.44215119  0.04914340  1.0
  C  C144  1  0.23289923  0.95085703  0.55784649  1.0
  C  C145  1  0.23289843  0.49129584  0.95085710  1.0
  C  C146  1  0.66243857  0.53874308  0.40867441  1.0
  C  C147  1  0.66243840  0.05258352  0.53874276  1.0
  C  C148  1  0.16243878  0.59132558  0.46125616  1.0
  C  C149  1  0.66243640  0.40867614  0.05258243  1.0
  C  C150  1  0.16243883  0.94741818  0.59132466  1.0
  C  C151  1  0.16243803  0.46125663  0.94741818  1.0
  C  C152  1  0.62113317  0.58134938  0.43705640  1.0
  C  C153  1  0.62113266  0.98159392  0.58135138  1.0
  C  C154  1  0.12113332  0.56294501  0.41864830  1.0
  C  C155  1  0.62113240  0.43705676  0.98159353  1.0
  C  C156  1  0.12113369  0.01840564  0.56294379  1.0
  C  C157  1  0.12113284  0.41865014  0.01840652  1.0
  C  C158  1  0.86210556  0.58979125  0.32672168  1.0
  C  C159  1  0.86210479  0.08348808  0.58978971  1.0
  C  C160  1  0.36210465  0.67327823  0.41021015  1.0
  C  C161  1  0.86210501  0.32672160  0.08348790  1.0
  C  C162  1  0.36210519  0.91651253  0.67327839  1.0
  C  C163  1  0.36210498  0.41020870  0.91651257  1.0
  C  C164  1  0.84014772  0.50412489  0.36234832  1.0
  C  C165  1  0.84014758  0.13352772  0.50412420  1.0
  C  C166  1  0.34014737  0.63765363  0.49587507  1.0
  C  C167  1  0.84014776  0.36234678  0.13352982  1.0
  C  C168  1  0.34014738  0.86647197  0.63765244  1.0
  C  C169  1  0.34014778  0.49587473  0.86647183  1.0
  C  C170  1  0.78111455  0.38807156  0.43458318  1.0
  C  C171  1  0.78111451  0.17734419  0.38807146  1.0
  C  C172  1  0.28111308  0.56541596  0.61192729  1.0
  C  C173  1  0.78111240  0.43458268  0.17734537  1.0
  C  C174  1  0.28111428  0.82265401  0.56541772  1.0
  C  C175  1  0.28111358  0.61192706  0.82265563  1.0
  C  C176  1  0.45561089  0.43306166  0.70334007  1.0
  C  C177  1  0.45560996  0.86359815  0.43306230  1.0
  C  C178  1  0.95561012  0.29665912  0.56693966  1.0
  C  C179  1  0.45561147  0.70333865  0.86359981  1.0
  C  C180  1  0.95561016  0.13640279  0.29665859  1.0
  C  C181  1  0.95561088  0.56693788  0.13640029  1.0
  C  C182  1  0.45629145  0.39517942  0.65086614  1.0
  C  C183  1  0.45629054  0.95395484  0.39517982  1.0
  C  C184  1  0.95629011  0.34913416  0.60482146  1.0
  C  C185  1  0.45629198  0.65086504  0.95395559  1.0
  C  C186  1  0.95629067  0.04604594  0.34913379  1.0
  C  C187  1  0.95629259  0.60482043  0.04604390  1.0
  C  C188  1  0.42679279  0.31734897  0.68161709  1.0
  C  C189  1  0.42679283  0.00103296  0.31734890  1.0
  C  C190  1  0.92679321  0.31838295  0.68265174  1.0
  C  C191  1  0.42679422  0.68161599  0.00103457  1.0
  C  C192  1  0.92679349  0.99896615  0.31838301  1.0
  C  C193  1  0.92679320  0.68265115  0.99896550  1.0
  C  C194  1  0.42795512  0.27978728  0.63538340  1.0
  C  C195  1  0.42795518  0.08482830  0.27978680  1.0
  C  C196  1  0.92795609  0.36461567  0.72021377  1.0
  C  C197  1  0.42795651  0.63538504  0.08482916  1.0
  C  C198  1  0.92795634  0.91517212  0.36461495  1.0
  C  C199  1  0.92795556  0.72021381  0.91517092  1.0
  C  C200  1  0.45849787  0.32051945  0.55768845  1.0
  C  C201  1  0.45849789  0.12179189  0.32051931  1.0
  C  C202  1  0.95849828  0.44231103  0.67948176  1.0
  C  C203  1  0.45849751  0.55768872  0.12179275  1.0
  C  C204  1  0.95849790  0.87820848  0.44231046  1.0
  C  C205  1  0.95849715  0.67948110  0.87820736  1.0
  C  C206  1  0.48664690  0.39892972  0.52527334  1.0
  C  C207  1  0.48664686  0.07579785  0.39892857  1.0
  C  C208  1  0.98664451  0.47472723  0.60107068  1.0
  C  C209  1  0.48664595  0.52527282  0.07579796  1.0
  C  C210  1  0.98664522  0.92420275  0.47472730  1.0
  C  C211  1  0.98664556  0.60107066  0.92420158  1.0
  C  C212  1  0.48531082  0.43595488  0.57222458  1.0
  C  C213  1  0.48530988  0.99182079  0.43595517  1.0
  C  C214  1  0.98530836  0.42777667  0.56404480  1.0
  C  C215  1  0.48531129  0.57222345  0.99182116  1.0
  C  C216  1  0.98530942  0.00817971  0.42777653  1.0
  C  C217  1  0.98531025  0.56404420  0.00817776  1.0
  C  C218  1  0.32617325  0.27472562  0.48369869  1.0
  C  C219  1  0.32617331  0.24157452  0.27472664  1.0
  C  C220  1  0.82617253  0.51630154  0.72527326  1.0
  C  C221  1  0.32617226  0.48369816  0.24157539  1.0
  C  C222  1  0.82617266  0.75842493  0.51630106  1.0
  C  C223  1  0.82617370  0.72527402  0.75842427  1.0
  C  C224  1  0.40641568  0.25667309  0.47969557  1.0
  C  C225  1  0.40641631  0.26363171  0.25667257  1.0
  C  C226  1  0.90641664  0.52030417  0.74332724  1.0
  C  C227  1  0.40641524  0.47969609  0.26363064  1.0
  C  C228  1  0.90641620  0.73636931  0.52030412  1.0
  C  C229  1  0.90641670  0.74332757  0.73636832  1.0
  C  C230  1  0.52888133  0.25573568  0.49193162  1.0
  C  C231  1  0.52888141  0.25233092  0.25573554  1.0
  C  C232  1  0.02888209  0.50806616  0.74426526  1.0
  C  C233  1  0.52888034  0.49193476  0.25233083  1.0
  C  C234  1  0.02888167  0.74766786  0.50806784  1.0
  C  C235  1  0.02888215  0.74426624  0.74766912  1.0
  C  C236  1  0.60414317  0.26456874  0.51863734  1.0
  C  C237  1  0.60414324  0.21679241  0.26456705  1.0
  C  C238  1  0.10414281  0.48135896  0.73543311  1.0
  C  C239  1  0.60414221  0.51864032  0.21679349  1.0
  C  C240  1  0.10414409  0.78320544  0.48136143  1.0
  C  C241  1  0.10414286  0.73543356  0.78320819  1.0
  C  C242  1  0.62577077  0.21308665  0.59904301  1.0
  C  C243  1  0.62577033  0.18786919  0.21308438  1.0
  C  C244  1  0.12577042  0.40095272  0.78691641  1.0
  C  C245  1  0.62577044  0.59904627  0.18786923  1.0
  C  C246  1  0.12577233  0.81212775  0.40095634  1.0
  C  C247  1  0.12576994  0.78691506  0.81213174  1.0
  C  C248  1  0.69789378  0.21803836  0.62450769  1.0
  C  C249  1  0.69789389  0.15745428  0.21803589  1.0
  C  C250  1  0.19789342  0.37548942  0.78196366  1.0
  C  C251  1  0.69789290  0.62451061  0.15745295  1.0
  C  C252  1  0.19789479  0.84254577  0.37549158  1.0
  C  C253  1  0.19789294  0.78196209  0.84254794  1.0
  C  C254  1  0.74895125  0.27446603  0.57043064  1.0
  C  C255  1  0.74895075  0.15510326  0.27446341  1.0
  C  C256  1  0.24895090  0.42956549  0.72553605  1.0
  C  C257  1  0.74894977  0.57043464  0.15510118  1.0
  C  C258  1  0.24895222  0.84489692  0.42956853  1.0
  C  C259  1  0.24894925  0.72553443  0.84489850  1.0
  C  C260  1  0.72707715  0.32744318  0.49052934  1.0
  C  C261  1  0.72707716  0.18202621  0.32744174  1.0
  C  C262  1  0.22707679  0.50946757  0.67255829  1.0
  C  C263  1  0.72707560  0.49053204  0.18202599  1.0
  C  C264  1  0.22707748  0.81797352  0.50946924  1.0
  C  C265  1  0.22707510  0.67255684  0.81797438  1.0
  C  C266  1  0.65461612  0.32257186  0.46458202  1.0
  C  C267  1  0.65461613  0.21284520  0.32256928  1.0
  C  C268  1  0.15461576  0.53541415  0.67742960  1.0
  C  C269  1  0.65461511  0.46458486  0.21284470  1.0
  C  C270  1  0.15461699  0.78715428  0.53541667  1.0
  C  C271  1  0.15461464  0.67742969  0.78715516  1.0
  N  N272  1  0.87531782  0.44689369  0.35556752  1.0
  N  N273  1  0.87531660  0.19753945  0.44689236  1.0
  N  N274  1  0.37531634  0.64443269  0.55310744  1.0
  N  N275  1  0.87531672  0.35556719  0.19754061  1.0
  N  N276  1  0.37531691  0.80245965  0.64443388  1.0
  N  N277  1  0.37531680  0.55310632  0.80246037  1.0
  N  N278  1  0.83942670  0.37430942  0.40094878  1.0
  N  N279  1  0.83942555  0.22474053  0.37430826  1.0
  N  N280  1  0.33942466  0.59904989  0.62569098  1.0
  N  N281  1  0.83942339  0.40094908  0.22474289  1.0
  N  N282  1  0.33942583  0.77525723  0.59905150  1.0
  N  N283  1  0.33942574  0.62569097  0.77525926  1.0
  N  N284  1  0.77917513  0.46922870  0.41136704  1.0
  N  N285  1  0.77917390  0.11940490  0.46922769  1.0
  N  N286  1  0.27917422  0.58863378  0.53077047  1.0
  N  N287  1  0.77917296  0.41136535  0.11940528  1.0
  N  N288  1  0.27917539  0.88059615  0.58863259  1.0
  N  N289  1  0.27917409  0.53077031  0.88059638  1.0
  N  N290  1  0.43515090  0.22028587  0.44258601  1.0
  N  N291  1  0.43515212  0.33712731  0.22028755  1.0
  N  N292  1  0.93515130  0.55741447  0.77971277  1.0
  N  N293  1  0.43515043  0.44258692  0.33712579  1.0
  N  N294  1  0.93514971  0.66287353  0.55741371  1.0
  N  N295  1  0.93515307  0.77971257  0.66287315  1.0
  N  N296  1  0.51256108  0.21937092  0.45050829  1.0
  N  N297  1  0.51256230  0.33011866  0.21937286  1.0
  N  N298  1  0.01256184  0.54949152  0.78062728  1.0
  N  N299  1  0.51256061  0.45051011  0.33011807  1.0
  N  N300  1  0.01256082  0.66988074  0.54949126  1.0
  N  N301  1  0.01256305  0.78062888  0.66988190  1.0
  N  N302  1  0.46365252  0.27970123  0.51251603  1.0
  N  N303  1  0.46365314  0.20778223  0.27970103  1.0
  N  N304  1  0.96365293  0.48748370  0.72029876  1.0
  N  N305  1  0.46365212  0.51251698  0.20778164  1.0
  N  N306  1  0.96365252  0.79221807  0.48748235  1.0
  N  N307  1  0.96365240  0.72029966  0.79221787  1.0
  O  O308  1  0.49154528  0.66666667  0.66666667  1.0
  O  O309  1  0.99154565  0.33333333  0.33333333  1.0
  O  O310  1  0.64329309  0.65083271  0.58135517  1.0
  O  O311  1  0.64329534  0.76781087  0.65083810  1.0
  O  O312  1  0.14329606  0.41864948  0.34916115  1.0
  O  O313  1  0.64329694  0.58135064  0.76781345  1.0
  O  O314  1  0.14329430  0.23218765  0.41864545  1.0
  O  O315  1  0.14329552  0.34916133  0.23218835  1.0
  O  O316  1  0.54101146  0.66031960  0.50561690  1.0
  O  O317  1  0.54101426  0.83406019  0.66032487  1.0
  O  O318  1  0.04101386  0.49438503  0.33967442  1.0
  O  O319  1  0.54101300  0.50561698  0.83406390  1.0
  O  O320  1  0.04101261  0.16593622  0.49438265  1.0
  O  O321  1  0.04101107  0.33968205  0.16593746  1.0
  O  O322  1  0.48795720  0.50281472  0.67375879  1.0
  O  O323  1  0.48795565  0.82342616  0.50281619  1.0
  O  O324  1  0.98795531  0.32624026  0.49718635  1.0
  O  O325  1  0.48795607  0.67375733  0.82342774  1.0
  O  O326  1  0.98795589  0.17657399  0.32624098  1.0
  O  O327  1  0.98795545  0.49718416  0.17657297  1.0
  O  O328  1  0.42327862  0.39744600  0.77050209  1.0
  O  O329  1  0.42327772  0.83205131  0.39744721  1.0
  O  O330  1  0.92327841  0.22949637  0.60255423  1.0
  O  O331  1  0.42327981  0.77050172  0.83205171  1.0
  O  O332  1  0.92327907  0.16795084  0.22949539  1.0
  O  O333  1  0.92327864  0.60255345  0.16794715  1.0
