# generated using pymatgen
data_DyH14C17NO7
_symmetry_space_group_name_H-M   'P 1'
_cell_length_a   6.34716499
_cell_length_b   16.36688050
_cell_length_c   24.22539947
_cell_angle_alpha   89.99991112
_cell_angle_beta   88.84524180
_cell_angle_gamma   89.99962537
_symmetry_Int_Tables_number   1
_chemical_formula_structural   DyH14C17NO7
_chemical_formula_sum   'Dy4 H56 C68 N4 O28'
_cell_volume   2516.10311695
_cell_formula_units_Z   4
loop_
 _symmetry_equiv_pos_site_id
 _symmetry_equiv_pos_as_xyz
  1  'x, y, z'
loop_
 _atom_site_type_symbol
 _atom_site_label
 _atom_site_symmetry_multiplicity
 _atom_site_fract_x
 _atom_site_fract_y
 _atom_site_fract_z
 _atom_site_occupancy
  Dy  Dy0  1  0.26356030  0.93756996  0.97683118  1.0
  Dy  Dy1  1  0.73643580  0.43756869  0.52317051  1.0
  Dy  Dy2  1  0.73644759  0.06242936  0.02316962  1.0
  Dy  Dy3  1  0.26355316  0.56243369  0.47683202  1.0
  H  H4  1  0.64585998  0.21493117  0.18365859  1.0
  H  H5  1  0.35414130  0.71492953  0.31634372  1.0
  H  H6  1  0.35414475  0.78507305  0.81634264  1.0
  H  H7  1  0.64586503  0.28507102  0.68365626  1.0
  H  H8  1  0.01554950  0.15200664  0.23972245  1.0
  H  H9  1  0.98445450  0.65199745  0.26027538  1.0
  H  H10  1  0.98444587  0.84800124  0.76027304  1.0
  H  H11  1  0.01555497  0.34799515  0.73972542  1.0
  H  H12  1  0.96394317  0.07525911  0.15287105  1.0
  H  H13  1  0.03606054  0.57525575  0.34712892  1.0
  H  H14  1  0.03606323  0.92474755  0.84712481  1.0
  H  H15  1  0.96393629  0.42474175  0.65287399  1.0
  H  H16  1  0.05475172  0.29380023  0.26525323  1.0
  H  H17  1  0.94524672  0.79378753  0.23474324  1.0
  H  H18  1  0.94523887  0.70619543  0.73474558  1.0
  H  H19  1  0.05476435  0.20620446  0.76525549  1.0
  H  H20  1  0.73759670  0.28946613  0.36142210  1.0
  H  H21  1  0.26240330  0.78946268  0.13858014  1.0
  H  H22  1  0.26240491  0.71054053  0.63857708  1.0
  H  H23  1  0.73760457  0.21053359  0.86142190  1.0
  H  H24  1  0.68459366  0.19759172  0.28080365  1.0
  H  H25  1  0.31539691  0.69758796  0.21919749  1.0
  H  H26  1  0.31540482  0.80241371  0.71919472  1.0
  H  H27  1  0.68460311  0.30240709  0.78080334  1.0
  H  H28  1  0.11954754  0.77626801  0.06652889  1.0
  H  H29  1  0.88045113  0.27626726  0.43347255  1.0
  H  H30  1  0.88045871  0.22373438  0.93347646  1.0
  H  H31  1  0.11952523  0.72372535  0.56652963  1.0
  H  H32  1  0.97186736  0.67686432  0.11005107  1.0
  H  H33  1  0.02813621  0.17686519  0.38994714  1.0
  H  H34  1  0.02814371  0.32313317  0.88994848  1.0
  H  H35  1  0.97184333  0.82313292  0.61005254  1.0
  H  H36  1  0.84086765  0.60444267  0.06729688  1.0
  H  H37  1  0.15914505  0.10444189  0.43270054  1.0
  H  H38  1  0.15915601  0.39555849  0.93270303  1.0
  H  H39  1  0.84084397  0.89555866  0.56729828  1.0
  H  H40  1  0.69149196  0.67617976  0.10807780  1.0
  H  H41  1  0.30851632  0.17618053  0.39192245  1.0
  H  H42  1  0.30852064  0.32381591  0.89192422  1.0
  H  H43  1  0.69146952  0.82381941  0.60807803  1.0
  H  H44  1  0.70774518  0.76815840  0.96566276  1.0
  H  H45  1  0.29226487  0.26815821  0.53433780  1.0
  H  H46  1  0.29226898  0.23184032  0.03434008  1.0
  H  H47  1  0.70771780  0.73184295  0.46566393  1.0
  H  H48  1  0.52602681  0.73602776  0.01858168  1.0
  H  H49  1  0.47398838  0.23602730  0.48141478  1.0
  H  H50  1  0.47399215  0.26397035  0.98141660  1.0
  H  H51  1  0.52600377  0.76397264  0.51858485  1.0
  H  H52  1  0.67059865  0.66149058  0.97907537  1.0
  H  H53  1  0.32941639  0.16148788  0.52092405  1.0
  H  H54  1  0.32941870  0.33851120  0.02092540  1.0
  H  H55  1  0.67057574  0.83851023  0.47907723  1.0
  H  H56  1  0.12898155  0.42816648  0.37680329  1.0
  H  H57  1  0.87100353  0.92815728  0.12319598  1.0
  H  H58  1  0.87099331  0.57183162  0.62319393  1.0
  H  H59  1  0.12899805  0.07183838  0.87680526  1.0
  C  C60  1  0.23166624  0.05660476  0.06845726  1.0
  C  C61  1  0.76834092  0.55660244  0.43154395  1.0
  C  C62  1  0.76834482  0.94339762  0.93154229  1.0
  C  C63  1  0.23164806  0.44339811  0.56845735  1.0
  C  C64  1  0.27313807  0.10113116  0.11892699  1.0
  C  C65  1  0.72686675  0.60113089  0.38107460  1.0
  C  C66  1  0.72686671  0.89887306  0.88107135  1.0
  C  C67  1  0.27313324  0.39887089  0.61892789  1.0
  C  C68  1  0.47312307  0.14014566  0.12768955  1.0
  C  C69  1  0.52688577  0.64014958  0.37231364  1.0
  C  C70  1  0.52688798  0.85985733  0.87231083  1.0
  C  C71  1  0.47310947  0.35985220  0.62768969  1.0
  C  C72  1  0.49624175  0.18367006  0.17781803  1.0
  C  C73  1  0.50376011  0.68366742  0.32218183  1.0
  C  C74  1  0.50376775  0.81633110  0.82218111  1.0
  C  C75  1  0.49623836  0.31632885  0.67781695  1.0
  C  C76  1  0.33482983  0.18927849  0.21740404  1.0
  C  C77  1  0.66517037  0.68927371  0.28259418  1.0
  C  C78  1  0.66517182  0.81072695  0.78259308  1.0
  C  C79  1  0.33483282  0.31072623  0.71740499  1.0
  C  C80  1  0.14064176  0.14951124  0.20825104  1.0
  C  C81  1  0.85936226  0.64950596  0.29174844  1.0
  C  C82  1  0.85936461  0.85049114  0.79174647  1.0
  C  C83  1  0.14063934  0.35048726  0.70825156  1.0
  C  C84  1  0.11271686  0.10626424  0.16002875  1.0
  C  C85  1  0.88728005  0.60625572  0.33996874  1.0
  C  C86  1  0.88728642  0.89374548  0.83996506  1.0
  C  C87  1  0.11271368  0.39373872  0.66003088  1.0
  C  C88  1  0.36516600  0.23886695  0.26758153  1.0
  C  C89  1  0.63483180  0.73885687  0.23241582  1.0
  C  C90  1  0.63483878  0.76113665  0.73241722  1.0
  C  C91  1  0.36516666  0.26114063  0.76758337  1.0
  C  C92  1  0.20374979  0.29020312  0.28675943  1.0
  C  C93  1  0.79625186  0.79019451  0.21323744  1.0
  C  C94  1  0.79624081  0.70979376  0.71323855  1.0
  C  C95  1  0.20375763  0.20979810  0.78676212  1.0
  C  C96  1  0.23325973  0.34232476  0.33190637  1.0
  C  C97  1  0.76674889  0.84231877  0.16809165  1.0
  C  C98  1  0.76672773  0.65767091  0.66809122  1.0
  C  C99  1  0.23325585  0.15767690  0.83190916  1.0
  C  C100  1  0.42728322  0.34065892  0.36029089  1.0
  C  C101  1  0.57270965  0.84065593  0.13970885  1.0
  C  C102  1  0.57269480  0.65934590  0.63970550  1.0
  C  C103  1  0.42729666  0.15934524  0.86029278  1.0
  C  C104  1  0.58677347  0.28787532  0.34084325  1.0
  C  C105  1  0.41322499  0.78787512  0.15915859  1.0
  C  C106  1  0.41321393  0.71212889  0.65915764  1.0
  C  C107  1  0.58678446  0.21212604  0.84084303  1.0
  C  C108  1  0.55860025  0.23793553  0.29536501  1.0
  C  C109  1  0.44139119  0.73793149  0.20463690  1.0
  C  C110  1  0.44139975  0.76206929  0.70463665  1.0
  C  C111  1  0.55861044  0.26206356  0.79536145  1.0
  C  C112  1  0.46022392  0.39359866  0.40898379  1.0
  C  C113  1  0.53977752  0.89359036  0.09101421  1.0
  C  C114  1  0.53976198  0.60640983  0.59101256  1.0
  C  C115  1  0.46023352  0.10640713  0.90898658  1.0
  C  C116  1  0.00312938  0.77939279  0.03346827  1.0
  C  C117  1  0.99688039  0.27938435  0.46652528  1.0
  C  C118  1  0.99688638  0.22060837  0.96653291  1.0
  C  C119  1  0.00311349  0.72060154  0.53346527  1.0
  C  C120  1  0.83677499  0.66736485  0.08328416  1.0
  C  C121  1  0.16322401  0.16736410  0.41671450  1.0
  C  C122  1  0.16322977  0.33263509  0.91671542  1.0
  C  C123  1  0.83676814  0.83263523  0.58328554  1.0
  C  C124  1  0.67756923  0.72256266  0.99783194  1.0
  C  C125  1  0.32244634  0.22256064  0.50216783  1.0
  C  C126  1  0.32245127  0.27743667  0.00216922  1.0
  C  C127  1  0.67754419  0.77743808  0.49783470  1.0
  N  N128  1  0.84608362  0.72525986  0.03771730  1.0
  N  N129  1  0.15391429  0.22526147  0.46228750  1.0
  N  N130  1  0.15392578  0.27473886  0.96228763  1.0
  N  N131  1  0.84605885  0.77473847  0.53771882  1.0
  O  O132  1  0.05465563  0.02048326  0.05985600  1.0
  O  O133  1  0.94535212  0.52048048  0.44014690  1.0
  O  O134  1  0.94535701  0.97951667  0.94014354  1.0
  O  O135  1  0.05463207  0.47951763  0.55985813  1.0
  O  O136  1  0.37448558  0.05031693  0.03001378  1.0
  O  O137  1  0.62551697  0.55031365  0.46998663  1.0
  O  O138  1  0.62553178  0.94968484  0.96998574  1.0
  O  O139  1  0.37446099  0.44969301  0.53001388  1.0
  O  O140  1  0.61344590  0.37934343  0.44085859  1.0
  O  O141  1  0.38654633  0.87934047  0.05913987  1.0
  O  O142  1  0.38654004  0.62066384  0.55913570  1.0
  O  O143  1  0.61345840  0.12066069  0.94086177  1.0
  O  O144  1  0.32568893  0.45168075  0.41646480  1.0
  O  O145  1  0.67431148  0.95167580  0.08353603  1.0
  O  O146  1  0.67429537  0.54832285  0.58353321  1.0
  O  O147  1  0.32570273  0.04832170  0.91646433  1.0
  O  O148  1  0.63160661  0.13854655  0.09211826  1.0
  O  O149  1  0.36840858  0.63854894  0.40788449  1.0
  O  O150  1  0.36841231  0.86145461  0.90788291  1.0
  O  O151  1  0.63158671  0.36145100  0.59211596  1.0
  O  O152  1  0.07247307  0.39196421  0.34686247  1.0
  O  O153  1  0.92752209  0.89195358  0.15313597  1.0
  O  O154  1  0.92749389  0.60803451  0.65313603  1.0
  O  O155  1  0.07247792  0.10804209  0.84686486  1.0
  O  O156  1  0.02217559  0.83094210  0.99548282  1.0
  O  O157  1  0.97784591  0.33095005  0.50452299  1.0
  O  O158  1  0.97784640  0.16905783  0.00452370  1.0
  O  O159  1  0.02214454  0.66906089  0.49548448  1.0
