# generated using pymatgen
data_Zn4H6C12O13
_symmetry_space_group_name_H-M   'P 1'
_cell_length_a   13.59002338
_cell_length_b   14.57657163
_cell_length_c   15.77743435
_cell_angle_alpha   68.97922475
_cell_angle_beta   67.21851545
_cell_angle_gamma   65.32250591
_symmetry_Int_Tables_number   1
_chemical_formula_structural   Zn4H6C12O13
_chemical_formula_sum   'Zn8 H12 C24 O26'
_cell_volume   2545.00285000
_cell_formula_units_Z   2
loop_
 _symmetry_equiv_pos_site_id
 _symmetry_equiv_pos_as_xyz
  1  'x, y, z'
loop_
 _atom_site_type_symbol
 _atom_site_label
 _atom_site_symmetry_multiplicity
 _atom_site_fract_x
 _atom_site_fract_y
 _atom_site_fract_z
 _atom_site_occupancy
  Zn  Zn0  1  0.92436592  0.98350562  0.14024085  1.0
  Zn  Zn1  1  0.92259392  0.17053024  0.95245231  1.0
  Zn  Zn2  1  0.89824014  0.95920342  0.95707683  1.0
  Zn  Zn3  1  0.13450668  0.95982749  0.95400901  1.0
  Zn  Zn4  1  0.51312763  0.55649503  0.36301830  1.0
  Zn  Zn5  1  0.51589082  0.36826855  0.54985325  1.0
  Zn  Zn6  1  0.30448242  0.57950590  0.55010762  1.0
  Zn  Zn7  1  0.54162101  0.57871979  0.54615620  1.0
  H  H8  1  0.71996274  0.36483119  0.16485346  1.0
  H  H9  1  0.71699220  0.17604508  0.33635894  1.0
  H  H10  1  0.67060293  0.78486068  0.17147323  1.0
  H  H11  1  0.76673673  0.75534947  0.33135995  1.0
  H  H12  1  0.31833160  0.73870549  0.16710750  1.0
  H  H13  1  0.11816920  0.80218358  0.33851108  1.0
  H  H14  1  0.73116620  0.16780682  0.72964518  1.0
  H  H15  1  0.70989119  0.36776150  0.77187725  1.0
  H  H16  1  0.32650202  0.17640407  0.76343408  1.0
  H  H17  1  0.11173381  0.36266238  0.73792779  1.0
  H  H18  1  0.32144147  0.80777302  0.72383862  1.0
  H  H19  1  0.11995555  0.72963850  0.78095551  1.0
  C  C20  1  0.81074371  0.20505373  0.14585325  1.0
  C  C21  1  0.73891329  0.28357464  0.20345260  1.0
  C  C22  1  0.69812424  0.25729891  0.29782830  1.0
  C  C23  1  0.62655999  0.33555046  0.35572280  1.0
  C  C24  1  0.78533935  0.86720628  0.14964824  1.0
  C  C25  1  0.71839148  0.79586635  0.20675648  1.0
  C  C26  1  0.71891511  0.74430155  0.29614209  1.0
  C  C27  1  0.65226685  0.67266932  0.35327308  1.0
  C  C28  1  0.15706169  0.85568853  0.14716468  1.0
  C  C29  1  0.23385660  0.77964581  0.20544872  1.0
  C  C30  1  0.20257649  0.76125494  0.30008772  1.0
  C  C31  1  0.27970107  0.68507589  0.35807765  1.0
  C  C32  1  0.80181173  0.16051954  0.83698404  1.0
  C  C33  1  0.74124812  0.21596085  0.76296800  1.0
  C  C34  1  0.69961441  0.31985966  0.73844385  1.0
  C  C35  1  0.63875772  0.37585493  0.66465535  1.0
  C  C36  1  0.15782070  0.16531126  0.84720032  1.0
  C  C37  1  0.23686635  0.22052369  0.77549484  1.0
  C  C38  1  0.20137292  0.31844380  0.72595712  1.0
  C  C39  1  0.28061948  0.37370065  0.65465667  1.0
  C  C40  1  0.32602033  0.70005427  0.65296432  1.0
  C  C41  1  0.27209232  0.76589830  0.72229889  1.0
  C  C42  1  0.16917774  0.77158484  0.78254827  1.0
  C  C43  1  0.11495461  0.83741297  0.85188112  1.0
  O  O44  1  0.96973491  0.01914145  0.00146609  1.0
  O  O45  1  0.83996824  0.24217406  0.05652495  1.0
  O  O46  1  0.83659364  0.10933362  0.18925318  1.0
  O  O47  1  0.59728539  0.29791681  0.44494146  1.0
  O  O48  1  0.60112565  0.43143151  0.31279730  1.0
  O  O49  1  0.78959211  0.89873176  0.06188002  1.0
  O  O50  1  0.83307950  0.89008217  0.19117328  1.0
  O  O51  1  0.64903287  0.64030059  0.44083384  1.0
  O  O52  1  0.60390559  0.65032609  0.31189093  1.0
  O  O53  1  0.20057696  0.86639791  0.05777352  1.0
  O  O54  1  0.05652515  0.90311868  0.18965138  1.0
  O  O55  1  0.23706549  0.67481327  0.44749970  1.0
  O  O56  1  0.37974167  0.63702169  0.31524474  1.0
  O  O57  1  0.82794341  0.06159261  0.85848821  1.0
  O  O58  1  0.82196003  0.21445599  0.87268891  1.0
  O  O59  1  0.61341171  0.47471450  0.64324207  1.0
  O  O60  1  0.61754850  0.32250107  0.62911042  1.0
  O  O61  1  0.20416874  0.06935621  0.88182131  1.0
  O  O62  1  0.05262332  0.21649823  0.86765274  1.0
  O  O63  1  0.23455139  0.46992833  0.62060556  1.0
  O  O64  1  0.38576223  0.32227836  0.63413829  1.0
  O  O65  1  0.26651449  0.65775591  0.64364258  1.0
  O  O66  1  0.42960586  0.69075566  0.60885465  1.0
  O  O67  1  0.17409357  0.87997751  0.86132298  1.0
  O  O68  1  0.01140715  0.84642586  0.89588142  1.0
  O  O69  1  0.46906558  0.51979599  0.50180376  1.0
