# generated using pymatgen
data_ZnH2C14(O2F3)2
_symmetry_space_group_name_H-M   'P 1'
_cell_length_a   7.51464282
_cell_length_b   10.87805179
_cell_length_c   35.25449202
_cell_angle_alpha   89.89033704
_cell_angle_beta   86.06234086
_cell_angle_gamma   89.92670090
_symmetry_Int_Tables_number   1
_chemical_formula_structural   ZnH2C14(O2F3)2
_chemical_formula_sum   'Zn4 H8 C56 O16 F24'
_cell_volume   2875.05672553
_cell_formula_units_Z   4
loop_
 _symmetry_equiv_pos_site_id
 _symmetry_equiv_pos_as_xyz
  1  'x, y, z'
loop_
 _atom_site_type_symbol
 _atom_site_label
 _atom_site_symmetry_multiplicity
 _atom_site_fract_x
 _atom_site_fract_y
 _atom_site_fract_z
 _atom_site_occupancy
  Zn  Zn0  1  0.69466805  0.99976769  0.49687627  1.0
  Zn  Zn1  1  0.33021097  0.00001306  0.50204022  1.0
  Zn  Zn2  1  0.21470982  0.00278597  0.00315362  1.0
  Zn  Zn3  1  0.57921458  0.00253478  0.99797514  1.0
  H  H4  1  0.25088263  0.00350568  0.24628055  1.0
  H  H5  1  0.65658857  0.00289581  0.25364460  1.0
  H  H6  1  0.25130711  0.00404101  0.75932639  1.0
  H  H7  1  0.65745834  0.00297939  0.74070096  1.0
  H  H8  1  0.36468359  0.27144872  0.44325922  1.0
  H  H9  1  0.36457674  0.72952384  0.44328732  1.0
  H  H10  1  0.54557554  0.27333230  0.05698543  1.0
  H  H11  1  0.54509411  0.73152967  0.05689039  1.0
  C  C12  1  0.58052639  0.23157790  0.49714954  1.0
  C  C13  1  0.43499726  0.00056790  0.42914863  1.0
  C  C14  1  0.58014807  0.76815730  0.49719298  1.0
  C  C15  1  0.43991546  0.00024257  0.57149001  1.0
  C  C16  1  0.32979530  0.23443858  0.00293771  1.0
  C  C17  1  0.47418035  0.00252180  0.07083069  1.0
  C  C18  1  0.32948279  0.77099673  0.00291509  1.0
  C  C19  1  0.46869434  0.00291873  0.92854439  1.0
  C  C20  1  0.46111669  0.00291935  0.11326472  1.0
  C  C21  1  0.61027966  0.00290521  0.13540759  1.0
  C  C22  1  0.59279580  0.00300570  0.17501965  1.0
  C  C23  1  0.42584825  0.00325050  0.19580415  1.0
  C  C24  1  0.27790921  0.00339900  0.17337400  1.0
  C  C25  1  0.29289576  0.00316257  0.13389095  1.0
  C  C26  1  0.39170759  0.00334018  0.23684739  1.0
  C  C27  1  0.51576667  0.00316890  0.26310122  1.0
  C  C28  1  0.63013521  0.00156264  0.32651218  1.0
  C  C29  1  0.48192267  0.00298269  0.30414828  1.0
  C  C30  1  0.31518018  0.00371565  0.32500091  1.0
  C  C31  1  0.29813394  0.00291142  0.36462237  1.0
  C  C32  1  0.44755530  0.00130950  0.38670416  1.0
  C  C33  1  0.61556478  0.00063696  0.36599873  1.0
  C  C34  1  0.45657679  0.00306079  0.88645349  1.0
  C  C35  1  0.60684878  0.00270467  0.86021636  1.0
  C  C36  1  0.59070387  0.00301451  0.82107956  1.0
  C  C37  1  0.42439088  0.00369755  0.80494208  1.0
  C  C38  1  0.27540101  0.00404985  0.83142170  1.0
  C  C39  1  0.28899467  0.00368568  0.87051306  1.0
  C  C40  1  0.39186904  0.00368924  0.76485570  1.0
  C  C41  1  0.51691918  0.00310779  0.73519007  1.0
  C  C42  1  0.63319249  0.00266726  0.66861772  1.0
  C  C43  1  0.48420763  0.00259578  0.69511121  1.0
  C  C44  1  0.31787879  0.00185761  0.67897344  1.0
  C  C45  1  0.30180301  0.00110290  0.63983570  1.0
  C  C46  1  0.45204352  0.00114666  0.61358379  1.0
  C  C47  1  0.61962677  0.00203308  0.62952428  1.0
  C  C48  1  0.58227686  0.36904917  0.49508858  1.0
  C  C49  1  0.47530659  0.43405991  0.46954180  1.0
  C  C50  1  0.68390366  0.43482867  0.51906715  1.0
  C  C51  1  0.37113253  0.37122062  0.44364261  1.0
  C  C52  1  0.27276069  0.43591239  0.41904323  1.0
  C  C53  1  0.58206312  0.63075130  0.49511853  1.0
  C  C54  1  0.68377663  0.56450213  0.51907346  1.0
  C  C55  1  0.47520016  0.56627979  0.46955354  1.0
  C  C56  1  0.37098548  0.62971717  0.44366663  1.0
  C  C57  1  0.27270716  0.56556191  0.41903905  1.0
  C  C58  1  0.32827566  0.37187850  0.00504819  1.0
  C  C59  1  0.43506498  0.43641625  0.03063330  1.0
  C  C60  1  0.22696060  0.43807650  0.98101000  1.0
  C  C61  1  0.53916587  0.37313710  0.05657662  1.0
  C  C62  1  0.63707323  0.43748466  0.08123479  1.0
  C  C63  1  0.32804911  0.63355485  0.00504818  1.0
  C  C64  1  0.22684161  0.56773984  0.98101597  1.0
  C  C65  1  0.43492573  0.56865911  0.03063279  1.0
  C  C66  1  0.53883847  0.63173753  0.05655033  1.0
  C  C67  1  0.63704965  0.56715436  0.08120822  1.0
  O  O68  1  0.73242762  0.17651167  0.49514212  1.0
  O  O69  1  0.42883475  0.18036530  0.50044724  1.0
  O  O70  1  0.28075197  0.00042304  0.44765444  1.0
  O  O71  1  0.58144736  0.00023878  0.44490101  1.0
  O  O72  1  0.42840344  0.81952960  0.50052198  1.0
  O  O73  1  0.73203580  0.82297864  0.49512628  1.0
  O  O74  1  0.58705440  0.99939622  0.55162793  1.0
  O  O75  1  0.28596343  0.00039552  0.55759920  1.0
  O  O76  1  0.17781780  0.17975692  0.00493578  1.0
  O  O77  1  0.48145536  0.18297765  0.99957667  1.0
  O  O78  1  0.62854395  0.00246078  0.05238114  1.0
  O  O79  1  0.32785751  0.00225880  0.05503261  1.0
  O  O80  1  0.48112443  0.82228889  0.99956679  1.0
  O  O81  1  0.17747554  0.82589564  0.00488458  1.0
  O  O82  1  0.32155103  0.00315274  0.94840110  1.0
  O  O83  1  0.62268701  0.00260302  0.94240492  1.0
  F  F84  1  0.13876587  0.00309646  0.11677806  1.0
  F  F85  1  0.11181975  0.00369715  0.19072998  1.0
  F  F86  1  0.77666856  0.00259702  0.11893584  1.0
  F  F87  1  0.74487050  0.00289032  0.19345686  1.0
  F  F88  1  0.16292204  0.00511542  0.30663321  1.0
  F  F89  1  0.13187767  0.00354601  0.38117572  1.0
  F  F90  1  0.79609228  0.00066690  0.30907479  1.0
  F  F91  1  0.76982460  0.99888268  0.38305325  1.0
  F  F92  1  0.13408104  0.00397670  0.89190463  1.0
  F  F93  1  0.10989481  0.00461725  0.81861283  1.0
  F  F94  1  0.77289281  0.00212854  0.87207199  1.0
  F  F95  1  0.74356376  0.00282546  0.79832512  1.0
  F  F96  1  0.16502576  0.00177272  0.70173738  1.0
  F  F97  1  0.13575366  0.00008683  0.62798180  1.0
  F  F98  1  0.79874308  0.00340154  0.68141482  1.0
  F  F99  1  0.77458764  0.00238832  0.60815090  1.0
  F  F100  1  0.78100242  0.62101056  0.54471025  1.0
  F  F101  1  0.78128386  0.37789086  0.54469962  1.0
  F  F102  1  0.17308037  0.37632903  0.39425859  1.0
  F  F103  1  0.17307302  0.62551772  0.39423896  1.0
  F  F104  1  0.12963824  0.62471710  0.95536731  1.0
  F  F105  1  0.12994833  0.38156150  0.95532555  1.0
  F  F106  1  0.73658986  0.37764939  0.10609873  1.0
  F  F107  1  0.73658808  0.62664957  0.10603406  1.0
