# generated using pymatgen
data_Zr3H34C49(ClO8)2
_symmetry_space_group_name_H-M   'P 1'
_cell_length_a   19.01791832
_cell_length_b   19.07345236
_cell_length_c   19.07629103
_cell_angle_alpha   90.17374422
_cell_angle_beta   119.88435794
_cell_angle_gamma   119.87375909
_symmetry_Int_Tables_number   1
_chemical_formula_structural   Zr3H34C49(ClO8)2
_chemical_formula_sum   'Zr6 H68 C98 Cl4 O32'
_cell_volume   4903.40144605
_cell_formula_units_Z   2
loop_
 _symmetry_equiv_pos_site_id
 _symmetry_equiv_pos_as_xyz
  1  'x, y, z'
loop_
 _atom_site_type_symbol
 _atom_site_label
 _atom_site_symmetry_multiplicity
 _atom_site_fract_x
 _atom_site_fract_y
 _atom_site_fract_z
 _atom_site_occupancy
  Zr  Zr0  1  0.49634735  0.90414877  0.90693880  1.0
  Zr  Zr1  1  0.50422679  0.09300508  0.09578438  1.0
  Zr  Zr2  1  0.68628134  0.08958526  0.09240752  1.0
  Zr  Zr3  1  0.31431023  0.90761701  0.91032081  1.0
  Zr  Zr4  1  0.50023380  0.90609865  0.09377593  1.0
  Zr  Zr5  1  0.50033244  0.09090021  0.90908378  1.0
  H  H6  1  0.64367145  0.92263286  0.07150743  1.0
  H  H7  1  0.35684922  0.92848380  0.07721872  1.0
  H  H8  1  0.64925156  0.21724076  0.07440424  1.0
  H  H9  1  0.35133793  0.92563181  0.78268532  1.0
  H  H10  1  0.51834817  0.46411412  0.12010159  1.0
  H  H11  1  0.53233882  0.55882307  0.90968824  1.0
  H  H12  1  0.43476426  0.64823896  0.06962343  1.0
  H  H13  1  0.42467349  0.51307970  0.06847865  1.0
  H  H14  1  0.45804151  0.29451226  0.87565561  1.0
  H  H15  1  0.44455546  0.41764181  0.86391921  1.0
  H  H16  1  0.46682449  0.08964931  0.44032524  1.0
  H  H17  1  0.48098206  0.87948446  0.53514274  1.0
  H  H18  1  0.54238264  0.12422040  0.70545825  1.0
  H  H19  1  0.55534002  0.13587091  0.58203680  1.0
  H  H20  1  0.56508770  0.93001166  0.35154785  1.0
  H  H21  1  0.57509574  0.93128739  0.48666255  1.0
  H  H22  1  0.84513780  0.46642684  0.90552958  1.0
  H  H23  1  0.15082428  0.55407558  0.12051749  1.0
  H  H24  1  0.07838492  0.65816564  0.87313187  1.0
  H  H25  1  0.94372252  0.52073177  0.86054624  1.0
  H  H26  1  0.92105090  0.28492173  0.06990046  1.0
  H  H27  1  0.05417144  0.41036909  0.06821204  1.0
  H  H28  1  0.84950969  0.88008760  0.44691879  1.0
  H  H29  1  0.15525977  0.09537636  0.53428602  1.0
  H  H30  1  0.07968778  0.93037010  0.71550383  1.0
  H  H31  1  0.94643009  0.93210179  0.59029824  1.0
  H  H32  1  0.92195795  0.12681578  0.34184490  1.0
  H  H33  1  0.05659673  0.13971099  0.47950571  1.0
  H  H34  1  0.29193641  0.12196094  0.10669367  1.0
  H  H35  1  0.07058604  0.89773422  0.88243555  1.0
  H  H36  1  0.70856410  0.89322372  0.87800298  1.0
  H  H37  1  0.92993113  0.11770909  0.10204123  1.0
  H  H38  1  0.06728990  0.46954072  0.44560476  1.0
  H  H39  1  0.93318973  0.55442939  0.53043162  1.0
  H  H40  1  0.28377485  0.65368306  0.71398262  1.0
  H  H41  1  0.16037867  0.51819183  0.58967242  1.0
  H  H42  1  0.71670146  0.28592823  0.34622048  1.0
  H  H43  1  0.84003489  0.41017555  0.48175602  1.0
  H  H44  1  0.54986629  0.38690650  0.20133306  1.0
  H  H45  1  0.59608648  0.33175236  0.18430108  1.0
  H  H46  1  0.47033878  0.27445375  0.14461390  1.0
  H  H47  1  0.56943081  0.67142710  0.86500291  1.0
  H  H48  1  0.60166816  0.76792599  0.92333570  1.0
  H  H49  1  0.48093730  0.69614580  0.83127800  1.0
  H  H50  1  0.42941299  0.13395940  0.32750703  1.0
  H  H51  1  0.39816855  0.07619260  0.23127441  1.0
  H  H52  1  0.51860385  0.16837362  0.30357702  1.0
  H  H53  1  0.44845426  0.79790035  0.61180792  1.0
  H  H54  1  0.40452124  0.81590721  0.66882964  1.0
  H  H55  1  0.52985725  0.85468690  0.72431413  1.0
  H  H56  1  0.68729022  0.38853444  0.85888942  1.0
  H  H57  1  0.64960253  0.32661047  0.91868829  1.0
  H  H58  1  0.63091755  0.27587290  0.82839567  1.0
  H  H59  1  0.30758757  0.66766274  0.20470778  1.0
  H  H60  1  0.34655753  0.76632663  0.18286957  1.0
  H  H61  1  0.36639810  0.69591758  0.15025344  1.0
  H  H62  1  0.69255010  0.79596943  0.33378022  1.0
  H  H63  1  0.65402460  0.81699789  0.23470656  1.0
  H  H64  1  0.63375970  0.85047882  0.30426830  1.0
  H  H65  1  0.31322834  0.14229050  0.61214819  1.0
  H  H66  1  0.35066108  0.08196749  0.67334174  1.0
  H  H67  1  0.36976726  0.17213013  0.72488324  1.0
  H  H68  1  0.03981346  0.39437642  0.33444553  1.0
  H  H69  1  0.91928734  0.33499238  0.23557705  1.0
  H  H70  1  0.95586443  0.28115383  0.30426117  1.0
  H  H71  1  0.96076796  0.66566716  0.60560829  1.0
  H  H72  1  0.08129787  0.76452698  0.66486303  1.0
  H  H73  1  0.04484718  0.69595369  0.71883250  1.0
  C  C74  1  0.48926773  0.75747062  0.99317257  1.0
  C  C75  1  0.51090876  0.00658418  0.24230640  1.0
  C  C76  1  0.49790059  0.23305789  0.00248466  1.0
  C  C77  1  0.50269744  0.99741774  0.76691075  1.0
  C  C78  1  0.73368497  0.00010630  0.99394255  1.0
  C  C79  1  0.25825328  0.75929515  0.76919420  1.0
  C  C80  1  0.26682986  0.00598639  0.99982468  1.0
  C  C81  1  0.74230217  0.23072519  0.24071488  1.0
  C  C82  1  0.73436335  0.99794244  0.23812352  1.0
  C  C83  1  0.73385888  0.22775694  0.99283567  1.0
  C  C84  1  0.26681432  0.00742709  0.77236155  1.0
  C  C85  1  0.26605586  0.76199945  0.00197023  1.0
  C  C86  1  0.49248520  0.30830833  0.00242881  1.0
  C  C87  1  0.48510485  0.67741109  0.98816773  1.0
  C  C88  1  0.50840190  0.35540890  0.07272761  1.0
  C  C89  1  0.50267753  0.42562479  0.06519006  1.0
  C  C90  1  0.51086501  0.65152472  0.94005239  1.0
  C  C91  1  0.50812768  0.57702556  0.94317457  1.0
  C  C92  1  0.45529653  0.62708908  0.03424726  1.0
  C  C93  1  0.45089685  0.55228284  0.03429967  1.0
  C  C94  1  0.47063007  0.33249618  0.92871131  1.0
  C  C95  1  0.46406673  0.40168690  0.92271416  1.0
  C  C96  1  0.48094183  0.45023272  0.99188844  1.0
  C  C97  1  0.47901488  0.52658711  0.98933721  1.0
  C  C98  1  0.51464324  0.01140371  0.32215858  1.0
  C  C99  1  0.50774787  0.99739093  0.69146970  1.0
  C  C100  1  0.48862711  0.05938893  0.34784623  1.0
  C  C101  1  0.49123878  0.05627593  0.42228970  1.0
  C  C102  1  0.49142477  0.92696142  0.64412274  1.0
  C  C103  1  0.49690414  0.93445456  0.57379269  1.0
  C  C104  1  0.52958533  0.07112367  0.66731403  1.0
  C  C105  1  0.53584589  0.07705543  0.59797196  1.0
  C  C106  1  0.54441702  0.96533976  0.37255411  1.0
  C  C107  1  0.54877965  0.96535525  0.44732931  1.0
  C  C108  1  0.52056344  0.01029667  0.47289769  1.0
  C  C109  1  0.51873549  0.00781061  0.54928335  1.0
  C  C110  1  0.80822074  0.30328996  0.98690467  1.0
  C  C111  1  0.19032301  0.68161626  0.00178817  1.0
  C  C112  1  0.78447560  0.35327189  0.93735272  1.0
  C  C113  1  0.86164874  0.42528716  0.94013246  1.0
  C  C114  1  0.21276717  0.65214484  0.07307445  1.0
  C  C115  1  0.13512106  0.57569809  0.06499118  1.0
  C  C116  1  0.09304073  0.63383567  0.92679664  1.0
  C  C117  1  0.01790868  0.55760014  0.92029142  1.0
  C  C118  1  0.90556424  0.32540423  0.03361821  1.0
  C  C119  1  0.97994110  0.39602441  0.03335352  1.0
  C  C120  1  0.95925475  0.44843993  0.98733726  1.0
  C  C121  1  0.03791741  0.52727380  0.99022181  1.0
  C  C122  1  0.81003924  0.99833426  0.31873070  1.0
  C  C123  1  0.19241357  0.01361105  0.69712181  1.0
  C  C124  1  0.78755886  0.92724416  0.34851240  1.0
  C  C125  1  0.86521677  0.93548483  0.42507478  1.0
  C  C126  1  0.21607477  0.06337407  0.64724942  1.0
  C  C127  1  0.13881968  0.06063747  0.57536514  1.0
  C  C128  1  0.09509920  0.96680267  0.67508543  1.0
  C  C129  1  0.02064033  0.96711308  0.60460507  1.0
  C  C130  1  0.90730945  0.07332243  0.36641532  1.0
  C  C131  1  0.98241698  0.07997728  0.44276514  1.0
  C  C132  1  0.96243573  0.01022060  0.47334427  1.0
  C  C133  1  0.04120691  0.01326373  0.55222130  1.0
  C  C134  1  0.21376054  0.07371833  0.05701761  1.0
  C  C135  1  0.14049027  0.07593438  0.05543995  1.0
  C  C136  1  0.16471165  0.14139019  0.11844434  1.0
  C  C137  1  0.08822929  0.94672549  0.92978995  1.0
  C  C138  1  0.01252499  0.94647834  0.92570852  1.0
  C  C139  1  0.90897213  0.88253141  0.85925786  1.0
  C  C140  1  0.78675309  0.94295199  0.92619942  1.0
  C  C141  1  0.86000524  0.94446308  0.92400623  1.0
  C  C142  1  0.83577964  0.88137640  0.85863178  1.0
  C  C143  1  0.91228007  0.07030776  0.05306552  1.0
  C  C144  1  0.98797933  0.07434946  0.05333828  1.0
  C  C145  1  0.09152106  0.14076730  0.11727397  1.0
  C  C146  1  0.18764963  0.00922780  0.99530110  1.0
  C  C147  1  0.03802283  0.01105409  0.98979412  1.0
  C  C148  1  0.81286876  0.00471886  0.99063214  1.0
  C  C149  1  0.96248606  0.01017167  0.98885517  1.0
  C  C150  1  0.82235737  0.30613329  0.32126401  1.0
  C  C151  1  0.17816917  0.67874207  0.69379553  1.0
  C  C152  1  0.92301443  0.35708868  0.34973968  1.0
  C  C153  1  0.99039201  0.42791175  0.42500779  1.0
  C  C154  1  0.07751231  0.65029225  0.64283332  1.0
  C  C155  1  0.01007828  0.57500544  0.57201689  1.0
  C  C156  1  0.20602633  0.63051821  0.67299901  1.0
  C  C157  1  0.13722405  0.55546299  0.60313053  1.0
  C  C158  1  0.79445936  0.32693301  0.36943273  1.0
  C  C159  1  0.86323878  0.39675434  0.44451319  1.0
  C  C160  1  0.96310844  0.44942453  0.47323193  1.0
  C  C161  1  0.03733510  0.52675180  0.55048669  1.0
  C  C162  1  0.53278237  0.33635919  0.15526242  1.0
  C  C163  1  0.54284439  0.69937119  0.88744650  1.0
  C  C164  1  0.45656326  0.11192452  0.29991841  1.0
  C  C165  1  0.46691509  0.84434291  0.66302668  1.0
  C  C166  1  0.68287615  0.33546146  0.88331358  1.0
  C  C167  1  0.31347710  0.69804285  0.15729584  1.0
  C  C168  1  0.68681252  0.84310778  0.30281309  1.0
  C  C169  1  0.31764682  0.11751114  0.66502009  1.0
  C  C170  1  0.96163497  0.34136264  0.30354093  1.0
  C  C171  1  0.03897224  0.69657899  0.65857885  1.0
  Cl  Cl172  1  0.12209245  0.21977295  0.19291756  1.0
  Cl  Cl173  1  0.28797090  0.22086453  0.19579398  1.0
  Cl  Cl174  1  0.71252532  0.80400580  0.77920439  1.0
  Cl  Cl175  1  0.87840446  0.80687639  0.78028963  1.0
  O  O176  1  0.49028138  0.79058948  0.93512818  1.0
  O  O177  1  0.51011522  0.06475385  0.20928599  1.0
  O  O178  1  0.50020193  0.20155501  0.06213661  1.0
  O  O179  1  0.50060510  0.93781421  0.79844997  1.0
  O  O180  1  0.76333964  0.05804368  0.05558429  1.0
  O  O181  1  0.23273295  0.79334972  0.80125857  1.0
  O  O182  1  0.23716696  0.94438114  0.94185191  1.0
  O  O183  1  0.76786658  0.19872318  0.20665485  1.0
  O  O184  1  0.64300144  0.93885587  0.20515023  1.0
  O  O185  1  0.64233302  0.19606902  0.93598940  1.0
  O  O186  1  0.35832757  0.06412132  0.80391575  1.0
  O  O187  1  0.35740293  0.79480704  0.06092570  1.0
  O  O188  1  0.76533320  0.19983848  0.05429961  1.0
  O  O189  1  0.23534309  0.94584992  0.80016930  1.0
  O  O190  1  0.23565359  0.79338351  0.94367752  1.0
  O  O191  1  0.76478170  0.05618859  0.20669046  1.0
  O  O192  1  0.64388600  0.93862305  0.93658297  1.0
  O  O193  1  0.65260471  0.20300808  0.21013700  1.0
  O  O194  1  0.35663472  0.06339808  0.06126865  1.0
  O  O195  1  0.34792968  0.78986743  0.79685257  1.0
  O  O196  1  0.50020552  0.05639710  0.79537850  1.0
  O  O197  1  0.49256871  0.78857504  0.05509238  1.0
  O  O198  1  0.50775123  0.94472814  0.21127137  1.0
  O  O199  1  0.50050152  0.20471595  0.94353996  1.0
  O  O200  1  0.39326539  0.94623179  0.84484099  1.0
  O  O201  1  0.60734274  0.15508032  0.05376941  1.0
  O  O202  1  0.39745948  0.94878599  0.05552921  1.0
  O  O203  1  0.60306807  0.94434081  0.05119011  1.0
  O  O204  1  0.57895644  0.03702447  0.11652163  1.0
  O  O205  1  0.42158098  0.88341922  0.96287030  1.0
  O  O206  1  0.42445620  0.03827889  0.96455343  1.0
  O  O207  1  0.57613787  0.03536702  0.96173817  1.0
