# generated using pymatgen
data_MgH5C10SNO5
_symmetry_space_group_name_H-M   'P 1'
_cell_length_a   6.78906581
_cell_length_b   33.95254605
_cell_length_c   33.95970556
_cell_angle_alpha   119.51908611
_cell_angle_beta   93.82953382
_cell_angle_gamma   93.80522691
_symmetry_Int_Tables_number   1
_chemical_formula_structural   MgH5C10SNO5
_chemical_formula_sum   'Mg6 H30 C60 S6 N6 O30'
_cell_volume   6752.00796383
_cell_formula_units_Z   6
loop_
 _symmetry_equiv_pos_site_id
 _symmetry_equiv_pos_as_xyz
  1  'x, y, z'
loop_
 _atom_site_type_symbol
 _atom_site_label
 _atom_site_symmetry_multiplicity
 _atom_site_fract_x
 _atom_site_fract_y
 _atom_site_fract_z
 _atom_site_occupancy
  Mg  Mg0  1  0.91117224  0.36837119  0.69174269  1.0
  Mg  Mg1  1  0.59126461  0.69722640  0.36551058  1.0
  Mg  Mg2  1  0.21960249  0.30816609  0.67654392  1.0
  Mg  Mg3  1  0.22588709  0.63448920  0.33178708  1.0
  Mg  Mg4  1  0.54275372  0.32338742  0.63156812  1.0
  Mg  Mg5  1  0.89431033  0.66826713  0.30282426  1.0
  H  H6  1  0.61218511  0.56316822  0.54510344  1.0
  H  H7  1  0.35802196  0.52553791  0.56896734  1.0
  H  H8  1  0.22875609  0.36240011  0.54522830  1.0
  H  H9  1  0.56675398  0.40360812  0.59662669  1.0
  H  H10  1  0.68095895  0.41513616  0.53407348  1.0
  H  H11  1  0.31923534  0.40102535  0.43734972  1.0
  H  H12  1  0.57253320  0.43872942  0.41348557  1.0
  H  H13  1  0.96310929  0.58756692  0.41191928  1.0
  H  H14  1  0.27921000  0.63160013  0.43582423  1.0
  H  H15  1  0.43269301  0.59739753  0.47825114  1.0
  H  H16  1  0.06696034  0.45499548  0.01811948  1.0
  H  H17  1  0.78976747  0.43096573  0.95643701  1.0
  H  H18  1  0.68346431  0.45477222  0.81701268  1.0
  H  H19  1  0.97053400  0.40302225  0.80682040  1.0
  H  H20  1  0.14708007  0.46555354  0.88083685  1.0
  H  H21  1  0.88220651  0.56260756  0.96335138  1.0
  H  H22  1  0.15805346  0.58665028  0.02515448  1.0
  H  H23  1  0.55226745  0.58816257  0.17590663  1.0
  H  H24  1  0.84413274  0.56426424  0.19590266  1.0
  H  H25  1  0.95523455  0.52203363  0.11932910  1.0
  H  H26  1  0.04893720  0.98196287  0.43681660  1.0
  H  H27  1  0.83314858  0.04360552  0.47455067  1.0
  H  H28  1  0.86724842  0.18287368  0.63764131  1.0
  H  H29  1  0.16370059  0.19307713  0.59655155  1.0
  H  H30  1  0.26685609  0.11904025  0.58509522  1.0
  H  H31  1  0.91977369  0.03636814  0.59904662  1.0
  H  H32  1  0.13408421  0.97464220  0.56125922  1.0
  H  H33  1  0.37596022  0.82416454  0.41237921  1.0
  H  H34  1  0.64794700  0.80414712  0.36839860  1.0
  H  H35  1  0.83544074  0.88070949  0.40258832  1.0
  C  C36  1  0.60558084  0.50400674  0.47640383  1.0
  C  C37  1  0.54599452  0.52832481  0.52229879  1.0
  C  C38  1  0.40806017  0.50779918  0.53523760  1.0
  C  C39  1  0.31466202  0.46137386  0.50483961  1.0
  C  C40  1  0.96249997  0.38975499  0.53637893  1.0
  C  C41  1  0.08490320  0.37231727  0.55688239  1.0
  C  C42  1  0.02496288  0.36631128  0.59255369  1.0
  C  C43  1  0.83282910  0.37757705  0.60717969  1.0
  C  C44  1  0.71265033  0.39532515  0.58540163  1.0
  C  C45  1  0.77566637  0.40168119  0.55076282  1.0
  C  C46  1  0.16468728  0.34757456  0.61240136  1.0
  C  C47  1  0.38120670  0.43630717  0.45982293  1.0
  C  C48  1  0.51944848  0.45672722  0.44681913  1.0
  C  C49  1  0.71155437  0.59144132  0.44832281  1.0
  C  C50  1  0.81402081  0.59767048  0.41754296  1.0
  C  C51  1  0.73047350  0.61827933  0.39431747  1.0
  C  C52  1  0.53459113  0.63185031  0.40164652  1.0
  C  C53  1  0.42983779  0.62226743  0.43118848  1.0
  C  C54  1  0.51637178  0.60304636  0.45479367  1.0
  C  C55  1  0.85485064  0.62597578  0.36427453  1.0
  C  C56  1  0.12827262  0.52376435  0.02768068  1.0
  C  C57  1  0.02347320  0.47778947  0.00604977  1.0
  C  C58  1  0.87312040  0.46474688  0.97244913  1.0
  C  C59  1  0.80990583  0.49513268  0.95636155  1.0
  C  C60  1  0.42612133  0.46344392  0.85316689  1.0
  C  C61  1  0.52807521  0.44305475  0.81526050  1.0
  C  C62  1  0.43262217  0.40736255  0.77360883  1.0
  C  C63  1  0.22600213  0.39265427  0.77024082  1.0
  C  C64  1  0.12750698  0.41430577  0.80974556  1.0
  C  C65  1  0.22502631  0.44896387  0.85069670  1.0
  C  C66  1  0.55239122  0.38752570  0.73505672  1.0
  C  C67  1  0.92129725  0.54017282  0.97627168  1.0
  C  C68  1  0.07186144  0.55328295  0.00984680  1.0
  C  C69  1  0.26398853  0.55193046  0.14329355  1.0
  C  C70  1  0.39742747  0.58257001  0.18029557  1.0
  C  C71  1  0.33688034  0.60574915  0.22408880  1.0
  C  C72  1  0.13361471  0.59850056  0.23032088  1.0
  C  C73  1  0.99935137  0.56895790  0.19121453  1.0
  C  C74  1  0.06232780  0.54545266  0.14843559  1.0
  C  C75  1  0.49103898  0.63580353  0.26181149  1.0
  C  C76  1  0.10170494  0.97231132  0.49594430  1.0
  C  C77  1  0.01794004  0.99400500  0.47167958  1.0
  C  C78  1  0.90104336  0.02758391  0.49227074  1.0
  C  C79  1  0.85437280  0.04360181  0.53872811  1.0
  C  C80  1  0.57365989  0.14671892  0.61040244  1.0
  C  C81  1  0.71342049  0.18462230  0.62775604  1.0
  C  C82  1  0.65923892  0.22626941  0.63370243  1.0
  C  C83  1  0.45581468  0.22962988  0.62244723  1.0
  C  C84  1  0.31797066  0.19012738  0.60477571  1.0
  C  C85  1  0.37486440  0.14917707  0.59851817  1.0
  C  C86  1  0.81748012  0.26486218  0.65241705  1.0
  C  C87  1  0.94611361  0.02356487  0.56374322  1.0
  C  C88  1  0.06330305  0.99004243  0.54325591  1.0
  C  C89  1  0.12043594  0.85676694  0.40856050  1.0
  C  C90  1  0.21674858  0.81976199  0.40233412  1.0
  C  C91  1  0.11253538  0.77595533  0.38176403  1.0
  C  C92  1  0.90313813  0.76970089  0.36819733  1.0
  C  C93  1  0.80790507  0.80882892  0.37778351  1.0
  C  C94  1  0.91364329  0.85162012  0.39695418  1.0
  C  C95  1  0.22911825  0.73822993  0.37413855  1.0
  S  S96  1  0.83976984  0.57294644  0.48226901  1.0
  S  S97  1  0.04403231  0.39576835  0.49104775  1.0
  S  S98  1  0.35711700  0.51798246  0.09077328  1.0
  S  S99  1  0.55262963  0.50880396  0.90447607  1.0
  S  S100  1  0.26651023  0.90922498  0.42697462  1.0
  S  S101  1  0.64932676  0.09535874  0.60437222  1.0
  N  N102  1  0.72701464  0.51972078  0.45757797  1.0
  N  N103  1  0.17668960  0.44694148  0.52149559  1.0
  N  N104  1  0.26807933  0.54268904  0.06230007  1.0
  N  N105  1  0.65539932  0.47840930  0.92525438  1.0
  N  N106  1  0.20697828  0.93769214  0.48019697  1.0
  N  N107  1  0.73095714  0.07472408  0.55321420  1.0
  O  O108  1  0.32870487  0.33583520  0.59654976  1.0
  O  O109  1  0.11804316  0.34381351  0.64687634  1.0
  O  O110  1  0.76057509  0.37162279  0.63987586  1.0
  O  O111  1  0.01872603  0.60914763  0.35521252  1.0
  O  O112  1  0.79525153  0.65120625  0.34814844  1.0
  O  O113  1  0.44829170  0.65328945  0.38218118  1.0
  O  O114  1  0.04230391  0.56801388  0.47135577  1.0
  O  O115  1  0.80585440  0.60262268  0.52918399  1.0
  O  O116  1  0.87491722  0.40152035  0.46678525  1.0
  O  O117  1  0.16707577  0.35978230  0.46699704  1.0
  O  O118  1  0.73238312  0.40334056  0.73918849  1.0
  O  O119  1  0.47118201  0.35308033  0.69685272  1.0
  O  O120  1  0.12102251  0.35998791  0.73163066  1.0
  O  O121  1  0.66404841  0.64485071  0.25407294  1.0
  O  O122  1  0.44722387  0.65188593  0.30311756  1.0
  O  O123  1  0.06654900  0.61792566  0.27117710  1.0
  O  O124  1  0.57050639  0.52880976  0.09653120  1.0
  O  O125  1  0.27617443  0.47107696  0.07364693  1.0
  O  O126  1  0.40741205  0.53294391  0.93441810  1.0
  O  O127  1  0.69940643  0.53293250  0.89254267  1.0
  O  O128  1  0.99326721  0.26077233  0.66419863  1.0
  O  O129  1  0.77436483  0.30308305  0.65616374  1.0
  O  O130  1  0.38931778  0.26824884  0.62833751  1.0
  O  O131  1  0.40988163  0.74599265  0.39092426  1.0
  O  O132  1  0.14423714  0.69690324  0.34890417  1.0
  O  O133  1  0.79538662  0.72883601  0.34674266  1.0
  O  O134  1  0.47412472  0.90331553  0.43187287  1.0
  O  O135  1  0.20239142  0.92643241  0.39727316  1.0
  O  O136  1  0.47450167  0.06532182  0.59855848  1.0
  O  O137  1  0.80815852  0.10723295  0.64038479  1.0
