# generated using pymatgen
data_AlH9C27(BrO)6
_symmetry_space_group_name_H-M   'P 1'
_cell_length_a   4.06875438
_cell_length_b   27.89352414
_cell_length_c   27.91467543
_cell_angle_alpha   60.03364692
_cell_angle_beta   89.72530762
_cell_angle_gamma   89.46492400
_symmetry_Int_Tables_number   1
_chemical_formula_structural   AlH9C27(BrO)6
_chemical_formula_sum   'Al3 H27 C81 Br18 O18'
_cell_volume   2744.45604163
_cell_formula_units_Z   3
loop_
 _symmetry_equiv_pos_site_id
 _symmetry_equiv_pos_as_xyz
  1  'x, y, z'
loop_
 _atom_site_type_symbol
 _atom_site_label
 _atom_site_symmetry_multiplicity
 _atom_site_fract_x
 _atom_site_fract_y
 _atom_site_fract_z
 _atom_site_occupancy
  Al  Al0  1  0.00040709  0.00001925  0.49997810  1.0
  Al  Al1  1  0.05088371  0.33352260  0.83329974  1.0
  Al  Al2  1  0.93790368  0.66726614  0.16633690  1.0
  H  H3  1  0.48652451  0.00020673  0.92232109  1.0
  H  H4  1  0.50371283  0.91140288  0.83339956  1.0
  H  H5  1  0.47506331  0.08914976  0.74476016  1.0
  H  H6  1  0.28556470  0.07250996  0.91465074  1.0
  H  H7  1  0.74586144  0.14932888  0.75341073  1.0
  H  H8  1  0.69215178  0.92846074  0.98605523  1.0
  H  H9  1  0.23754795  0.85058396  0.90271799  1.0
  H  H10  1  0.24985522  0.92101785  0.76228377  1.0
  H  H11  1  0.73192977  0.07943511  0.68317954  1.0
  H  H12  1  0.48749208  0.42263144  0.07760772  1.0
  H  H13  1  0.47464526  0.24491131  0.16619639  1.0
  H  H14  1  0.50368820  0.33356766  0.25520913  1.0
  H  H15  1  0.70147509  0.48586411  0.08580404  1.0
  H  H16  1  0.23852385  0.40364605  0.24683762  1.0
  H  H17  1  0.27598535  0.41460156  0.01382570  1.0
  H  H18  1  0.74704582  0.25351724  0.09674341  1.0
  H  H19  1  0.73952563  0.18330839  0.23739237  1.0
  H  H20  1  0.24069029  0.26243407  0.31656690  1.0
  H  H21  1  0.51601042  0.57734864  0.49972103  1.0
  H  H22  1  0.53414580  0.75501319  0.41084078  1.0
  H  H23  1  0.50750937  0.66645472  0.58840421  1.0
  H  H24  1  0.30787510  0.51412381  0.57123963  1.0
  H  H25  1  0.76416736  0.59641344  0.65004968  1.0
  H  H26  1  0.71924154  0.58529363  0.42686803  1.0
  H  H27  1  0.25196377  0.74664005  0.35131419  1.0
  H  H28  1  0.27370369  0.81667370  0.42058086  1.0
  H  H29  1  0.76508597  0.73761121  0.57869015  1.0
  C  C30  1  0.50584417  0.92626265  0.49993676  1.0
  C  C31  1  0.49778636  0.00002762  0.57367478  1.0
  C  C32  1  0.49771803  0.07374042  0.42622357  1.0
  C  C33  1  0.55362557  0.25994857  0.83332667  1.0
  C  C34  1  0.54778188  0.33350947  0.90685311  1.0
  C  C35  1  0.54888144  0.40714849  0.75994292  1.0
  C  C36  1  0.43639072  0.74050790  0.09263759  1.0
  C  C37  1  0.44353871  0.59331440  0.16695452  1.0
  C  C38  1  0.43703637  0.66756902  0.23973388  1.0
  C  C39  1  0.48072597  0.94966559  0.88402920  1.0
  C  C40  1  0.48706922  0.00024270  0.88329493  1.0
  C  C41  1  0.49498593  0.05084408  0.83357275  1.0
  C  C42  1  0.48848870  0.05015711  0.78371306  1.0
  C  C43  1  0.48887055  0.00026777  0.78300009  1.0
  C  C44  1  0.48878165  0.95036276  0.83349561  1.0
  C  C45  1  0.42284401  0.15731976  0.87949798  1.0
  C  C46  1  0.39813411  0.10770010  0.87927123  1.0
  C  C47  1  0.51061661  0.10371634  0.83378446  1.0
  C  C48  1  0.64413486  0.15102523  0.78866693  1.0
  C  C49  1  0.65401049  0.20085180  0.78874600  1.0
  C  C50  1  0.54578960  0.20548210  0.83404562  1.0
  C  C51  1  0.58245756  0.89298769  0.98614174  1.0
  C  C52  1  0.56255823  0.84328189  0.03594842  1.0
  C  C53  1  0.44307303  0.79486994  0.03885689  1.0
  C  C54  1  0.33411609  0.79924404  0.98921727  1.0
  C  C55  1  0.33934529  0.84912154  0.93940788  1.0
  C  C56  1  0.46854251  0.89674855  0.93700958  1.0
  C  C57  1  0.36131686  0.95581712  0.72641153  1.0
  C  C58  1  0.36524993  0.95568893  0.67661444  1.0
  C  C59  1  0.49502891  0.00008993  0.62739461  1.0
  C  C60  1  0.62214869  0.04457506  0.63222075  1.0
  C  C61  1  0.62198671  0.04459108  0.68207233  1.0
  C  C62  1  0.49049065  0.00024343  0.73007610  1.0
  C  C63  1  0.49450129  0.33378605  0.11570885  1.0
  C  C64  1  0.48789157  0.38358282  0.11658059  1.0
  C  C65  1  0.48269151  0.38433066  0.16640239  1.0
  C  C66  1  0.48887110  0.33371541  0.21618483  1.0
  C  C67  1  0.48825163  0.28318530  0.21675156  1.0
  C  C68  1  0.48808047  0.28389363  0.16619971  1.0
  C  C69  1  0.57252939  0.53609022  0.12116394  1.0
  C  C70  1  0.59069923  0.48622763  0.12118168  1.0
  C  C71  1  0.47328173  0.43735100  0.16644872  1.0
  C  C72  1  0.34320951  0.44006989  0.21169210  1.0
  C  C73  1  0.34019218  0.48988970  0.21185319  1.0
  C  C74  1  0.45162201  0.53932258  0.16662748  1.0
  C  C75  1  0.39060723  0.37928641  0.01362275  1.0
  C  C76  1  0.41305402  0.37943585  0.96377614  1.0
  C  C77  1  0.53875377  0.33404068  0.96068742  1.0
  C  C78  1  0.65049506  0.28874056  0.01026658  1.0
  C  C79  1  0.64239564  0.28873217  0.06012244  1.0
  C  C80  1  0.50778070  0.33391152  0.06267220  1.0
  C  C81  1  0.62588136  0.18217649  0.27330599  1.0
  C  C82  1  0.62648726  0.13229585  0.32316442  1.0
  C  C83  1  0.49446156  0.12744731  0.37241004  1.0
  C  C84  1  0.35965096  0.17668899  0.36754956  1.0
  C  C85  1  0.35554779  0.22651509  0.31766154  1.0
  C  C86  1  0.48952304  0.23019400  0.26963402  1.0
  C  C87  1  0.51101250  0.66618567  0.44916778  1.0
  C  C88  1  0.51833387  0.61638358  0.49974028  1.0
  C  C89  1  0.52629674  0.61566407  0.55028386  1.0
  C  C90  1  0.52147643  0.66629425  0.54951483  1.0
  C  C91  1  0.52195954  0.71681259  0.49964738  1.0
  C  C92  1  0.52062154  0.71607151  0.44982005  1.0
  C  C93  1  0.42890955  0.46413522  0.65690434  1.0
  C  C94  1  0.41580137  0.51385283  0.60696878  1.0
  C  C95  1  0.53339010  0.56269398  0.60332503  1.0
  C  C96  1  0.65937121  0.56003258  0.65132820  1.0
  C  C97  1  0.65748148  0.51038245  0.70139527  1.0
  C  C98  1  0.54523206  0.46101446  0.70562369  1.0
  C  C99  1  0.60376251  0.62080702  0.39190303  1.0
  C  C100  1  0.57534946  0.62090201  0.34218387  1.0
  C  C101  1  0.44840734  0.66657571  0.29429647  1.0
  C  C102  1  0.33977878  0.71172239  0.29933555  1.0
  C  C103  1  0.35384479  0.71149824  0.34925232  1.0
  C  C104  1  0.49148467  0.66618436  0.39625637  1.0
  C  C105  1  0.38498328  0.81780778  0.45535624  1.0
  C  C106  1  0.38236050  0.86769223  0.45539308  1.0
  C  C107  1  0.51090432  0.87253315  0.49982618  1.0
  C  C108  1  0.64468870  0.82332642  0.54412597  1.0
  C  C109  1  0.65092302  0.77351149  0.54395855  1.0
  C  C110  1  0.51993911  0.76980394  0.49962621  1.0
  Br  Br111  1  0.82152774  0.26388544  0.72498459  1.0
  Br  Br112  1  0.28347105  0.15862850  0.94382709  1.0
  Br  Br113  1  0.70405045  0.84224779  0.10118132  1.0
  Br  Br114  1  0.17241609  0.73579050  0.98880962  1.0
  Br  Br115  1  0.19665777  0.89008458  0.68114156  1.0
  Br  Br116  1  0.79245279  0.11016212  0.57124103  1.0
  Br  Br117  1  0.17817067  0.48979078  0.27579800  1.0
  Br  Br118  1  0.71802368  0.60100551  0.05707807  1.0
  Br  Br119  1  0.26576732  0.44358350  0.89870197  1.0
  Br  Br120  1  0.81914466  0.22487332  0.01055867  1.0
  Br  Br121  1  0.80513195  0.07130662  0.31867862  1.0
  Br  Br122  1  0.18518439  0.18127502  0.42855429  1.0
  Br  Br123  1  0.81298002  0.51070918  0.76527492  1.0
  Br  Br124  1  0.28173964  0.39924477  0.65789794  1.0
  Br  Br125  1  0.71488092  0.55671912  0.34037121  1.0
  Br  Br126  1  0.16606634  0.77567289  0.23676040  1.0
  Br  Br127  1  0.20670801  0.92866286  0.38996135  1.0
  Br  Br128  1  0.81477846  0.81878118  0.60970757  1.0
  O  O129  1  0.26079902  0.06466634  0.45943718  1.0
  O  O130  1  0.26720547  0.95929835  0.47592289  1.0
  O  O131  1  0.26305650  0.97590115  0.56458388  1.0
  O  O132  1  0.73686673  0.04067713  0.43525870  1.0
  O  O133  1  0.73442443  0.02410395  0.54061248  1.0
  O  O134  1  0.74087484  0.93539783  0.52405249  1.0
  O  O135  1  0.31205482  0.39872000  0.79288032  1.0
  O  O136  1  0.31824420  0.29341608  0.80856152  1.0
  O  O137  1  0.31456455  0.30889598  0.89819490  1.0
  O  O138  1  0.78833231  0.37439952  0.76843057  1.0
  O  O139  1  0.78625091  0.35757865  0.87443708  1.0
  O  O140  1  0.79217642  0.26817393  0.85732425  1.0
  O  O141  1  0.19829816  0.64364280  0.23156571  1.0
  O  O142  1  0.19635500  0.73236777  0.12490559  1.0
  O  O143  1  0.20349480  0.62578361  0.14278435  1.0
  O  O144  1  0.67010656  0.69233867  0.20617304  1.0
  O  O145  1  0.67769613  0.60208815  0.19137585  1.0
  O  O146  1  0.67276272  0.70711842  0.10139368  1.0
