# generated using pymatgen
data_ZnH12C18N2O3
_symmetry_space_group_name_H-M   'P 1'
_cell_length_a   4.85500416
_cell_length_b   19.21850373
_cell_length_c   19.22446683
_cell_angle_alpha   89.08753501
_cell_angle_beta   82.79452805
_cell_angle_gamma   82.73699943
_symmetry_Int_Tables_number   1
_chemical_formula_structural   ZnH12C18N2O3
_chemical_formula_sum   'Zn4 H48 C72 N8 O12'
_cell_volume   1765.31176858
_cell_formula_units_Z   4
loop_
 _symmetry_equiv_pos_site_id
 _symmetry_equiv_pos_as_xyz
  1  'x, y, z'
loop_
 _atom_site_type_symbol
 _atom_site_label
 _atom_site_symmetry_multiplicity
 _atom_site_fract_x
 _atom_site_fract_y
 _atom_site_fract_z
 _atom_site_occupancy
  Zn  Zn0  1  0.62327496  0.43915273  0.98598250  1.0
  Zn  Zn1  1  0.04859584  0.56076400  0.01407687  1.0
  Zn  Zn2  1  0.39071752  0.98596653  0.56078533  1.0
  Zn  Zn3  1  0.93711549  0.01396175  0.43911043  1.0
  H  H4  1  0.02171495  0.33476634  0.66910644  1.0
  H  H5  1  0.08392741  0.49740652  0.86965113  1.0
  H  H6  1  0.42212974  0.55682673  0.79269580  1.0
  H  H7  1  0.32971464  0.40245637  0.59231077  1.0
  H  H8  1  0.65212748  0.49342664  0.57701984  1.0
  H  H9  1  0.49455325  0.30260086  0.91058080  1.0
  H  H10  1  0.70349001  0.56899199  0.67678838  1.0
  H  H11  1  0.60998368  0.30109256  0.67411531  1.0
  H  H12  1  0.53898386  0.18964166  0.61729103  1.0
  H  H13  1  0.68208714  0.19099757  0.86920324  1.0
  H  H14  1  0.57377115  0.08219300  0.81387925  1.0
  H  H15  1  0.53728386  0.56424497  0.95069223  1.0
  H  H16  1  0.02524822  0.66505911  0.33108385  1.0
  H  H17  1  0.44929025  0.50241235  0.13053453  1.0
  H  H18  1  0.77100891  0.44303876  0.20753651  1.0
  H  H19  1  0.32508058  0.59752412  0.40780439  1.0
  H  H20  1  0.72457125  0.50686378  0.42302528  1.0
  H  H21  1  0.70731480  0.69740140  0.08937639  1.0
  H  H22  1  0.95032887  0.43114377  0.32332474  1.0
  H  H23  1  0.58511812  0.69898167  0.32590775  1.0
  H  H24  1  0.34575561  0.81046610  0.38260491  1.0
  H  H25  1  0.74091749  0.80894537  0.13072523  1.0
  H  H26  1  0.46870832  0.91777364  0.18596425  1.0
  H  H27  1  0.05256380  0.43565739  0.04927358  1.0
  H  H28  1  0.30950464  0.66887447  0.66520204  1.0
  H  H29  1  0.04723705  0.86939450  0.50246121  1.0
  H  H30  1  0.78591283  0.79252066  0.44307092  1.0
  H  H31  1  0.07651074  0.59203093  0.59762131  1.0
  H  H32  1  0.76831058  0.57693333  0.50677208  1.0
  H  H33  1  0.59426800  0.91063388  0.69749437  1.0
  H  H34  1  0.61868049  0.67671530  0.43103138  1.0
  H  H35  1  0.71706205  0.67418341  0.69897207  1.0
  H  H36  1  0.84462286  0.61731312  0.81042854  1.0
  H  H37  1  0.44766644  0.86916175  0.80910408  1.0
  H  H38  1  0.61145743  0.81385671  0.91789390  1.0
  H  H39  1  0.51160133  0.95058514  0.43574931  1.0
  H  H40  1  0.64496921  0.33113876  0.33478863  1.0
  H  H41  1  0.41959328  0.13055664  0.49725744  1.0
  H  H42  1  0.02259420  0.20766549  0.55668847  1.0
  H  H43  1  0.26912618  0.40808378  0.40239916  1.0
  H  H44  1  0.85498638  0.42336084  0.49307106  1.0
  H  H45  1  0.20304974  0.08932113  0.30253714  1.0
  H  H46  1  0.72831473  0.32359977  0.56864995  1.0
  H  H47  1  0.09147783  0.32577456  0.30112316  1.0
  H  H48  1  0.27320245  0.38260031  0.18968296  1.0
  H  H49  1  0.12522454  0.13085945  0.19096160  1.0
  H  H50  1  0.34126266  0.18615130  0.08211949  1.0
  H  H51  1  0.89842624  0.04934072  0.56415098  1.0
  C  C52  1  0.65409391  0.25228208  0.77434898  1.0
  C  C53  1  0.02864920  0.37019681  0.71225127  1.0
  C  C54  1  0.88277116  0.36344936  0.77772167  1.0
  C  C55  1  0.21866020  0.47116691  0.75989657  1.0
  C  C56  1  0.19726314  0.42527280  0.70242239  1.0
  C  C57  1  0.06397087  0.46316016  0.82631060  1.0
  C  C58  1  0.89698470  0.40984351  0.83425864  1.0
  C  C59  1  0.40298082  0.52337558  0.74865797  1.0
  C  C60  1  0.35358502  0.43566931  0.63618666  1.0
  C  C61  1  0.52993814  0.48664900  0.62761278  1.0
  C  C62  1  0.62608933  0.33235869  0.87482653  1.0
  C  C63  1  0.55719800  0.53028492  0.68441632  1.0
  C  C64  1  0.61261437  0.25239279  0.70369055  1.0
  C  C65  1  0.55393237  0.12908962  0.71230959  1.0
  C  C66  1  0.56819765  0.19049434  0.67254887  1.0
  C  C67  1  0.64340633  0.19101419  0.81453575  1.0
  C  C68  1  0.58760820  0.13027515  0.78359727  1.0
  C  C69  1  0.49557864  0.06211757  0.68110260  1.0
  C  C70  1  0.68006738  0.74768963  0.22562395  1.0
  C  C71  1  0.11045962  0.62965123  0.28791731  1.0
  C  C72  1  0.02295241  0.63642672  0.22243795  1.0
  C  C73  1  0.44880037  0.52863659  0.24029771  1.0
  C  C74  1  0.32446803  0.57457459  0.29774999  1.0
  C  C75  1  0.35198139  0.53662553  0.17389879  1.0
  C  C76  1  0.13982216  0.59000257  0.16593472  1.0
  C  C77  1  0.67457038  0.47652594  0.25153671  1.0
  C  C78  1  0.42586716  0.56429493  0.36394009  1.0
  C  C79  1  0.64536483  0.51347957  0.37248520  1.0
  C  C80  1  0.83261539  0.66758785  0.12520119  1.0
  C  C81  1  0.77258082  0.46977549  0.31571526  1.0
  C  C82  1  0.56838512  0.74765335  0.29628676  1.0
  C  C83  1  0.39476119  0.87094468  0.28756443  1.0
  C  C84  1  0.43096656  0.80955695  0.32735770  1.0
  C  C85  1  0.64792268  0.80894198  0.18540113  1.0
  C  C86  1  0.50050083  0.86969650  0.21628348  1.0
  C  C87  1  0.23850226  0.93791666  0.31875306  1.0
  C  C88  1  0.57166192  0.77434291  0.74776824  1.0
  C  C89  1  0.25945728  0.71199527  0.62973320  1.0
  C  C90  1  0.33987034  0.77752710  0.63651571  1.0
  C  C91  1  0.02194573  0.75962516  0.52873350  1.0
  C  C92  1  0.10045879  0.70212747  0.57466422  1.0
  C  C93  1  0.11050496  0.82605165  0.53672505  1.0
  C  C94  1  0.26928453  0.83406058  0.59009786  1.0
  C  C95  1  0.84866743  0.74845085  0.47653929  1.0
  C  C96  1  0.00928947  0.63593086  0.56436096  1.0
  C  C97  1  0.84095929  0.62745306  0.51344276  1.0
  C  C98  1  0.49885998  0.87480305  0.66767211  1.0
  C  C99  1  0.75771434  0.68426516  0.46970047  1.0
  C  C100  1  0.68451656  0.70371694  0.74767976  1.0
  C  C101  1  0.73388074  0.71232952  0.87098721  1.0
  C  C102  1  0.75994301  0.67257552  0.80957575  1.0
  C  C103  1  0.54161580  0.81452500  0.80904414  1.0
  C  C104  1  0.62846003  0.78360112  0.86977366  1.0
  C  C105  1  0.82290580  0.68119919  0.93803085  1.0
  C  C106  1  0.09403430  0.22565469  0.25227391  1.0
  C  C107  1  0.60264890  0.28801479  0.37024355  1.0
  C  C108  1  0.75501257  0.22245807  0.36347581  1.0
  C  C109  1  0.31186172  0.24045567  0.47117670  1.0
  C  C110  1  0.37912709  0.29794042  0.42530200  1.0
  C  C111  1  0.47413147  0.17393947  0.46312325  1.0
  C  C112  1  0.69426362  0.16591526  0.40981493  1.0
  C  C113  1  0.07527519  0.25173022  0.52330680  1.0
  C  C114  1  0.21216204  0.36420954  0.43561175  1.0
  C  C115  1  0.98445386  0.37278474  0.48644286  1.0
  C  C116  1  0.04205137  0.12514210  0.33232469  1.0
  C  C117  1  0.91369208  0.31598623  0.53009684  1.0
  C  C118  1  0.13641325  0.29626232  0.25240305  1.0
  C  C119  1  0.31641178  0.28767056  0.12904423  1.0
  C  C120  1  0.24226011  0.32738969  0.19050116  1.0
  C  C121  1  0.16443929  0.18549868  0.19098753  1.0
  C  C122  1  0.28039689  0.21643384  0.13022759  1.0
  C  C123  1  0.44135580  0.31879362  0.06204924  1.0
  N  N124  1  0.73170502  0.38837030  0.89349719  1.0
  N  N125  1  0.70928261  0.31439118  0.80621592  1.0
  N  N126  1  0.01262852  0.61152423  0.10661472  1.0
  N  N127  1  0.82915654  0.68554929  0.19383342  1.0
  N  N128  1  0.37487932  0.89340654  0.61159666  1.0
  N  N129  1  0.48451289  0.80614493  0.68563866  1.0
  N  N130  1  0.88045259  0.10654132  0.38831195  1.0
  N  N131  1  0.97717052  0.19383039  0.31440951  1.0
  O  O132  1  0.90065674  0.47139499  0.03805605  1.0
  O  O133  1  0.54908349  0.05767834  0.61266186  1.0
  O  O134  1  0.40137233  0.01621585  0.72024417  1.0
  O  O135  1  0.40987190  0.52853778  0.96188477  1.0
  O  O136  1  0.21899743  0.94232804  0.38720054  1.0
  O  O137  1  0.13786704  0.98387254  0.27957538  1.0
  O  O138  1  0.06131295  0.03803680  0.52844368  1.0
  O  O139  1  0.83803011  0.61273732  0.94250808  1.0
  O  O140  1  0.87715904  0.72044999  0.98396498  1.0
  O  O141  1  0.62782747  0.96185132  0.47145211  1.0
  O  O142  1  0.39296363  0.38726339  0.05756978  1.0
  O  O143  1  0.58052892  0.27952279  0.01611608  1.0
