# generated using pymatgen
data_Zn2H16C30Br4N2O9
_symmetry_space_group_name_H-M   'P 1'
_cell_length_a   9.86503453
_cell_length_b   11.00328335
_cell_length_c   16.06820809
_cell_angle_alpha   91.82374642
_cell_angle_beta   90.93996389
_cell_angle_gamma   95.72579241
_symmetry_Int_Tables_number   1
_chemical_formula_structural   Zn2H16C30Br4N2O9
_chemical_formula_sum   'Zn2 H16 C30 Br4 N2 O9'
_cell_volume   1734.25078438
_cell_formula_units_Z   1
loop_
 _symmetry_equiv_pos_site_id
 _symmetry_equiv_pos_as_xyz
  1  'x, y, z'
loop_
 _atom_site_type_symbol
 _atom_site_label
 _atom_site_symmetry_multiplicity
 _atom_site_fract_x
 _atom_site_fract_y
 _atom_site_fract_z
 _atom_site_occupancy
  Zn  Zn0  1  0.63767556  0.52083272  0.50741336  1.0
  Zn  Zn1  1  0.34919048  0.49234038  0.50886298  1.0
  H  H2  1  0.71826292  0.46954053  0.08462439  1.0
  H  H3  1  0.80224618  0.91748745  0.45922176  1.0
  H  H4  1  0.84633724  0.42800718  0.62134542  1.0
  H  H5  1  0.87437441  0.57603724  0.31735689  1.0
  H  H6  1  0.89998132  0.71933376  0.37318031  1.0
  H  H7  1  0.15609886  0.70037299  0.37917253  1.0
  H  H8  1  0.71664387  0.49510321  0.93099481  1.0
  H  H9  1  0.28102785  0.47422960  0.08412045  1.0
  H  H10  1  0.28042056  0.87130707  0.55068907  1.0
  H  H11  1  0.28161173  0.09756397  0.56313912  1.0
  H  H12  1  0.80470419  0.14637660  0.47687074  1.0
  H  H13  1  0.91013388  0.13147689  0.31757127  1.0
  H  H14  1  0.90917923  0.26926240  0.37946843  1.0
  H  H15  1  0.77368744  0.35833158  0.26555548  1.0
  H  H16  1  0.93319914  0.31669843  0.22893732  1.0
  H  H17  1  0.77954111  0.22168907  0.20372691  1.0
  C  C18  1  0.47734668  0.73843266  0.49210591  1.0
  C  C19  1  0.62296533  0.47608541  0.05063608  1.0
  C  C20  1  0.50247309  0.51543329  0.83345267  1.0
  C  C21  1  0.50069331  0.46324353  0.18229181  1.0
  C  C22  1  0.50358698  0.46189934  0.25806593  1.0
  C  C23  1  0.50961404  0.52829520  0.75855279  1.0
  C  C24  1  0.58427951  0.95350619  0.46652278  1.0
  C  C25  1  0.47702443  0.87402567  0.49467875  1.0
  C  C26  1  0.36716260  0.92999723  0.52860074  1.0
  C  C27  1  0.36793062  0.05709615  0.53595563  1.0
  C  C28  1  0.47847921  0.13631707  0.50941278  1.0
  C  C29  1  0.51126198  0.47300676  0.34785453  1.0
  C  C30  1  0.58467860  0.08008149  0.47334507  1.0
  C  C31  1  0.72271390  0.10542176  0.43372110  1.0
  C  C32  1  0.72113981  0.95879644  0.42626050  1.0
  C  C33  1  0.06778629  0.54220203  0.44801677  1.0
  C  C34  1  0.04949398  0.44543687  0.56895002  1.0
  C  C35  1  0.90954858  0.46123403  0.57028096  1.0
  C  C36  1  0.92953089  0.55745193  0.44864151  1.0
  C  C37  1  0.93071207  0.62611038  0.36922962  1.0
  C  C38  1  0.08953218  0.61508509  0.36974945  1.0
  C  C39  1  0.47971107  0.27173918  0.51807655  1.0
  C  C40  1  0.51387066  0.53459294  0.66907405  1.0
  C  C41  1  0.62199674  0.49023886  0.96534711  1.0
  C  C42  1  0.49933348  0.49978955  0.92024627  1.0
  C  C43  1  0.37661006  0.49262114  0.96508825  1.0
  C  C44  1  0.37626001  0.47847274  0.05059196  1.0
  C  C45  1  0.49989991  0.47112001  0.09461626  1.0
  C  C46  1  0.85243724  0.21081507  0.33043081  1.0
  C  C47  1  0.83351091  0.28115169  0.25234100  1.0
  Br  Br48  1  0.12011254  0.36500825  0.65885011  1.0
  Br  Br49  1  0.15358273  0.53309863  0.27089117  1.0
  Br  Br50  1  0.20839328  0.50274175  0.90798564  1.0
  Br  Br51  1  0.72062017  0.89001380  0.31173931  1.0
  N  N52  1  0.13284313  0.48713905  0.50763820  1.0
  N  N53  1  0.84803888  0.51918404  0.50977124  1.0
  O  O54  1  0.59327019  0.69785610  0.49942758  1.0
  O  O55  1  0.36214742  0.67491650  0.48457341  1.0
  O  O56  1  0.62966326  0.50340884  0.37952013  1.0
  O  O57  1  0.40056545  0.45371259  0.38694919  1.0
  O  O58  1  0.59484759  0.33381586  0.51204128  1.0
  O  O59  1  0.36574232  0.31411599  0.53054527  1.0
  O  O60  1  0.62980594  0.52915069  0.63584309  1.0
  O  O61  1  0.40102684  0.54342052  0.63124083  1.0
  O  O62  1  0.71981521  0.17033757  0.36054708  1.0
