# generated using pymatgen
data_Al2H7C22ClO10
_symmetry_space_group_name_H-M   'P 1'
_cell_length_a   6.69717729
_cell_length_b   20.51521505
_cell_length_c   22.87871113
_cell_angle_alpha   93.10442190
_cell_angle_beta   90.74275438
_cell_angle_gamma   90.21067491
_symmetry_Int_Tables_number   1
_chemical_formula_structural   Al2H7C22ClO10
_chemical_formula_sum   'Al4 H14 C44 Cl2 O20'
_cell_volume   3138.49149787
_cell_formula_units_Z   2
loop_
 _symmetry_equiv_pos_site_id
 _symmetry_equiv_pos_as_xyz
  1  'x, y, z'
loop_
 _atom_site_type_symbol
 _atom_site_label
 _atom_site_symmetry_multiplicity
 _atom_site_fract_x
 _atom_site_fract_y
 _atom_site_fract_z
 _atom_site_occupancy
  Al  Al0  1  0.87327434  0.48870153  0.49249185  1.0
  Al  Al1  1  0.37382858  0.48855464  0.49240874  1.0
  Al  Al2  1  0.34677666  0.02019641  0.01757950  1.0
  Al  Al3  1  0.84617388  0.02045564  0.01770149  1.0
  H  H4  1  0.41874478  0.32032619  0.73762670  1.0
  H  H5  1  0.81853341  0.26039745  0.68758156  1.0
  H  H6  1  0.81010808  0.18842580  0.77186425  1.0
  H  H7  1  0.30625975  0.76958301  0.19132393  1.0
  H  H8  1  0.90490633  0.82631431  0.24611793  1.0
  H  H9  1  0.90630469  0.73856024  0.31728634  1.0
  H  H10  1  0.29537976  0.70826764  0.71003710  1.0
  H  H11  1  0.28136649  0.79417750  0.79164901  1.0
  H  H12  1  0.92413363  0.80050928  0.79952142  1.0
  H  H13  1  0.93816314  0.71470921  0.71782222  1.0
  H  H14  1  0.62228395  0.40367606  0.47787895  1.0
  H  H15  1  0.12386894  0.57049160  0.47632801  1.0
  H  H16  1  0.59671042  0.10580031  0.01371091  1.0
  H  H17  1  0.09513489  0.93483023  0.01991030  1.0
  C  C18  1  0.62038168  0.56695715  0.41647261  1.0
  C  C19  1  0.62854635  0.56869960  0.57343944  1.0
  C  C20  1  0.12668622  0.41379134  0.56990519  1.0
  C  C21  1  0.11838757  0.40725177  0.41095230  1.0
  C  C22  1  0.11613082  0.36067705  0.36149452  1.0
  C  C23  1  0.11416089  0.31980553  0.32029795  1.0
  C  C24  1  0.11196369  0.27483706  0.27547647  1.0
  C  C25  1  0.10979260  0.23319789  0.23446703  1.0
  C  C26  1  0.10733233  0.18821988  0.18965272  1.0
  C  C27  1  0.10482284  0.14733174  0.14848017  1.0
  C  C28  1  0.28583380  0.29129863  0.74490910  1.0
  C  C29  1  0.11947764  0.29478216  0.70679555  1.0
  C  C30  1  0.94726005  0.25729348  0.71690218  1.0
  C  C31  1  0.94266054  0.21724401  0.76369167  1.0
  C  C32  1  0.10752025  0.21328312  0.80246315  1.0
  C  C33  1  0.27908849  0.25148492  0.79210000  1.0
  C  C34  1  0.12484781  0.33595353  0.65914085  1.0
  C  C35  1  0.10019401  0.17246978  0.85013258  1.0
  C  C36  1  0.09399083  0.13714218  0.89119742  1.0
  C  C37  1  0.12684593  0.37144531  0.61815670  1.0
  C  C38  1  0.43743727  0.76292023  0.21894255  1.0
  C  C39  1  0.60518304  0.80397375  0.21429585  1.0
  C  C40  1  0.77507768  0.79479557  0.25005758  1.0
  C  C41  1  0.77584762  0.74607424  0.28961969  1.0
  C  C42  1  0.60942661  0.70439441  0.29482302  1.0
  C  C43  1  0.44042353  0.71367903  0.25830748  1.0
  C  C44  1  0.60275994  0.85337323  0.17347015  1.0
  C  C45  1  0.61305910  0.65543964  0.33581869  1.0
  C  C46  1  0.61845619  0.61401059  0.37198250  1.0
  C  C47  1  0.60119885  0.89548165  0.13792663  1.0
  C  C48  1  0.42424930  0.77642165  0.77520350  1.0
  C  C49  1  0.60187384  0.80274974  0.80083114  1.0
  C  C50  1  0.78754153  0.78000007  0.77959318  1.0
  C  C51  1  0.79529078  0.73240796  0.73431922  1.0
  C  C52  1  0.61762952  0.70598765  0.70877001  1.0
  C  C53  1  0.43197684  0.72879588  0.72994706  1.0
  C  C54  1  0.59487833  0.85090002  0.84741243  1.0
  C  C55  1  0.62470055  0.65757864  0.66239814  1.0
  C  C56  1  0.62860318  0.61614836  0.62222778  1.0
  C  C57  1  0.59123338  0.89201382  0.88784787  1.0
  C  C58  1  0.59110429  0.93919577  0.93683103  1.0
  C  C59  1  0.60028939  0.94281547  0.09363925  1.0
  C  C60  1  0.10247736  0.10072487  0.09900823  1.0
  C  C61  1  0.09278773  0.09556289  0.93995580  1.0
  Cl  Cl62  1  0.48190871  0.24920499  0.83910259  1.0
  Cl  Cl63  1  0.23601786  0.66292580  0.26236782  1.0
  O  O64  1  0.45778737  0.55088996  0.55311821  1.0
  O  O65  1  0.79150521  0.54969234  0.43507141  1.0
  O  O66  1  0.94856206  0.42571737  0.42992027  1.0
  O  O67  1  0.79810409  0.54990369  0.55464123  1.0
  O  O68  1  0.95625717  0.42957353  0.54996026  1.0
  O  O69  1  0.45034666  0.54807936  0.43360495  1.0
  O  O70  1  0.62312917  0.44958077  0.49028227  1.0
  O  O71  1  0.29630082  0.43093418  0.55140216  1.0
  O  O72  1  0.29001273  0.42446995  0.43109866  1.0
  O  O73  1  0.12404051  0.52743351  0.49183086  1.0
  O  O74  1  0.77019732  0.96231154  0.07712108  1.0
  O  O75  1  0.42111462  0.95829019  0.95519251  1.0
  O  O76  1  0.26309877  0.08042282  0.96060330  1.0
  O  O77  1  0.42965600  0.95962378  0.07448938  1.0
  O  O78  1  0.27208253  0.08170885  0.08052958  1.0
  O  O79  1  0.76194438  0.95644016  0.95761437  1.0
  O  O80  1  0.59678190  0.05920471  0.01860336  1.0
  O  O81  1  0.93113065  0.08412817  0.07841731  1.0
  O  O82  1  0.92263521  0.07834370  0.95819827  1.0
  O  O83  1  0.09586247  0.98172978  0.01692545  1.0
