# generated using pymatgen
data_AlH27(C4O)12
_symmetry_space_group_name_H-M   'P 1'
_cell_length_a   4.19441194
_cell_length_b   23.48877735
_cell_length_c   23.50262104
_cell_angle_alpha   60.07755318
_cell_angle_beta   87.67114553
_cell_angle_gamma   87.59222180
_symmetry_Int_Tables_number   1
_chemical_formula_structural   AlH27(C4O)12
_chemical_formula_sum   'Al1 H27 C48 O12'
_cell_volume   2004.57135005
_cell_formula_units_Z   1
loop_
 _symmetry_equiv_pos_site_id
 _symmetry_equiv_pos_as_xyz
  1  'x, y, z'
loop_
 _atom_site_type_symbol
 _atom_site_label
 _atom_site_symmetry_multiplicity
 _atom_site_fract_x
 _atom_site_fract_y
 _atom_site_fract_z
 _atom_site_occupancy
  Al  Al0  1  0.05740915  0.49969814  0.49961209  1.0
  H  H1  1  0.81640216  0.33303714  0.67850338  1.0
  H  H2  1  0.80154875  0.26992418  0.79913864  1.0
  H  H3  1  0.85683142  0.22963467  0.89357480  1.0
  H  H4  1  0.85008511  0.16940536  0.01309739  1.0
  H  H5  1  0.28653459  0.80179903  0.26899335  1.0
  H  H6  1  0.22587358  0.89660863  0.22831307  1.0
  H  H7  1  0.22678216  0.01596142  0.16843966  1.0
  H  H8  1  0.52214716  0.10572439  0.10475440  1.0
  H  H9  1  0.78677017  0.67892080  0.48656960  1.0
  H  H10  1  0.76925032  0.79964594  0.42927933  1.0
  H  H11  1  0.81591152  0.89448575  0.37580830  1.0
  H  H12  1  0.81529228  0.01380473  0.31545797  1.0
  H  H13  1  0.32955878  0.26880336  0.43173226  1.0
  H  H14  1  0.25693329  0.23018916  0.37786286  1.0
  H  H15  1  0.23671521  0.17158323  0.31733182  1.0
  H  H16  1  0.52743137  0.10587480  0.28775807  1.0
  H  H17  1  0.85901430  0.48303287  0.33323527  1.0
  H  H18  1  0.84659544  0.42535287  0.27015524  1.0
  H  H19  1  0.87507103  0.37235876  0.22640453  1.0
  H  H20  1  0.85217538  0.31325794  0.16619384  1.0
  H  H21  1  0.27021945  0.43047869  0.80186815  1.0
  H  H22  1  0.20559355  0.37557423  0.89666838  1.0
  H  H23  1  0.20551129  0.31543746  0.01616988  1.0
  H  H24  1  0.53386197  0.28871639  0.10483007  1.0
  H  H25  1  0.70783763  0.30243552  0.55163992  1.0
  H  H26  1  0.64990929  0.55037760  0.64817551  1.0
  H  H27  1  0.69617253  0.64867721  0.30086294  1.0
  C  C28  1  0.54980760  0.45042115  0.59919453  1.0
  C  C29  1  0.58371457  0.44914906  0.45033733  1.0
  C  C30  1  0.54863806  0.59929932  0.44946754  1.0
  C  C31  1  0.69726984  0.35372919  0.70642046  1.0
  C  C32  1  0.68754916  0.31857029  0.77457393  1.0
  C  C33  1  0.70618342  0.24869804  0.91941475  1.0
  C  C34  1  0.70281990  0.21409008  0.98764052  1.0
  C  C35  1  0.40613290  0.70778936  0.34942433  1.0
  C  C36  1  0.39515991  0.77617519  0.31701005  1.0
  C  C37  1  0.36128337  0.92122057  0.24794545  1.0
  C  C38  1  0.36200828  0.98945757  0.21342329  1.0
  C  C39  1  0.54955375  0.41593261  0.67205346  1.0
  C  C40  1  0.53475964  0.34471475  0.81133114  1.0
  C  C41  1  0.53090513  0.30808871  0.88404958  1.0
  C  C42  1  0.52708765  0.23755700  0.02419613  1.0
  C  C43  1  0.52642901  0.20126949  0.09667126  1.0
  C  C44  1  0.52354077  0.13241028  0.13169889  1.0
  C  C45  1  0.67757206  0.70674087  0.43865912  1.0
  C  C46  1  0.66589494  0.77494807  0.40587787  1.0
  C  C47  1  0.67965082  0.92007035  0.33101716  1.0
  C  C48  1  0.67894817  0.98830787  0.29679620  1.0
  C  C49  1  0.45218060  0.34866594  0.44413737  1.0
  C  C50  1  0.44541271  0.31602817  0.40847912  1.0
  C  C51  1  0.39468385  0.24877325  0.33207454  1.0
  C  C52  1  0.38343549  0.21493187  0.29777025  1.0
  C  C53  1  0.54637458  0.67219312  0.41138696  1.0
  C  C54  1  0.52566641  0.81157503  0.34388284  1.0
  C  C55  1  0.52088380  0.88435716  0.30769242  1.0
  C  C56  1  0.52080646  0.02476185  0.23702262  1.0
  C  C57  1  0.52302218  0.09729850  0.20056763  1.0
  C  C58  1  0.52719872  0.13256848  0.23421141  1.0
  C  C59  1  0.74389854  0.43577519  0.35420513  1.0
  C  C60  1  0.73491114  0.40281248  0.31895765  1.0
  C  C61  1  0.72882804  0.32898039  0.24684958  1.0
  C  C62  1  0.71588872  0.29547378  0.21220494  1.0
  C  C63  1  0.39514430  0.44294045  0.70776256  1.0
  C  C64  1  0.38849858  0.40743009  0.77613424  1.0
  C  C65  1  0.35382512  0.33105287  0.92110330  1.0
  C  C66  1  0.35334715  0.29697451  0.98930706  1.0
  C  C67  1  0.59843124  0.40997885  0.41650640  1.0
  C  C68  1  0.58349642  0.34210595  0.34506234  1.0
  C  C69  1  0.56902067  0.30664326  0.30789444  1.0
  C  C70  1  0.54381161  0.23745582  0.23695155  1.0
  C  C71  1  0.53303128  0.20140448  0.20055108  1.0
  C  C72  1  0.53080373  0.23512858  0.13171397  1.0
  C  C73  1  0.30070493  0.31519566  0.51174253  1.0
  C  C74  1  0.24040173  0.51034455  0.67518763  1.0
  C  C75  1  0.27416823  0.67532617  0.31449772  1.0
  O  O76  1  0.31849377  0.57130451  0.43992480  1.0
  O  O77  1  0.30810857  0.48786191  0.57143957  1.0
  O  O78  1  0.33986990  0.44031475  0.48800340  1.0
  O  O79  1  0.77650114  0.57050953  0.48921552  1.0
  O  O80  1  0.80890910  0.48867728  0.43878959  1.0
  O  O81  1  0.78839746  0.43929352  0.57026767  1.0
  O  O82  1  0.47074952  0.29945808  0.56377800  1.0
  O  O83  1  0.01845477  0.29952012  0.51787233  1.0
  O  O84  1  0.41428472  0.56254125  0.63908939  1.0
  O  O85  1  0.95286884  0.51622709  0.68526036  1.0
  O  O86  1  0.46411159  0.63965607  0.29770316  1.0
  O  O87  1  0.99112546  0.68533951  0.29888572  1.0
