# generated using pymatgen
data_ZnH5C13Br2N4O
_symmetry_space_group_name_H-M   'P 1'
_cell_length_a   19.96288549
_cell_length_b   22.36880301
_cell_length_c   22.45524933
_cell_angle_alpha   89.99947407
_cell_angle_beta   89.95115477
_cell_angle_gamma   92.74085292
_symmetry_Int_Tables_number   1
_chemical_formula_structural   ZnH5C13Br2N4O
_chemical_formula_sum   'Zn8 H40 C104 Br16 N32 O8'
_cell_volume   10015.82391959
_cell_formula_units_Z   8
loop_
 _symmetry_equiv_pos_site_id
 _symmetry_equiv_pos_as_xyz
  1  'x, y, z'
loop_
 _atom_site_type_symbol
 _atom_site_label
 _atom_site_symmetry_multiplicity
 _atom_site_fract_x
 _atom_site_fract_y
 _atom_site_fract_z
 _atom_site_occupancy
  Zn  Zn0  1  0.62394240  0.01077584  0.50167002  1.0
  Zn  Zn1  1  0.37602997  0.98919241  0.49832259  1.0
  Zn  Zn2  1  0.12389970  0.51070705  0.99835170  1.0
  Zn  Zn3  1  0.87616887  0.48936359  0.00169566  1.0
  Zn  Zn4  1  0.49907969  0.99537180  0.60820845  1.0
  Zn  Zn5  1  0.50087933  0.00459890  0.39178773  1.0
  Zn  Zn6  1  0.00098608  0.50436028  0.10830915  1.0
  Zn  Zn7  1  0.99908328  0.49567360  0.89176670  1.0
  H  H8  1  0.26175093  0.90596333  0.41888546  1.0
  H  H9  1  0.73825386  0.09400305  0.58114321  1.0
  H  H10  1  0.62999297  0.15420891  0.50189387  1.0
  H  H11  1  0.36997036  0.84575231  0.49811032  1.0
  H  H12  1  0.86970551  0.34597254  0.00158597  1.0
  H  H13  1  0.13019247  0.65410846  0.99848016  1.0
  H  H14  1  0.23827804  0.59397655  0.91890210  1.0
  H  H15  1  0.76171639  0.40613471  0.08110387  1.0
  H  H16  1  0.51945996  0.86896295  0.35847172  1.0
  H  H17  1  0.48050013  0.13101535  0.64152757  1.0
  H  H18  1  0.45762472  0.12204725  0.32611672  1.0
  H  H19  1  0.54237850  0.87794558  0.67392931  1.0
  H  H20  1  0.04223570  0.37813381  0.82604594  1.0
  H  H21  1  0.95779914  0.62183341  0.17410875  1.0
  H  H22  1  0.98062009  0.63133112  0.85860487  1.0
  H  H23  1  0.01941406  0.36870781  0.14148970  1.0
  H  H24  1  0.79250638  0.87113489  0.60766090  1.0
  H  H25  1  0.78559086  0.94475017  0.63837611  1.0
  H  H26  1  0.83060176  0.93507533  0.56991313  1.0
  H  H27  1  0.21440458  0.05516349  0.36154791  1.0
  H  H28  1  0.20745074  0.12878881  0.39222083  1.0
  H  H29  1  0.16933304  0.06485142  0.42996281  1.0
  H  H30  1  0.25937204  0.16864619  0.53973009  1.0
  H  H31  1  0.22166804  0.15568245  0.61154986  1.0
  H  H32  1  0.18373894  0.12225528  0.54624321  1.0
  H  H33  1  0.77829042  0.84428737  0.38843296  1.0
  H  H34  1  0.74058853  0.83135899  0.46025852  1.0
  H  H35  1  0.81623197  0.87773360  0.45372045  1.0
  H  H36  1  0.24070784  0.33115668  0.03964341  1.0
  H  H37  1  0.27830441  0.34406569  0.11146672  1.0
  H  H38  1  0.31634457  0.37752720  0.04617178  1.0
  H  H39  1  0.72169751  0.65588820  0.88842791  1.0
  H  H40  1  0.75920388  0.66877670  0.96028999  1.0
  H  H41  1  0.68359829  0.62238642  0.95368323  1.0
  H  H42  1  0.70786339  0.62900347  0.10774174  1.0
  H  H43  1  0.71458929  0.55528188  0.13826974  1.0
  H  H44  1  0.66980264  0.56518645  0.06979984  1.0
  H  H45  1  0.28545355  0.44483220  0.86154605  1.0
  H  H46  1  0.29232001  0.37114866  0.89210428  1.0
  H  H47  1  0.33038494  0.43501491  0.92994777  1.0
  C  C48  1  0.66928175  0.91727376  0.58681131  1.0
  C  C49  1  0.33067137  0.08267106  0.41315637  1.0
  C  C50  1  0.33251749  0.08799404  0.58766613  1.0
  C  C51  1  0.66744954  0.91198998  0.41231001  1.0
  C  C52  1  0.16749870  0.41175862  0.08762084  1.0
  C  C53  1  0.83250529  0.58822391  0.91236731  1.0
  C  C54  1  0.83108300  0.58280490  0.08686389  1.0
  C  C55  1  0.16908247  0.41730181  0.91309748  1.0
  C  C56  1  0.73058748  0.10240332  0.71210555  1.0
  C  C57  1  0.26931783  0.89764082  0.28791158  1.0
  C  C58  1  0.35974545  0.77412966  0.61162840  1.0
  C  C59  1  0.64022365  0.22583505  0.38837089  1.0
  C  C60  1  0.14053704  0.72547738  0.11208876  1.0
  C  C61  1  0.85931617  0.27458776  0.88799964  1.0
  C  C62  1  0.76908711  0.39765836  0.21206305  1.0
  C  C63  1  0.23092338  0.60231062  0.78794202  1.0
  C  C64  1  0.81418911  0.15879253  0.78378811  1.0
  C  C65  1  0.18560611  0.84129460  0.21628919  1.0
  C  C66  1  0.30282351  0.67860212  0.65955001  1.0
  C  C67  1  0.69713480  0.32137262  0.34046042  1.0
  C  C68  1  0.19741754  0.82112507  0.15973994  1.0
  C  C69  1  0.80234344  0.17898008  0.84032579  1.0
  C  C70  1  0.68533367  0.34144722  0.28388955  1.0
  C  C71  1  0.31466757  0.65850488  0.71610082  1.0
  C  C72  1  0.22921779  0.87573529  0.25184483  1.0
  C  C73  1  0.77062266  0.12432647  0.74821597  1.0
  C  C74  1  0.66316851  0.27338556  0.36807830  1.0
  C  C75  1  0.33677779  0.72657549  0.63189473  1.0
  C  C76  1  0.83627195  0.22705154  0.86779260  1.0
  C  C77  1  0.16352894  0.77303774  0.13227979  1.0
  C  C78  1  0.27101217  0.62419575  0.75179893  1.0
  C  C79  1  0.72899691  0.37575398  0.24819590  1.0
  C  C80  1  0.30667946  0.91833122  0.39352607  1.0
  C  C81  1  0.69330681  0.08164890  0.60647945  1.0
  C  C82  1  0.61591909  0.13742536  0.45807876  1.0
  C  C83  1  0.38405896  0.86253831  0.54192097  1.0
  C  C84  1  0.88382229  0.36282474  0.95778737  1.0
  C  C85  1  0.11613640  0.63722347  0.04228719  1.0
  C  C86  1  0.19337818  0.58164726  0.89355217  1.0
  C  C87  1  0.80661718  0.41842232  0.10646359  1.0
  C  C88  1  0.40537665  0.87780594  0.63745844  1.0
  C  C89  1  0.59458898  0.12215928  0.36254575  1.0
  C  C90  1  0.61656538  0.06210549  0.67535059  1.0
  C  C91  1  0.38335505  0.93795320  0.32461309  1.0
  C  C92  1  0.88320146  0.43789750  0.17537633  1.0
  C  C93  1  0.11680046  0.56211149  0.82464254  1.0
  C  C94  1  0.09486203  0.62179403  0.13784445  1.0
  C  C95  1  0.90523158  0.37822243  0.86225143  1.0
  C  C96  1  0.56435337  0.88825808  0.37964519  1.0
  C  C97  1  0.43560938  0.11172242  0.62034965  1.0
  C  C98  1  0.42141255  0.10591530  0.35920811  1.0
  C  C99  1  0.57857005  0.89406264  0.64081210  1.0
  C  C100  1  0.07841442  0.39421748  0.85913018  1.0
  C  C101  1  0.92166558  0.60579786  0.14096170  1.0
  C  C102  1  0.93567272  0.61201999  0.87974936  1.0
  C  C103  1  0.06434728  0.38801021  0.12031448  1.0
  C  C104  1  0.64816101  0.88527170  0.63898953  1.0
  C  C105  1  0.35181701  0.11468481  0.36099016  1.0
  C  C106  1  0.37006793  0.13268690  0.62084905  1.0
  C  C107  1  0.62989543  0.86729494  0.37912842  1.0
  C  C108  1  0.12990004  0.36707683  0.12084824  1.0
  C  C109  1  0.87010496  0.63292629  0.87916796  1.0
  C  C110  1  0.85210079  0.61470203  0.13910272  1.0
  C  C111  1  0.14798673  0.38534008  0.86091434  1.0
  C  C112  1  0.31546997  0.91758728  0.33106656  1.0
  C  C113  1  0.68446191  0.08245016  0.66893141  1.0
  C  C114  1  0.61716791  0.16769151  0.40302697  1.0
  C  C115  1  0.38281073  0.83227349  0.59697231  1.0
  C  C116  1  0.88252558  0.33267268  0.90268007  1.0
  C  C117  1  0.11744142  0.66737271  0.09739760  1.0
  C  C118  1  0.18469914  0.58238743  0.83109785  1.0
  C  C119  1  0.81530625  0.41761433  0.16891390  1.0
  C  C120  1  0.65456835  0.81930033  0.34746185  1.0
  C  C121  1  0.34539494  0.18068733  0.65250984  1.0
  C  C122  1  0.31455961  0.14758603  0.32113715  1.0
  C  C123  1  0.68544177  0.85237458  0.67882294  1.0
  C  C124  1  0.18527101  0.35238306  0.82108084  1.0
  C  C125  1  0.81476770  0.64762219  0.17893713  1.0
  C  C126  1  0.84546270  0.68088880  0.84746269  1.0
  C  C127  1  0.15454080  0.31910761  0.15253926  1.0
  C  C128  1  0.68112410  0.78072988  0.31758476  1.0
  C  C129  1  0.31884663  0.21925005  0.68239939  1.0
  C  C130  1  0.28211763  0.17672083  0.28573372  1.0
  C  C131  1  0.71789399  0.82324948  0.71422681  1.0
  C  C132  1  0.21773683  0.32321689  0.78567142  1.0
  C  C133  1  0.78228302  0.67677030  0.21434701  1.0
  C  C134  1  0.81892148  0.71942938  0.81757512  1.0
  C  C135  1  0.18109113  0.28056824  0.18241925  1.0
  C  C136  1  0.71360283  0.74233638  0.28358975  1.0
  C  C137  1  0.28638155  0.25763840  0.71641043  1.0
  C  C138  1  0.24625099  0.20986687  0.24905764  1.0
  C  C139  1  0.75377639  0.79012020  0.75090868  1.0
  C  C140  1  0.25366021  0.29003421  0.74902029  1.0
  C  C141  1  0.74634608  0.70993886  0.25099724  1.0
  C  C142  1  0.78649815  0.75778270  0.78353434  1.0
  C  C143  1  0.21351788  0.24220680  0.21644667  1.0
  C  C144  1  0.78798300  0.91865674  0.59701585  1.0
  C  C145  1  0.21197754  0.08127272  0.40289304  1.0
  C  C146  1  0.23118231  0.13598478  0.56779359  1.0
  C  C147  1  0.76878502  0.86400326  0.43218076  1.0
  C  C148  1  0.26886676  0.36379342  0.06772537  1.0
  C  C149  1  0.73109434  0.63614366  0.93217105  1.0
  C  C150  1  0.71234807  0.58150100  0.09698557  1.0
  C  C151  1  0.28779407  0.41864866  0.90284845  1.0
  Br  Br152  1  0.41474955  0.87121255  0.72010175  1.0
  Br  Br153  1  0.58522794  0.12877085  0.27990288  1.0
  Br  Br154  1  0.56644503  0.04946318  0.74504986  1.0
  Br  Br155  1  0.43339496  0.95067297  0.25487824  1.0
  Br  Br156  1  0.93313996  0.45046691  0.24511314  1.0
  Br  Br157  1  0.06686765  0.54951063  0.75490439  1.0
  Br  Br158  1  0.08549928  0.62830441  0.22051261  1.0
  Br  Br159  1  0.91464965  0.37166054  0.77959928  1.0
  Br  Br160  1  0.72545525  0.14482636  0.88151019  1.0
  Br  Br161  1  0.27420706  0.85531937  0.11847542  1.0
  Br  Br162  1  0.39548813  0.68744643  0.75486577  1.0
  Br  Br163  1  0.60451014  0.31251289  0.24510679  1.0
  Br  Br164  1  0.10477416  0.81242219  0.25521789  1.0
  Br  Br165  1  0.89505485  0.18765453  0.74488655  1.0
  Br  Br166  1  0.77403921  0.35553778  0.38147774  1.0
  Br  Br167  1  0.22588678  0.64444733  0.61859594  1.0
  N  N168  1  0.61655306  0.94119945  0.56063884  1.0
  N  N169  1  0.38339247  0.05875802  0.43935289  1.0
  N  N170  1  0.37247960  0.04491160  0.57048204  1.0
  N  N171  1  0.62748869  0.95506926  0.42950390  1.0
  N  N172  1  0.12754325  0.45479805  0.07038891  1.0
  N  N173  1  0.87246848  0.54520137  0.92962684  1.0
  N  N174  1  0.88384090  0.55883952  0.06069579  1.0
  N  N175  1  0.11635009  0.44127395  0.93930298  1.0
  N  N176  1  0.36392116  0.93688277  0.42066994  1.0
  N  N177  1  0.63609187  0.06307273  0.57930884  1.0
  N  N178  1  0.59523528  0.07972442  0.45005332  1.0
  N  N179  1  0.40472467  0.92024537  0.54995310  1.0
  N  N180  1  0.90463208  0.42050433  0.94984233  1.0
  N  N181  1  0.09543097  0.57951890  0.05025000  1.0
  N  N182  1  0.13606454  0.56316683  0.92071189  1.0
  N  N183  1  0.86391917  0.43694863  0.07931635  1.0
  N  N184  1  0.41809708  0.92971198  0.60951727  1.0
  N  N185  1  0.58185370  0.07025571  0.39049138  1.0
  N  N186  1  0.58808517  0.05093798  0.62228976  1.0
  N  N187  1  0.41188713  0.94906297  0.37766366  1.0
  N  N188  1  0.91182861  0.44902151  0.12232650  1.0
  N  N189  1  0.08816254  0.55105216  0.87770084  1.0
  N  N190  1  0.08208252  0.56993829  0.10982591  1.0
  N  N191  1  0.91806034  0.43006663  0.89028109  1.0
  N  N192  1  0.56357290  0.94046993  0.40936503  1.0
  N  N193  1  0.43639055  0.05950652  0.59063471  1.0
  N  N194  1  0.43949835  0.07257164  0.40595701  1.0
  N  N195  1  0.56046703  0.92740388  0.59406722  1.0
  N  N196  1  0.06029258  0.42755726  0.90590065  1.0
  N  N197  1  0.93984838  0.57250324  0.09418231  1.0
  N  N198  1  0.93642422  0.55983066  0.90951318  1.0
  N  N199  1  0.06359958  0.44019679  0.09054576  1.0
  O  O200  1  0.72959251  0.92727542  0.56083870  1.0
  O  O201  1  0.27034395  0.07266070  0.43910449  1.0
  O  O202  1  0.26724150  0.08190970  0.57359709  1.0
  O  O203  1  0.73273097  0.91808005  0.42635366  1.0
  O  O204  1  0.23280707  0.41786442  0.07358374  1.0
  O  O205  1  0.76718210  0.58208653  0.92634028  1.0
  O  O206  1  0.77083642  0.57291395  0.06082725  1.0
  O  O207  1  0.22935952  0.42721155  0.93907577  1.0
