# generated using pymatgen
data_ZnH6(C5N3)2
_symmetry_space_group_name_H-M   'P 1'
_cell_length_a   7.25186109
_cell_length_b   15.21441733
_cell_length_c   18.70995220
_cell_angle_alpha   89.99965981
_cell_angle_beta   89.99961375
_cell_angle_gamma   86.77609401
_symmetry_Int_Tables_number   1
_chemical_formula_structural   ZnH6(C5N3)2
_chemical_formula_sum   'Zn4 H24 C40 N24'
_cell_volume   2061.05515757
_cell_formula_units_Z   4
loop_
 _symmetry_equiv_pos_site_id
 _symmetry_equiv_pos_as_xyz
  1  'x, y, z'
loop_
 _atom_site_type_symbol
 _atom_site_label
 _atom_site_symmetry_multiplicity
 _atom_site_fract_x
 _atom_site_fract_y
 _atom_site_fract_z
 _atom_site_occupancy
  Zn  Zn0  1  0.64062437  0.97720657  0.07920152  1.0
  Zn  Zn1  1  0.64061982  0.47720743  0.42080168  1.0
  Zn  Zn2  1  0.35938050  0.52279416  0.57919839  1.0
  Zn  Zn3  1  0.35937871  0.02279502  0.92079854  1.0
  H  H4  1  0.66211640  0.61336424  0.66761008  1.0
  H  H5  1  0.05409119  0.98500843  0.82715287  1.0
  H  H6  1  0.66211386  0.11337295  0.83239578  1.0
  H  H7  1  0.03137303  0.12980847  0.26136517  1.0
  H  H8  1  0.03136489  0.62979796  0.23863061  1.0
  H  H9  1  0.94590500  0.01499315  0.17284880  1.0
  H  H10  1  0.33788148  0.38663471  0.33239052  1.0
  H  H11  1  0.98117338  0.58582844  0.47259587  1.0
  H  H12  1  0.01883262  0.41417182  0.52740687  1.0
  H  H13  1  0.96863314  0.37019967  0.76136679  1.0
  H  H14  1  0.94589017  0.51499126  0.32715210  1.0
  H  H15  1  0.40962720  0.62354389  0.34267689  1.0
  H  H16  1  0.59037604  0.87646688  0.84266770  1.0
  H  H17  1  0.40962053  0.12353141  0.15733450  1.0
  H  H18  1  0.01883712  0.91417156  0.97259279  1.0
  H  H19  1  0.52895133  0.26018341  0.74749052  1.0
  H  H20  1  0.05410495  0.48500769  0.67284422  1.0
  H  H21  1  0.33788945  0.88662666  0.16760428  1.0
  H  H22  1  0.96862469  0.87019180  0.73863650  1.0
  H  H23  1  0.52895337  0.76018992  0.75250054  1.0
  H  H24  1  0.59037060  0.37645573  0.65732050  1.0
  H  H25  1  0.47104442  0.23980969  0.24750006  1.0
  H  H26  1  0.47105060  0.73981620  0.25250741  1.0
  H  H27  1  0.98117026  0.08582871  0.02740674  1.0
  C  C28  1  0.41976933  0.30833447  0.73165352  1.0
  C  C29  1  0.75857830  0.19481724  0.26098192  1.0
  C  C30  1  0.11891938  0.41675036  0.48449748  1.0
  C  C31  1  0.19321903  0.23790902  0.81164564  1.0
  C  C32  1  0.84554561  0.56680392  0.30982229  1.0
  C  C33  1  0.19322467  0.73790610  0.68835282  1.0
  C  C34  1  0.96185702  0.84054971  0.12065691  1.0
  C  C35  1  0.15443772  0.93319326  0.80982144  1.0
  C  C36  1  0.71976337  0.09636948  0.88438573  1.0
  C  C37  1  0.11892538  0.91674664  0.01549721  1.0
  C  C38  1  0.11133417  0.88289932  0.08504906  1.0
  C  C39  1  0.80678007  0.76209125  0.18835122  1.0
  C  C40  1  0.58022985  0.69166514  0.26834281  1.0
  C  C41  1  0.24141919  0.80518500  0.73901921  1.0
  C  C42  1  0.54542931  0.12699183  0.18202438  1.0
  C  C43  1  0.80677742  0.26209220  0.31164778  1.0
  C  C44  1  0.88866922  0.11709963  0.91494994  1.0
  C  C45  1  0.28022804  0.40364046  0.38438107  1.0
  C  C46  1  0.84555992  0.06680767  0.19018023  1.0
  C  C47  1  0.88108039  0.08325561  0.98450072  1.0
  C  C48  1  0.10744945  0.37010997  0.73915460  1.0
  C  C49  1  0.28024255  0.90363144  0.11561434  1.0
  C  C50  1  0.58022363  0.19166137  0.23165873  1.0
  C  C51  1  0.75857490  0.69481331  0.23902020  1.0
  C  C52  1  0.03814752  0.15945122  0.87934209  1.0
  C  C53  1  0.03814479  0.65944744  0.62065876  1.0
  C  C54  1  0.10744813  0.87010853  0.76084451  1.0
  C  C55  1  0.15444805  0.43319569  0.69017510  1.0
  C  C56  1  0.11133355  0.38290286  0.41494742  1.0
  C  C57  1  0.24142312  0.30518432  0.76097826  1.0
  C  C58  1  0.45456566  0.87300844  0.81797675  1.0
  C  C59  1  0.88866716  0.61709544  0.58505424  1.0
  C  C60  1  0.41977157  0.80833693  0.76834348  1.0
  C  C61  1  0.96185577  0.34055217  0.37934398  1.0
  C  C62  1  0.71977382  0.59635981  0.61562060  1.0
  C  C63  1  0.54543010  0.62699921  0.31798076  1.0
  C  C64  1  0.89254959  0.12989174  0.23915662  1.0
  C  C65  1  0.88108117  0.58324926  0.51550365  1.0
  C  C66  1  0.45457030  0.37300172  0.68201717  1.0
  C  C67  1  0.89255126  0.62988832  0.26084333  1.0
  N  N68  1  0.37819256  0.94834829  0.06812494  1.0
  N  N69  1  0.31915336  0.18027734  0.84069646  1.0
  N  N70  1  0.21969344  0.63000398  0.61538921  1.0
  N  N71  1  0.21969364  0.13000509  0.88460864  1.0
  N  N72  1  0.01661380  0.72736560  0.66600668  1.0
  N  N73  1  0.68084704  0.81972359  0.15930254  1.0
  N  N74  1  0.27868694  0.95650064  0.00604739  1.0
  N  N75  1  0.72131853  0.54349400  0.50605177  1.0
  N  N76  1  0.78030661  0.86999715  0.11539090  1.0
  N  N77  1  0.32471419  0.93485962  0.83898217  1.0
  N  N78  1  0.68084681  0.31972302  0.34070239  1.0
  N  N79  1  0.67528038  0.56514328  0.33898668  1.0
  N  N80  1  0.62181479  0.55164460  0.56813060  1.0
  N  N81  1  0.78030841  0.36999628  0.38461300  1.0
  N  N82  1  0.62181067  0.05165197  0.93187673  1.0
  N  N83  1  0.98338457  0.77263059  0.16600136  1.0
  N  N84  1  0.31915351  0.68027856  0.65929821  1.0
  N  N85  1  0.67528376  0.06513867  0.16101843  1.0
  N  N86  1  0.37818415  0.44835698  0.43187000  1.0
  N  N87  1  0.32471604  0.43485634  0.66101125  1.0
  N  N88  1  0.72131767  0.04349963  0.99395374  1.0
  N  N89  1  0.27868187  0.45650693  0.49394830  1.0
  N  N90  1  0.01661729  0.22736968  0.83399656  1.0
  N  N91  1  0.98338545  0.27263336  0.33399713  1.0
