# generated using pymatgen
data_AlH3C6SNO5F
_symmetry_space_group_name_H-M   'P 1'
_cell_length_a   6.75473547
_cell_length_b   8.81295754
_cell_length_c   12.75497392
_cell_angle_alpha   98.02540484
_cell_angle_beta   104.50750799
_cell_angle_gamma   104.76520941
_symmetry_Int_Tables_number   1
_chemical_formula_structural   AlH3C6SNO5F
_chemical_formula_sum   'Al2 H6 C12 S2 N2 O10 F2'
_cell_volume   693.81926133
_cell_formula_units_Z   2
loop_
 _symmetry_equiv_pos_site_id
 _symmetry_equiv_pos_as_xyz
  1  'x, y, z'
loop_
 _atom_site_type_symbol
 _atom_site_label
 _atom_site_symmetry_multiplicity
 _atom_site_fract_x
 _atom_site_fract_y
 _atom_site_fract_z
 _atom_site_occupancy
  Al  Al0  1  0.99999999  0.49996465  0.49999842  1.0
  Al  Al1  1  0.49998230  0.49996068  0.49996507  1.0
  H  H2  1  0.85394806  0.61717610  0.63470982  1.0
  H  H3  1  0.14604677  0.38283294  0.36529098  1.0
  H  H4  1  0.72588832  0.85585559  0.47996146  1.0
  H  H5  1  0.86686584  0.03389789  0.45218637  1.0
  H  H6  1  0.27408794  0.14410440  0.52000356  1.0
  H  H7  1  0.13306659  0.96605790  0.54777436  1.0
  C  C8  1  0.33941422  0.49881553  0.69533325  1.0
  C  C9  1  0.35235110  0.78769632  0.51349230  1.0
  C  C10  1  0.66054043  0.50113807  0.30466813  1.0
  C  C11  1  0.64763487  0.21227345  0.48649073  1.0
  C  C12  1  0.59741300  0.04153058  0.49319006  1.0
  C  C13  1  0.40256527  0.95841990  0.50683795  1.0
  C  C14  1  0.70923494  0.47938453  0.10948758  1.0
  C  C15  1  0.29085276  0.52071098  0.89053841  1.0
  C  C16  1  0.60053489  0.50245106  0.18617801  1.0
  C  C17  1  0.39949853  0.49759893  0.81383590  1.0
  C  C18  1  0.40185209  0.51446913  0.99863879  1.0
  C  C19  1  0.59826136  0.48562997  0.00137162  1.0
  S  S20  1  0.35628577  0.53244309  0.12601729  1.0
  S  S21  1  0.64378158  0.46768152  0.87402164  1.0
  N  N22  1  0.76180710  0.97704652  0.48917047  1.0
  N  N23  1  0.23822987  0.02293364  0.51085845  1.0
  O  O24  1  0.14949537  0.49930135  0.64930740  1.0
  O  O25  1  0.49787624  0.71767748  0.51453078  1.0
  O  O26  1  0.51332985  0.50088770  0.35115590  1.0
  O  O27  1  0.83524181  0.27984848  0.48044858  1.0
  O  O28  1  0.85043304  0.50057218  0.35068787  1.0
  O  O29  1  0.50206594  0.28227706  0.48541359  1.0
  O  O30  1  0.48658773  0.49907426  0.64881452  1.0
  O  O31  1  0.16473792  0.72012171  0.51953736  1.0
  O  O32  1  0.80044161  0.57385052  0.55525960  1.0
  O  O33  1  0.19958412  0.42615585  0.44473117  1.0
  F  F34  1  0.89972966  0.45010507  0.13325074  1.0
  F  F35  1  0.10035128  0.54997536  0.86683252  1.0
