# generated using pymatgen
data_ZnH26C33N2(O4F3)2
_symmetry_space_group_name_H-M   'P 1'
_cell_length_a   17.23186529
_cell_length_b   18.33980507
_cell_length_c   19.12106878
_cell_angle_alpha   90.04622663
_cell_angle_beta   91.11679780
_cell_angle_gamma   96.59096094
_symmetry_Int_Tables_number   1
_chemical_formula_structural   ZnH26C33N2(O4F3)2
_chemical_formula_sum   'Zn2 H52 C66 N4 O16 F12'
_cell_volume   6001.70707970
_cell_formula_units_Z   2
loop_
 _symmetry_equiv_pos_site_id
 _symmetry_equiv_pos_as_xyz
  1  'x, y, z'
loop_
 _atom_site_type_symbol
 _atom_site_label
 _atom_site_symmetry_multiplicity
 _atom_site_fract_x
 _atom_site_fract_y
 _atom_site_fract_z
 _atom_site_occupancy
  Zn  Zn0  1  0.48971286  0.41883681  0.49747214  1.0
  Zn  Zn1  1  0.49661075  0.57342979  0.49790246  1.0
  H  H2  1  0.73218849  0.40080581  0.46996246  1.0
  H  H3  1  0.66813552  0.58904444  0.18840631  1.0
  H  H4  1  0.60554654  0.39935473  0.93436264  1.0
  H  H5  1  0.60014725  0.62944278  0.06819988  1.0
  H  H6  1  0.68074981  0.42070053  0.15237755  1.0
  H  H7  1  0.73017537  0.38084730  0.08322201  1.0
  H  H8  1  0.65877203  0.25660508  0.11274925  1.0
  H  H9  1  0.71512783  0.29584636  0.18541381  1.0
  H  H10  1  0.61186355  0.29768327  0.18254140  1.0
  H  H11  1  0.67737795  0.62407311  0.85093944  1.0
  H  H12  1  0.72999322  0.67860114  0.91754323  1.0
  H  H13  1  0.25887990  0.59235391  0.55624893  1.0
  H  H14  1  0.65198472  0.78336296  0.88619415  1.0
  H  H15  1  0.70427050  0.75526471  0.81317639  1.0
  H  H16  1  0.60188033  0.72792481  0.81907649  1.0
  H  H17  1  0.60382551  0.25304307  0.67394825  1.0
  H  H18  1  0.67860394  0.25557999  0.61033551  1.0
  H  H19  1  0.71773329  0.13607355  0.65739984  1.0
  H  H20  1  0.72434494  0.20494200  0.72362410  1.0
  H  H21  1  0.64386263  0.13478518  0.72160920  1.0
  H  H22  1  0.33158577  0.87504112  0.49766803  1.0
  H  H23  1  0.28171598  0.78700660  0.47483137  1.0
  H  H24  1  0.57314651  0.31734108  0.57931423  1.0
  H  H25  1  0.24795312  0.83732220  0.35590402  1.0
  H  H26  1  0.20922234  0.88593786  0.42524937  1.0
  H  H27  1  0.29447271  0.92542758  0.38190528  1.0
  H  H28  1  0.49744312  0.65959152  0.69148143  1.0
  H  H29  1  0.44593425  0.67204737  0.77054717  1.0
  H  H30  1  0.31801727  0.64942923  0.70169963  1.0
  H  H31  1  0.37917230  0.72505670  0.66701046  1.0
  H  H32  1  0.37157483  0.63777683  0.62419083  1.0
  H  H33  1  0.45854309  0.32390973  0.29662312  1.0
  H  H34  1  0.45153552  0.32490432  0.20274829  1.0
  H  H35  1  0.40325976  0.67923541  0.42854286  1.0
  H  H36  1  0.34420055  0.23736634  0.25555034  1.0
  H  H37  1  0.31068047  0.31224640  0.30075163  1.0
  H  H38  1  0.30608633  0.30896134  0.20743555  1.0
  H  H39  1  0.41881315  0.49356220  0.92088169  1.0
  H  H40  1  0.36765658  0.52197311  0.84495437  1.0
  H  H41  1  0.34629755  0.63921151  0.90633132  1.0
  H  H42  1  0.30690921  0.56170765  0.95554164  1.0
  H  H43  1  0.39801456  0.61147448  0.98152724  1.0
  H  H44  1  0.40890056  0.50240624  0.06829047  1.0
  H  H45  1  0.35896452  0.45931398  0.14137628  1.0
  H  H46  1  0.49598555  0.06516106  0.39538283  1.0
  H  H47  1  0.33412186  0.34134377  0.07337736  1.0
  H  H48  1  0.29437465  0.41376559  0.02796857  1.0
  H  H49  1  0.38390847  0.38373470  0.00061785  1.0
  H  H50  1  0.48491200  0.92684741  0.61881415  1.0
  H  H51  1  0.49200805  0.93013088  0.39349512  1.0
  H  H52  1  0.48740471  0.06175916  0.62066397  1.0
  H  H53  1  0.67535951  0.44633135  0.82454557  1.0
  C  C54  1  0.49743276  0.49961857  0.36337252  1.0
  C  C55  1  0.58726592  0.55154293  0.26818722  1.0
  C  C56  1  0.53700550  0.49520559  0.70872706  1.0
  C  C57  1  0.52181303  0.50474990  0.28839375  1.0
  C  C58  1  0.60705170  0.45072577  0.96340003  1.0
  C  C59  1  0.60373728  0.57864332  0.03932051  1.0
  C  C60  1  0.60725709  0.44756575  0.03616673  1.0
  C  C61  1  0.60815182  0.58243220  0.96648831  1.0
  C  C62  1  0.59835571  0.51155140  0.07488358  1.0
  C  C63  1  0.60235292  0.51668457  0.92716334  1.0
  C  C64  1  0.53689674  0.27742819  0.54717553  1.0
  C  C65  1  0.51463070  0.49013525  0.63255631  1.0
  C  C66  1  0.44228755  0.71661853  0.46111186  1.0
  C  C67  1  0.53958145  0.20180716  0.55248083  1.0
  C  C68  1  0.43651386  0.79164453  0.46150410  1.0
  C  C69  1  0.34305704  0.48904196  0.51097051  1.0
  C  C70  1  0.64453771  0.50831187  0.49423824  1.0
  C  C71  1  0.49050900  0.15331297  0.50785985  1.0
  C  C72  1  0.48829195  0.83889076  0.50457023  1.0
  C  C73  1  0.44073670  0.18593106  0.46225632  1.0
  C  C74  1  0.54255346  0.80539684  0.54474040  1.0
  C  C75  1  0.44077210  0.26188805  0.46086095  1.0
  C  C76  1  0.51840113  0.54498414  0.82500636  1.0
  C  C77  1  0.54494131  0.72976790  0.54087310  1.0
  C  C78  1  0.49253434  0.03488103  0.44442162  1.0
  C  C79  1  0.48708266  0.95715780  0.56975570  1.0
  C  C80  1  0.49062649  0.95895024  0.44320101  1.0
  C  C81  1  0.48846905  0.03309366  0.57088180  1.0
  C  C82  1  0.48787458  0.91926524  0.50600439  1.0
  C  C83  1  0.49101119  0.07291510  0.50812727  1.0
  C  C84  1  0.25614000  0.48104103  0.52002324  1.0
  C  C85  1  0.73210643  0.51435109  0.49805860  1.0
  C  C86  1  0.22137840  0.54226782  0.54281016  1.0
  C  C87  1  0.50747782  0.46241435  0.16717566  1.0
  C  C88  1  0.76839804  0.45119861  0.48488205  1.0
  C  C89  1  0.14134858  0.53982206  0.54715754  1.0
  C  C90  1  0.84835244  0.45233863  0.49146005  1.0
  C  C91  1  0.09077589  0.47598452  0.52925861  1.0
  C  C92  1  0.89717898  0.51669274  0.51157403  1.0
  C  C93  1  0.12673056  0.41383540  0.51055244  1.0
  C  C94  1  0.85977206  0.58007628  0.52238928  1.0
  C  C95  1  0.20760944  0.41604729  0.50519989  1.0
  C  C96  1  0.77894297  0.57929173  0.51613237  1.0
  C  C97  1  0.49642788  0.53705509  0.75395298  1.0
  C  C98  1  0.58368945  0.51299217  0.85134867  1.0
  C  C99  1  0.48229476  0.45941067  0.23683645  1.0
  C  C100  1  0.67627018  0.37538318  0.11411527  1.0
  C  C101  1  0.66462133  0.30190987  0.15079724  1.0
  C  C102  1  0.67399319  0.66958100  0.88791410  1.0
  C  C103  1  0.65687766  0.73817411  0.84937991  1.0
  C  C104  1  0.63913792  0.21891992  0.64292704  1.0
  C  C105  1  0.68375809  0.17053051  0.68898566  1.0
  C  C106  1  0.31308675  0.83777112  0.45362659  1.0
  C  C107  1  0.26349132  0.87377852  0.40081861  1.0
  C  C108  1  0.44213959  0.64518150  0.71883000  1.0
  C  C109  1  0.57546321  0.50816844  0.14905811  1.0
  C  C110  1  0.37345160  0.66536193  0.67529182  1.0
  C  C111  1  0.42230773  0.33723257  0.25132228  1.0
  C  C112  1  0.34085229  0.29682680  0.25388557  1.0
  C  C113  1  0.40334122  0.54158525  0.89115221  1.0
  C  C114  1  0.36124389  0.59156228  0.93635232  1.0
  C  C115  1  0.39331282  0.44950918  0.09498206  1.0
  C  C116  1  0.34891502  0.39373728  0.04630143  1.0
  C  C117  1  0.62448354  0.47144078  0.80592921  1.0
  C  C118  1  0.61533586  0.55313253  0.20065486  1.0
  C  C119  1  0.59976444  0.46241055  0.73677302  1.0
  N  N120  1  0.00903685  0.46708350  0.52939635  1.0
  N  N121  1  0.97871086  0.52558960  0.51575499  1.0
  N  N122  1  0.48785037  0.30583675  0.50139389  1.0
  N  N123  1  0.49633786  0.68670847  0.50040725  1.0
  O  O124  1  0.49922817  0.43734541  0.39211959  1.0
  O  O125  1  0.61204319  0.65095866  0.93679691  1.0
  O  O126  1  0.58768628  0.17080778  0.59755903  1.0
  O  O127  1  0.38221695  0.81856413  0.41834577  1.0
  O  O128  1  0.43150672  0.56608395  0.72838003  1.0
  O  O129  1  0.41557890  0.41552121  0.25427798  1.0
  O  O130  1  0.47480181  0.58345145  0.86834323  1.0
  O  O131  1  0.46471274  0.42060732  0.11681499  1.0
  O  O132  1  0.51699093  0.55127007  0.60095655  1.0
  O  O133  1  0.47956778  0.55773801  0.39220716  1.0
  O  O134  1  0.49658370  0.42683169  0.60635693  1.0
  O  O135  1  0.37446684  0.43087525  0.50073832  1.0
  O  O136  1  0.61326551  0.56641267  0.48270705  1.0
  O  O137  1  0.37751862  0.55423955  0.51400064  1.0
  O  O138  1  0.60987495  0.44395923  0.50318356  1.0
  O  O139  1  0.61018453  0.38010384  0.06732668  1.0
  F  F140  1  0.38986635  0.14497873  0.41915748  1.0
  F  F141  1  0.74889419  0.64227161  0.53029121  1.0
  F  F142  1  0.64088108  0.42156178  0.69384101  1.0
  F  F143  1  0.62783165  0.59532658  0.31735850  1.0
  F  F144  1  0.59575145  0.84533951  0.58644972  1.0
  F  F145  1  0.39163184  0.29196281  0.41732541  1.0
  F  F146  1  0.59815952  0.69919649  0.57924977  1.0
  F  F147  1  0.88031571  0.39051809  0.47526223  1.0
  F  F148  1  0.11123762  0.59987462  0.57137449  1.0
  F  F149  1  0.08195848  0.35094857  0.49357010  1.0
  F  F150  1  0.90289508  0.64315688  0.54152212  1.0
  F  F151  1  0.23501752  0.35407155  0.48341357  1.0
