# generated using pymatgen
data_CdH16C23O8
_symmetry_space_group_name_H-M   'P 1'
_cell_length_a   4.67180418
_cell_length_b   19.18443095
_cell_length_c   24.68869459
_cell_angle_alpha   89.99998298
_cell_angle_beta   90.00000449
_cell_angle_gamma   89.99996580
_symmetry_Int_Tables_number   1
_chemical_formula_structural   CdH16C23O8
_chemical_formula_sum   'Cd4 H64 C92 O32'
_cell_volume   2212.74658857
_cell_formula_units_Z   4
loop_
 _symmetry_equiv_pos_site_id
 _symmetry_equiv_pos_as_xyz
  1  'x, y, z'
loop_
 _atom_site_type_symbol
 _atom_site_label
 _atom_site_symmetry_multiplicity
 _atom_site_fract_x
 _atom_site_fract_y
 _atom_site_fract_z
 _atom_site_occupancy
  Cd  Cd0  1  0.24676505  0.44716456  0.54537913  1.0
  Cd  Cd1  1  0.74676445  0.55283513  0.45462098  1.0
  Cd  Cd2  1  0.24676452  0.94716472  0.95462104  1.0
  Cd  Cd3  1  0.74676284  0.05283497  0.04537947  1.0
  H  H4  1  0.55955653  0.37632060  0.71511108  1.0
  H  H5  1  0.05955873  0.62367963  0.28488862  1.0
  H  H6  1  0.55955380  0.87632187  0.78488911  1.0
  H  H7  1  0.05955718  0.12367993  0.21511099  1.0
  H  H8  1  0.03799992  0.46093975  0.84819263  1.0
  H  H9  1  0.53800138  0.53906049  0.15180748  1.0
  H  H10  1  0.03800356  0.96093950  0.65180794  1.0
  H  H11  1  0.53800203  0.03906021  0.34819257  1.0
  H  H12  1  0.13243225  0.54889235  0.68739918  1.0
  H  H13  1  0.63243185  0.45110736  0.31260052  1.0
  H  H14  1  0.13243503  0.04889313  0.81260067  1.0
  H  H15  1  0.63243121  0.95110710  0.18739943  1.0
  H  H16  1  0.63668532  0.28375490  0.76731758  1.0
  H  H17  1  0.13668727  0.71624585  0.23268253  1.0
  H  H18  1  0.63668470  0.78375462  0.73268264  1.0
  H  H19  1  0.13668574  0.21624508  0.26731707  1.0
  H  H20  1  0.31892152  0.33129972  0.78347233  1.0
  H  H21  1  0.81892268  0.66870047  0.21652778  1.0
  H  H22  1  0.31892089  0.83129945  0.71652827  1.0
  H  H23  1  0.81892330  0.16870022  0.28347184  1.0
  H  H24  1  0.76471094  0.18276153  0.81874639  1.0
  H  H25  1  0.26471048  0.81723816  0.18125412  1.0
  H  H26  1  0.76471030  0.68276179  0.68125385  1.0
  H  H27  1  0.26471112  0.31723841  0.31874586  1.0
  H  H28  1  0.65212286  0.09909420  0.89322827  1.0
  H  H29  1  0.15212431  0.90090602  0.10677184  1.0
  H  H30  1  0.65212219  0.59909397  0.60677199  1.0
  H  H31  1  0.15212498  0.40090625  0.39322731  1.0
  H  H32  1  0.01595734  0.24021179  0.95454700  1.0
  H  H33  1  0.51595821  0.75978845  0.04545270  1.0
  H  H34  1  0.01595879  0.74021158  0.54545322  1.0
  H  H35  1  0.51596318  0.25978866  0.45454689  1.0
  H  H36  1  0.13467153  0.32540692  0.88149128  1.0
  H  H37  1  0.63467264  0.67459278  0.11850883  1.0
  H  H38  1  0.13467086  0.82540668  0.61850891  1.0
  H  H39  1  0.63467330  0.17459302  0.38149079  1.0
  H  H40  1  0.45917333  0.51882833  0.85626757  1.0
  H  H41  1  0.95917278  0.48117185  0.14373254  1.0
  H  H42  1  0.45917389  0.01882813  0.64373229  1.0
  H  H43  1  0.95917222  0.98117152  0.35626741  1.0
  H  H44  1  0.15136285  0.57297277  0.86608096  1.0
  H  H45  1  0.65136243  0.42702745  0.13391874  1.0
  H  H46  1  0.15136341  0.07297258  0.63391889  1.0
  H  H47  1  0.65136187  0.92702712  0.36608122  1.0
  H  H48  1  0.70930566  0.63172247  0.77123796  1.0
  H  H49  1  0.20930418  0.36827826  0.22876175  1.0
  H  H50  1  0.70930626  0.13172172  0.72876189  1.0
  H  H51  1  0.20930572  0.86827745  0.27123822  1.0
  H  H52  1  0.02713868  0.73390851  0.78918259  1.0
  H  H53  1  0.52713654  0.26609173  0.21081752  1.0
  H  H54  1  0.02713713  0.23390829  0.71081803  1.0
  H  H55  1  0.52713809  0.76609143  0.28918248  1.0
  H  H56  1  0.71903842  0.74370230  0.95303816  1.0
  H  H57  1  0.21903713  0.25629687  0.04696195  1.0
  H  H58  1  0.71903680  0.24370319  0.54696207  1.0
  H  H59  1  0.21903875  0.75629702  0.45303804  1.0
  H  H60  1  0.40848400  0.64002607  0.93590077  1.0
  H  H61  1  0.90848586  0.35997359  0.06409894  1.0
  H  H62  1  0.40848453  0.14002643  0.56409907  1.0
  H  H63  1  0.90848532  0.85997323  0.43590104  1.0
  H  H64  1  0.35238546  0.87075016  0.85423583  1.0
  H  H65  1  0.85238363  0.12924899  0.14576468  1.0
  H  H66  1  0.35238603  0.37075049  0.64576436  1.0
  H  H67  1  0.85238521  0.62924918  0.35423535  1.0
  C  C68  1  0.75619993  0.46358876  0.63670312  1.0
  C  C69  1  0.25620023  0.53641040  0.36329699  1.0
  C  C70  1  0.75620151  0.96358948  0.86329706  1.0
  C  C71  1  0.25620079  0.03641073  0.13670305  1.0
  C  C72  1  0.83570242  0.46308156  0.69562928  1.0
  C  C73  1  0.33570269  0.53691863  0.30437043  1.0
  C  C74  1  0.83569969  0.96308230  0.80437130  1.0
  C  C75  1  0.33570114  0.03691842  0.19562922  1.0
  C  C76  1  0.71216563  0.41381974  0.73054243  1.0
  C  C77  1  0.21216577  0.58618047  0.26945728  1.0
  C  C78  1  0.71216503  0.91382154  0.76945816  1.0
  C  C79  1  0.21216851  0.08618024  0.23054276  1.0
  C  C80  1  0.79070061  0.41333861  0.78494223  1.0
  C  C81  1  0.29070073  0.58666211  0.21505788  1.0
  C  C82  1  0.79069785  0.91333886  0.71505755  1.0
  C  C83  1  0.29070349  0.08666239  0.28494215  1.0
  C  C84  1  0.98353398  0.46297676  0.80538843  1.0
  C  C85  1  0.48353421  0.53702289  0.19461128  1.0
  C  C86  1  0.98353335  0.96297754  0.69461135  1.0
  C  C87  1  0.48353698  0.03702316  0.30538836  1.0
  C  C88  1  0.10220630  0.51197750  0.77011518  1.0
  C  C89  1  0.60220577  0.48802273  0.22988493  1.0
  C  C90  1  0.10220690  0.01197779  0.72988468  1.0
  C  C91  1  0.60220731  0.98802243  0.27011502  1.0
  C  C92  1  0.03283052  0.51165173  0.71482226  1.0
  C  C93  1  0.53283216  0.48834746  0.28517784  1.0
  C  C94  1  0.03283115  0.01165253  0.78517801  1.0
  C  C95  1  0.53283153  0.98834823  0.21482251  1.0
  C  C96  1  0.51853822  0.30953987  0.80029947  1.0
  C  C97  1  0.01853808  0.69046193  0.19969902  1.0
  C  C98  1  0.51853759  0.80953961  0.69970114  1.0
  C  C99  1  0.01854085  0.19046063  0.30029897  1.0
  C  C100  1  0.45694966  0.25947167  0.84536666  1.0
  C  C101  1  0.95694849  0.74052799  0.15463426  1.0
  C  C102  1  0.45694901  0.75947194  0.65463356  1.0
  C  C103  1  0.95694913  0.24052876  0.34536575  1.0
  C  C104  1  0.60109106  0.19562196  0.84868074  1.0
  C  C105  1  0.10108848  0.80437774  0.15131937  1.0
  C  C106  1  0.60108827  0.69562276  0.65131950  1.0
  C  C107  1  0.10109127  0.30437747  0.34868021  1.0
  C  C108  1  0.53864415  0.14849260  0.88999966  1.0
  C  C109  1  0.03864787  0.85150868  0.11000086  1.0
  C  C110  1  0.53864563  0.64849237  0.61000059  1.0
  C  C111  1  0.03864639  0.35150787  0.38999911  1.0
  C  C112  1  0.32674528  0.16470732  0.92804865  1.0
  C  C113  1  0.82674598  0.83529549  0.07195147  1.0
  C  C114  1  0.32674674  0.66470658  0.57195159  1.0
  C  C115  1  0.82675094  0.33529310  0.42804731  1.0
  C  C116  1  0.18517248  0.22913926  0.92540978  1.0
  C  C117  1  0.68517548  0.77086200  0.07458993  1.0
  C  C118  1  0.18517395  0.72913956  0.57459085  1.0
  C  C119  1  0.68517616  0.27086065  0.42540926  1.0
  C  C120  1  0.25125396  0.27630095  0.88457327  1.0
  C  C121  1  0.75125709  0.72369926  0.11542725  1.0
  C  C122  1  0.25125329  0.77630071  0.61542735  1.0
  C  C123  1  0.75125775  0.22370002  0.38457236  1.0
  C  C124  1  0.23101788  0.11189261  0.96852710  1.0
  C  C125  1  0.73101844  0.88810760  0.03147301  1.0
  C  C126  1  0.23101718  0.61189241  0.53147315  1.0
  C  C127  1  0.73102342  0.38810832  0.46852656  1.0
  C  C128  1  0.35161953  0.56719308  0.84276989  1.0
  C  C129  1  0.85161910  0.43280712  0.15722982  1.0
  C  C130  1  0.35162010  0.06719288  0.65722996  1.0
  C  C131  1  0.85162068  0.93280680  0.34276974  1.0
  C  C132  1  0.54131491  0.62915320  0.85236132  1.0
  C  C133  1  0.04131338  0.37084704  0.14763838  1.0
  C  C134  1  0.54131547  0.12915300  0.64763852  1.0
  C  C135  1  0.04131496  0.87084671  0.35236158  1.0
  C  C136  1  0.71399976  0.65610161  0.81103917  1.0
  C  C137  1  0.21399832  0.34389860  0.18896054  1.0
  C  C138  1  0.71400034  0.15610140  0.68896067  1.0
  C  C139  1  0.21399987  0.84389829  0.31103944  1.0
  C  C140  1  0.88920609  0.71337721  0.82095949  1.0
  C  C141  1  0.38920693  0.28662246  0.17904103  1.0
  C  C142  1  0.88920881  0.21337700  0.67904074  1.0
  C  C143  1  0.38920635  0.78662215  0.32095937  1.0
  C  C144  1  0.89075365  0.74492830  0.87214040  1.0
  C  C145  1  0.39075240  0.25507084  0.12786012  1.0
  C  C146  1  0.89075634  0.24492863  0.62786023  1.0
  C  C147  1  0.39075398  0.75507103  0.37214029  1.0
  C  C148  1  0.71839629  0.71795852  0.91368817  1.0
  C  C149  1  0.21839496  0.28204117  0.08631235  1.0
  C  C150  1  0.71839469  0.21795835  0.58631247  1.0
  C  C151  1  0.21839442  0.78204082  0.41368805  1.0
  C  C152  1  0.54625302  0.66026175  0.90379295  1.0
  C  C153  1  0.04624940  0.33973849  0.09620675  1.0
  C  C154  1  0.54625142  0.16026157  0.59620688  1.0
  C  C155  1  0.04625314  0.83973814  0.40379323  1.0
  C  C156  1  0.06681707  0.80735242  0.88352495  1.0
  C  C157  1  0.56681293  0.19264730  0.11647516  1.0
  C  C158  1  0.06681548  0.30735223  0.61647525  1.0
  C  C159  1  0.56681666  0.69264748  0.38352486  1.0
  O  O160  1  0.52541118  0.43124693  0.62284131  1.0
  O  O161  1  0.02541355  0.56875279  0.37715839  1.0
  O  O162  1  0.52541277  0.93124712  0.87715887  1.0
  O  O163  1  0.02541197  0.06875260  0.12284124  1.0
  O  O164  1  0.91347317  0.49610783  0.60361348  1.0
  O  O165  1  0.41347356  0.50389131  0.39638623  1.0
  O  O166  1  0.91347048  0.99610854  0.89638669  1.0
  O  O167  1  0.41347197  0.00389113  0.10361382  1.0
  O  O168  1  0.28974407  0.56256538  0.78627845  1.0
  O  O169  1  0.78974366  0.43743430  0.21372126  1.0
  O  O170  1  0.28974466  0.06256516  0.71372181  1.0
  O  O171  1  0.78974306  0.93743400  0.28627830  1.0
  O  O172  1  0.69043534  0.36598250  0.82186278  1.0
  O  O173  1  0.19043747  0.63401719  0.17813733  1.0
  O  O174  1  0.69043470  0.86598276  0.67813783  1.0
  O  O175  1  0.19043811  0.13401797  0.32186228  1.0
  O  O176  1  0.99521300  0.12331067  0.99161824  1.0
  O  O177  1  0.49521233  0.87668898  0.00838188  1.0
  O  O178  1  0.99521229  0.62331047  0.50838202  1.0
  O  O179  1  0.49521732  0.37668970  0.49161769  1.0
  O  O180  1  0.38770046  0.05699444  0.97640683  1.0
  O  O181  1  0.88769874  0.94300575  0.02359329  1.0
  O  O182  1  0.38769976  0.55699424  0.52359344  1.0
  O  O183  1  0.88770586  0.44300543  0.47640627  1.0
  O  O184  1  0.05293589  0.83782608  0.92791288  1.0
  O  O185  1  0.55293181  0.16217364  0.07208723  1.0
  O  O186  1  0.05293215  0.33782643  0.57208732  1.0
  O  O187  1  0.55293556  0.66217381  0.42791279  1.0
  O  O188  1  0.23325595  0.82768035  0.84300276  1.0
  O  O189  1  0.73325616  0.17231934  0.15699776  1.0
  O  O190  1  0.23325652  0.32768015  0.65699744  1.0
  O  O191  1  0.73325773  0.67231954  0.34300308  1.0
