# generated using pymatgen
data_ZnH8C15S2NO4
_symmetry_space_group_name_H-M   'P 1'
_cell_length_a   13.93012380
_cell_length_b   14.18834978
_cell_length_c   14.18834308
_cell_angle_alpha   103.70331028
_cell_angle_beta   105.81140211
_cell_angle_gamma   105.81160394
_symmetry_Int_Tables_number   1
_chemical_formula_structural   ZnH8C15S2NO4
_chemical_formula_sum   'Zn4 H32 C60 S8 N4 O16'
_cell_volume   2445.05679945
_cell_formula_units_Z   4
loop_
 _symmetry_equiv_pos_site_id
 _symmetry_equiv_pos_as_xyz
  1  'x, y, z'
loop_
 _atom_site_type_symbol
 _atom_site_label
 _atom_site_symmetry_multiplicity
 _atom_site_fract_x
 _atom_site_fract_y
 _atom_site_fract_z
 _atom_site_occupancy
  Zn  Zn0  1  0.36131749  0.37528923  0.66232590  1.0
  Zn  Zn1  1  0.13868279  0.33767457  0.62471287  1.0
  Zn  Zn2  1  0.63868290  0.62471218  0.33767340  1.0
  Zn  Zn3  1  0.86131732  0.66232606  0.37528759  1.0
  H  H4  1  0.65373492  0.40207402  0.50752865  1.0
  H  H5  1  0.84626503  0.49247079  0.59792594  1.0
  H  H6  1  0.34626536  0.59792507  0.49247219  1.0
  H  H7  1  0.15373376  0.50752829  0.40207380  1.0
  H  H8  1  0.48448123  0.41334492  0.02227847  1.0
  H  H9  1  0.01551989  0.97772194  0.58665414  1.0
  H  H10  1  0.51552101  0.58665339  0.97772202  1.0
  H  H11  1  0.98448078  0.02228026  0.41334895  1.0
  H  H12  1  0.48211573  0.41145800  0.52439193  1.0
  H  H13  1  0.01788461  0.47560834  0.58854186  1.0
  H  H14  1  0.51788427  0.58854031  0.47560795  1.0
  H  H15  1  0.98211446  0.52439151  0.41145814  1.0
  H  H16  1  0.47916442  0.73746008  0.70808388  1.0
  H  H17  1  0.02083424  0.29191546  0.26254003  1.0
  H  H18  1  0.52083390  0.26253977  0.29191592  1.0
  H  H19  1  0.97916587  0.70808517  0.73745972  1.0
  H  H20  1  0.44160248  0.90725824  0.69412863  1.0
  H  H21  1  0.05839796  0.30587019  0.09274226  1.0
  H  H22  1  0.55839762  0.09274240  0.30587182  1.0
  H  H23  1  0.94160204  0.69412812  0.90725692  1.0
  H  H24  1  0.71727648  0.32398333  0.78958201  1.0
  H  H25  1  0.78272217  0.21041640  0.67601469  1.0
  H  H26  1  0.28272278  0.67601498  0.21041767  1.0
  H  H27  1  0.21727811  0.78958268  0.32398475  1.0
  H  H28  1  0.44728287  0.39011118  0.18834087  1.0
  H  H29  1  0.05271831  0.81165934  0.60988726  1.0
  H  H30  1  0.55271788  0.60988713  0.81165922  1.0
  H  H31  1  0.94728208  0.18834207  0.39011345  1.0
  H  H32  1  0.54381403  0.34034945  0.79577341  1.0
  H  H33  1  0.95618552  0.20422632  0.65965059  1.0
  H  H34  1  0.45618607  0.65965118  0.20422564  1.0
  H  H35  1  0.04381504  0.79577354  0.34034840  1.0
  C  C36  1  0.31032850  0.66441378  0.67953431  1.0
  C  C37  1  0.18967029  0.32046422  0.33558604  1.0
  C  C38  1  0.68967058  0.33558607  0.32046569  1.0
  C  C39  1  0.81032953  0.67953564  0.66441416  1.0
  C  C40  1  0.30087118  0.37892712  0.84069072  1.0
  C  C41  1  0.19912978  0.15931038  0.62107392  1.0
  C  C42  1  0.69913088  0.62107275  0.15930938  1.0
  C  C43  1  0.80086986  0.84069103  0.37892730  1.0
  C  C44  1  0.69948003  0.36100953  0.64705360  1.0
  C  C45  1  0.80051857  0.35294513  0.63898902  1.0
  C  C46  1  0.30051922  0.63898877  0.35294608  1.0
  C  C47  1  0.19948096  0.64705395  0.36101092  1.0
  C  C48  1  0.29636618  0.55603152  0.67252549  1.0
  C  C49  1  0.20363173  0.32747529  0.44396867  1.0
  C  C50  1  0.70363243  0.44396912  0.32747598  1.0
  C  C51  1  0.79636884  0.67252457  0.55603173  1.0
  C  C52  1  0.27666607  0.35146008  0.10228226  1.0
  C  C53  1  0.22333507  0.89771906  0.64853932  1.0
  C  C54  1  0.72333468  0.64853823  0.89771712  1.0
  C  C55  1  0.77666560  0.10228313  0.35146165  1.0
  C  C56  1  0.31377731  0.37488912  0.94606441  1.0
  C  C57  1  0.18622375  0.05393640  0.62511052  1.0
  C  C58  1  0.68622522  0.62510997  0.05393564  1.0
  C  C59  1  0.81377514  0.94606501  0.37489120  1.0
  C  C60  1  0.27384321  0.82401847  0.66582285  1.0
  C  C61  1  0.22615646  0.33417545  0.17598197  1.0
  C  C62  1  0.72615643  0.17598293  0.33417696  1.0
  C  C63  1  0.77384354  0.66582285  0.82401721  1.0
  C  C64  1  0.63305490  0.38797002  0.57290553  1.0
  C  C65  1  0.86694402  0.42709337  0.61202897  1.0
  C  C66  1  0.36694435  0.61202828  0.42709415  1.0
  C  C67  1  0.13305552  0.57290571  0.38797097  1.0
  C  C68  1  0.40534543  0.39132795  0.02716586  1.0
  C  C69  1  0.09465574  0.97283443  0.60867116  1.0
  C  C70  1  0.59465653  0.60866958  0.97283367  1.0
  C  C71  1  0.90534465  0.02716699  0.39133026  1.0
  C  C72  1  0.53792920  0.39384684  0.58175370  1.0
  C  C73  1  0.96207025  0.41824606  0.60615334  1.0
  C  C74  1  0.46207033  0.60615224  0.41824553  1.0
  C  C75  1  0.03792854  0.58175302  0.39384640  1.0
  C  C76  1  0.40133436  0.74524415  0.69403990  1.0
  C  C77  1  0.09866440  0.30595867  0.25475595  1.0
  C  C78  1  0.59866500  0.25475648  0.30596036  1.0
  C  C79  1  0.90133617  0.69404119  0.74524375  1.0
  C  C80  1  0.38099578  0.83562402  0.68642220  1.0
  C  C81  1  0.11900388  0.31357652  0.16437659  1.0
  C  C82  1  0.61900386  0.16437738  0.31357831  1.0
  C  C83  1  0.88099612  0.68642178  0.83562259  1.0
  C  C84  1  0.66730198  0.34293887  0.72872096  1.0
  C  C85  1  0.83269751  0.27127806  0.65706035  1.0
  C  C86  1  0.33269784  0.65706099  0.27127924  1.0
  C  C87  1  0.16730278  0.72872102  0.34293909  1.0
  C  C88  1  0.38477778  0.37840768  0.11609062  1.0
  C  C89  1  0.11522314  0.88391029  0.62159150  1.0
  C  C90  1  0.61522343  0.62158986  0.88390941  1.0
  C  C91  1  0.88477725  0.11609113  0.37841062  1.0
  C  C92  1  0.57176667  0.35217226  0.73322947  1.0
  C  C93  1  0.92823318  0.26677064  0.64782790  1.0
  C  C94  1  0.42823372  0.64782915  0.26677054  1.0
  C  C95  1  0.07176739  0.73322921  0.35217180  1.0
  S  S96  1  0.20172850  0.34314134  0.97921765  1.0
  S  S97  1  0.29827267  0.02078442  0.65685910  1.0
  S  S98  1  0.79827253  0.65685775  0.02078199  1.0
  S  S99  1  0.70172754  0.97921855  0.34314193  1.0
  S  S100  1  0.19998878  0.70111854  0.65858320  1.0
  S  S101  1  0.30001058  0.34141668  0.29888311  1.0
  S  S102  1  0.80001040  0.29888364  0.34141737  1.0
  S  S103  1  0.69998970  0.65858240  0.70111633  1.0
  N  N104  1  0.50787244  0.37641022  0.66040215  1.0
  N  N105  1  0.99212748  0.33959866  0.62359094  1.0
  N  N106  1  0.49212692  0.62359041  0.33959811  1.0
  N  N107  1  0.00787234  0.66040120  0.37640926  1.0
  O  O108  1  0.38398442  0.39709726  0.81601760  1.0
  O  O109  1  0.11601569  0.18398268  0.60290350  1.0
  O  O110  1  0.61601615  0.60290260  0.18398209  1.0
  O  O111  1  0.88398396  0.81601872  0.39709701  1.0
  O  O112  1  0.37842942  0.52995407  0.68396067  1.0
  O  O113  1  0.12156644  0.31603681  0.47004371  1.0
  O  O114  1  0.62156656  0.47004344  0.31603654  1.0
  O  O115  1  0.87843292  0.68396382  0.52995655  1.0
  O  O116  1  0.20619259  0.36303483  0.78237498  1.0
  O  O117  1  0.29380807  0.21762671  0.63696535  1.0
  O  O118  1  0.79380769  0.63696425  0.21762517  1.0
  O  O119  1  0.70619157  0.78237469  0.36303446  1.0
  O  O120  1  0.20107524  0.49601060  0.65242235  1.0
  O  O121  1  0.29892227  0.34757950  0.50399066  1.0
  O  O122  1  0.79892216  0.50399080  0.34757968  1.0
  O  O123  1  0.70107783  0.65242113  0.49600909  1.0
