# generated using pymatgen
data_AlH7C13ClO5
_symmetry_space_group_name_H-M   'P 1'
_cell_length_a   6.63520348
_cell_length_b   11.06625811
_cell_length_c   17.62422470
_cell_angle_alpha   85.37655216
_cell_angle_beta   79.35125302
_cell_angle_gamma   73.43560841
_symmetry_Int_Tables_number   1
_chemical_formula_structural   AlH7C13ClO5
_chemical_formula_sum   'Al2 H14 C26 Cl2 O10'
_cell_volume   1218.48974368
_cell_formula_units_Z   2
loop_
 _symmetry_equiv_pos_site_id
 _symmetry_equiv_pos_as_xyz
  1  'x, y, z'
loop_
 _atom_site_type_symbol
 _atom_site_label
 _atom_site_symmetry_multiplicity
 _atom_site_fract_x
 _atom_site_fract_y
 _atom_site_fract_z
 _atom_site_occupancy
  Al  Al0  1  0.51587159  0.49496614  0.49405696  1.0
  Al  Al1  1  0.01701528  0.49605767  0.49042208  1.0
  H  H2  1  0.23329836  0.63332111  0.43599871  1.0
  H  H3  1  0.74645341  0.45503207  0.58978468  1.0
  H  H4  1  0.45321844  0.48178983  0.72689638  1.0
  H  H5  1  0.38298546  0.46532775  0.87052685  1.0
  H  H6  1  0.71031424  0.62655127  0.86669731  1.0
  H  H7  1  0.26971872  0.37755638  0.11202777  1.0
  H  H8  1  0.54736960  0.51590543  0.26984811  1.0
  H  H9  1  0.59095022  0.54481535  0.12631147  1.0
  H  H10  1  0.20477805  0.11883631  0.43167592  1.0
  H  H11  1  0.33407970  0.88624808  0.42062508  1.0
  H  H12  1  0.04011863  0.88326660  0.53049702  1.0
  H  H13  1  0.86586509  0.86406318  0.61761358  1.0
  H  H14  1  0.73372842  0.09906973  0.62975946  1.0
  H  H15  1  0.90595193  0.12006414  0.54249939  1.0
  C  C16  1  0.67017538  0.72393451  0.47832563  1.0
  C  C17  1  0.84168132  0.44978780  0.35764614  1.0
  C  C18  1  0.36326658  0.27141137  0.50136018  1.0
  C  C19  1  0.18155429  0.54031406  0.62972891  1.0
  C  C20  1  0.12497798  0.55592372  0.71528740  1.0
  C  C21  1  0.29091902  0.51193525  0.75848584  1.0
  C  C22  1  0.25205529  0.50292071  0.83841643  1.0
  C  C23  1  0.04049177  0.53943862  0.87868092  1.0
  C  C24  1  0.87360051  0.59256238  0.83648245  1.0
  C  C25  1  0.91547740  0.60037413  0.75611768  1.0
  C  C26  1  0.99750998  0.51916825  0.95959672  1.0
  C  C27  1  0.96684944  0.49409731  0.02878664  1.0
  C  C28  1  0.93492036  0.46899673  0.10945470  1.0
  C  C29  1  0.11125424  0.41045571  0.14629075  1.0
  C  C30  1  0.08444667  0.39546058  0.22639445  1.0
  C  C31  1  0.88124179  0.43927992  0.27186220  1.0
  C  C32  1  0.70485211  0.48804486  0.23413914  1.0
  C  C33  1  0.72908148  0.50362991  0.15441502  1.0
  C  C34  1  0.59672479  0.86344106  0.48166437  1.0
  C  C35  1  0.44496170  0.13254465  0.49504776  1.0
  C  C36  1  0.69858599  0.93066110  0.51805514  1.0
  C  C37  1  0.34316510  0.06552984  0.45680319  1.0
  C  C38  1  0.62466073  0.06154300  0.52474662  1.0
  C  C39  1  0.41637449  0.93503297  0.45051796  1.0
  C  C40  1  0.87809448  0.91862902  0.56289540  1.0
  C  C41  1  0.79466928  0.06666723  0.57042277  1.0
  Cl  Cl42  1  0.70059040  0.66979052  0.70961033  1.0
  Cl  Cl43  1  0.30622007  0.31794316  0.26704851  1.0
  O  O44  1  0.53717476  0.66580896  0.46752343  1.0
  O  O45  1  0.98141570  0.47913217  0.38716998  1.0
  O  O46  1  0.17409783  0.32320510  0.48916573  1.0
  O  O47  1  0.36595202  0.54854406  0.59738583  1.0
  O  O48  1  0.48857040  0.32937409  0.51878094  1.0
  O  O49  1  0.04628747  0.51212645  0.59695959  1.0
  O  O50  1  0.86260274  0.67221444  0.48750829  1.0
  O  O51  1  0.66397392  0.43754874  0.39392639  1.0
  O  O52  1  0.26300133  0.54595577  0.45417404  1.0
  O  O53  1  0.76755917  0.45306229  0.53389329  1.0
