# generated using pymatgen
data_CuH15C17NO6
_symmetry_space_group_name_H-M   'P 1'
_cell_length_a   15.36833314
_cell_length_b   15.36836407
_cell_length_c   20.64781291
_cell_angle_alpha   86.00047307
_cell_angle_beta   86.00056933
_cell_angle_gamma   63.69288014
_symmetry_Int_Tables_number   1
_chemical_formula_structural   CuH15C17NO6
_chemical_formula_sum   'Cu8 H120 C136 N8 O48'
_cell_volume   4356.89028550
_cell_formula_units_Z   8
loop_
 _symmetry_equiv_pos_site_id
 _symmetry_equiv_pos_as_xyz
  1  'x, y, z'
loop_
 _atom_site_type_symbol
 _atom_site_label
 _atom_site_symmetry_multiplicity
 _atom_site_fract_x
 _atom_site_fract_y
 _atom_site_fract_z
 _atom_site_occupancy
  Cu  Cu0  1  0.00787737  0.00907460  0.68807719  1.0
  Cu  Cu1  1  0.99092053  0.99211833  0.81192711  1.0
  Cu  Cu2  1  0.99221231  0.99080429  0.31235298  1.0
  Cu  Cu3  1  0.00919513  0.00779077  0.18765283  1.0
  Cu  Cu4  1  0.44438922  0.95841885  0.50119640  1.0
  Cu  Cu5  1  0.04158048  0.55561707  0.99880236  1.0
  Cu  Cu6  1  0.55566420  0.04146213  0.49868742  1.0
  Cu  Cu7  1  0.95854116  0.44433704  0.00130893  1.0
  H  H8  1  0.02895962  0.69296417  0.83202827  1.0
  H  H9  1  0.30702426  0.97106059  0.66797362  1.0
  H  H10  1  0.97131252  0.30665256  0.16789636  1.0
  H  H11  1  0.69335217  0.02867874  0.33209766  1.0
  H  H12  1  0.04983083  0.52578785  0.81818525  1.0
  H  H13  1  0.47420314  0.95018492  0.68181978  1.0
  H  H14  1  0.95015272  0.47384279  0.18176249  1.0
  H  H15  1  0.52616281  0.04984081  0.31823607  1.0
  H  H16  1  0.06993654  0.72822614  0.62541034  1.0
  H  H17  1  0.27176543  0.93006311  0.87459011  1.0
  H  H18  1  0.92979675  0.27152395  0.37446335  1.0
  H  H19  1  0.72848437  0.07019464  0.12552756  1.0
  H  H20  1  0.09339333  0.55886353  0.61156921  1.0
  H  H21  1  0.44113273  0.90660281  0.88843130  1.0
  H  H22  1  0.90622033  0.44086088  0.38831551  1.0
  H  H23  1  0.55913799  0.09377320  0.11168100  1.0
  H  H24  1  0.24957268  0.43662942  0.65358593  1.0
  H  H25  1  0.56337862  0.75042693  0.84640762  1.0
  H  H26  1  0.75021425  0.56325146  0.34625711  1.0
  H  H27  1  0.43674577  0.24978624  0.15373990  1.0
  H  H28  1  0.08385715  0.25455324  0.53539233  1.0
  H  H29  1  0.74541936  0.91615418  0.96460497  1.0
  H  H30  1  0.91599403  0.74530348  0.46462330  1.0
  H  H31  1  0.25469020  0.08401359  0.03538317  1.0
  H  H32  1  0.18605891  0.18375692  0.48409277  1.0
  H  H33  1  0.81620322  0.81394935  0.01590478  1.0
  H  H34  1  0.81375410  0.81612779  0.51589146  1.0
  H  H35  1  0.18386231  0.18624885  0.98411271  1.0
  H  H36  1  0.07005217  0.25236535  0.45004871  1.0
  H  H37  1  0.74760172  0.92995475  0.04994695  1.0
  H  H38  1  0.92967129  0.74738774  0.55000310  1.0
  H  H39  1  0.25261539  0.07032959  0.95000058  1.0
  H  H40  1  0.20022288  0.14050254  0.63477041  1.0
  H  H41  1  0.85949967  0.79978640  0.86522793  1.0
  H  H42  1  0.79989756  0.85917651  0.36516600  1.0
  H  H43  1  0.14080901  0.20012668  0.13484518  1.0
  H  H44  1  0.87432356  0.72587665  0.71109110  1.0
  H  H45  1  0.27413773  0.12567131  0.78891807  1.0
  H  H46  1  0.12565693  0.27419075  0.28885757  1.0
  H  H47  1  0.72582151  0.87433600  0.21115090  1.0
  H  H48  1  0.89051684  0.46667355  0.85923918  1.0
  H  H49  1  0.53332692  0.10949075  0.64075330  1.0
  H  H50  1  0.10920012  0.53355938  0.14083121  1.0
  H  H51  1  0.46644201  0.89080308  0.35916500  1.0
  H  H52  1  0.76249891  0.86229506  0.63858463  1.0
  H  H53  1  0.13771836  0.23748832  0.86142341  1.0
  H  H54  1  0.23750178  0.13771758  0.36131948  1.0
  H  H55  1  0.86229375  0.76249338  0.13868957  1.0
  H  H56  1  0.88586209  0.31184429  0.65675334  1.0
  H  H57  1  0.68814549  0.11414591  0.84324224  1.0
  H  H58  1  0.11371303  0.68851274  0.34327397  1.0
  H  H59  1  0.31149961  0.88628279  0.15671903  1.0
  H  H60  1  0.94035191  0.28933418  0.86038649  1.0
  H  H61  1  0.71067106  0.05964335  0.63960753  1.0
  H  H62  1  0.05933305  0.71086341  0.13966539  1.0
  H  H63  1  0.28913344  0.94067782  0.36032856  1.0
  H  H64  1  0.07494456  0.28260121  0.69350063  1.0
  H  H65  1  0.71739340  0.92506839  0.80650260  1.0
  H  H66  1  0.92509319  0.71702173  0.30642805  1.0
  H  H67  1  0.28296841  0.07492609  0.19357994  1.0
  H  H68  1  0.03885451  0.16429220  0.59925449  1.0
  H  H69  1  0.83569245  0.96115234  0.90075113  1.0
  H  H70  1  0.96115395  0.83559835  0.40086524  1.0
  H  H71  1  0.16439433  0.03885289  0.09914083  1.0
  H  H72  1  0.67551445  0.59724775  0.71986061  1.0
  H  H73  1  0.40273967  0.32450438  0.78012399  1.0
  H  H74  1  0.32419641  0.40312270  0.28045137  1.0
  H  H75  1  0.59688303  0.67580895  0.21954858  1.0
  H  H76  1  0.37323489  0.29522381  0.59453392  1.0
  H  H77  1  0.70478089  0.62676275  0.90545719  1.0
  H  H78  1  0.62665633  0.70470036  0.40534639  1.0
  H  H79  1  0.29530905  0.37334568  0.09465112  1.0
  H  H80  1  0.56591570  0.73191047  0.64595333  1.0
  H  H81  1  0.26807476  0.43409922  0.85404258  1.0
  H  H82  1  0.43381917  0.26840226  0.35429806  1.0
  H  H83  1  0.73160681  0.56618286  0.14570642  1.0
  H  H84  1  0.83704547  0.49001903  0.65498607  1.0
  H  H85  1  0.50997352  0.16297490  0.84500124  1.0
  H  H86  1  0.16247901  0.51036058  0.34511643  1.0
  H  H87  1  0.48964756  0.83751815  0.15488754  1.0
  H  H88  1  0.08312465  0.00574043  0.46570645  1.0
  H  H89  1  0.99423357  0.91685453  0.03430460  1.0
  H  H90  1  0.91695010  0.99389527  0.53452699  1.0
  H  H91  1  0.00611130  0.08303111  0.96547355  1.0
  H  H92  1  0.07485170  0.10024945  0.40801073  1.0
  H  H93  1  0.89972631  0.92513159  0.09199410  1.0
  H  H94  1  0.92513166  0.89937937  0.59215604  1.0
  H  H95  1  0.10062647  0.07485432  0.90784677  1.0
  H  H96  1  0.18881728  0.02481922  0.44298004  1.0
  H  H97  1  0.97514818  0.81116691  0.05702486  1.0
  H  H98  1  0.81116238  0.97495690  0.55719323  1.0
  H  H99  1  0.02504523  0.18882353  0.94280482  1.0
  H  H100  1  0.28961012  0.88471683  0.57568974  1.0
  H  H101  1  0.11527721  0.71039141  0.92431535  1.0
  H  H102  1  0.71064567  0.11506492  0.42430504  1.0
  H  H103  1  0.88491558  0.28936517  0.07570179  1.0
  H  H104  1  0.25059037  0.71450260  0.44695729  1.0
  H  H105  1  0.28548584  0.74943528  0.05303933  1.0
  H  H106  1  0.74909725  0.28559059  0.55306541  1.0
  H  H107  1  0.71440600  0.25090717  0.94693379  1.0
  H  H108  1  0.32779338  0.77157537  0.42140171  1.0
  H  H109  1  0.22842047  0.67223051  0.07860091  1.0
  H  H110  1  0.67203269  0.22836192  0.57858079  1.0
  H  H111  1  0.77164150  0.32796987  0.92142150  1.0
  H  H112  1  0.19956484  0.83689764  0.41415894  1.0
  H  H113  1  0.16309255  0.80045533  0.08584165  1.0
  H  H114  1  0.80025642  0.16321149  0.58592610  1.0
  H  H115  1  0.83679461  0.19973879  0.91407609  1.0
  H  H116  1  0.18196916  0.83284106  0.60273679  1.0
  H  H117  1  0.16713320  0.81803851  0.89726660  1.0
  H  H118  1  0.81808051  0.16723545  0.39732277  1.0
  H  H119  1  0.83276358  0.18191373  0.10267818  1.0
  H  H120  1  0.20334816  0.72324833  0.56509040  1.0
  H  H121  1  0.27673291  0.79666831  0.93490445  1.0
  H  H122  1  0.79660528  0.27679063  0.43504590  1.0
  H  H123  1  0.72321101  0.20338011  0.06495240  1.0
  H  H124  1  0.10831232  0.83777453  0.53912748  1.0
  H  H125  1  0.16220146  0.89169935  0.96086779  1.0
  H  H126  1  0.89166795  0.16226666  0.46097620  1.0
  H  H127  1  0.83774130  0.10833027  0.03902165  1.0
  C  C128  1  0.03677073  0.82216699  0.73711853  1.0
  C  C129  1  0.17782858  0.96323986  0.76288487  1.0
  C  C130  1  0.96360968  0.17727003  0.26271662  1.0
  C  C131  1  0.82273125  0.03638545  0.23728376  1.0
  C  C132  1  0.05086057  0.72086950  0.72948068  1.0
  C  C133  1  0.27912230  0.94914886  0.77051630  1.0
  C  C134  1  0.94918516  0.27874243  0.27042056  1.0
  C  C135  1  0.72124512  0.05081588  0.22958744  1.0
  C  C136  1  0.04450722  0.66358877  0.78382882  1.0
  C  C137  1  0.33640996  0.95550877  0.71617082  1.0
  C  C138  1  0.95560497  0.33603692  0.21609553  1.0
  C  C139  1  0.66396085  0.04438516  0.28391199  1.0
  C  C140  1  0.05650010  0.56975173  0.77645380  1.0
  C  C141  1  0.43024906  0.94351008  0.72354903  1.0
  C  C142  1  0.94347951  0.42990214  0.22347978  1.0
  C  C143  1  0.57010394  0.05651562  0.27651869  1.0
  C  C144  1  0.06793706  0.68245323  0.66758527  1.0
  C  C145  1  0.31753652  0.93206859  0.83241255  1.0
  C  C146  1  0.93186650  0.31726103  0.33230393  1.0
  C  C147  1  0.68274633  0.06812083  0.16769740  1.0
  C  C148  1  0.08099087  0.58810590  0.65974792  1.0
  C  C149  1  0.41189403  0.91900510  0.84025285  1.0
  C  C150  1  0.91877401  0.41161754  0.34014244  1.0
  C  C151  1  0.58839275  0.08122516  0.15985218  1.0
  C  C152  1  0.07644673  0.53145323  0.71481847  1.0
  C  C153  1  0.46854615  0.92356337  0.78518109  1.0
  C  C154  1  0.92343006  0.46823180  0.28509200  1.0
  C  C155  1  0.53177486  0.07656497  0.21490205  1.0
  C  C156  1  0.15341535  0.36841786  0.67523584  1.0
  C  C157  1  0.63157252  0.84659398  0.82476152  1.0
  C  C158  1  0.84650168  0.63132861  0.32464715  1.0
  C  C159  1  0.36867413  0.15351421  0.17534676  1.0
  C  C160  1  0.23747539  0.37295308  0.64807022  1.0
  C  C161  1  0.62704900  0.76252606  0.85192359  1.0
  C  C162  1  0.76237702  0.62689128  0.35180509  1.0
  C  C163  1  0.37311228  0.23763185  0.14820025  1.0
  C  C164  1  0.10737474  0.20905911  0.49304396  1.0
  C  C165  1  0.79090950  0.89263144  0.00695510  1.0
  C  C166  1  0.89244497  0.79076321  0.50699376  1.0
  C  C167  1  0.20923703  0.10755546  0.99301005  1.0
  C  C168  1  0.95011276  0.18243345  0.75746051  1.0
  C  C169  1  0.81756461  0.04987421  0.74253978  1.0
  C  C170  1  0.04987399  0.81792177  0.24243781  1.0
  C  C171  1  0.18208363  0.95012574  0.25756298  1.0
  C  C172  1  0.20976844  0.20620795  0.63781672  1.0
  C  C173  1  0.79379146  0.79023367  0.86218407  1.0
  C  C174  1  0.79025206  0.79352920  0.36208280  1.0
  C  C175  1  0.20647358  0.20975435  0.13792215  1.0
  C  C176  1  0.36937844  0.12615872  0.57437598  1.0
  C  C177  1  0.87383835  0.63062765  0.92561616  1.0
  C  C178  1  0.63066611  0.87370533  0.42549185  1.0
  C  C179  1  0.12630056  0.36934047  0.07450065  1.0
  C  C180  1  0.59547935  0.88084488  0.59049017  1.0
  C  C181  1  0.11914817  0.40452317  0.90950351  1.0
  C  C182  1  0.40448788  0.11917951  0.40948248  1.0
  C  C183  1  0.88083040  0.59551471  0.09052345  1.0
  C  C184  1  0.91653581  0.28900392  0.75843034  1.0
  C  C185  1  0.71099052  0.08346790  0.74156718  1.0
  C  C186  1  0.08314649  0.71127371  0.24159154  1.0
  C  C187  1  0.28873060  0.91686082  0.25840463  1.0
  C  C188  1  0.80696870  0.72795558  0.69589029  1.0
  C  C189  1  0.27204837  0.19302603  0.80411169  1.0
  C  C190  1  0.19294293  0.27217941  0.30412190  1.0
  C  C191  1  0.72783157  0.80706122  0.19587976  1.0
  C  C192  1  0.88982440  0.43201648  0.81520349  1.0
  C  C193  1  0.56798215  0.11018921  0.68478780  1.0
  C  C194  1  0.10987958  0.56819743  0.18487644  1.0
  C  C195  1  0.43180431  0.89012803  0.31511900  1.0
  C  C196  1  0.78203481  0.65347048  0.71761399  1.0
  C  C197  1  0.34652228  0.21796990  0.78237888  1.0
  C  C198  1  0.21781742  0.34672128  0.28247002  1.0
  C  C199  1  0.65329196  0.78217695  0.21753203  1.0
  C  C200  1  0.74490261  0.80315523  0.65581084  1.0
  C  C201  1  0.19685058  0.25509348  0.84419231  1.0
  C  C202  1  0.25504426  0.19693104  0.34417304  1.0
  C  C203  1  0.80307792  0.74495566  0.15583148  1.0
  C  C204  1  0.65886040  0.80375240  0.63669083  1.0
  C  C205  1  0.19625205  0.34113182  0.86331062  1.0
  C  C206  1  0.34104237  0.19637256  0.36337036  1.0
  C  C207  1  0.80362960  0.65896248  0.13663190  1.0
  C  C208  1  0.29390115  0.20979134  0.60961443  1.0
  C  C209  1  0.79020884  0.70609517  0.89038428  1.0
  C  C210  1  0.70608202  0.79001476  0.39028042  1.0
  C  C211  1  0.20998701  0.29392806  0.10972772  1.0
  C  C212  1  0.88622164  0.34652566  0.70092155  1.0
  C  C213  1  0.65347112  0.11378497  0.79907514  1.0
  C  C214  1  0.11338208  0.65377185  0.29911620  1.0
  C  C215  1  0.34623342  0.88661572  0.20087953  1.0
  C  C216  1  0.91731700  0.33293493  0.81547925  1.0
  C  C217  1  0.66706320  0.08267626  0.68451718  1.0
  C  C218  1  0.08231145  0.66729870  0.18457668  1.0
  C  C219  1  0.33270722  0.91769642  0.31541988  1.0
  C  C220  1  0.13974633  0.28490274  0.67025785  1.0
  C  C221  1  0.71509103  0.86025713  0.82974018  1.0
  C  C222  1  0.86026153  0.71479575  0.32965858  1.0
  C  C223  1  0.28521328  0.13975370  0.17034756  1.0
  C  C224  1  0.05225016  0.10832439  0.56398990  1.0
  C  C225  1  0.89165815  0.94774927  0.93601631  1.0
  C  C226  1  0.94776510  0.89150388  0.43620462  1.0
  C  C227  1  0.10849520  0.05223423  0.06380049  1.0
  C  C228  1  0.69479326  0.65462013  0.70089801  1.0
  C  C229  1  0.34537035  0.30521469  0.79909233  1.0
  C  C230  1  0.30497038  0.34565697  0.29932761  1.0
  C  C231  1  0.65434445  0.69503421  0.20067507  1.0
  C  C232  1  0.30684072  0.29364484  0.61544732  1.0
  C  C233  1  0.70635454  0.69316009  0.88454484  1.0
  C  C234  1  0.69305660  0.70622759  0.38443070  1.0
  C  C235  1  0.29378579  0.30694071  0.11556447  1.0
  C  C236  1  0.63390266  0.72951711  0.66013723  1.0
  C  C237  1  0.27047604  0.36610739  0.83985275  1.0
  C  C238  1  0.36588804  0.27071916  0.34004751  1.0
  C  C239  1  0.72928382  0.63411147  0.15996030  1.0
  C  C240  1  0.86156681  0.48767105  0.75730246  1.0
  C  C241  1  0.51232639  0.13843812  0.74269418  1.0
  C  C242  1  0.13813909  0.51255159  0.24276961  1.0
  C  C243  1  0.48744680  0.86186669  0.25722763  1.0
  C  C244  1  0.85873913  0.44572071  0.69985089  1.0
  C  C245  1  0.55427344  0.14128712  0.80013798  1.0
  C  C246  1  0.14087412  0.55457042  0.30020897  1.0
  C  C247  1  0.44543456  0.85912441  0.19979119  1.0
  C  C248  1  0.10967366  0.06014886  0.45246843  1.0
  C  C249  1  0.93982209  0.89031118  0.04753567  1.0
  C  C250  1  0.89029456  0.93954189  0.54771267  1.0
  C  C251  1  0.06046298  0.10968869  0.95228593  1.0
  C  C252  1  0.30141476  0.86262880  0.52473824  1.0
  C  C253  1  0.13737008  0.69858960  0.97526596  1.0
  C  C254  1  0.69872694  0.13719216  0.47525637  1.0
  C  C255  1  0.86279520  0.30128706  0.02474843  1.0
  C  C256  1  0.25726773  0.78291938  0.44420098  1.0
  C  C257  1  0.21706803  0.74275758  0.05579761  1.0
  C  C258  1  0.74256998  0.21709038  0.55581653  1.0
  C  C259  1  0.78290920  0.25743319  0.94418454  1.0
  C  C260  1  0.18248262  0.80136177  0.55668091  1.0
  C  C261  1  0.19861574  0.81752865  0.94331921  1.0
  C  C262  1  0.81750926  0.19866777  0.44340824  1.0
  C  C263  1  0.80133296  0.18248509  0.05659307  1.0
  N  N264  1  0.08538397  0.12640106  0.50516398  1.0
  N  N265  1  0.87357548  0.91460944  0.99483903  1.0
  N  N266  1  0.91455198  0.87335564  0.49498424  1.0
  N  N267  1  0.12664642  0.08544625  0.00501639  1.0
  N  N268  1  0.25020471  0.81569716  0.50974035  1.0
  N  N269  1  0.18428707  0.74980807  0.99026274  1.0
  N  N270  1  0.74979199  0.18423881  0.49029371  1.0
  N  N271  1  0.81575688  0.25020816  0.00970850  1.0
  O  O272  1  0.04107178  0.87050222  0.68480836  1.0
  O  O273  1  0.12948893  0.95893683  0.81519197  1.0
  O  O274  1  0.95812885  0.12948398  0.31499473  1.0
  O  O275  1  0.87051220  0.04187500  0.18500450  1.0
  O  O276  1  0.02089519  0.85329378  0.79453833  1.0
  O  O277  1  0.14670599  0.97910962  0.70546852  1.0
  O  O278  1  0.98088731  0.14596200  0.20535641  1.0
  O  O279  1  0.85403405  0.01911974  0.29464799  1.0
  O  O280  1  0.08254888  0.43948645  0.71180634  1.0
  O  O281  1  0.56051056  0.91745708  0.78819462  1.0
  O  O282  1  0.91734315  0.56018774  0.28809904  1.0
  O  O283  1  0.43980174  0.08266034  0.21190560  1.0
  O  O284  1  0.51897340  0.87575591  0.57440029  1.0
  O  O285  1  0.12424256  0.48102403  0.92559864  1.0
  O  O286  1  0.48105205  0.12421036  0.42552392  1.0
  O  O287  1  0.87579405  0.51895764  0.07447228  1.0
  O  O288  1  0.44881085  0.13105901  0.55757303  1.0
  O  O289  1  0.86894276  0.55119497  0.94242231  1.0
  O  O290  1  0.55122505  0.86884079  0.44231314  1.0
  O  O291  1  0.13116491  0.44878744  0.05768432  1.0
  O  O292  1  0.96751962  0.14694266  0.70102393  1.0
  O  O293  1  0.85306367  0.03246089  0.79897581  1.0
  O  O294  1  0.03431720  0.85294382  0.29892646  1.0
  O  O295  1  0.14706596  0.96568168  0.20107023  1.0
  O  O296  1  0.03616031  0.03642356  0.57951011  1.0
  O  O297  1  0.96355863  0.96383597  0.92050118  1.0
  O  O298  1  0.96396729  0.96336238  0.42079091  1.0
  O  O299  1  0.03663273  0.03602843  0.07920732  1.0
  O  O300  1  0.95990866  0.13412134  0.81162011  1.0
  O  O301  1  0.86588027  0.04007792  0.68838053  1.0
  O  O302  1  0.03882228  0.86600336  0.18817778  1.0
  O  O303  1  0.13399980  0.96118362  0.31181937  1.0
  O  O304  1  0.34970254  0.05621732  0.56263310  1.0
  O  O305  1  0.94377925  0.65029420  0.93736980  1.0
  O  O306  1  0.65035989  0.94363303  0.43723691  1.0
  O  O307  1  0.05636720  0.34964708  0.06276360  1.0
  O  O308  1  0.62253967  0.94580890  0.56991762  1.0
  O  O309  1  0.05419126  0.37746179  0.93008586  1.0
  O  O310  1  0.37747748  0.05415204  0.42997587  1.0
  O  O311  1  0.94585563  0.62252089  0.07002512  1.0
  O  O312  1  0.35716949  0.88049523  0.48517107  1.0
  O  O313  1  0.11951107  0.64282588  0.01483299  1.0
  O  O314  1  0.64296865  0.11925693  0.51477625  1.0
  O  O315  1  0.88072858  0.35704870  0.98523015  1.0
  O  O316  1  0.84421584  0.58341456  0.75957686  1.0
  O  O317  1  0.41658172  0.15580329  0.74041558  1.0
  O  O318  1  0.15563219  0.41677063  0.24051163  1.0
  O  O319  1  0.58322860  0.84436681  0.25948601  1.0
