# generated using pymatgen
data_Zn4H82C78N34O3
_symmetry_space_group_name_H-M   'P 1'
_cell_length_a   19.80676399
_cell_length_b   20.34893328
_cell_length_c   21.03157636
_cell_angle_alpha   106.24678793
_cell_angle_beta   106.50523014
_cell_angle_gamma   112.74299223
_symmetry_Int_Tables_number   1
_chemical_formula_structural   Zn4H82C78N34O3
_chemical_formula_sum   'Zn4 H82 C78 N34 O3'
_cell_volume   6728.68647249
_cell_formula_units_Z   1
loop_
 _symmetry_equiv_pos_site_id
 _symmetry_equiv_pos_as_xyz
  1  'x, y, z'
loop_
 _atom_site_type_symbol
 _atom_site_label
 _atom_site_symmetry_multiplicity
 _atom_site_fract_x
 _atom_site_fract_y
 _atom_site_fract_z
 _atom_site_occupancy
  Zn  Zn0  1  0.59174504  0.61289967  0.52069870  1.0
  Zn  Zn1  1  0.38097292  0.41039054  0.52247620  1.0
  Zn  Zn2  1  0.49410634  0.61167972  0.63178655  1.0
  Zn  Zn3  1  0.47365062  0.41581809  0.40360537  1.0
  H  H4  1  0.78237374  0.71405934  0.65650099  1.0
  H  H5  1  0.39694575  0.25316354  0.54108815  1.0
  H  H6  1  0.01249708  0.64862689  0.53301206  1.0
  H  H7  1  0.86572663  0.44124927  0.32524137  1.0
  H  H8  1  0.88309643  0.53199233  0.32279121  1.0
  H  H9  1  0.97972867  0.46504754  0.30267839  1.0
  H  H10  1  0.89509280  0.43115294  0.44678690  1.0
  H  H11  1  0.01386233  0.56684405  0.33135491  1.0
  H  H12  1  0.65394066  0.13555859  0.51773139  1.0
  H  H13  1  0.63773871  0.01298161  0.49837690  1.0
  H  H14  1  0.53721766  0.96461868  0.42668165  1.0
  H  H15  1  0.22838089  0.39441808  0.39496806  1.0
  H  H16  1  0.45012552  0.08411243  0.56585740  1.0
  H  H17  1  0.45121071  0.97587199  0.57013889  1.0
  H  H18  1  0.56975338  0.14078471  0.65254343  1.0
  H  H19  1  0.58906285  0.03997046  0.65632273  1.0
  H  H20  1  0.62332222  0.40389834  0.35566655  1.0
  H  H21  1  0.63434940  0.59521644  0.87805339  1.0
  H  H22  1  0.74744988  0.61443058  0.21226615  1.0
  H  H23  1  0.70577856  0.62816756  0.31319067  1.0
  H  H24  1  0.52368156  0.39170132  0.06970439  1.0
  H  H25  1  0.48142146  0.40411660  0.16997177  1.0
  H  H26  1  0.51759435  0.80190883  0.65953876  1.0
  H  H27  1  0.45369769  0.37593908  0.65191576  1.0
  H  H28  1  0.02290935  0.86378451  0.87388807  1.0
  H  H29  1  0.89009980  0.79137823  0.76288218  1.0
  H  H30  1  0.10831521  0.10496936  0.25272923  1.0
  H  H31  1  0.90832666  0.73598746  0.98004207  1.0
  H  H32  1  0.00905868  0.96783391  0.15273078  1.0
  H  H33  1  0.76242956  0.61243589  0.56644474  1.0
  H  H34  1  0.59984662  0.38044003  0.49983558  1.0
  H  H35  1  0.63980403  0.63191812  0.76890002  1.0
  H  H36  1  0.65726662  0.64858973  0.40096605  1.0
  H  H37  1  0.37272445  0.24469832  0.26112435  1.0
  H  H38  1  0.11449874  0.46548367  0.49639488  1.0
  H  H39  1  0.04319804  0.43442592  0.52478480  1.0
  H  H40  1  0.03952477  0.72660850  0.46272065  1.0
  H  H41  1  0.95998671  0.65000766  0.38886576  1.0
  H  H42  1  0.13574859  0.68045649  0.59235503  1.0
  H  H43  1  0.12135152  0.58776905  0.55984584  1.0
  H  H44  1  0.08722856  0.68313281  0.36385042  1.0
  H  H45  1  0.14267382  0.63226841  0.37502843  1.0
  H  H46  1  0.27212149  0.76086954  0.45938167  1.0
  H  H47  1  0.22478232  0.75995735  0.37317370  1.0
  H  H48  1  0.20084811  0.21934660  0.35464492  1.0
  H  H49  1  0.21890904  0.81350275  0.45225537  1.0
  H  H50  1  0.93813490  0.35046961  0.39239107  1.0
  H  H51  1  0.00948448  0.38280237  0.36502337  1.0
  H  H52  1  0.70913563  0.04719571  0.66694411  1.0
  H  H53  1  0.73252376  0.12974195  0.65424798  1.0
  H  H54  1  0.49266562  0.65373925  0.80433975  1.0
  H  H55  1  0.53643549  0.62206405  0.86130525  1.0
  H  H56  1  0.70926339  0.22729474  0.71269029  1.0
  H  H57  1  0.68050527  0.24834370  0.64362678  1.0
  H  H58  1  0.58256864  0.08344615  0.38902739  1.0
  H  H59  1  0.53581918  0.71262155  0.45598111  1.0
  H  H60  1  0.54110806  0.13277076  0.42099947  1.0
  H  H61  1  0.33754253  0.07344695  0.50060947  1.0
  H  H62  1  0.29839387  0.97026679  0.44775356  1.0
  H  H63  1  0.27598238  0.99050222  0.33161756  1.0
  H  H64  1  0.22118101  0.01913053  0.37615915  1.0
  H  H65  1  0.31363041  0.09293449  0.38485409  1.0
  H  H66  1  0.42066297  0.94181536  0.38270170  1.0
  H  H67  1  0.31753480  0.87437100  0.35554323  1.0
  H  H68  1  0.35219839  0.76898961  0.36359185  1.0
  H  H69  1  0.37451439  0.80070828  0.29744361  1.0
  H  H70  1  0.43500559  0.42117594  0.25915544  1.0
  H  H71  1  0.45473361  0.83370388  0.38506082  1.0
  H  H72  1  0.72241535  0.65136338  0.00858326  1.0
  H  H73  1  0.71415148  0.59021243  0.05421010  1.0
  H  H74  1  0.38914371  0.29788343  0.77347611  1.0
  H  H75  1  0.39649185  0.34426243  0.71992999  1.0
  H  H76  1  0.47264200  0.27075662  0.83700388  1.0
  H  H77  1  0.52098280  0.31885457  0.93137646  1.0
  H  H78  1  0.36009251  0.13886256  0.26244712  1.0
  H  H79  1  0.33569635  0.05035574  0.20310791  1.0
  H  H80  1  0.25952528  0.98897841  0.08882390  1.0
  H  H81  1  0.34920432  0.64107453  0.55340646  1.0
  H  H82  1  0.16078488  0.90864355  0.03939088  1.0
  H  H83  1  0.77806846  0.61860092  0.90156395  1.0
  H  H84  1  0.72256792  0.59392604  0.81296425  1.0
  H  H85  1  0.97659833  0.51789889  0.52727380  1.0
  C  C86  1  0.73581788  0.68841993  0.67370120  1.0
  C  C87  1  0.53135699  0.72351101  0.50778822  1.0
  C  C88  1  0.48557111  0.47837538  0.30303222  1.0
  C  C89  1  0.44105241  0.29281792  0.52887971  1.0
  C  C90  1  0.33125429  0.57980254  0.52226087  1.0
  C  C91  1  0.55853405  0.53025025  0.30444064  1.0
  C  C92  1  0.25788109  0.51990974  0.45851374  1.0
  C  C93  1  0.52874436  0.78715488  0.55329020  1.0
  C  C94  1  0.26616635  0.19333078  0.28738385  1.0
  C  C95  1  0.95122662  0.48761425  0.46688077  1.0
  C  C96  1  0.00313009  0.62536657  0.47520654  1.0
  C  C97  1  0.51355384  0.29700778  0.52832602  1.0
  C  C98  1  0.08426103  0.62278995  0.47966815  1.0
  C  C99  1  0.18728936  0.52493971  0.42995212  1.0
  C  C100  1  0.92876172  0.53952656  0.43377044  1.0
  C  C101  1  0.49387505  0.55384664  0.75262031  1.0
  C  C102  1  0.01317546  0.47140826  0.44515918  1.0
  C  C103  1  0.05702426  0.53767426  0.42098775  1.0
  C  C104  1  0.99082556  0.51806118  0.34611405  1.0
  C  C105  1  0.91098317  0.50481214  0.35145863  1.0
  C  C106  1  0.12776643  0.53320553  0.41780678  1.0
  C  C107  1  0.85760137  0.53659602  0.44235924  1.0
  C  C108  1  0.49787473  0.48564594  0.75298825  1.0
  C  C109  1  0.79704247  0.52648757  0.45145443  1.0
  C  C110  1  0.60509508  0.13403979  0.62145320  1.0
  C  C111  1  0.58809691  0.09085695  0.48975026  1.0
  C  C112  1  0.57852095  0.00995891  0.48367247  1.0
  C  C113  1  0.64472386  0.45278115  0.40806203  1.0
  C  C114  1  0.53471977  0.85504228  0.54455721  1.0
  C  C115  1  0.55355439  0.12031236  0.54241327  1.0
  C  C116  1  0.60987993  0.05772810  0.61727575  1.0
  C  C117  1  0.54653520  0.98748357  0.53757199  1.0
  C  C118  1  0.46118039  0.98008276  0.52211398  1.0
  C  C119  1  0.72515930  0.51403449  0.45862931  1.0
  C  C120  1  0.46441808  0.05825191  0.52126695  1.0
  C  C121  1  0.54171443  0.91488316  0.53867083  1.0
  C  C122  1  0.55332262  0.19190201  0.54372650  1.0
  C  C123  1  0.54046977  0.24456908  0.53883547  1.0
  C  C124  1  0.58804830  0.51934150  0.24837256  1.0
  C  C125  1  0.46079561  0.43401553  0.67745929  1.0
  C  C126  1  0.53996641  0.45081765  0.17992991  1.0
  C  C127  1  0.56354794  0.44274347  0.12358983  1.0
  C  C128  1  0.63730903  0.50334804  0.13343580  1.0
  C  C129  1  0.68930045  0.56833165  0.20369305  1.0
  C  C130  1  0.59873798  0.59409869  0.37525161  1.0
  C  C131  1  0.66501354  0.57612490  0.25991987  1.0
  C  C132  1  0.63599648  0.53361306  0.94544324  1.0
  C  C133  1  0.60263413  0.53918801  0.88030012  1.0
  C  C134  1  0.59575157  0.45953755  0.94848899  1.0
  C  C135  1  0.53306965  0.47395399  0.81712938  1.0
  C  C136  1  0.49740017  0.39890134  0.81749770  1.0
  C  C137  1  0.71561152  0.55977072  0.51577603  1.0
  C  C138  1  0.53010211  0.39161787  0.88192439  1.0
  C  C139  1  0.82256926  0.71894999  0.80538773  1.0
  C  C140  1  0.83007752  0.69999553  0.86627929  1.0
  C  C141  1  0.26779756  0.45340779  0.44058057  1.0
  C  C142  1  0.90396260  0.74611435  0.93110091  1.0
  C  C143  1  0.97235104  0.80591650  0.93434206  1.0
  C  C144  1  0.96886907  0.81765875  0.87110830  1.0
  C  C145  1  0.89412098  0.77643881  0.80920817  1.0
  C  C146  1  0.18116966  0.99039226  0.13346950  1.0
  C  C147  1  0.23889230  0.06506936  0.19538226  1.0
  C  C148  1  0.09715178  0.95572497  0.11799982  1.0
  C  C149  1  0.54521740  0.35828908  0.50794895  1.0
  C  C150  1  0.21232213  0.10959127  0.23505706  1.0
  C  C151  1  0.12906325  0.07185070  0.22102793  1.0
  C  C152  1  0.52239562  0.76907511  0.61213581  1.0
  C  C153  1  0.07365988  0.99620837  0.16573580  1.0
  C  C154  1  0.66310385  0.64488312  0.73044079  1.0
  C  C155  1  0.74465798  0.68340708  0.74073564  1.0
  C  C156  1  0.14039503  0.68547780  0.40274894  1.0
  C  C157  1  0.21856609  0.75923163  0.42328902  1.0
  C  C158  1  0.33016409  0.02960928  0.44996299  1.0
  C  C159  1  0.28267817  0.03337833  0.38173741  1.0
  C  C160  1  0.38084205  0.88993064  0.38731720  1.0
  C  C161  1  0.39148715  0.81938244  0.35677646  1.0
  C  C162  1  0.33932096  0.25059475  0.29331400  1.0
  C  C163  1  0.25137318  0.23920735  0.34034410  1.0
  N  N164  1  0.65682569  0.65662620  0.62864671  1.0
  N  N165  1  0.60269457  0.44972455  0.01135116  1.0
  N  N166  1  0.04528152  0.86131609  0.00020395  1.0
  N  N167  1  0.43122856  0.34696120  0.50933647  1.0
  N  N168  1  0.03148018  0.89058167  0.05412003  1.0
  N  N169  1  0.45774676  0.54282592  0.68247092  1.0
  N  N170  1  0.59295272  0.46277223  0.43377678  1.0
  N  N171  1  0.43670084  0.46715030  0.63548377  1.0
  N  N172  1  0.63582099  0.52862835  0.50011776  1.0
  N  N173  1  0.49477257  0.38761337  0.49606048  1.0
  N  N174  1  0.61105571  0.62897565  0.66298148  1.0
  N  N175  1  0.34068746  0.47290621  0.49136412  1.0
  N  N176  1  0.55393991  0.57984097  0.41247533  1.0
  N  N177  1  0.07285948  0.47637153  0.50976110  1.0
  N  N178  1  0.98559170  0.67637524  0.44517364  1.0
  N  N179  1  0.13585885  0.63839233  0.55247038  1.0
  N  N180  1  0.96876946  0.39430577  0.37966475  1.0
  N  N181  1  0.69158730  0.07069599  0.63326002  1.0
  N  N182  1  0.52383912  0.62483502  0.81208625  1.0
  N  N183  1  0.68611932  0.20525030  0.65657995  1.0
  N  N184  1  0.54720478  0.08414839  0.41601850  1.0
  N  N185  1  0.70534789  0.59647140  0.00602109  1.0
  N  N186  1  0.52293771  0.70124489  0.60253843  1.0
  N  N187  1  0.42766608  0.33041412  0.75648108  1.0
  N  N188  1  0.49150814  0.31920646  0.88335534  1.0
  N  N189  1  0.32159845  0.09430646  0.21040320  1.0
  N  N190  1  0.20774752  0.95266154  0.08983827  1.0
  N  N191  1  0.76334252  0.63923741  0.86406040  1.0
  N  N192  1  0.36373929  0.32289004  0.34506190  1.0
  N  N193  1  0.30951125  0.31597952  0.37481246  1.0
  N  N194  1  0.52809040  0.67258251  0.53791096  1.0
  N  N195  1  0.48354544  0.50721844  0.36864573  1.0
  N  N196  1  0.37957628  0.55047730  0.54158677  1.0
  N  N197  1  0.65641143  0.50879660  0.07495427  1.0
  O  O198  1  0.13434764  0.68932553  0.46965599  1.0
  O  O199  1  0.40931169  0.04785031  0.45434375  1.0
  O  O200  1  0.39225189  0.90938822  0.46265741  1.0
