# generated using pymatgen
data_Zr3H15C23NO16
_symmetry_space_group_name_H-M   'P 1'
_cell_length_a   7.84660934
_cell_length_b   18.25051519
_cell_length_c   23.52630746
_cell_angle_alpha   90.64919103
_cell_angle_beta   97.54173426
_cell_angle_gamma   90.26505233
_symmetry_Int_Tables_number   1
_chemical_formula_structural   Zr3H15C23NO16
_chemical_formula_sum   'Zr6 H30 C46 N2 O32'
_cell_volume   3339.65491299
_cell_formula_units_Z   2
loop_
 _symmetry_equiv_pos_site_id
 _symmetry_equiv_pos_as_xyz
  1  'x, y, z'
loop_
 _atom_site_type_symbol
 _atom_site_label
 _atom_site_symmetry_multiplicity
 _atom_site_fract_x
 _atom_site_fract_y
 _atom_site_fract_z
 _atom_site_occupancy
  Zr  Zr0  1  0.98516297  0.10093374  0.92761122  1.0
  Zr  Zr1  1  0.03756842  0.89137993  0.06781361  1.0
  Zr  Zr2  1  0.76168911  0.93427783  0.94025117  1.0
  Zr  Zr3  1  0.25206546  0.05965329  0.05644398  1.0
  Zr  Zr4  1  0.80484832  0.06122793  0.05854564  1.0
  Zr  Zr5  1  0.21514323  0.92818166  0.93810324  1.0
  H  H6  1  0.02935365  0.17784208  0.04691323  1.0
  H  H7  1  0.67744835  0.90919776  0.05242709  1.0
  H  H8  1  0.38878657  0.91514524  0.05434474  1.0
  H  H9  1  0.96149499  0.96810670  0.85095795  1.0
  H  H10  1  0.66526504  0.18680907  0.13418432  1.0
  H  H11  1  0.58188292  0.83190533  0.85882215  1.0
  H  H12  1  0.07796870  0.81254246  0.87924933  1.0
  H  H13  1  0.94010761  0.16327755  0.13912058  1.0
  H  H14  1  0.39694685  0.17629432  0.13075422  1.0
  H  H15  1  0.51367268  0.10473478  0.01709354  1.0
  H  H16  1  0.32812454  0.80861133  0.86022002  1.0
  H  H17  1  0.76019090  0.03387782  0.16662870  1.0
  H  H18  1  0.98127908  0.88274035  0.17404693  1.0
  H  H19  1  0.04899278  0.10941159  0.81985337  1.0
  H  H20  1  0.40313896  0.99436567  0.85864841  1.0
  H  H21  1  0.30859135  0.11265571  0.16426039  1.0
  H  H22  1  0.80210734  0.95109278  0.14149923  1.0
  H  H23  1  0.50183015  0.98758607  0.98137640  1.0
  H  H24  1  0.54868401  0.22887708  0.08779137  1.0
  H  H25  1  0.46400157  0.76624818  0.90137695  1.0
  H  H26  1  0.64211518  0.90704363  0.82910483  1.0
  H  H27  1  0.21938981  0.03785651  0.85614255  1.0
  H  H28  1  0.20146353  0.49790487  0.00864746  1.0
  H  H29  1  0.82340862  0.49623295  0.98250812  1.0
  H  H30  1  0.13147990  0.21172238  0.78595386  1.0
  H  H31  1  0.82847269  0.18351079  0.71860250  1.0
  H  H32  1  0.84751313  0.80837106  0.21931516  1.0
  H  H33  1  0.15210283  0.83063982  0.28784962  1.0
  H  H34  1  0.80361038  0.01512090  0.49682742  1.0
  H  H35  1  0.18322514  0.99695932  0.51150655  1.0
  C  C36  1  0.74605251  0.21855272  0.98123728  1.0
  C  C37  1  0.25731775  0.21993352  0.98732102  1.0
  C  C38  1  0.65044307  0.07086143  0.83398932  1.0
  C  C39  1  0.77533276  0.77296370  0.99933839  1.0
  C  C40  1  0.27035719  0.77393280  0.01429548  1.0
  C  C41  1  0.34449958  0.94529576  0.16620232  1.0
  C  C42  1  0.42029079  0.43062291  0.99749532  1.0
  C  C43  1  0.59960796  0.43012466  0.99067550  1.0
  C  C44  1  0.68800545  0.49655421  0.98834721  1.0
  C  C45  1  0.60431030  0.56338456  0.99339876  1.0
  C  C46  1  0.42602190  0.56382148  0.00129602  1.0
  C  C47  1  0.33699194  0.49741874  0.00299150  1.0
  C  C48  1  0.23849474  0.13543750  0.72736514  1.0
  C  C49  1  0.11108536  0.17776492  0.74752213  1.0
  C  C50  1  0.95441575  0.16262675  0.71291349  1.0
  C  C51  1  0.98428690  0.11309729  0.66965573  1.0
  C  C52  1  0.74689845  0.88570399  0.27835629  1.0
  C  C53  1  0.87079404  0.84154805  0.25810430  1.0
  C  C54  1  0.02790838  0.85358807  0.29331624  1.0
  C  C55  1  0.00142397  0.90285534  0.33714952  1.0
  C  C56  1  0.61016987  0.03239545  0.55206230  1.0
  C  C57  1  0.42967857  0.02751845  0.55616730  1.0
  C  C58  1  0.32006227  0.00121674  0.50823053  1.0
  C  C59  1  0.37666390  0.97985421  0.45624575  1.0
  C  C60  1  0.55700501  0.98516192  0.45205507  1.0
  C  C61  1  0.66678881  0.01090921  0.50012130  1.0
  C  C62  1  0.63722998  0.96506062  0.40368237  1.0
  C  C63  1  0.73181112  0.94883810  0.36831873  1.0
  C  C64  1  0.24959807  0.95402402  0.41237222  1.0
  C  C65  1  0.12432129  0.93177273  0.37992192  1.0
  C  C66  1  0.34949293  0.04931747  0.60415983  1.0
  C  C67  1  0.25567481  0.06809810  0.63908534  1.0
  C  C68  1  0.86250259  0.08199680  0.62760726  1.0
  C  C69  1  0.73718231  0.05870425  0.59571237  1.0
  C  C70  1  0.33741855  0.36170506  0.99666213  1.0
  C  C71  1  0.29600258  0.29720943  0.99352191  1.0
  C  C72  1  0.73402004  0.69585206  0.99296319  1.0
  C  C73  1  0.68710660  0.63208986  0.99218873  1.0
  C  C74  1  0.30833454  0.69683003  0.01113720  1.0
  C  C75  1  0.34919670  0.63280855  0.00728033  1.0
  C  C76  1  0.67662592  0.36090097  0.98606474  1.0
  C  C77  1  0.71295641  0.29615271  0.98387630  1.0
  C  C78  1  0.46462642  0.92584713  0.21555165  1.0
  C  C79  1  0.58809883  0.90619702  0.24894951  1.0
  C  C80  1  0.52710961  0.09833134  0.78812534  1.0
  C  C81  1  0.39981058  0.11736483  0.75626901  1.0
  N  N82  1  0.16286726  0.09779105  0.67753986  1.0
  N  N83  1  0.82434368  0.92111307  0.32897728  1.0
  O  O84  1  0.11826111  0.10427426  0.85699191  1.0
  O  O85  1  0.82019771  0.19617013  0.93953495  1.0
  O  O86  1  0.78265321  0.10956091  0.85035639  1.0
  O  O87  1  0.33144222  0.17783013  0.02584064  1.0
  O  O88  1  0.61516495  0.00948982  0.85562603  1.0
  O  O89  1  0.15195835  0.20044461  0.94441884  1.0
  O  O90  1  0.70009782  0.17945732  0.02117699  1.0
  O  O91  1  0.80625731  0.04108314  0.96880834  1.0
  O  O92  1  0.02059090  0.12774274  0.03253733  1.0
  O  O93  1  0.96272718  0.97859407  0.89160658  1.0
  O  O94  1  0.18520974  0.04097833  0.96937359  1.0
  O  O95  1  0.52204059  0.05928878  0.03956326  1.0
  O  O96  1  0.55924826  0.21832164  0.12883050  1.0
  O  O97  1  0.03770959  0.00553734  0.07775986  1.0
  O  O98  1  0.76551490  0.93715616  0.03681357  1.0
  O  O99  1  0.00173032  0.89831464  0.97802134  1.0
  O  O100  1  0.28534586  0.94029286  0.03826764  1.0
  O  O101  1  0.49433790  0.94571220  0.95381096  1.0
  O  O102  1  0.70951828  0.81483556  0.95937081  1.0
  O  O103  1  0.86959365  0.79201357  0.04502938  1.0
  O  O104  1  0.27881517  0.98665099  0.86065690  1.0
  O  O105  1  0.20394072  0.79610525  0.05801475  1.0
  O  O106  1  0.68189505  0.87190098  0.85887690  1.0
  O  O107  1  0.15179524  0.85327398  0.87165961  1.0
  O  O108  1  0.44115679  0.78142997  0.86136784  1.0
  O  O109  1  0.30791375  0.81307787  0.97331967  1.0
  O  O110  1  0.90134752  0.88443937  0.13878241  1.0
  O  O111  1  0.28506279  0.14370956  0.13055369  1.0
  O  O112  1  0.23865566  0.89525960  0.14625803  1.0
  O  O113  1  0.35823788  0.00879360  0.14497687  1.0
  O  O114  1  0.83844997  0.13269925  0.12976408  1.0
  O  O115  1  0.73067763  0.99979432  0.13458538  1.0
