# generated using pymatgen
data_Zn4H46C73N20
_symmetry_space_group_name_H-M   'P 1'
_cell_length_a   19.75202138
_cell_length_b   20.24999876
_cell_length_c   21.53724899
_cell_angle_alpha   105.01669877
_cell_angle_beta   108.95493247
_cell_angle_gamma   111.70612671
_symmetry_Int_Tables_number   1
_chemical_formula_structural   Zn4H46C73N20
_chemical_formula_sum   'Zn4 H46 C73 N20'
_cell_volume   6828.34999384
_cell_formula_units_Z   1
loop_
 _symmetry_equiv_pos_site_id
 _symmetry_equiv_pos_as_xyz
  1  'x, y, z'
loop_
 _atom_site_type_symbol
 _atom_site_label
 _atom_site_symmetry_multiplicity
 _atom_site_fract_x
 _atom_site_fract_y
 _atom_site_fract_z
 _atom_site_occupancy
  Zn  Zn0  1  0.40617010  0.40024417  0.49595344  1.0
  Zn  Zn1  1  0.63093595  0.63610090  0.53217685  1.0
  Zn  Zn2  1  0.42497218  0.49296861  0.38648125  1.0
  Zn  Zn3  1  0.61029586  0.51642396  0.62023242  1.0
  H  H4  1  0.21508045  0.24833231  0.38785387  1.0
  H  H5  1  0.23700012  0.47387497  0.34627697  1.0
  H  H6  1  0.69391396  0.66559905  0.78933880  1.0
  H  H7  1  0.64519421  0.77770476  0.64736351  1.0
  H  H8  1  0.30951605  0.46453460  0.55513749  1.0
  H  H9  1  0.59201285  0.53213758  0.75871824  1.0
  H  H10  1  0.38121254  0.62939532  0.38364661  1.0
  H  H11  1  0.42943690  0.98242757  0.29773462  1.0
  H  H12  1  0.56350789  0.95453455  0.34523689  1.0
  H  H13  1  0.35965702  0.89945083  0.36857812  1.0
  H  H14  1  0.70781331  0.56911411  0.43437768  1.0
  H  H15  1  0.44647714  0.04237580  0.49650727  1.0
  H  H16  1  0.58094343  0.01419899  0.54445715  1.0
  H  H17  1  0.65072712  0.09753020  0.47316259  1.0
  H  H18  1  0.83708480  0.29006391  0.38735654  1.0
  H  H19  1  0.91067229  0.34664126  0.30563991  1.0
  H  H20  1  0.99537590  0.36519892  0.50843660  1.0
  H  H21  1  0.98276316  0.50260896  0.55668491  1.0
  H  H22  1  0.05720120  0.55979192  0.47456933  1.0
  H  H23  1  0.41812297  0.32342616  0.13730056  1.0
  H  H24  1  0.43181311  0.36416979  0.26773342  1.0
  H  H25  1  0.42111146  0.28680123  0.01929257  1.0
  H  H26  1  0.35462142  0.29050140  0.82913299  1.0
  H  H27  1  0.34551873  0.32449382  0.72473902  1.0
  H  H28  1  0.67769885  0.49333477  0.24665554  1.0
  H  H29  1  0.61900120  0.41961218  0.92958946  1.0
  H  H30  1  0.67994319  0.45592113  0.12786476  1.0
  H  H31  1  0.61131927  0.45203718  0.82480660  1.0
  H  H32  1  0.69685807  0.76435040  0.88021648  1.0
  H  H33  1  0.77794867  0.88809398  0.99391960  1.0
  H  H34  1  0.95963473  0.02796612  0.18029987  1.0
  H  H35  1  0.62503580  0.34028534  0.59945743  1.0
  H  H36  1  0.10150572  0.12678709  0.28041773  1.0
  H  H37  1  0.98100834  0.17157391  0.06412338  1.0
  H  H38  1  0.79990367  0.02329601  0.87027786  1.0
  H  H39  1  0.12223458  0.27171225  0.16433984  1.0
  H  H40  1  0.63888903  0.57900236  0.31114987  1.0
  H  H41  1  0.43801658  0.28877767  0.39136600  1.0
  H  H42  1  0.72336937  0.45062048  0.57485133  1.0
  H  H43  1  0.27634716  0.32115596  0.23218197  1.0
  H  H44  1  0.35496927  0.32319992  0.60767232  1.0
  H  H45  1  0.68849546  0.82427868  0.47924252  1.0
  H  H46  1  0.66824248  0.86738047  0.54872204  1.0
  H  H47  1  0.71183661  0.80510746  0.55733304  1.0
  H  H48  1  0.89792465  0.48365010  0.35300541  1.0
  H  H49  1  0.72189879  0.90016628  0.75589229  1.0
  C  C50  1  0.24356157  0.27416350  0.35838700  1.0
  C  C51  1  0.73373265  0.49576999  0.49153751  1.0
  C  C52  1  0.54011025  0.45200064  0.26389388  1.0
  C  C53  1  0.53188642  0.28352932  0.48085666  1.0
  C  C54  1  0.41335970  0.37795438  0.63549579  1.0
  C  C55  1  0.58275437  0.74435084  0.48128501  1.0
  C  C56  1  0.26836220  0.47441761  0.39834332  1.0
  C  C57  1  0.67844547  0.68186029  0.74459125  1.0
  C  C58  1  0.65485673  0.74008893  0.67302483  1.0
  C  C59  1  0.30526237  0.46989584  0.50532412  1.0
  C  C60  1  0.53477450  0.48381507  0.71198213  1.0
  C  C61  1  0.70704111  0.54737417  0.47521773  1.0
  C  C62  1  0.44775284  0.65903180  0.41611953  1.0
  C  C63  1  0.47472384  0.41620495  0.70862922  1.0
  C  C64  1  0.50669287  0.73808130  0.43995918  1.0
  C  C65  1  0.23867508  0.46285790  0.44828535  1.0
  C  C66  1  0.67820265  0.75172550  0.74562620  1.0
  C  C67  1  0.53773251  0.97468298  0.37907101  1.0
  C  C68  1  0.46315111  0.98933561  0.35267407  1.0
  C  C69  1  0.52641850  0.20975118  0.45235921  1.0
  C  C70  1  0.49694335  0.79966575  0.42762632  1.0
  C  C71  1  0.58610432  0.05288035  0.45025412  1.0
  C  C72  1  0.48079573  0.42355538  0.28657314  1.0
  C  C73  1  0.51173687  0.06940251  0.42415859  1.0
  C  C74  1  0.54751955  0.00814551  0.48981691  1.0
  C  C75  1  0.49902156  0.92772917  0.41866900  1.0
  C  C76  1  0.47260744  0.02192591  0.46321050  1.0
  C  C77  1  0.42444866  0.94392689  0.39199330  1.0
  C  C78  1  0.51978431  0.14439598  0.43393178  1.0
  C  C79  1  0.49563601  0.85712189  0.42035379  1.0
  C  C80  1  0.92663793  0.38167431  0.36153934  1.0
  C  C81  1  0.88627249  0.35020561  0.40697578  1.0
  C  C82  1  0.77534659  0.46378927  0.46315069  1.0
  C  C83  1  0.57986912  0.34029371  0.55429021  1.0
  C  C84  1  0.15977451  0.44600007  0.44049449  1.0
  C  C85  1  0.92063527  0.45792992  0.38795605  1.0
  C  C86  1  0.87924921  0.42711887  0.43393500  1.0
  C  C87  1  0.00740077  0.50019349  0.45547804  1.0
  C  C88  1  0.01563404  0.42407832  0.42916000  1.0
  C  C89  1  0.96821449  0.46841636  0.50106882  1.0
  C  C90  1  0.97350374  0.39199056  0.47426487  1.0
  C  C91  1  0.81631493  0.43898807  0.44374135  1.0
  C  C92  1  0.09033119  0.42996087  0.43168919  1.0
  C  C93  1  0.47779698  0.39201640  0.76735882  1.0
  C  C94  1  0.58752754  0.53382082  0.31129961  1.0
  C  C95  1  0.55459599  0.41707742  0.82570280  1.0
  C  C96  1  0.55962314  0.39844461  0.88396532  1.0
  C  C97  1  0.48698919  0.35311751  0.88585637  1.0
  C  C98  1  0.41030950  0.32498356  0.82667719  1.0
  C  C99  1  0.40576387  0.34423076  0.76855565  1.0
  C  C100  1  0.47704613  0.33141477  0.06952799  1.0
  C  C101  1  0.47592002  0.35215948  0.13555535  1.0
  C  C102  1  0.54988994  0.37258232  0.06588001  1.0
  C  C103  1  0.54646332  0.41501922  0.19991295  1.0
  C  C104  1  0.62127257  0.44810448  0.19690758  1.0
  C  C105  1  0.48475839  0.31373268  0.44731331  1.0
  C  C106  1  0.62315094  0.42707290  0.13102934  1.0
  C  C107  1  0.12305717  0.20600709  0.22924547  1.0
  C  C108  1  0.08678447  0.21807134  0.16789694  1.0
  C  C109  1  0.00781108  0.16309944  0.11223657  1.0
  C  C110  1  0.96177659  0.09329542  0.11605529  1.0
  C  C111  1  0.99572680  0.08254743  0.17847728  1.0
  C  C112  1  0.07481392  0.13787405  0.23399410  1.0
  C  C113  1  0.76427206  0.88968881  0.94126609  1.0
  C  C114  1  0.71998128  0.82093968  0.87746686  1.0
  C  C115  1  0.79714866  0.96341037  0.93924056  1.0
  C  C116  1  0.71431464  0.48696305  0.54749799  1.0
  C  C117  1  0.70745416  0.82275147  0.80956295  1.0
  C  C118  1  0.73240647  0.89661089  0.80757632  1.0
  C  C119  1  0.77612021  0.96587606  0.87131077  1.0
  C  C120  1  0.27490505  0.31268003  0.27967975  1.0
  C  C121  1  0.20807517  0.26100373  0.28516748  1.0
  C  C122  1  0.66719677  0.81373019  0.51885131  1.0
  N  N123  1  0.32392556  0.32892098  0.39240639  1.0
  N  N124  1  0.56753582  0.67335868  0.48005374  1.0
  N  N125  1  0.34546075  0.48652171  0.42421824  1.0
  N  N126  1  0.65895360  0.63391871  0.67766681  1.0
  N  N127  1  0.64386933  0.66989730  0.63300795  1.0
  N  N128  1  0.36929150  0.48359138  0.49018160  1.0
  N  N129  1  0.51166835  0.48523547  0.64615262  1.0
  N  N130  1  0.48503574  0.62052985  0.44021603  1.0
  N  N131  1  0.48399547  0.34009508  0.94631789  1.0
  N  N132  1  0.55397722  0.37207598  0.00182478  1.0
  N  N133  1  0.88793916  0.02762366  0.05847197  1.0
  N  N134  1  0.67526220  0.56755205  0.51895922  1.0
  N  N135  1  0.85932208  0.03524322  0.00023857  1.0
  N  N136  1  0.49361864  0.48498450  0.34245838  1.0
  N  N137  1  0.56108695  0.39799020  0.56335307  1.0
  N  N138  1  0.55947902  0.55361545  0.35757289  1.0
  N  N139  1  0.50223755  0.38209032  0.49730688  1.0
  N  N140  1  0.67966999  0.53018032  0.56372761  1.0
  N  N141  1  0.34433627  0.35310167  0.34394361  1.0
  N  N142  1  0.43658030  0.41920237  0.59906245  1.0
