# generated using pymatgen
data_InH11C18O7
_symmetry_space_group_name_H-M   'P 1'
_cell_length_a   7.34145398
_cell_length_b   32.26324111
_cell_length_c   32.26321360
_cell_angle_alpha   59.99997030
_cell_angle_beta   89.99988249
_cell_angle_gamma   90.00011605
_symmetry_Int_Tables_number   1
_chemical_formula_structural   InH11C18O7
_chemical_formula_sum   'In6 H66 C108 O42'
_cell_volume   6618.02189417
_cell_formula_units_Z   6
loop_
 _symmetry_equiv_pos_site_id
 _symmetry_equiv_pos_as_xyz
  1  'x, y, z'
loop_
 _atom_site_type_symbol
 _atom_site_label
 _atom_site_symmetry_multiplicity
 _atom_site_fract_x
 _atom_site_fract_y
 _atom_site_fract_z
 _atom_site_occupancy
  In  In0  1  0.00000049  0.50000011  0.99999996  1.0
  In  In1  1  0.99999900  0.00000004  0.49999996  1.0
  In  In2  1  0.00000041  0.50000018  0.49999980  1.0
  In  In3  1  0.49999954  0.49999998  0.99999991  1.0
  In  In4  1  0.49999995  0.00000017  0.49999970  1.0
  In  In5  1  0.49999946  0.50000006  0.49999974  1.0
  H  H6  1  0.74999880  0.56251195  0.00000367  1.0
  H  H7  1  0.74999975  0.99999995  0.43748614  1.0
  H  H8  1  0.74999940  0.43748816  0.56251575  1.0
  H  H9  1  0.24999974  0.43748803  0.99999622  1.0
  H  H10  1  0.25000014  0.00000001  0.56251407  1.0
  H  H11  1  0.25000049  0.56251218  0.43748396  1.0
  H  H12  1  0.04260307  0.51089432  0.86485869  1.0
  H  H13  1  0.04260574  0.86485909  0.62424703  1.0
  H  H14  1  0.04260517  0.62424781  0.51089440  1.0
  H  H15  1  0.54260706  0.48910546  0.13514201  1.0
  H  H16  1  0.54260439  0.13514284  0.37575229  1.0
  H  H17  1  0.54260359  0.37575268  0.48910595  1.0
  H  H18  1  0.45739460  0.13514166  0.48910553  1.0
  H  H19  1  0.45739455  0.37575178  0.13514261  1.0
  H  H20  1  0.45739805  0.48910564  0.37575251  1.0
  H  H21  1  0.95739643  0.86485815  0.51089373  1.0
  H  H22  1  0.95739511  0.62424767  0.86485838  1.0
  H  H23  1  0.95739433  0.51089489  0.62424732  1.0
  H  H24  1  0.95739683  0.48910529  0.13514200  1.0
  H  H25  1  0.95739552  0.13514160  0.37575220  1.0
  H  H26  1  0.95739472  0.37575215  0.48910550  1.0
  H  H27  1  0.45739284  0.51089523  0.86485814  1.0
  H  H28  1  0.45739414  0.86485749  0.62424742  1.0
  H  H29  1  0.45739630  0.62424729  0.51089456  1.0
  H  H30  1  0.54260530  0.86485832  0.51089498  1.0
  H  H31  1  0.54260534  0.62424748  0.86485733  1.0
  H  H32  1  0.54260456  0.51089433  0.62424770  1.0
  H  H33  1  0.04260347  0.13514111  0.48910652  1.0
  H  H34  1  0.04260342  0.37575301  0.13514116  1.0
  H  H35  1  0.04260692  0.48910545  0.37575270  1.0
  H  H36  1  0.04242518  0.54453372  0.77548204  1.0
  H  H37  1  0.04242801  0.77548183  0.67998481  1.0
  H  H38  1  0.04242547  0.67998531  0.54453376  1.0
  H  H39  1  0.54242534  0.45546641  0.22451880  1.0
  H  H40  1  0.54242388  0.22451903  0.32001504  1.0
  H  H41  1  0.54242778  0.32001554  0.45546641  1.0
  H  H42  1  0.45757359  0.22451855  0.45546523  1.0
  H  H43  1  0.45757506  0.32001457  0.22451968  1.0
  H  H44  1  0.45757659  0.45546596  0.32001542  1.0
  H  H45  1  0.95757295  0.77548161  0.54453323  1.0
  H  H46  1  0.95757148  0.67998524  0.77548113  1.0
  H  H47  1  0.95757403  0.54453420  0.67998490  1.0
  H  H48  1  0.95757607  0.45546588  0.22451866  1.0
  H  H49  1  0.95757189  0.22451850  0.32001490  1.0
  H  H50  1  0.95757443  0.32001466  0.45546614  1.0
  H  H51  1  0.45757455  0.54453428  0.77548104  1.0
  H  H52  1  0.45757465  0.77548095  0.67998485  1.0
  H  H53  1  0.45757212  0.67998479  0.54453392  1.0
  H  H54  1  0.54242631  0.77548142  0.54453435  1.0
  H  H55  1  0.54242347  0.67998505  0.77548101  1.0
  H  H56  1  0.54242602  0.54453401  0.67998478  1.0
  H  H57  1  0.04242558  0.22451800  0.45546653  1.0
  H  H58  1  0.04242705  0.32001616  0.22451836  1.0
  H  H59  1  0.04242722  0.45546612  0.32001482  1.0
  H  H60  1  0.74999989  0.61446094  0.63001808  1.0
  H  H61  1  0.75000075  0.63001842  0.75552116  1.0
  H  H62  1  0.75000195  0.75552141  0.61446061  1.0
  H  H63  1  0.24999865  0.38553903  0.36998212  1.0
  H  H64  1  0.24999914  0.36998192  0.24447886  1.0
  H  H65  1  0.25000067  0.24447857  0.38553897  1.0
  H  H66  1  0.75000028  0.36998171  0.38553950  1.0
  H  H67  1  0.75000251  0.24447844  0.36998219  1.0
  H  H68  1  0.75000099  0.38553897  0.24447904  1.0
  H  H69  1  0.24999825  0.63001791  0.61446057  1.0
  H  H70  1  0.24999874  0.75552153  0.63001739  1.0
  H  H71  1  0.24999891  0.61446099  0.75552117  1.0
  C  C72  1  0.75000620  0.49405507  0.92203803  1.0
  C  C73  1  0.75000555  0.92203750  0.58390617  1.0
  C  C74  1  0.74999628  0.58390677  0.49405544  1.0
  C  C75  1  0.24999233  0.50594490  0.07796218  1.0
  C  C76  1  0.24999434  0.07796318  0.41609306  1.0
  C  C77  1  0.25000362  0.41609321  0.50594445  1.0
  C  C78  1  0.75000524  0.07796158  0.50594530  1.0
  C  C79  1  0.75000460  0.41609333  0.07796273  1.0
  C  C80  1  0.74999939  0.50594458  0.41609314  1.0
  C  C81  1  0.24999465  0.92203768  0.49405557  1.0
  C  C82  1  0.24999393  0.58390664  0.92203717  1.0
  C  C83  1  0.25000323  0.49405504  0.58390693  1.0
  C  C84  1  0.74999697  0.50921251  0.86999380  1.0
  C  C85  1  0.75000107  0.86999313  0.62079369  1.0
  C  C86  1  0.74999910  0.62079477  0.50921223  1.0
  C  C87  1  0.25000156  0.49078710  0.13000659  1.0
  C  C88  1  0.24999746  0.13000756  0.37920584  1.0
  C  C89  1  0.24999943  0.37920485  0.49078846  1.0
  C  C90  1  0.75000009  0.13000593  0.49078811  1.0
  C  C91  1  0.74999875  0.37920565  0.13000739  1.0
  C  C92  1  0.75000357  0.49078718  0.37920603  1.0
  C  C93  1  0.25000116  0.86999333  0.50921214  1.0
  C  C94  1  0.24999978  0.62079361  0.86999286  1.0
  C  C95  1  0.24999905  0.50921243  0.62079404  1.0
  C  C96  1  0.91525458  0.51802374  0.84508925  1.0
  C  C97  1  0.91525562  0.84509018  0.63688551  1.0
  C  C98  1  0.91525522  0.63688708  0.51802331  1.0
  C  C99  1  0.41525614  0.48197566  0.15491116  1.0
  C  C100  1  0.41525374  0.15491102  0.36311369  1.0
  C  C101  1  0.41525549  0.36311376  0.48197607  1.0
  C  C102  1  0.58474279  0.15490960  0.48197698  1.0
  C  C103  1  0.58474520  0.36311331  0.15491119  1.0
  C  C104  1  0.58474615  0.48197634  0.36311261  1.0
  C  C105  1  0.08474492  0.84509022  0.51802276  1.0
  C  C106  1  0.08474387  0.63688687  0.84508898  1.0
  C  C107  1  0.08474428  0.51802384  0.63688695  1.0
  C  C108  1  0.08474532  0.48197587  0.15491113  1.0
  C  C109  1  0.08474428  0.15491086  0.36311323  1.0
  C  C110  1  0.08474467  0.36311288  0.48197659  1.0
  C  C111  1  0.58474375  0.51802430  0.84508905  1.0
  C  C112  1  0.58474615  0.84508895  0.63688682  1.0
  C  C113  1  0.58474440  0.63688693  0.51802346  1.0
  C  C114  1  0.41525574  0.84508930  0.51802376  1.0
  C  C115  1  0.41525197  0.63688630  0.84508919  1.0
  C  C116  1  0.41525511  0.51802363  0.63688729  1.0
  C  C117  1  0.91525498  0.15490939  0.48197670  1.0
  C  C118  1  0.91525602  0.36311346  0.15491042  1.0
  C  C119  1  0.91525834  0.48197578  0.36311281  1.0
  C  C120  1  0.91605445  0.53690692  0.79570836  1.0
  C  C121  1  0.91605483  0.79570823  0.66738498  1.0
  C  C122  1  0.91605348  0.66738514  0.53690695  1.0
  C  C123  1  0.41605404  0.46309321  0.20429169  1.0
  C  C124  1  0.41605367  0.20429226  0.33261458  1.0
  C  C125  1  0.41605501  0.33261463  0.46309328  1.0
  C  C126  1  0.58394625  0.20429154  0.46309322  1.0
  C  C127  1  0.58394527  0.33261413  0.20429255  1.0
  C  C128  1  0.58394800  0.46309321  0.33261489  1.0
  C  C129  1  0.08394504  0.79570827  0.53690621  1.0
  C  C130  1  0.08394602  0.66738568  0.79570781  1.0
  C  C131  1  0.08394602  0.53690697  0.66738467  1.0
  C  C132  1  0.08394680  0.46309306  0.20429184  1.0
  C  C133  1  0.08394643  0.20429246  0.33261425  1.0
  C  C134  1  0.08394641  0.33261448  0.46309312  1.0
  C  C135  1  0.58394721  0.53690747  0.79570847  1.0
  C  C136  1  0.58394623  0.79570808  0.66738482  1.0
  C  C137  1  0.58394624  0.66738535  0.53690723  1.0
  C  C138  1  0.41605364  0.79570807  0.53690685  1.0
  C  C139  1  0.41605326  0.66738547  0.79570722  1.0
  C  C140  1  0.41605326  0.53690676  0.66738501  1.0
  C  C141  1  0.91605349  0.20429169  0.46309338  1.0
  C  C142  1  0.91605251  0.33261465  0.20429252  1.0
  C  C143  1  0.91605523  0.46309301  0.33261522  1.0
  C  C144  1  0.75000031  0.54706584  0.77153660  1.0
  C  C145  1  0.75000308  0.77153667  0.68139777  1.0
  C  C146  1  0.74999920  0.68139826  0.54706548  1.0
  C  C147  1  0.25000095  0.45293414  0.22846391  1.0
  C  C148  1  0.24999681  0.22846402  0.31860145  1.0
  C  C149  1  0.25000070  0.31860170  0.45293442  1.0
  C  C150  1  0.74999934  0.22846275  0.45293484  1.0
  C  C151  1  0.75000076  0.31860171  0.22846379  1.0
  C  C152  1  0.75000231  0.45293431  0.31860197  1.0
  C  C153  1  0.24999919  0.77153651  0.54706541  1.0
  C  C154  1  0.24999777  0.68139862  0.77153593  1.0
  C  C155  1  0.24999894  0.54706601  0.68139775  1.0
  C  C156  1  0.75000097  0.61751200  0.69540932  1.0
  C  C157  1  0.75000135  0.69540960  0.68707895  1.0
  C  C158  1  0.75000163  0.68707916  0.61751190  1.0
  C  C159  1  0.24999893  0.38248832  0.30459071  1.0
  C  C160  1  0.24999854  0.30459073  0.31292108  1.0
  C  C161  1  0.24999963  0.31292080  0.38248831  1.0
  C  C162  1  0.75000545  0.30459020  0.38248838  1.0
  C  C163  1  0.75000584  0.31292072  0.30459116  1.0
  C  C164  1  0.75000475  0.38248783  0.31292138  1.0
  C  C165  1  0.24999581  0.69540941  0.61751138  1.0
  C  C166  1  0.24999542  0.68707925  0.69540874  1.0
  C  C167  1  0.24999514  0.61751213  0.68707852  1.0
  C  C168  1  0.74999856  0.63741949  0.64571030  1.0
  C  C169  1  0.75000099  0.64571020  0.71687083  1.0
  C  C170  1  0.75000167  0.71687073  0.63741921  1.0
  C  C171  1  0.24999861  0.36258049  0.35428990  1.0
  C  C172  1  0.24999754  0.35428978  0.28312937  1.0
  C  C173  1  0.24999958  0.28312960  0.36258051  1.0
  C  C174  1  0.75000440  0.35428960  0.36258113  1.0
  C  C175  1  0.75000548  0.28312947  0.35428990  1.0
  C  C176  1  0.75000343  0.36258040  0.28312984  1.0
  C  C177  1  0.24999550  0.64571037  0.63741907  1.0
  C  C178  1  0.24999578  0.71687085  0.64570951  1.0
  C  C179  1  0.24999510  0.63741958  0.71687036  1.0
  O  O180  1  0.90488957  0.48864870  0.94206090  1.0
  O  O181  1  0.90488784  0.94206136  0.56928988  1.0
  O  O182  1  0.90489879  0.56928914  0.48864944  1.0
  O  O183  1  0.40490182  0.51135321  0.05793702  1.0
  O  O184  1  0.40490492  0.05793947  0.43071075  1.0
  O  O185  1  0.40489259  0.43070990  0.51135116  1.0
  O  O186  1  0.59509576  0.05793737  0.51135159  1.0
  O  O187  1  0.59509402  0.43071168  0.05793941  1.0
  O  O188  1  0.59510905  0.51135164  0.43070937  1.0
  O  O189  1  0.09511128  0.94206138  0.48864837  1.0
  O  O190  1  0.09511165  0.56928994  0.94206097  1.0
  O  O191  1  0.09510344  0.48864747  0.56929041  1.0
  O  O192  1  0.09511032  0.51135163  0.05793912  1.0
  O  O193  1  0.09511070  0.05793898  0.43070983  1.0
  O  O194  1  0.09509974  0.43071083  0.51135077  1.0
  O  O195  1  0.59509808  0.48864713  0.94206300  1.0
  O  O196  1  0.59509498  0.94206157  0.56928861  1.0
  O  O197  1  0.59510594  0.56929043  0.48864855  1.0
  O  O198  1  0.40490414  0.94206189  0.48864897  1.0
  O  O199  1  0.40490314  0.56928865  0.94206061  1.0
  O  O200  1  0.40489357  0.48864761  0.56929089  1.0
  O  O201  1  0.90488862  0.05793858  0.51135153  1.0
  O  O202  1  0.90488688  0.43071004  0.05793861  1.0
  O  O203  1  0.90489918  0.51135215  0.43070997  1.0
  O  O204  1  0.74999785  0.53248308  0.99999907  1.0
  O  O205  1  0.74999826  0.00000030  0.46751707  1.0
  O  O206  1  0.75000005  0.46751681  0.53248242  1.0
  O  O207  1  0.25000205  0.46751689  0.00000082  1.0
  O  O208  1  0.25000164  0.00000003  0.53248264  1.0
  O  O209  1  0.24999984  0.53248315  0.46751779  1.0
  O  O210  1  0.75000199  0.56792713  0.72174316  1.0
  O  O211  1  0.75000273  0.72174313  0.71033012  1.0
  O  O212  1  0.75000059  0.71033051  0.56792657  1.0
  O  O213  1  0.24999791  0.43207285  0.27825735  1.0
  O  O214  1  0.24999853  0.27825719  0.28966960  1.0
  O  O215  1  0.25000339  0.28966946  0.43207332  1.0
  O  O216  1  0.75000102  0.27825627  0.43207330  1.0
  O  O217  1  0.75000177  0.28966979  0.27825730  1.0
  O  O218  1  0.75000235  0.43207271  0.28967030  1.0
  O  O219  1  0.24999887  0.72174334  0.56792646  1.0
  O  O220  1  0.24999949  0.71033055  0.72174241  1.0
  O  O221  1  0.24999754  0.56792726  0.71032990  1.0
