# generated using pymatgen
data_Zn6H29C40(NO10)3
_symmetry_space_group_name_H-M   'P 1'
_cell_length_a   18.76751095
_cell_length_b   18.80842159
_cell_length_c   18.82306961
_cell_angle_alpha   109.20023392
_cell_angle_beta   108.95925687
_cell_angle_gamma   109.50444650
_symmetry_Int_Tables_number   1
_chemical_formula_structural   Zn6H29C40(NO10)3
_chemical_formula_sum   'Zn6 H29 C40 N3 O30'
_cell_volume   5161.48173332
_cell_formula_units_Z   1
loop_
 _symmetry_equiv_pos_site_id
 _symmetry_equiv_pos_as_xyz
  1  'x, y, z'
loop_
 _atom_site_type_symbol
 _atom_site_label
 _atom_site_symmetry_multiplicity
 _atom_site_fract_x
 _atom_site_fract_y
 _atom_site_fract_z
 _atom_site_occupancy
  Zn  Zn0  1  0.93928334  0.49400940  0.94321491  1.0
  Zn  Zn1  1  0.07152155  0.51699844  0.07848765  1.0
  Zn  Zn2  1  0.50294389  0.06313133  0.06106625  1.0
  Zn  Zn3  1  0.50134922  0.94371503  0.93217808  1.0
  Zn  Zn4  1  0.93391594  0.94778387  0.51112219  1.0
  Zn  Zn5  1  0.06108242  0.06836868  0.50956987  1.0
  H  H6  1  0.71461578  0.33998245  0.94578535  1.0
  H  H7  1  0.78209046  0.37449647  0.05469351  1.0
  H  H8  1  0.66833081  0.26549605  0.04697574  1.0
  H  H9  1  0.60623087  0.22404038  0.93500564  1.0
  H  H10  1  0.61806847  0.11224617  0.82906936  1.0
  H  H11  1  0.89230975  0.24794524  0.02489223  1.0
  H  H12  1  0.88425161  0.32661967  0.09832946  1.0
  H  H13  1  0.77892982  0.21903725  0.10091731  1.0
  H  H14  1  0.78609574  0.13908018  0.02607321  1.0
  H  H15  1  0.03081409  0.80292615  0.34596829  1.0
  H  H16  1  0.86599495  0.63984114  0.11383036  1.0
  H  H17  1  0.03442145  0.69032487  0.26831816  1.0
  H  H18  1  0.33306663  0.86881407  0.07821090  1.0
  H  H19  1  0.27482644  0.72635384  0.89861921  1.0
  H  H20  1  0.24656161  0.74197956  0.08942474  1.0
  H  H21  1  0.11769179  0.68088278  0.90271507  1.0
  H  H22  1  0.05428613  0.26423189  0.69308567  1.0
  H  H23  1  0.96322994  0.14167969  0.74929846  1.0
  H  H24  1  0.01694129  0.36063721  0.78718982  1.0
  H  H25  1  0.09200264  0.29981739  0.91182609  1.0
  H  H26  1  0.31405829  0.09294796  0.68252239  1.0
  H  H27  1  0.39261414  0.03761295  0.77168627  1.0
  H  H28  1  0.30834192  0.09589574  0.87832099  1.0
  H  H29  1  0.86897614  0.08279375  0.30851969  1.0
  H  H30  1  0.66419763  0.06791728  0.29809875  1.0
  H  H31  1  0.71654148  0.98340374  0.16843720  1.0
  H  H32  1  0.69253883  0.07771769  0.86461346  1.0
  H  H33  1  0.17609171  0.99359767  0.71992830  1.0
  H  H34  1  0.75235608  0.01615620  0.38157484  1.0
  C  C35  1  0.99705658  0.60475161  0.13658962  1.0
  C  C36  1  0.87196883  0.36714931  0.97311979  1.0
  C  C37  1  0.05937437  0.40419198  0.94600479  1.0
  C  C38  1  0.08485479  0.62114814  0.97835968  1.0
  C  C39  1  0.74165602  0.31802346  0.98950509  1.0
  C  C40  1  0.66999786  0.24447548  0.98619705  1.0
  C  C41  1  0.75145117  0.20549185  0.87952355  1.0
  C  C42  1  0.84591963  0.26660350  0.03625061  1.0
  C  C43  1  0.80409130  0.28942934  0.96782266  1.0
  C  C44  1  0.68541232  0.16647394  0.96779106  1.0
  C  C45  1  0.68217142  0.13359507  0.87997892  1.0
  C  C46  1  0.77623861  0.19542486  0.03791246  1.0
  C  C47  1  0.90482938  0.73407060  0.24309225  1.0
  C  C48  1  0.96628895  0.79619890  0.32430796  1.0
  C  C49  1  0.91610476  0.67437000  0.18125793  1.0
  C  C50  1  0.98434793  0.66089626  0.20180539  1.0
  C  C51  1  0.29132469  0.80409406  0.02149659  1.0
  C  C52  1  0.30795286  0.79011051  0.95513112  1.0
  C  C53  1  0.22711036  0.74041237  0.02717188  1.0
  C  C54  1  0.14461800  0.68263345  0.96446707  1.0
  C  C55  1  0.03177350  0.24827312  0.73553371  1.0
  C  C56  1  0.99412229  0.16439164  0.71512223  1.0
  C  C57  1  0.03690319  0.31737648  0.80409636  1.0
  C  C58  1  0.06461936  0.33452028  0.88644175  1.0
  C  C59  1  0.40184947  0.05202471  0.91894068  1.0
  C  C60  1  0.61864220  0.09577171  0.97060604  1.0
  C  C61  1  0.61592259  0.01774207  0.13024247  1.0
  C  C62  1  0.37837891  0.86110968  0.96045146  1.0
  C  C63  1  0.13877481  0.02745450  0.61970178  1.0
  C  C64  1  0.96261835  0.86446008  0.38896064  1.0
  C  C65  1  0.90933300  0.04421092  0.40587302  1.0
  C  C66  1  0.98618109  0.09831549  0.63915627  1.0
  C  C67  1  0.28875062  0.06383879  0.71673299  1.0
  C  C68  1  0.20341844  0.02893418  0.69109339  1.0
  C  C69  1  0.34660192  0.05640511  0.78365194  1.0
  C  C70  1  0.34663016  0.06958581  0.85853513  1.0
  C  C71  1  0.76800460  0.03646619  0.33785809  1.0
  C  C72  1  0.84671765  0.05521570  0.34496932  1.0
  C  C73  1  0.70298392  0.04322836  0.27690617  1.0
  C  C74  1  0.68460007  0.01529889  0.19406891  1.0
  N  N75  1  0.81347336  0.17583174  0.85637160  1.0
  N  N76  1  0.81671486  0.72395488  0.20996426  1.0
  N  N77  1  0.70734413  0.21895278  0.80279660  1.0
  O  O78  1  0.94718823  0.57390659  0.05692914  1.0
  O  O79  1  0.06104378  0.59206044  0.16835068  1.0
  O  O80  1  0.84400897  0.38821745  0.91536177  1.0
  O  O81  1  0.94739976  0.40952309  0.03649064  1.0
  O  O82  1  0.00817441  0.42909713  0.91400415  1.0
  O  O83  1  0.10672685  0.43649995  0.02820030  1.0
  O  O84  1  0.00362330  0.58084506  0.92161593  1.0
  O  O85  1  0.11550231  0.61125119  0.04315098  1.0
  O  O86  1  0.42495251  0.09463740  0.99966014  1.0
  O  O87  1  0.42298555  0.99638317  0.88840414  1.0
  O  O88  1  0.59840656  0.11962443  0.02868947  1.0
  O  O89  1  0.58847240  0.01646727  0.91509579  1.0
  O  O90  1  0.58695817  0.06823883  0.15794000  1.0
  O  O91  1  0.58991090  0.96907453  0.05122000  1.0
  O  O92  1  0.40893977  0.93822160  0.01821356  1.0
  O  O93  1  0.40523147  0.83957190  0.90579611  1.0
  O  O94  1  0.05997134  0.97478065  0.59176165  1.0
  O  O95  1  0.16432499  0.07815673  0.58988071  1.0
  O  O96  1  0.91219573  0.84255556  0.41943368  1.0
  O  O97  1  0.01634227  0.94054418  0.41189924  1.0
  O  O98  1  0.88155087  0.99297371  0.43279175  1.0
  O  O99  1  0.98974060  0.08872246  0.42740584  1.0
  O  O100  1  0.93133005  0.01863466  0.61067164  1.0
  O  O101  1  0.03211524  0.12278963  0.60592532  1.0
  O  O102  1  0.88794134  0.23302634  0.88584334  1.0
  O  O103  1  0.78340237  0.09796867  0.80977941  1.0
  O  O104  1  0.75611092  0.64903011  0.15737355  1.0
  O  O105  1  0.80959653  0.78933562  0.23644910  1.0
  O  O106  1  0.64522426  0.22986258  0.79881216  1.0
  O  O107  1  0.73557939  0.21629491  0.75215782  1.0
