# generated using pymatgen
data_AlH12C27(O2F)3
_symmetry_space_group_name_H-M   'P 1'
_cell_length_a   4.01617851
_cell_length_b   27.77741598
_cell_length_c   27.81337722
_cell_angle_alpha   60.13372883
_cell_angle_beta   89.33858744
_cell_angle_gamma   89.65772216
_symmetry_Int_Tables_number   1
_chemical_formula_structural   AlH12C27(O2F)3
_chemical_formula_sum   'Al3 H36 C81 O18 F9'
_cell_volume   2690.56760876
_cell_formula_units_Z   3
loop_
 _symmetry_equiv_pos_site_id
 _symmetry_equiv_pos_as_xyz
  1  'x, y, z'
loop_
 _atom_site_type_symbol
 _atom_site_label
 _atom_site_symmetry_multiplicity
 _atom_site_fract_x
 _atom_site_fract_y
 _atom_site_fract_z
 _atom_site_occupancy
  Al  Al0  1  0.99829324  0.00041192  0.49994255  1.0
  Al  Al1  1  0.05154411  0.33464215  0.83259899  1.0
  Al  Al2  1  0.94898020  0.66692967  0.16699431  1.0
  H  H3  1  0.48656661  0.00078980  0.92259552  1.0
  H  H4  1  0.48878303  0.91058441  0.83413341  1.0
  H  H5  1  0.49720787  0.08901433  0.74439744  1.0
  H  H6  1  0.24877348  0.16517298  0.90777787  1.0
  H  H7  1  0.22147459  0.07598012  0.90843167  1.0
  H  H8  1  0.80900971  0.14734152  0.75720732  1.0
  H  H9  1  0.74408056  0.92657165  0.98414047  1.0
  H  H10  1  0.17081979  0.76359712  0.99453353  1.0
  H  H11  1  0.17700944  0.85269510  0.90610092  1.0
  H  H12  1  0.20027069  0.92354470  0.76202110  1.0
  H  H13  1  0.78575047  0.07114069  0.59686081  1.0
  H  H14  1  0.78749603  0.07400072  0.68456698  1.0
  H  H15  1  0.49683134  0.42251905  0.07792627  1.0
  H  H16  1  0.48483624  0.24413619  0.16640827  1.0
  H  H17  1  0.48569347  0.33305908  0.25617631  1.0
  H  H18  1  0.75064158  0.57123539  0.09180735  1.0
  H  H19  1  0.77034991  0.48219728  0.09197221  1.0
  H  H20  1  0.18252988  0.40590195  0.24321896  1.0
  H  H21  1  0.22686300  0.40941813  0.01668673  1.0
  H  H22  1  0.82026175  0.25777480  0.00558887  1.0
  H  H23  1  0.80633554  0.25806646  0.09433208  1.0
  H  H24  1  0.78158197  0.18523700  0.23862829  1.0
  H  H25  1  0.18901139  0.16822117  0.40361875  1.0
  H  H26  1  0.18274131  0.25850050  0.31577710  1.0
  H  H27  1  0.50419187  0.57729017  0.50022920  1.0
  H  H28  1  0.52011407  0.75562134  0.41031438  1.0
  H  H29  1  0.52295571  0.66767766  0.58850922  1.0
  H  H30  1  0.26131843  0.42885715  0.66369643  1.0
  H  H31  1  0.24313030  0.51723840  0.57476898  1.0
  H  H32  1  0.81840622  0.59562393  0.64745981  1.0
  H  H33  1  0.76260537  0.58940700  0.42486415  1.0
  H  H34  1  0.17361086  0.74220110  0.26507267  1.0
  H  H35  1  0.19392571  0.74189438  0.35407222  1.0
  H  H36  1  0.22762269  0.81467276  0.42378167  1.0
  H  H37  1  0.80432743  0.83340338  0.57014302  1.0
  H  H38  1  0.81486221  0.74268432  0.57307841  1.0
  C  C39  1  0.50373229  0.92756841  0.49797684  1.0
  C  C40  1  0.49352439  0.99847452  0.57488539  1.0
  C  C41  1  0.49699353  0.07399028  0.42597609  1.0
  C  C42  1  0.55239236  0.26102311  0.83138760  1.0
  C  C43  1  0.54390912  0.33306766  0.90727093  1.0
  C  C44  1  0.55291848  0.40884617  0.75988277  1.0
  C  C45  1  0.45066624  0.74076018  0.09290863  1.0
  C  C46  1  0.45130452  0.59292714  0.16713797  1.0
  C  C47  1  0.44609379  0.66669960  0.24064611  1.0
  C  C48  1  0.47643184  0.94954453  0.88449959  1.0
  C  C49  1  0.48787098  0.00043584  0.88356867  1.0
  C  C50  1  0.50213580  0.05095482  0.83352869  1.0
  C  C51  1  0.50140277  0.04996750  0.78361141  1.0
  C  C52  1  0.49209603  0.99978065  0.78312683  1.0
  C  C53  1  0.48183246  0.94992139  0.83392309  1.0
  C  C54  1  0.37424911  0.16068036  0.87527387  1.0
  C  C55  1  0.36190371  0.11038282  0.87573463  1.0
  C  C56  1  0.51403719  0.10422751  0.83333114  1.0
  C  C57  1  0.67781150  0.15024044  0.79017364  1.0
  C  C58  1  0.68492154  0.20003873  0.79029858  1.0
  C  C59  1  0.53845651  0.20657625  0.83235243  1.0
  C  C60  1  0.61002399  0.89204277  0.98529301  1.0
  C  C61  1  0.59755100  0.84196051  0.03462084  1.0
  C  C62  1  0.44884696  0.79467808  0.03909258  1.0
  C  C63  1  0.29904586  0.79941362  0.99170421  1.0
  C  C64  1  0.30576019  0.84953255  0.94184234  1.0
  C  C65  1  0.46409709  0.89652875  0.93760527  1.0
  C  C66  1  0.33500304  0.95625596  0.72676670  1.0
  C  C67  1  0.33506975  0.95583548  0.67711773  1.0
  C  C68  1  0.49296183  0.99714670  0.62908676  1.0
  C  C69  1  0.65470979  0.03953289  0.63344302  1.0
  C  C70  1  0.65240617  0.04118843  0.68250650  1.0
  C  C71  1  0.49269174  0.99928594  0.73027577  1.0
  C  C72  1  0.50096213  0.33327773  0.11606036  1.0
  C  C73  1  0.49330506  0.38328358  0.11697779  1.0
  C  C74  1  0.48188179  0.38393798  0.16702972  1.0
  C  C75  1  0.47956589  0.33317825  0.21694660  1.0
  C  C76  1  0.48439578  0.28248689  0.21741058  1.0
  C  C77  1  0.49357325  0.28324809  0.16662144  1.0
  C  C78  1  0.62334264  0.53489101  0.12447235  1.0
  C  C79  1  0.63146266  0.48480894  0.12447244  1.0
  C  C80  1  0.47644340  0.43711607  0.16709592  1.0
  C  C81  1  0.31542697  0.44104290  0.21008149  1.0
  C  C82  1  0.31220975  0.49122250  0.20951757  1.0
  C  C83  1  0.46084747  0.53898841  0.16710879  1.0
  C  C84  1  0.36539816  0.37628459  0.01532261  1.0
  C  C85  1  0.38150514  0.37570361  0.96580592  1.0
  C  C86  1  0.53742261  0.33321611  0.96114095  1.0
  C  C87  1  0.68774373  0.29056311  0.00857561  1.0
  C  C88  1  0.67673265  0.29061396  0.05859386  1.0
  C  C89  1  0.51380105  0.33326249  0.06292860  1.0
  C  C90  1  0.64550568  0.18279821  0.27387104  1.0
  C  C91  1  0.64902005  0.13295844  0.32359115  1.0
  C  C92  1  0.48990856  0.12646442  0.37163679  1.0
  C  C93  1  0.32180596  0.17307441  0.36709317  1.0
  C  C94  1  0.32109475  0.22360859  0.31795394  1.0
  C  C95  1  0.48342443  0.22929755  0.27028063  1.0
  C  C96  1  0.50106627  0.66646955  0.44922185  1.0
  C  C97  1  0.50991824  0.61663953  0.49998924  1.0
  C  C98  1  0.52447962  0.61632945  0.55047290  1.0
  C  C99  1  0.52783177  0.66728114  0.54951632  1.0
  C  C100  1  0.52186845  0.71780404  0.49941711  1.0
  C  C101  1  0.51129069  0.71666740  0.44961674  1.0
  C  C102  1  0.38544597  0.46553551  0.65956768  1.0
  C  C103  1  0.37867450  0.51528365  0.60939896  1.0
  C  C104  1  0.53031805  0.56337925  0.60366296  1.0
  C  C105  1  0.68736663  0.56020961  0.65000182  1.0
  C  C106  1  0.68863008  0.51043874  0.69971023  1.0
  C  C107  1  0.54292108  0.46229341  0.70575691  1.0
  C  C108  1  0.62471371  0.62274382  0.39110482  1.0
  C  C109  1  0.60438273  0.62327806  0.34113679  1.0
  C  C110  1  0.44971503  0.66608837  0.29482090  1.0
  C  C111  1  0.30419256  0.70908911  0.30025154  1.0
  C  C112  1  0.31926130  0.70903986  0.35025918  1.0
  C  C113  1  0.48217969  0.66619901  0.39632212  1.0
  C  C114  1  0.36096836  0.81752756  0.45614353  1.0
  C  C115  1  0.35534061  0.86766804  0.45566396  1.0
  C  C116  1  0.51040410  0.87466071  0.49670951  1.0
  C  C117  1  0.67547896  0.82821248  0.53876818  1.0
  C  C118  1  0.67838183  0.77740389  0.54045821  1.0
  C  C119  1  0.52108118  0.77123144  0.49888702  1.0
  O  O120  1  0.26308615  0.06651998  0.46059693  1.0
  O  O121  1  0.26715221  0.96146816  0.47339094  1.0
  O  O122  1  0.25778387  0.97388458  0.56560055  1.0
  O  O123  1  0.73758268  0.04069734  0.43482551  1.0
  O  O124  1  0.72913883  0.02543025  0.54092985  1.0
  O  O125  1  0.73501311  0.93487886  0.52489303  1.0
  O  O126  1  0.31811955  0.39970601  0.79433731  1.0
  O  O127  1  0.32144216  0.29563118  0.80593754  1.0
  O  O128  1  0.31054551  0.30716132  0.89908074  1.0
  O  O129  1  0.79395353  0.37604816  0.76700247  1.0
  O  O130  1  0.78345122  0.35808375  0.87413018  1.0
  O  O131  1  0.79150360  0.26813732  0.85682622  1.0
  O  O132  1  0.20915838  0.64192997  0.23220007  1.0
  O  O133  1  0.21293491  0.73228634  0.12665615  1.0
  O  O134  1  0.21395305  0.62616794  0.14127469  1.0
  O  O135  1  0.68180805  0.69291278  0.20660388  1.0
  O  O136  1  0.68396103  0.60192120  0.19211437  1.0
  O  O137  1  0.68903341  0.70739359  0.10042586  1.0
  F  F138  1  0.84485796  0.24411198  0.74790921  1.0
  F  F139  1  0.74107631  0.83867352  0.08029266  1.0
  F  F140  1  0.17754543  0.91283097  0.67697402  1.0
  F  F141  1  0.15433523  0.49399940  0.25160083  1.0
  F  F142  1  0.23531443  0.41786305  0.92033088  1.0
  F  F143  1  0.81195883  0.08997359  0.32384764  1.0
  F  F144  1  0.84212877  0.50839707  0.74406350  1.0
  F  F145  1  0.74572602  0.58083280  0.33701920  1.0
  F  F146  1  0.19486864  0.91044810  0.41307513  1.0
