# generated using pymatgen
data_Zn4H8C25S4O13F2
_symmetry_space_group_name_H-M   'P 1'
_cell_length_a   19.60001550
_cell_length_b   19.74538965
_cell_length_c   33.33558067
_cell_angle_alpha   78.90274945
_cell_angle_beta   79.29822201
_cell_angle_gamma   63.99183898
_symmetry_Int_Tables_number   1
_chemical_formula_structural   Zn4H8C25S4O13F2
_chemical_formula_sum   'Zn16 H32 C100 S16 O52 F8'
_cell_volume   11302.61702538
_cell_formula_units_Z   4
loop_
 _symmetry_equiv_pos_site_id
 _symmetry_equiv_pos_as_xyz
  1  'x, y, z'
loop_
 _atom_site_type_symbol
 _atom_site_label
 _atom_site_symmetry_multiplicity
 _atom_site_fract_x
 _atom_site_fract_y
 _atom_site_fract_z
 _atom_site_occupancy
  Zn  Zn0  1  0.05146950  0.40172505  0.47786023  1.0
  Zn  Zn1  1  0.99047047  0.48210160  0.56100508  1.0
  Zn  Zn2  1  0.05800940  0.56121451  0.48176744  1.0
  Zn  Zn3  1  0.89857237  0.55435907  0.48116158  1.0
  Zn  Zn4  1  0.69374461  0.34632918  0.27179514  1.0
  Zn  Zn5  1  0.68720006  0.19005973  0.26465755  1.0
  Zn  Zn6  1  0.77115496  0.26441489  0.19041857  1.0
  Zn  Zn7  1  0.84770337  0.19333304  0.27428162  1.0
  Zn  Zn8  1  0.27117885  0.76466993  0.69025252  1.0
  Zn  Zn9  1  0.34852445  0.69935175  0.77475750  1.0
  Zn  Zn10  1  0.19111288  0.84697169  0.77132630  1.0
  Zn  Zn11  1  0.19392848  0.68527419  0.76569904  1.0
  Zn  Zn12  1  0.56378636  0.05627729  0.98258117  1.0
  Zn  Zn13  1  0.40132251  0.05645810  0.97927196  1.0
  Zn  Zn14  1  0.55231992  0.90027426  0.97865048  1.0
  Zn  Zn15  1  0.48731542  0.98095467  0.06083390  1.0
  H  H16  1  0.95299730  0.25246028  0.35257763  1.0
  H  H17  1  0.73959143  0.44981183  0.35253202  1.0
  H  H18  1  0.99514534  0.30664593  0.40022685  1.0
  H  H19  1  0.09635009  0.60290918  0.69673540  1.0
  H  H20  1  0.21556967  0.69405055  0.59619219  1.0
  H  H21  1  0.05048444  0.55746830  0.64646408  1.0
  H  H22  1  0.45942786  0.23880569  0.33959162  1.0
  H  H23  1  0.48504185  0.69299110  0.60666207  1.0
  H  H24  1  0.20813823  0.97778158  0.60050905  1.0
  H  H25  1  0.94828539  0.96253828  0.34102348  1.0
  H  H26  1  0.56243166  0.04267029  0.15124429  1.0
  H  H27  1  0.64750824  0.15883541  0.04622273  1.0
  H  H28  1  0.61055295  0.09458206  0.19719467  1.0
  H  H29  1  0.54994425  0.76725018  0.14920858  1.0
  H  H30  1  0.16615802  0.15172083  0.04399606  1.0
  H  H31  1  0.48857677  0.79900442  0.90327297  1.0
  H  H32  1  0.29369092  0.01404191  0.89662110  1.0
  H  H33  1  0.43580472  0.75604210  0.85520739  1.0
  H  H34  1  0.30557850  0.27934640  0.90125485  1.0
  H  H35  1  0.78235284  0.00571603  0.90260905  1.0
  H  H36  1  0.78166862  0.57150661  0.38890066  1.0
  H  H37  1  0.75312628  0.52749835  0.43565440  1.0
  H  H38  1  0.70631342  0.54274775  0.39141790  1.0
  H  H39  1  0.13046193  0.69617541  0.51630099  1.0
  H  H40  1  0.20532015  0.60493283  0.51759065  1.0
  H  H41  1  0.22045519  0.68104114  0.52986508  1.0
  H  H42  1  0.76708491  0.19972014  0.08742921  1.0
  H  H43  1  0.68167230  0.27976197  0.09692832  1.0
  H  H44  1  0.69954383  0.23855129  0.05073839  1.0
  H  H45  1  0.17287565  0.97145398  0.85627411  1.0
  H  H46  1  0.22215253  0.99952212  0.81157751  1.0
  H  H47  1  0.20124950  0.04595690  0.85619208  1.0
  C  C48  1  0.06336026  0.31500108  0.56082507  1.0
  C  C49  1  0.07539275  0.57174599  0.56589729  1.0
  C  C50  1  0.18198424  0.43775724  0.43886387  1.0
  C  C51  1  0.93257073  0.68271587  0.43830041  1.0
  C  C52  1  0.92274029  0.43531612  0.43148383  1.0
  C  C53  1  0.82255670  0.55716060  0.56674509  1.0
  C  C54  1  0.56481392  0.30786795  0.31142226  1.0
  C  C55  1  0.68469050  0.18131521  0.17771263  1.0
  C  C56  1  0.68624621  0.43050628  0.18803151  1.0
  C  C57  1  0.93812033  0.18904404  0.19271030  1.0
  C  C58  1  0.81645686  0.31809830  0.32119073  1.0
  C  C59  1  0.80735847  0.06382881  0.30951231  1.0
  C  C60  1  0.43877939  0.68806923  0.69303179  1.0
  C  C61  1  0.30901379  0.82833189  0.82092567  1.0
  C  C62  1  0.19269991  0.93151002  0.68769969  1.0
  C  C63  1  0.06457395  0.80371901  0.80873662  1.0
  C  C64  1  0.18719575  0.67867061  0.67854142  1.0
  C  C65  1  0.31608627  0.56766469  0.81363147  1.0
  C  C66  1  0.44152491  0.18341839  0.93933605  1.0
  C  C67  1  0.42409224  0.93583620  0.93149935  1.0
  C  C68  1  0.68370612  0.93262371  0.93795503  1.0
  C  C69  1  0.55994650  0.81443691  0.06214835  1.0
  C  C70  1  0.57533049  0.06674100  0.06789447  1.0
  C  C71  1  0.31920636  0.06093409  0.06348355  1.0
  C  C72  1  0.89153639  0.40858189  0.40302365  1.0
  C  C73  1  0.84343223  0.34857956  0.34971083  1.0
  C  C74  1  0.81776996  0.45086673  0.38986673  1.0
  C  C75  1  0.91593087  0.30735644  0.36304517  1.0
  C  C76  1  0.79582933  0.41902029  0.36324565  1.0
  C  C77  1  0.93907155  0.33761982  0.38941069  1.0
  C  C78  1  0.10629514  0.60098639  0.59317789  1.0
  C  C79  1  0.15869382  0.65143613  0.64912820  1.0
  C  C80  1  0.15358263  0.64002718  0.57788181  1.0
  C  C81  1  0.11194709  0.61286449  0.66376728  1.0
  C  C82  1  0.17881260  0.66422986  0.60676315  1.0
  C  C83  1  0.08651644  0.58794488  0.63580929  1.0
  C  C84  1  0.30592081  0.44822127  0.40314140  1.0
  C  C85  1  0.44417154  0.29407430  0.34874227  1.0
  C  C86  1  0.25748264  0.41171603  0.41475088  1.0
  C  C87  1  0.49064319  0.33243908  0.33715423  1.0
  C  C88  1  0.37676144  0.33659458  0.37294753  1.0
  C  C89  1  0.37395845  0.40640179  0.37926457  1.0
  C  C90  1  0.73217932  0.57663855  0.63492577  1.0
  C  C91  1  0.53005081  0.66732226  0.62678323  1.0
  C  C92  1  0.74868489  0.58171070  0.59240611  1.0
  C  C93  1  0.51482816  0.66164000  0.66919505  1.0
  C  C94  1  0.60946172  0.63590701  0.61454205  1.0
  C  C95  1  0.65302324  0.60716234  0.64812168  1.0
  C  C96  1  0.07894014  0.22266249  0.62806725  1.0
  C  C97  1  0.17840291  0.02217798  0.62043428  1.0
  C  C98  1  0.08842020  0.24015299  0.58561619  1.0
  C  C99  1  0.16786174  0.00656328  0.66282615  1.0
  C  C100  1  0.14561858  0.10126708  0.60786428  1.0
  C  C101  1  0.11104638  0.14392313  0.64125703  1.0
  C  C102  1  0.83703272  0.80125441  0.39802555  1.0
  C  C103  1  0.90195903  0.94440108  0.34763849  1.0
  C  C104  1  0.90737429  0.75634762  0.41241978  1.0
  C  C105  1  0.83127077  0.98832355  0.33384887  1.0
  C  C106  1  0.90391247  0.87580176  0.37066428  1.0
  C  C107  1  0.83410353  0.86942283  0.37403895  1.0
  C  C108  1  0.65677290  0.15484778  0.14759085  1.0
  C  C109  1  0.60312945  0.09739737  0.09589087  1.0
  C  C110  1  0.66777326  0.17467947  0.10442786  1.0
  C  C111  1  0.59183019  0.07911860  0.13859117  1.0
  C  C112  1  0.64025078  0.14479825  0.07953766  1.0
  C  C113  1  0.61855832  0.10794569  0.16391115  1.0
  C  C114  1  0.66751722  0.52276642  0.12059873  1.0
  C  C115  1  0.57616695  0.72308267  0.12903088  1.0
  C  C116  1  0.66068763  0.50507961  0.16310050  1.0
  C  C117  1  0.58395829  0.73907445  0.08661150  1.0
  C  C118  1  0.60650006  0.64393630  0.14124554  1.0
  C  C119  1  0.63687784  0.60158272  0.10758399  1.0
  C  C120  1  0.08519231  0.11895053  0.18054871  1.0
  C  C121  1  0.17385288  0.12993332  0.07614466  1.0
  C  C122  1  0.01315483  0.16366989  0.16814646  1.0
  C  C123  1  0.24502186  0.08537602  0.08925102  1.0
  C  C124  1  0.11577280  0.14203037  0.10963978  1.0
  C  C125  1  0.14436110  0.10604627  0.14761530  1.0
  C  C126  1  0.33504614  0.86034654  0.84921025  1.0
  C  C127  1  0.39352284  0.90928877  0.90282463  1.0
  C  C128  1  0.29308741  0.93476809  0.86045761  1.0
  C  C129  1  0.43447495  0.83614738  0.89128257  1.0
  C  C130  1  0.32413819  0.95724493  0.88732591  1.0
  C  C131  1  0.40500363  0.81254250  0.86471758  1.0
  C  C132  1  0.40859445  0.45106384  0.85661321  1.0
  C  C133  1  0.34949587  0.30021490  0.89799564  1.0
  C  C134  1  0.34129281  0.49313521  0.83870504  1.0
  C  C135  1  0.41743898  0.25896438  0.91508328  1.0
  C  C136  1  0.34678801  0.37015684  0.87652354  1.0
  C  C137  1  0.41287858  0.38066326  0.87811701  1.0
  C  C138  1  0.94621266  0.78697435  0.84982377  1.0
  C  C139  1  0.80110610  0.94732807  0.89716216  1.0
  C  C140  1  0.99001891  0.82741552  0.83376854  1.0
  C  C141  1  0.75830925  0.90601737  0.91272415  1.0
  C  C142  1  0.86950203  0.90356849  0.87415172  1.0
  C  C143  1  0.87723708  0.82952262  0.87289189  1.0
  C  C144  1  0.76153146  0.52713085  0.40223201  1.0
  C  C145  1  0.17899031  0.65636337  0.53302958  1.0
  C  C146  1  0.70590680  0.22602005  0.08371967  1.0
  C  C147  1  0.21837294  0.99109033  0.84531457  1.0
  S  S148  1  0.29605880  0.32407202  0.39625541  1.0
  S  S149  1  0.45347997  0.41998701  0.35552770  1.0
  S  S150  1  0.66596266  0.62464531  0.56791296  1.0
  S  S151  1  0.59641756  0.61824734  0.69463839  1.0
  S  S152  1  0.13759329  0.15854756  0.56120859  1.0
  S  S153  1  0.11826772  0.08730495  0.68783908  1.0
  S  S154  1  0.97148539  0.79808180  0.39630712  1.0
  S  S155  1  0.76666315  0.94696134  0.34843990  1.0
  S  S156  1  0.61574904  0.58647639  0.18780367  1.0
  S  S157  1  0.62791852  0.65868025  0.06111946  1.0
  S  S158  1  0.01757486  0.19051919  0.11512678  1.0
  S  S159  1  0.24231048  0.05770009  0.14217266  1.0
  S  S160  1  0.28169514  0.44594016  0.84843897  1.0
  S  S161  1  0.47848544  0.30449970  0.90548193  1.0
  S  S162  1  0.94626204  0.91937524  0.84713357  1.0
  S  S163  1  0.80043478  0.81390005  0.89968193  1.0
  O  O164  1  0.99988314  0.49918955  0.50044886  1.0
  O  O165  1  0.07801861  0.31481080  0.52172646  1.0
  O  O166  1  0.04716844  0.52453089  0.58324727  1.0
  O  O167  1  0.15692000  0.50191303  0.45204851  1.0
  O  O168  1  0.02973286  0.37280333  0.58029288  1.0
  O  O169  1  0.14843696  0.39319884  0.44426638  1.0
  O  O170  1  0.07874731  0.59604556  0.52751202  1.0
  O  O171  1  0.00283096  0.65273576  0.44495481  1.0
  O  O172  1  0.88297787  0.50193164  0.44177219  1.0
  O  O173  1  0.88325438  0.65554220  0.45181550  1.0
  O  O174  1  0.98755570  0.38914107  0.44346253  1.0
  O  O175  1  0.88291389  0.52839027  0.58471981  1.0
  O  O176  1  0.81852668  0.56759996  0.52789825  1.0
  O  O177  1  0.75010617  0.24794760  0.25057768  1.0
  O  O178  1  0.59601567  0.35465006  0.30387151  1.0
  O  O179  1  0.65847085  0.17267920  0.21554995  1.0
  O  O180  1  0.72086696  0.37222869  0.16891227  1.0
  O  O181  1  0.59102296  0.24292258  0.29899685  1.0
  O  O182  1  0.67123606  0.43134266  0.22706809  1.0
  O  O183  1  0.73306987  0.20965503  0.16381338  1.0
  O  O184  1  0.88098961  0.22897290  0.17221734  1.0
  O  O185  1  0.85997333  0.25131219  0.31190903  1.0
  O  O186  1  0.93611061  0.16963446  0.23150861  1.0
  O  O187  1  0.75185633  0.36150022  0.30832559  1.0
  O  O188  1  0.74106575  0.09201806  0.29730116  1.0
  O  O189  1  0.85480176  0.09398031  0.30307623  1.0
  O  O190  1  0.25136905  0.74875720  0.75047103  1.0
  O  O191  1  0.38165486  0.72136398  0.67228898  1.0
  O  O192  1  0.35752759  0.76553207  0.80838367  1.0
  O  O193  1  0.17435294  0.93180572  0.72660774  1.0
  O  O194  1  0.43710531  0.67520248  0.73221189  1.0
  O  O195  1  0.22978499  0.87353136  0.66847701  1.0
  O  O196  1  0.24079162  0.86511347  0.81146919  1.0
  O  O197  1  0.09058040  0.85475023  0.79846843  1.0
  O  O198  1  0.17027596  0.66147328  0.71686998  1.0
  O  O199  1  0.09653544  0.73601180  0.79957330  1.0
  O  O200  1  0.22615101  0.71703785  0.66304812  1.0
  O  O201  1  0.35890887  0.60278745  0.80855176  1.0
  O  O202  1  0.25242662  0.59019275  0.79914006  1.0
  O  O203  1  0.50103494  0.99857703  0.00039430  1.0
  O  O204  1  0.50878622  0.15440749  0.95035471  1.0
  O  O205  1  0.38184300  0.00104610  0.94319071  1.0
  O  O206  1  0.65268699  0.88573272  0.94799610  1.0
  O  O207  1  0.39342449  0.15385748  0.94712751  1.0
  O  O208  1  0.65686904  0.99994154  0.94745201  1.0
  O  O209  1  0.49020424  0.89098535  0.94209994  1.0
  O  O210  1  0.57169510  0.81488421  0.02305367  1.0
  O  O211  1  0.53624184  0.02916055  0.08484669  1.0
  O  O212  1  0.52998481  0.87198844  0.08191247  1.0
  O  O213  1  0.59288285  0.08044303  0.02928394  1.0
  O  O214  1  0.31778193  0.08153472  0.02480951  1.0
  O  O215  1  0.37826809  0.02119639  0.08241960  1.0
  F  F216  1  0.29094595  0.51665904  0.41300501  1.0
  F  F217  1  0.78507111  0.54597633  0.66142234  1.0
  F  F218  1  0.04294331  0.27416057  0.65468268  1.0
  F  F219  1  0.77697939  0.78293103  0.40565463  1.0
  F  F220  1  0.69974876  0.47118951  0.09385367  1.0
  F  F221  1  0.09874047  0.09005145  0.21968052  1.0
  F  F222  1  0.46503285  0.47350299  0.85395892  1.0
  F  F223  1  0.96616588  0.71471080  0.84438289  1.0
