# generated using pymatgen
data_Zn8H48C73O28
_symmetry_space_group_name_H-M   'P 1'
_cell_length_a   18.25304223
_cell_length_b   18.25470421
_cell_length_c   18.30161724
_cell_angle_alpha   119.70244954
_cell_angle_beta   90.27712348
_cell_angle_gamma   119.52771911
_symmetry_Int_Tables_number   1
_chemical_formula_structural   Zn8H48C73O28
_chemical_formula_sum   'Zn8 H48 C73 O28'
_cell_volume   4351.55803916
_cell_formula_units_Z   1
loop_
 _symmetry_equiv_pos_site_id
 _symmetry_equiv_pos_as_xyz
  1  'x, y, z'
loop_
 _atom_site_type_symbol
 _atom_site_label
 _atom_site_symmetry_multiplicity
 _atom_site_fract_x
 _atom_site_fract_y
 _atom_site_fract_z
 _atom_site_occupancy
  Zn  Zn0  1  0.12756437  0.58222212  0.04491080  1.0
  Zn  Zn1  1  0.95440366  0.41004629  0.86880249  1.0
  Zn  Zn2  1  0.95887897  0.59339566  0.03981777  1.0
  Zn  Zn3  1  0.94991945  0.41608816  0.04540554  1.0
  Zn  Zn4  1  0.36412982  0.40769727  0.45441201  1.0
  Zn  Zn5  1  0.54103052  0.41617413  0.44846896  1.0
  Zn  Zn6  1  0.53999182  0.58444755  0.62715359  1.0
  Zn  Zn7  1  0.53426268  0.59185469  0.45615244  1.0
  H  H8  1  0.07946401  0.32783633  0.15246971  1.0
  H  H9  1  0.86667203  0.66164971  0.27065885  1.0
  H  H10  1  0.08452764  0.42817567  0.24821200  1.0
  H  H11  1  0.70942270  0.31077375  0.01916410  1.0
  H  H12  1  0.56404364  0.15210440  0.96934725  1.0
  H  H13  1  0.46870047  0.15194485  0.06711678  1.0
  H  H14  1  0.51918009  0.31089907  0.21302692  1.0
  H  H15  1  0.76956988  0.66290984  0.36667885  1.0
  H  H16  1  0.81776519  0.09806031  0.69619321  1.0
  H  H17  1  0.75527697  0.18938109  0.97220787  1.0
  H  H18  1  0.65346860  0.09278985  0.02560420  1.0
  H  H19  1  0.37673470  0.64211231  0.34961999  1.0
  H  H20  1  0.56012257  0.90037125  0.92927083  1.0
  H  H21  1  0.56981868  0.80782987  0.78081648  1.0
  H  H22  1  0.17352595  0.42448282  0.33663422  1.0
  H  H23  1  0.72228960  0.90628036  0.59929422  1.0
  H  H24  1  0.74653326  0.53499941  0.87988268  1.0
  H  H25  1  0.96603413  0.52259982  0.74258793  1.0
  H  H26  1  0.89214874  0.49975173  0.50485426  1.0
  H  H27  1  0.75948755  0.49538262  0.53708163  1.0
  H  H28  1  0.64601835  0.52980411  0.78152123  1.0
  H  H29  1  0.13258684  0.35479365  0.73143760  1.0
  H  H30  1  0.28137817  0.49827346  0.12089789  1.0
  H  H31  1  0.22345513  0.70484896  0.92011953  1.0
  H  H32  1  0.32219642  0.86033255  0.92381731  1.0
  H  H33  1  0.17114548  0.32671109  0.24090869  1.0
  H  H34  1  0.41356030  0.85831848  0.82220466  1.0
  H  H35  1  0.40613764  0.70124412  0.71876520  1.0
  H  H36  1  0.22754575  0.35489503  0.63360738  1.0
  H  H37  1  0.19753259  0.36897903  0.07787847  1.0
  H  H38  1  0.28868490  0.37033216  0.16832944  1.0
  H  H39  1  0.28726418  0.64151621  0.25718322  1.0
  H  H40  1  0.20603993  0.61400926  0.30978601  1.0
  H  H41  1  0.37285652  0.50027685  0.21299797  1.0
  H  H42  1  0.29433997  0.61262863  0.40034726  1.0
  H  H43  1  0.35161910  0.19765385  0.21714629  1.0
  H  H44  1  0.26631288  0.19795401  0.16995933  1.0
  H  H45  1  0.21187052  0.02459690  0.02931952  1.0
  H  H46  1  0.32500621  0.11964502  0.05306049  1.0
  H  H47  1  0.29988677  0.02785190  0.07689434  1.0
  H  H48  1  0.04331637  0.46569576  0.66473191  1.0
  H  H49  1  0.10528637  0.60268208  0.72234930  1.0
  H  H50  1  0.12419216  0.52872948  0.62459133  1.0
  H  H51  1  0.13377744  0.89860592  0.12117241  1.0
  H  H52  1  0.24686590  0.81588230  0.28769171  1.0
  H  H53  1  0.36276490  0.91915937  0.43186641  1.0
  H  H54  1  0.45657678  0.11084519  0.51961226  1.0
  H  H55  1  0.43325623  0.19745495  0.46291846  1.0
  C  C56  1  0.84477100  0.22338949  0.86384813  1.0
  C  C57  1  0.39190114  0.11397222  0.42438372  1.0
  C  C58  1  0.32538335  0.05691262  0.34168521  1.0
  C  C59  1  0.14310878  0.77574967  0.14895418  1.0
  C  C60  1  0.27149431  0.94646986  0.29084051  1.0
  C  C61  1  0.20210664  0.89035939  0.20971379  1.0
  C  C62  1  0.18726742  0.94165707  0.18235559  1.0
  C  C63  1  0.24071272  0.04947523  0.23128259  1.0
  C  C64  1  0.30901740  0.10696774  0.31023754  1.0
  C  C65  1  0.66823384  0.31135931  0.06191867  1.0
  C  C66  1  0.58673742  0.22252883  0.03409550  1.0
  C  C67  1  0.24642782  0.58855466  0.27522112  1.0
  C  C68  1  0.53295567  0.22261739  0.08926848  1.0
  C  C69  1  0.56095562  0.31158555  0.17086440  1.0
  C  C70  1  0.64413131  0.40501058  0.20135083  1.0
  C  C71  1  0.13744950  0.50887033  0.86457216  1.0
  C  C72  1  0.69950041  0.40459645  0.14561949  1.0
  C  C73  1  0.78210405  0.49895072  0.17476345  1.0
  C  C74  1  0.80471500  0.59034271  0.25134131  1.0
  C  C75  1  0.75023550  0.59101457  0.30531653  1.0
  C  C76  1  0.67333138  0.50028566  0.28326622  1.0
  C  C77  1  0.71498749  0.10604308  0.92962590  1.0
  C  C78  1  0.18353252  0.47913428  0.18877193  1.0
  C  C79  1  0.65801712  0.05159153  0.95971238  1.0
  C  C80  1  0.60548695  0.94333631  0.90553317  1.0
  C  C81  1  0.61043510  0.89121391  0.82188350  1.0
  C  C82  1  0.66806389  0.94443190  0.78821654  1.0
  C  C83  1  0.84829154  0.50257900  0.12642129  1.0
  C  C84  1  0.72238473  0.05532275  0.84389722  1.0
  C  C85  1  0.77871739  0.10923577  0.80909298  1.0
  C  C86  1  0.77599603  0.05527865  0.72166428  1.0
  C  C87  1  0.72254631  0.94765759  0.66734582  1.0
  C  C88  1  0.67149549  0.89229203  0.69992820  1.0
  C  C89  1  0.28465582  0.47958607  0.29056462  1.0
  C  C90  1  0.92127292  0.51716030  0.69796443  1.0
  C  C91  1  0.93776709  0.51296280  0.62272782  1.0
  C  C92  1  0.87793027  0.50404032  0.56413824  1.0
  C  C93  1  0.80439640  0.50185786  0.58255775  1.0
  C  C94  1  0.78515269  0.50746448  0.65985092  1.0
  C  C95  1  0.87778955  0.51502662  0.85596209  1.0
  C  C96  1  0.84494424  0.51358765  0.71798263  1.0
  C  C97  1  0.82684921  0.51994399  0.79631974  1.0
  C  C98  1  0.75727527  0.52774115  0.81880696  1.0
  C  C99  1  0.70072955  0.52433162  0.76356074  1.0
  C  C100  1  0.30203584  0.44704240  0.20047411  1.0
  C  C101  1  0.71220267  0.51168590  0.68407753  1.0
  C  C102  1  0.26278727  0.70338625  0.87559883  1.0
  C  C103  1  0.31839198  0.79038562  0.87775729  1.0
  C  C104  1  0.37004532  0.78944359  0.82050862  1.0
  C  C105  1  0.36592083  0.70155003  0.76251286  1.0
  C  C106  1  0.30911878  0.61023862  0.75795012  1.0
  C  C107  1  0.12755979  0.48416642  0.13186150  1.0
  C  C108  1  0.25541274  0.61065705  0.81544784  1.0
  C  C109  1  0.19330313  0.51633261  0.80571412  1.0
  C  C110  1  0.18242423  0.42608578  0.73939635  1.0
  C  C111  1  0.30571367  0.58833023  0.33575168  1.0
  C  C112  1  0.23562930  0.42611129  0.68430587  1.0
  C  C113  1  0.29985201  0.51661903  0.69476362  1.0
  C  C114  1  0.62477201  0.50532718  0.34927325  1.0
  C  C115  1  0.35823229  0.51116244  0.63785546  1.0
  C  C116  1  0.36339369  0.22177596  0.36439756  1.0
  C  C117  1  0.62296880  0.77799080  0.63961586  1.0
  C  C118  1  0.64506673  0.50333314  0.62774338  1.0
  C  C119  1  0.12595046  0.40498081  0.21372176  1.0
  C  C120  1  0.34656708  0.48328505  0.35031503  1.0
  C  C121  1  0.18590653  0.40387640  0.27282578  1.0
  C  C122  1  0.28709091  0.89920867  0.32577645  1.0
  C  C123  1  0.24148323  0.44618624  0.13992680  1.0
  C  C124  1  0.28393558  0.14816839  0.16925406  1.0
  C  C125  1  0.27976769  0.07547357  0.07662157  1.0
  C  C126  1  0.07374680  0.52916657  0.65655242  1.0
  C  C127  1  0.35219901  0.95716791  0.40631739  1.0
  C  C128  1  0.40510612  0.06537633  0.45599544  1.0
  O  O129  1  0.99695319  0.50027139  0.99910981  1.0
  O  O130  1  0.61793991  0.73131695  0.67506523  1.0
  O  O131  1  0.62581233  0.44807377  0.54318764  1.0
  O  O132  1  0.87968705  0.26921289  0.94701583  1.0
  O  O133  1  0.42997486  0.54977196  0.37400029  1.0
  O  O134  1  0.60998729  0.55090807  0.66914697  1.0
  O  O135  1  0.31080650  0.42026168  0.37216011  1.0
  O  O136  1  0.32141535  0.26313579  0.39347781  1.0
  O  O137  1  0.59242530  0.73636843  0.55636861  1.0
  O  O138  1  0.59791995  0.43563652  0.36315069  1.0
  O  O139  1  0.44241643  0.57641857  0.67690113  1.0
  O  O140  1  0.17391850  0.58151801  0.94756595  1.0
  O  O141  1  0.17648430  0.72598017  0.14114450  1.0
  O  O142  1  0.05778333  0.42810494  0.82681474  1.0
  O  O143  1  0.88720196  0.57662074  0.11764653  1.0
  O  O144  1  0.90637206  0.45838495  0.82018999  1.0
  O  O145  1  0.04549519  0.44417028  0.12582783  1.0
  O  O146  1  0.88613095  0.56571865  0.93852136  1.0
  O  O147  1  0.16781054  0.53067503  0.09598167  1.0
  O  O148  1  0.21935988  0.09303837  0.19927623  1.0
  O  O149  1  0.00947365  0.51691820  0.59850373  1.0
  O  O150  1  0.86220912  0.43280384  0.10040155  1.0
  O  O151  1  0.86352069  0.26609757  0.82202326  1.0
  O  O152  1  0.06342791  0.73639346  0.10702211  1.0
  O  O153  1  0.49467793  0.50088167  0.49675011  1.0
  O  O154  1  0.61620995  0.57977577  0.38805733  1.0
  O  O155  1  0.31822556  0.43905077  0.55521750  1.0
  O  O156  1  0.44703455  0.26803019  0.37694635  1.0
