# generated using pymatgen
data_Al3H43C51O14
_symmetry_space_group_name_H-M   'P 1'
_cell_length_a   13.60109370
_cell_length_b   13.66650481
_cell_length_c   27.48772772
_cell_angle_alpha   89.49018302
_cell_angle_beta   89.92233130
_cell_angle_gamma   60.22526252
_symmetry_Int_Tables_number   1
_chemical_formula_structural   Al3H43C51O14
_chemical_formula_sum   'Al6 H86 C102 O28'
_cell_volume   4434.67910980
_cell_formula_units_Z   2
loop_
 _symmetry_equiv_pos_site_id
 _symmetry_equiv_pos_as_xyz
  1  'x, y, z'
loop_
 _atom_site_type_symbol
 _atom_site_label
 _atom_site_symmetry_multiplicity
 _atom_site_fract_x
 _atom_site_fract_y
 _atom_site_fract_z
 _atom_site_occupancy
  Al  Al0  1  0.41603360  0.16946778  0.49158392  1.0
  Al  Al1  1  0.43127484  0.92726501  0.49837745  1.0
  Al  Al2  1  0.64750218  0.93402530  0.49296002  1.0
  Al  Al3  1  0.92334709  0.17446143  0.97720775  1.0
  Al  Al4  1  0.69031841  0.40872692  0.97801365  1.0
  Al  Al5  1  0.90661403  0.41578262  0.98223201  1.0
  H  H6  1  0.13879831  0.01844591  0.28113578  1.0
  H  H7  1  0.01910501  0.44841533  0.16608285  1.0
  H  H8  1  0.25886459  0.35454668  0.20884583  1.0
  H  H9  1  0.22406867  0.31369412  0.15376513  1.0
  H  H10  1  0.09626596  0.05883675  0.19211957  1.0
  H  H11  1  0.59570311  0.63060232  0.60740952  1.0
  H  H12  1  0.02017595  0.49098680  0.80175856  1.0
  H  H13  1  0.05735765  0.58291587  0.77117201  1.0
  H  H14  1  0.98547605  0.62306620  0.82735543  1.0
  H  H15  1  0.88942193  0.59097026  0.73066216  1.0
  H  H16  1  0.85894948  0.72087348  0.75440080  1.0
  H  H17  1  0.87328384  0.57619453  0.86001324  1.0
  H  H18  1  0.62924486  0.57289917  0.69435638  1.0
  H  H19  1  0.38639836  0.88837262  0.78941522  1.0
  H  H20  1  0.44617098  0.85453487  0.73016296  1.0
  H  H21  1  0.31905068  0.85360323  0.74268727  1.0
  H  H22  1  0.48123829  0.65769795  0.74021626  1.0
  H  H23  1  0.42199052  0.68878562  0.79869013  1.0
  H  H24  1  0.53038884  0.64570373  0.86454169  1.0
  H  H25  1  0.69242078  0.84548883  0.72443369  1.0
  H  H26  1  0.48810764  0.75127149  0.18589376  1.0
  H  H27  1  0.67916444  0.89004953  0.63649048  1.0
  H  H28  1  0.83718347  0.06483621  0.69604542  1.0
  H  H29  1  0.79037969  0.20331129  0.56767054  1.0
  H  H30  1  0.87095249  0.17983545  0.62171237  1.0
  H  H31  1  0.94000923  0.11413393  0.56659737  1.0
  H  H32  1  0.92431391  0.97503547  0.62143084  1.0
  H  H33  1  0.84507098  0.99700508  0.56742445  1.0
  H  H34  1  0.68879557  0.40578510  0.73044929  1.0
  H  H35  1  0.71063019  0.29503929  0.69097022  1.0
  H  H36  1  0.60334053  0.43451620  0.67695625  1.0
  H  H37  1  0.51555795  0.32820062  0.71113056  1.0
  H  H38  1  0.49474378  0.43529183  0.75129029  1.0
  H  H39  1  0.48614897  0.17232906  0.71923940  1.0
  H  H40  1  0.39543630  0.45812926  0.81942167  1.0
  H  H41  1  0.43899749  0.42443920  0.88111740  1.0
  H  H42  1  0.39916447  0.56067218  0.85753152  1.0
  H  H43  1  0.60833821  0.44581356  0.86416700  1.0
  H  H44  1  0.56951860  0.47619320  0.80284807  1.0
  H  H45  1  0.97381547  0.91895010  0.79822871  1.0
  H  H46  1  0.92581978  0.87619432  0.84977308  1.0
  H  H47  1  0.96728588  0.79248305  0.79687384  1.0
  H  H48  1  0.75295649  0.90854232  0.80479851  1.0
  H  H49  1  0.80454659  0.93304962  0.75005872  1.0
  H  H50  1  0.43133802  0.98376469  0.64502577  1.0
  H  H51  1  0.81172800  0.04754786  0.87275194  1.0
  H  H52  1  0.46259825  0.16062008  0.63053936  1.0
  H  H53  1  0.84894297  0.53979815  0.20539992  1.0
  H  H54  1  0.91533368  0.14109009  0.77573298  1.0
  H  H55  1  0.95375054  0.17292732  0.71827230  1.0
  H  H56  1  0.96489817  0.03928487  0.72886061  1.0
  H  H57  1  0.15522641  0.02178457  0.73171695  1.0
  H  H58  1  0.11839438  0.98432400  0.78760792  1.0
  H  H59  1  0.03664136  0.12779742  0.85450685  1.0
  H  H60  1  0.38439854  0.03542291  0.73169399  1.0
  H  H61  1  0.09903537  0.24853751  0.60285227  1.0
  H  H62  1  0.25995185  0.31851780  0.69796385  1.0
  H  H63  1  0.16811907  0.43578886  0.73352298  1.0
  H  H64  1  0.31102700  0.40160822  0.72523922  1.0
  H  H65  1  0.31124711  0.33487549  0.80519246  1.0
  H  H66  1  0.37171370  0.21407787  0.76998141  1.0
  H  H67  1  0.31153093  0.21946967  0.92650445  1.0
  H  H68  1  0.38443397  0.23791296  0.87687430  1.0
  H  H69  1  0.33654045  0.33531342  0.92563250  1.0
  H  H70  1  0.20484615  0.42020470  0.85432179  1.0
  H  H71  1  0.13517932  0.40033533  0.90388000  1.0
  H  H72  1  0.46769232  0.79676572  0.27413464  1.0
  H  H73  1  0.04723105  0.28842837  0.69034780  1.0
  H  H74  1  0.82872590  0.58534036  0.29352228  1.0
  H  H75  1  0.71825487  0.97346317  0.26520117  1.0
  H  H76  1  0.83961098  0.82787013  0.21297152  1.0
  H  H77  1  0.69600148  0.86235261  0.20608284  1.0
  H  H78  1  0.79360455  0.79522888  0.15825922  1.0
  H  H79  1  0.67313373  0.99735535  0.13713628  1.0
  H  H80  1  0.81352182  0.96459389  0.14408987  1.0
  H  H81  1  0.61605898  0.35184696  0.19883157  1.0
  H  H82  1  0.60259400  0.32537446  0.28829129  1.0
  H  H83  1  0.04848675  0.48961176  0.22326831  1.0
  H  H84  1  0.40438126  0.15856277  0.31567255  1.0
  H  H85  1  0.40431325  0.23749112  0.26390291  1.0
  H  H86  1  0.39301041  0.29210450  0.32362394  1.0
  H  H87  1  0.20222355  0.38623868  0.28296854  1.0
  H  H88  1  0.20503968  0.30810572  0.33487925  1.0
  H  H89  1  0.09749512  0.52022001  0.16826741  1.0
  H  H90  1  0.29488975  0.35511068  0.51651671  1.0
  H  H91  1  0.06363294  0.99343189  0.95449731  1.0
  C  C92  1  0.29574466  0.08506568  0.42868553  1.0
  C  C93  1  0.69671746  0.05546877  0.24985286  1.0
  C  C94  1  0.76886675  0.85855464  0.18693788  1.0
  C  C95  1  0.23775306  0.30022666  0.29769038  1.0
  C  C96  1  0.36743417  0.24396262  0.30016002  1.0
  C  C97  1  0.70362847  0.06842860  0.19992537  1.0
  C  C98  1  0.59954547  0.79557386  0.43010933  1.0
  C  C99  1  0.63810436  0.26934292  0.21386386  1.0
  C  C100  1  0.63114704  0.25482122  0.26342925  1.0
  C  C101  1  0.66096352  0.14709740  0.28188824  1.0
  C  C102  1  0.67440998  0.17752913  0.18192942  1.0
  C  C103  1  0.68423297  0.19532504  0.13188552  1.0
  C  C104  1  0.65147458  0.13061390  0.33208085  1.0
  C  C105  1  0.69527656  0.21239654  0.08915352  1.0
  C  C106  1  0.76585040  0.59585372  0.22067471  1.0
  C  C107  1  0.24092449  0.10224155  0.38231209  1.0
  C  C108  1  0.19852236  0.23447252  0.26741859  1.0
  C  C109  1  0.17808231  0.25448503  0.21720578  1.0
  C  C110  1  0.61394265  0.09069713  0.42244534  1.0
  C  C111  1  0.12577683  0.10582189  0.21366241  1.0
  C  C112  1  0.14866482  0.08401521  0.26275302  1.0
  C  C113  1  0.18517383  0.14738799  0.28982122  1.0
  C  C114  1  0.14034629  0.19055324  0.19067737  1.0
  C  C115  1  0.11353346  0.21167604  0.14060608  1.0
  C  C116  1  0.21238096  0.12207619  0.33967196  1.0
  C  C117  1  0.75460705  0.62119766  0.26979681  1.0
  C  C118  1  0.08571940  0.22807715  0.09785276  1.0
  C  C119  1  0.63646204  0.76326712  0.61623817  1.0
  C  C120  1  0.61989059  0.67552163  0.63302129  1.0
  C  C121  1  0.63653361  0.64487349  0.68207082  1.0
  C  C122  1  0.30627865  0.08777377  0.56683122  1.0
  C  C123  1  0.66218546  0.70520902  0.71609997  1.0
  C  C124  1  0.67548384  0.79509746  0.69886198  1.0
  C  C125  1  0.66649384  0.82154854  0.64946114  1.0
  C  C126  1  0.77979180  0.64102980  0.79264286  1.0
  C  C127  1  0.79227156  0.60805732  0.84150835  1.0
  C  C128  1  0.64690125  0.69387415  0.28971390  1.0
  C  C129  1  0.59930055  0.64543801  0.84417504  1.0
  C  C130  1  0.58398587  0.67638335  0.79504551  1.0
  C  C131  1  0.67486885  0.67457642  0.76887643  1.0
  C  C132  1  0.70317314  0.60895120  0.86738682  1.0
  C  C133  1  0.63718061  0.10208199  0.61334483  1.0
  C  C134  1  0.61543394  0.80300066  0.56476710  1.0
  C  C135  1  0.74578817  0.07068321  0.63180724  1.0
  C  C136  1  0.75529238  0.08238414  0.68190882  1.0
  C  C137  1  0.66388633  0.12130689  0.71405951  1.0
  C  C138  1  0.55871738  0.14426379  0.69516351  1.0
  C  C139  1  0.66990477  0.64255223  0.18980186  1.0
  C  C140  1  0.54541142  0.13755178  0.64555204  1.0
  C  C141  1  0.61882955  0.26823130  0.77622450  1.0
  C  C142  1  0.62870868  0.30420660  0.82308749  1.0
  C  C143  1  0.75571551  0.10747277  0.84537512  1.0
  C  C144  1  0.74266688  0.07012339  0.80009037  1.0
  C  C145  1  0.67453097  0.15193549  0.76496772  1.0
  C  C146  1  0.60972966  0.09495785  0.56151068  1.0
  C  C147  1  0.70010582  0.22197622  0.85734643  1.0
  C  C148  1  0.26816767  0.11309785  0.61845551  1.0
  C  C149  1  0.34768547  0.05206930  0.65491592  1.0
  C  C150  1  0.68361953  0.61547878  0.13973919  1.0
  C  C151  1  0.32105060  0.08050413  0.70356920  1.0
  C  C152  1  0.21251836  0.16462582  0.71700991  1.0
  C  C153  1  0.13217324  0.22292859  0.68022634  1.0
  C  C154  1  0.16048381  0.20007018  0.63125588  1.0
  C  C155  1  0.12078060  0.13847740  0.78993340  1.0
  C  C156  1  0.08370651  0.16455385  0.83769207  1.0
  C  C157  1  0.16842559  0.28492104  0.84566464  1.0
  C  C158  1  0.62439689  0.74586203  0.38272027  1.0
  C  C159  1  0.20940690  0.25637510  0.79745931  1.0
  C  C160  1  0.18021519  0.18833707  0.76923276  1.0
  C  C161  1  0.63522304  0.72090194  0.33977734  1.0
  C  C162  1  0.10315457  0.23910267  0.86507863  1.0
  C  C163  1  0.72126975  0.24066653  0.04225460  1.0
  C  C164  1  0.72995402  0.53940843  0.04956443  1.0
  C  C165  1  0.03498737  0.24961635  0.05039519  1.0
  C  C166  1  0.73129154  0.24993683  0.90534129  1.0
  C  C167  1  0.72550327  0.55531036  0.91621390  1.0
  C  C168  1  0.04671617  0.26489056  0.91367152  1.0
  C  C169  1  0.55081664  0.74040001  0.25886547  1.0
  C  C170  1  0.56216502  0.71514201  0.20966257  1.0
  C  C171  1  0.19332421  0.34333173  0.19073439  1.0
  C  C172  1  0.69973850  0.58902981  0.09698309  1.0
  C  C173  1  0.08304797  0.45715123  0.18702314  1.0
  C  C174  1  0.87946391  0.63508471  0.76526135  1.0
  C  C175  1  0.99141084  0.57978926  0.79306703  1.0
  C  C176  1  0.47022169  0.70931986  0.77240914  1.0
  C  C177  1  0.40152135  0.83366378  0.75794374  1.0
  C  C178  1  0.84945620  0.03736106  0.60091907  1.0
  C  C179  1  0.86354497  0.13961809  0.58849145  1.0
  C  C180  1  0.55986071  0.35517150  0.73614013  1.0
  C  C181  1  0.64540982  0.37418215  0.70697828  1.0
  C  C182  1  0.56642784  0.42827331  0.83446401  1.0
  C  C183  1  0.63996750  0.11567037  0.37497385  1.0
  C  C184  1  0.44283781  0.47035439  0.84887308  1.0
  C  C185  1  0.80305556  0.94499684  0.78957965  1.0
  C  C186  1  0.92403611  0.87965519  0.80985201  1.0
  C  C187  1  0.09811311  0.05603190  0.76297025  1.0
  C  C188  1  0.97574260  0.10593107  0.74557341  1.0
  C  C189  1  0.29097645  0.29175377  0.77692390  1.0
  C  C190  1  0.25524473  0.36565806  0.73071883  1.0
  C  C191  1  0.20111930  0.35521953  0.87680935  1.0
  C  C192  1  0.31505041  0.28289904  0.90285302  1.0
  C  C193  1  0.74041093  0.97235518  0.16474299  1.0
  O  O194  1  0.52381340  0.16336438  0.44254519  1.0
  O  O195  1  0.82825991  0.51539011  0.03405782  1.0
  O  O196  1  0.02149330  0.33880259  0.02758327  1.0
  O  O197  1  0.32931178  0.15396479  0.43855956  1.0
  O  O198  1  0.03114443  0.18976980  0.93356493  1.0
  O  O199  1  0.83215281  0.18644920  0.91955234  1.0
  O  O200  1  0.65638343  0.33609248  0.92925809  1.0
  O  O201  1  0.65586578  0.52436184  0.93202610  1.0
  O  O202  1  0.81603626  0.53549756  0.93857539  1.0
  O  O203  1  0.00986763  0.36441436  0.93155486  1.0
  O  O204  1  0.83895899  0.33491365  0.97948922  1.0
  O  O205  1  0.52963293  0.80944176  0.54267381  1.0
  O  O206  1  0.30964627  0.00093483  0.45560529  1.0
  O  O207  1  0.50148094  0.82353553  0.44725167  1.0
  O  O208  1  0.67361447  0.81320724  0.45060932  1.0
  O  O209  1  0.68491228  0.99181214  0.43961774  1.0
  O  O210  1  0.51002490  0.16244115  0.54733877  1.0
  O  O211  1  0.30958639  0.16384224  0.54179143  1.0
  O  O212  1  0.33986340  0.98614506  0.55268493  1.0
  O  O213  1  0.68172935  0.83500386  0.54657931  1.0
  O  O214  1  0.68586411  0.01616484  0.53474225  1.0
  O  O215  1  0.49863315  0.00845875  0.49451147  1.0
  O  O216  1  0.00459164  0.18151444  0.03550229  1.0
  O  O217  1  0.81296074  0.17063684  0.02239065  1.0
  O  O218  1  0.64874899  0.33934723  0.02544229  1.0
  O  O219  1  0.65969211  0.51862745  0.02768747  1.0
  O  O220  1  0.34158332  0.31707613  0.48873878  1.0
  O  O221  1  0.99845762  0.02639542  0.97569036  1.0
