# generated using pymatgen
data_CuH10C8(NO2)2
_symmetry_space_group_name_H-M   'P 1'
_cell_length_a   4.84347835
_cell_length_b   12.74699429
_cell_length_c   16.26507107
_cell_angle_alpha   90.00454270
_cell_angle_beta   90.00198556
_cell_angle_gamma   84.27400015
_symmetry_Int_Tables_number   1
_chemical_formula_structural   CuH10C8(NO2)2
_chemical_formula_sum   'Cu4 H40 C32 N8 O16'
_cell_volume   999.19151403
_cell_formula_units_Z   4
loop_
 _symmetry_equiv_pos_site_id
 _symmetry_equiv_pos_as_xyz
  1  'x, y, z'
loop_
 _atom_site_type_symbol
 _atom_site_label
 _atom_site_symmetry_multiplicity
 _atom_site_fract_x
 _atom_site_fract_y
 _atom_site_fract_z
 _atom_site_occupancy
  Cu  Cu0  1  0.52948177  0.67218921  0.22739534  1.0
  Cu  Cu1  1  0.97051796  0.82775555  0.72740763  1.0
  Cu  Cu2  1  0.47051516  0.32774061  0.77260729  1.0
  Cu  Cu3  1  0.02949469  0.17221608  0.27260116  1.0
  H  H4  1  0.64282158  0.55233966  0.01166735  1.0
  H  H5  1  0.85717662  0.94771728  0.51172773  1.0
  H  H6  1  0.35711009  0.44769579  0.98830639  1.0
  H  H7  1  0.14272265  0.05231579  0.48830565  1.0
  H  H8  1  0.86327214  0.63376631  0.06132650  1.0
  H  H9  1  0.63674155  0.86629313  0.56138571  1.0
  H  H10  1  0.13672432  0.36627390  0.93860974  1.0
  H  H11  1  0.36323154  0.13375733  0.43870301  1.0
  H  H12  1  0.35294816  0.68921912  0.92624959  1.0
  H  H13  1  0.14716189  0.81087540  0.42627171  1.0
  H  H14  1  0.64715703  0.31088581  0.07374138  1.0
  H  H15  1  0.85291733  0.18921847  0.57375245  1.0
  H  H16  1  0.01037649  0.84928048  0.92762384  1.0
  H  H17  1  0.48962070  0.65078101  0.42760202  1.0
  H  H18  1  0.98966791  0.15079683  0.07240463  1.0
  H  H19  1  0.51033252  0.34928205  0.57238771  1.0
  H  H20  1  0.91827652  0.94661994  0.06148036  1.0
  H  H21  1  0.58153045  0.55336292  0.56142243  1.0
  H  H22  1  0.08161504  0.05338001  0.93857392  1.0
  H  H23  1  0.41820949  0.44660935  0.43853594  1.0
  H  H24  1  0.16553923  0.87597798  0.18851772  1.0
  H  H25  1  0.33416374  0.62391964  0.68845508  1.0
  H  H26  1  0.83425609  0.12393361  0.81154087  1.0
  H  H27  1  0.66548346  0.37596663  0.31149960  1.0
  H  H28  1  0.10400136  0.53545309  0.35554575  1.0
  H  H29  1  0.39599100  0.96452486  0.85551965  1.0
  H  H30  1  0.89599482  0.46455716  0.64452698  1.0
  H  H31  1  0.60397752  0.03543412  0.14446023  1.0
  H  H32  1  0.88888936  0.81016751  0.30538268  1.0
  H  H33  1  0.61119418  0.68981487  0.80535198  1.0
  H  H34  1  0.11117126  0.18983331  0.69461504  1.0
  H  H35  1  0.38887609  0.31014968  0.19457074  1.0
  H  H36  1  0.80231460  0.50804469  0.15630434  1.0
  H  H37  1  0.69793587  0.99198156  0.65637506  1.0
  H  H38  1  0.19795050  0.49197910  0.84364604  1.0
  H  H39  1  0.30236892  0.00807931  0.34367000  1.0
  H  H40  1  0.45632844  0.51051345  0.14327104  1.0
  H  H41  1  0.04393439  0.98947151  0.64333818  1.0
  H  H42  1  0.54397157  0.48945674  0.85668795  1.0
  H  H43  1  0.95637913  0.01052550  0.35667429  1.0
  C  C44  1  0.65463947  0.60654916  0.06375617  1.0
  C  C45  1  0.84539952  0.89348608  0.56379339  1.0
  C  C46  1  0.34537871  0.39347923  0.93622310  1.0
  C  C47  1  0.15460009  0.10654231  0.43623876  1.0
  C  C48  1  0.44217597  0.70012969  0.05593079  1.0
  C  C49  1  0.05782125  0.79989155  0.55593957  1.0
  C  C50  1  0.55781811  0.29988844  0.94407123  1.0
  C  C51  1  0.94211958  0.20012499  0.44407167  1.0
  C  C52  1  0.31066448  0.73337201  0.98294093  1.0
  C  C53  1  0.18938631  0.76669097  0.48294476  1.0
  C  C54  1  0.68939276  0.26669584  0.01706232  1.0
  C  C55  1  0.81061604  0.23337370  0.51706095  1.0
  C  C56  1  0.11822549  0.82259462  0.98397069  1.0
  C  C57  1  0.38176107  0.67744635  0.48395311  1.0
  C  C58  1  0.88180764  0.17746297  0.01605224  1.0
  C  C59  1  0.61816954  0.32259305  0.51603662  1.0
  C  C60  1  0.06436161  0.87608197  0.05801424  1.0
  C  C61  1  0.43550710  0.62391101  0.55797354  1.0
  C  C62  1  0.93557596  0.12392352  0.94202652  1.0
  C  C63  1  0.56430090  0.37607706  0.44199836  1.0
  C  C64  1  0.19993201  0.83783041  0.12898546  1.0
  C  C65  1  0.29984165  0.66211663  0.62894144  1.0
  C  C66  1  0.79991370  0.16212457  0.87106021  1.0
  C  C67  1  0.69986602  0.33782172  0.37102677  1.0
  C  C68  1  0.97609342  0.58550067  0.31113205  1.0
  C  C69  1  0.52392693  0.91446568  0.81111686  1.0
  C  C70  1  0.02392773  0.41446229  0.68890564  1.0
  C  C71  1  0.47607785  0.08551224  0.18885873  1.0
  C  C72  1  0.67921818  0.84823279  0.32135444  1.0
  C  C73  1  0.82083568  0.65174404  0.82136041  1.0
  C  C74  1  0.32080122  0.15175224  0.67861746  1.0
  C  C75  1  0.17920111  0.34822996  0.17861703  1.0
  N  N76  1  0.62246931  0.55631557  0.14416541  1.0
  N  N77  1  0.87772750  0.94368976  0.64422144  1.0
  N  N78  1  0.37773974  0.44368611  0.85580465  1.0
  N  N79  1  0.12250416  0.05633560  0.35581009  1.0
  N  N80  1  0.38311975  0.75159401  0.12752108  1.0
  N  N81  1  0.11670329  0.74836079  0.62750574  1.0
  N  N82  1  0.61675010  0.24836334  0.87250001  1.0
  N  N83  1  0.88306730  0.25158942  0.37248644  1.0
  O  O84  1  0.71260456  0.58376518  0.31873713  1.0
  O  O85  1  0.78741834  0.91620270  0.81873766  1.0
  O  O86  1  0.28742320  0.41619620  0.68128887  1.0
  O  O87  1  0.21258431  0.08379099  0.18125084  1.0
  O  O88  1  0.09054256  0.63818333  0.25855637  1.0
  O  O89  1  0.40952453  0.86178124  0.75852157  1.0
  O  O90  1  0.90952123  0.36175125  0.74146963  1.0
  O  O91  1  0.59053941  0.13821485  0.24142635  1.0
  O  O92  1  0.47074604  0.80171968  0.29717066  1.0
  O  O93  1  0.02936455  0.69822267  0.79718268  1.0
  O  O94  1  0.52935708  0.19819127  0.70283197  1.0
  O  O95  1  0.97073495  0.30176398  0.20285623  1.0
  O  O96  1  0.65848432  0.93314981  0.36138692  1.0
  O  O97  1  0.84148658  0.56686164  0.86142349  1.0
  O  O98  1  0.34143845  0.06688800  0.63851304  1.0
  O  O99  1  0.15844804  0.43310836  0.13855149  1.0
