# generated using pymatgen
data_NiH24C36(NO2)2
_symmetry_space_group_name_H-M   'P 1'
_cell_length_a   16.91312924
_cell_length_b   16.91308404
_cell_length_c   16.91402329
_cell_angle_alpha   107.70575062
_cell_angle_beta   107.72571231
_cell_angle_gamma   113.03972306
_symmetry_Int_Tables_number   1
_chemical_formula_structural   NiH24C36(NO2)2
_chemical_formula_sum   'Ni4 H96 C144 N8 O16'
_cell_volume   3713.73581410
_cell_formula_units_Z   4
loop_
 _symmetry_equiv_pos_site_id
 _symmetry_equiv_pos_as_xyz
  1  'x, y, z'
loop_
 _atom_site_type_symbol
 _atom_site_label
 _atom_site_symmetry_multiplicity
 _atom_site_fract_x
 _atom_site_fract_y
 _atom_site_fract_z
 _atom_site_occupancy
  Ni  Ni0  1  0.35081102  0.35080849  0.00000183  1.0
  Ni  Ni1  1  0.10064028  0.60064387  0.50000243  1.0
  Ni  Ni2  1  0.85737535  0.85737034  0.00000025  1.0
  Ni  Ni3  1  0.60735158  0.10735545  0.49999789  1.0
  H  H4  1  0.89716158  0.39829924  0.70978140  1.0
  H  H5  1  0.68851377  0.18737531  0.29021024  1.0
  H  H6  1  0.93742166  0.14719581  0.99881538  1.0
  H  H7  1  0.14838296  0.93860718  0.00118526  1.0
  H  H8  1  0.38965652  0.68618686  0.49865971  1.0
  H  H9  1  0.18752132  0.89100123  0.50133924  1.0
  H  H10  1  0.43618906  0.43756236  0.79650979  1.0
  H  H11  1  0.64105047  0.63967501  0.20348427  1.0
  H  H12  1  0.00458659  0.57816392  0.77483035  1.0
  H  H13  1  0.80333199  0.22975247  0.22516405  1.0
  H  H14  1  0.97980247  0.25456937  0.92633160  1.0
  H  H15  1  0.32823830  0.05347484  0.07366776  1.0
  H  H16  1  0.50164426  0.73146829  0.43135229  1.0
  H  H17  1  0.30011856  0.07029759  0.56865189  1.0
  H  H18  1  0.48141091  0.55008630  0.72967630  1.0
  H  H19  1  0.82040726  0.75173112  0.27032286  1.0
  H  H20  1  0.74884763  0.59280456  0.66030270  1.0
  H  H21  1  0.93250332  0.08854865  0.33970195  1.0
  H  H22  1  0.83854495  0.99882071  0.65604078  1.0
  H  H23  1  0.34277498  0.18250233  0.34395849  1.0
  H  H24  1  0.25248190  0.58927242  0.15590174  1.0
  H  H25  1  0.43336930  0.09657451  0.84409753  1.0
  H  H26  1  0.33923966  0.68340798  0.83663300  1.0
  H  H27  1  0.84677631  0.50260724  0.16336688  1.0
  H  H28  1  0.64247213  0.41404905  0.59971762  1.0
  H  H29  1  0.81432888  0.04275349  0.40028365  1.0
  H  H30  1  0.79258723  0.89248905  0.72841719  1.0
  H  H31  1  0.16406776  0.06416658  0.27158144  1.0
  H  H32  1  0.14144499  0.54151073  0.22369366  1.0
  H  H33  1  0.31781190  0.91774427  0.77630157  1.0
  H  H34  1  0.29147507  0.56780348  0.89988239  1.0
  H  H35  1  0.66792292  0.39159036  0.10011390  1.0
  H  H36  1  0.06556464  0.68977486  0.73379493  1.0
  H  H37  1  0.95598187  0.33177019  0.26620609  1.0
  H  H38  1  0.08153506  0.31554987  0.87572516  1.0
  H  H39  1  0.43982278  0.20581001  0.12427583  1.0
  H  H40  1  0.56555327  0.83370157  0.37872130  1.0
  H  H41  1  0.45498238  0.18683236  0.62128104  1.0
  H  H42  1  0.58364343  0.70493723  0.76796274  1.0
  H  H43  1  0.93697200  0.81568126  0.23203729  1.0
  H  H44  1  0.16976375  0.86033224  0.77905938  1.0
  H  H45  1  0.08127825  0.39070588  0.22094473  1.0
  H  H46  1  0.14042785  0.41978860  0.80934451  1.0
  H  H47  1  0.61043983  0.33108434  0.19065642  1.0
  H  H48  1  0.67033092  0.89257810  0.31193100  1.0
  H  H49  1  0.58064931  0.35839779  0.68807079  1.0
  H  H50  1  0.64257261  0.83076230  0.72224394  1.0
  H  H51  1  0.10851558  0.92032881  0.27775516  1.0
  H  H52  1  0.95733536  0.91920309  0.82731554  1.0
  H  H53  1  0.09188707  0.13001777  0.17268516  1.0
  H  H54  1  0.87997321  0.20717937  0.53798034  1.0
  H  H55  1  0.66918972  0.34198573  0.46202045  1.0
  H  H56  1  0.46019137  0.62973883  0.04212588  1.0
  H  H57  1  0.58760650  0.41805822  0.95787509  1.0
  H  H58  1  0.37966617  0.83769775  0.66952262  1.0
  H  H59  1  0.16817218  0.71014036  0.33047388  1.0
  H  H60  1  0.85125522  0.74755420  0.77912237  1.0
  H  H61  1  0.96842938  0.07213029  0.22087635  1.0
  H  H62  1  0.82207791  0.10103159  0.60353609  1.0
  H  H63  1  0.49748602  0.21853820  0.39646399  1.0
  H  H64  1  0.35444991  0.57164465  0.10772797  1.0
  H  H65  1  0.46391280  0.24671423  0.89227014  1.0
  H  H66  1  0.32155728  0.71382790  0.71701265  1.0
  H  H67  1  0.99681317  0.60454213  0.28298437  1.0
  H  H68  1  0.01950221  0.03564260  0.78775104  1.0
  H  H69  1  0.24789465  0.23175346  0.21225631  1.0
  H  H70  1  0.98173516  0.26935312  0.48388611  1.0
  H  H71  1  0.78546008  0.49784427  0.51611425  1.0
  H  H72  1  0.52386127  0.73332735  0.98743141  1.0
  H  H73  1  0.74589000  0.53641948  0.01256593  1.0
  H  H74  1  0.48328988  0.99596237  0.70941442  1.0
  H  H75  1  0.28654930  0.77387838  0.29058832  1.0
  H  H76  1  0.13334048  0.21472932  0.85685783  1.0
  H  H77  1  0.35787696  0.27648163  0.14314942  1.0
  H  H78  1  0.02635083  0.38313707  0.41853756  1.0
  H  H79  1  0.96459052  0.60781114  0.58146249  1.0
  H  H80  1  0.64055909  0.78324093  0.92610082  1.0
  H  H81  1  0.85713965  0.71444610  0.07389922  1.0
  H  H82  1  0.53327776  0.10725969  0.64267637  1.0
  H  H83  1  0.46458167  0.89060636  0.35732461  1.0
  H  H84  1  0.37690466  0.19830172  0.96838027  1.0
  H  H85  1  0.22993277  0.40853150  0.03162592  1.0
  H  H86  1  0.15843668  0.62672594  0.67846477  1.0
  H  H87  1  0.94825688  0.47997377  0.32153523  1.0
  H  H88  1  0.88070479  0.91398187  0.18814942  1.0
  H  H89  1  0.72583770  0.69255571  0.81185475  1.0
  H  H90  1  0.66398799  0.97588886  0.53332247  1.0
  H  H91  1  0.44255976  0.13066546  0.46668223  1.0
  H  H92  1  0.27351366  0.01643462  0.90113171  1.0
  H  H93  1  0.11530748  0.37238470  0.09887003  1.0
  H  H94  1  0.12216829  0.52335309  0.75693112  1.0
  H  H95  1  0.76642073  0.36523358  0.24306823  1.0
  H  H96  1  0.77455744  0.87249307  0.26256311  1.0
  H  H97  1  0.60993200  0.51199633  0.73743815  1.0
  H  H98  1  0.62255554  0.86006080  0.59807545  1.0
  H  H99  1  0.26197976  0.02447840  0.40192868  1.0
  C  C100  1  0.70141076  0.28578023  0.60554879  1.0
  C  C101  1  0.68022387  0.09586001  0.39444852  1.0
  C  C102  1  0.84581775  0.95151272  0.91568902  1.0
  C  C103  1  0.03582490  0.93012534  0.08431085  1.0
  C  C104  1  0.18634683  0.58593781  0.40154042  1.0
  C  C105  1  0.18439374  0.78480969  0.59846212  1.0
  C  C106  1  0.33597573  0.43438498  0.89941859  1.0
  C  C107  1  0.53496905  0.43655571  0.10057643  1.0
  C  C108  1  0.76313545  0.39486159  0.65132529  1.0
  C  C109  1  0.74353409  0.11180952  0.34867172  1.0
  C  C110  1  0.86167240  0.01317123  0.86824263  1.0
  C  C111  1  0.14492790  0.99342713  0.13175574  1.0
  C  C112  1  0.25810043  0.61017354  0.36498171  1.0
  C  C113  1  0.24518782  0.89312114  0.63501895  1.0
  C  C114  1  0.36008506  0.49517282  0.85185496  1.0
  C  C115  1  0.64331815  0.50822914  0.14814100  1.0
  C  C116  1  0.86561102  0.44215432  0.70077051  1.0
  C  C117  1  0.74138440  0.16484140  0.29922628  1.0
  C  C118  1  0.91479324  0.11563355  0.92339865  1.0
  C  C119  1  0.19223671  0.99139440  0.07660042  1.0
  C  C120  1  0.36009199  0.66433302  0.42341090  1.0
  C  C121  1  0.24091815  0.93668535  0.57658913  1.0
  C  C122  1  0.41426201  0.49089871  0.80407109  1.0
  C  C123  1  0.68682760  0.61018949  0.19592331  1.0
  C  C124  1  0.92516672  0.54240638  0.73574790  1.0
  C  C125  1  0.80665911  0.18941827  0.26424777  1.0
  C  C126  1  0.93939386  0.17516422  0.88267713  1.0
  C  C127  1  0.29248834  0.05671830  0.11732293  1.0
  C  C128  1  0.42252024  0.69044129  0.38543721  1.0
  C  C129  1  0.30500447  0.03708603  0.61456431  1.0
  C  C130  1  0.44029058  0.55491500  0.76765916  1.0
  C  C131  1  0.78725455  0.67262862  0.23233666  1.0
  C  C132  1  0.88503224  0.59898349  0.72149228  1.0
  C  C133  1  0.87749110  0.16353787  0.27850793  1.0
  C  C134  1  0.91349724  0.13499345  0.78598136  1.0
  C  C135  1  0.34900803  0.12751602  0.21401715  1.0
  C  C136  1  0.38570573  0.66462455  0.28874726  1.0
  C  C137  1  0.37587732  0.09695745  0.71125270  1.0
  C  C138  1  0.41450355  0.62580276  0.77864313  1.0
  C  C139  1  0.84715802  0.63585794  0.22135294  1.0
  C  C140  1  0.78200592  0.55120824  0.67381223  1.0
  C  C141  1  0.87739318  0.10819304  0.32618933  1.0
  C  C142  1  0.85812894  0.03199154  0.73077439  1.0
  C  C143  1  0.30121270  0.12735308  0.26922527  1.0
  C  C144  1  0.28316323  0.60878562  0.23065685  1.0
  C  C145  1  0.37812731  0.05250409  0.76934383  1.0
  C  C146  1  0.35867477  0.62810279  0.82535327  1.0
  C  C147  1  0.80274973  0.53332071  0.17464349  1.0
  C  C148  1  0.72203758  0.45090453  0.63964585  1.0
  C  C149  1  0.81125764  0.08239233  0.36035609  1.0
  C  C150  1  0.83225010  0.97205288  0.77111529  1.0
  C  C151  1  0.20093403  0.06113232  0.22888350  1.0
  C  C152  1  0.22077565  0.58196393  0.26812237  1.0
  C  C153  1  0.31383859  0.95265089  0.73187633  1.0
  C  C154  1  0.33184457  0.56380041  0.86091769  1.0
  C  C155  1  0.70288309  0.47092462  0.13907910  1.0
  C  C156  1  0.94901148  0.70370181  0.75182631  1.0
  C  C157  1  0.95187553  0.19718385  0.24817417  1.0
  C  C158  1  0.94707979  0.19893011  0.74520502  1.0
  C  C159  1  0.45371992  0.20187319  0.25479318  1.0
  C  C160  1  0.45105888  0.69784846  0.24910832  1.0
  C  C161  1  0.44874343  0.20194805  0.75089334  1.0
  C  C162  1  0.44778959  0.69869614  0.74656882  1.0
  C  C163  1  0.95212603  0.70121872  0.25343034  1.0
  C  C164  1  0.04119179  0.73960210  0.75519862  1.0
  C  C165  1  0.98440628  0.28599336  0.24480377  1.0
  C  C166  1  0.03581309  0.29114923  0.80150168  1.0
  C  C167  1  0.48964504  0.23431171  0.19849903  1.0
  C  C168  1  0.54238156  0.78743035  0.30504496  1.0
  C  C169  1  0.48238801  0.23733536  0.69495721  1.0
  C  C170  1  0.53738458  0.73237496  0.74488341  1.0
  C  C171  1  0.98748926  0.79250028  0.25511556  1.0
  C  C172  1  0.10133788  0.83755491  0.78190474  1.0
  C  C173  1  0.05565254  0.31943248  0.21809728  1.0
  C  C174  1  0.06919245  0.35133543  0.76371841  1.0
  C  C175  1  0.58761413  0.30547359  0.23628120  1.0
  C  C176  1  0.60250347  0.82076589  0.26715694  1.0
  C  C177  1  0.55361180  0.33534274  0.73284408  1.0
  C  C178  1  0.57071834  0.80365482  0.71816412  1.0
  C  C179  1  0.08548797  0.85255361  0.28183558  1.0
  C  C180  1  0.07184717  0.90419634  0.80707993  1.0
  C  C181  1  0.09711566  0.26476456  0.19291823  1.0
  C  C182  1  0.01458433  0.32173542  0.66756892  1.0
  C  C183  1  0.65416228  0.34700966  0.33242981  1.0
  C  C184  1  0.57393664  0.76538833  0.17146102  1.0
  C  C185  1  0.59392728  0.40247205  0.82853938  1.0
  C  C186  1  0.51533951  0.84399991  0.69139747  1.0
  C  C187  1  0.15260070  0.82394191  0.30860336  1.0
  C  C188  1  0.98000058  0.86858319  0.80373712  1.0
  C  C189  1  0.06484702  0.17626270  0.19626411  1.0
  C  C190  1  0.92614626  0.22984301  0.61129321  1.0
  C  C191  1  0.61854176  0.31485020  0.38870665  1.0
  C  C192  1  0.48285796  0.67601140  0.11546131  1.0
  C  C193  1  0.56054955  0.36739086  0.88454066  1.0
  C  C194  1  0.42595063  0.81060522  0.69307375  1.0
  C  C195  1  0.11752873  0.73287482  0.30692380  1.0
  C  C196  1  0.91977371  0.77056474  0.77648563  1.0
  C  C197  1  0.99407833  0.14328649  0.22351486  1.0
  C  C198  1  0.89318499  0.16959334  0.64906629  1.0
  C  C199  1  0.52051964  0.24411749  0.35093437  1.0
  C  C200  1  0.42274300  0.64295905  0.15337442  1.0
  C  C201  1  0.48958474  0.26936390  0.84662681  1.0
  C  C202  1  0.39289611  0.73956748  0.72005296  1.0
  C  C203  1  0.01951174  0.67284058  0.27994447  1.0
  C  C204  1  0.13603522  0.00914459  0.83987349  1.0
  C  C205  1  0.16927320  0.29616268  0.16012653  1.0
  C  C206  1  0.04598982  0.38589333  0.62680262  1.0
  C  C207  1  0.75908509  0.41917984  0.37319593  1.0
  C  C208  1  0.63881122  0.79755489  0.13145655  1.0
  C  C209  1  0.66609706  0.50735025  0.86854317  1.0
  C  C210  1  0.54756630  0.91621496  0.65877137  1.0
  C  C211  1  0.25744113  0.88879586  0.34122953  1.0
  C  C212  1  0.09819428  0.06766658  0.82715374  1.0
  C  C213  1  0.24051452  0.27104110  0.17284939  1.0
  C  C214  1  0.02094807  0.34802603  0.53049295  1.0
  C  C215  1  0.81752637  0.49044829  0.46950513  1.0
  C  C216  1  0.60242966  0.77350183  0.03535757  1.0
  C  C217  1  0.73814111  0.56706611  0.96464239  1.0
  C  C218  1  0.52351545  0.98825124  0.67108935  1.0
  C  C219  1  0.31716131  0.85242823  0.32891209  1.0
  C  C220  1  0.16093842  0.16794309  0.86554661  1.0
  C  C221  1  0.30240180  0.29539380  0.13445868  1.0
  C  C222  1  0.04526234  0.41073813  0.49290847  1.0
  C  C223  1  0.91782126  0.55234924  0.50709012  1.0
  C  C224  1  0.66703943  0.80095218  0.00024980  1.0
  C  C225  1  0.80070391  0.66678272  0.99975041  1.0
  C  C226  1  0.55101287  0.05083862  0.63396321  1.0
  C  C227  1  0.41687344  0.91705253  0.36603803  1.0
  C  C228  1  0.29717249  0.15757402  0.92626780  1.0
  C  C229  1  0.23131469  0.37090784  0.07373769  1.0
  C  C230  1  0.12074755  0.54699109  0.63946779  1.0
  C  C231  1  0.90751887  0.48127942  0.36053226  1.0
  C  C232  1  0.80108056  0.87532604  0.14711878  1.0
  C  C233  1  0.72821150  0.65396016  0.85288373  1.0
  C  C234  1  0.62537966  0.97830830  0.57432391  1.0
  C  C235  1  0.40398012  0.05105705  0.42567934  1.0
  C  C236  1  0.23878441  0.05701901  0.88888040  1.0
  C  C237  1  0.16814347  0.34990743  0.11112145  1.0
  C  C238  1  0.09970577  0.48862056  0.68162882  1.0
  C  C239  1  0.80698837  0.41807251  0.31837230  1.0
  C  C240  1  0.74133421  0.85162943  0.18760251  1.0
  C  C241  1  0.66402922  0.55373100  0.81239814  1.0
  C  C242  1  0.60169866  0.91416588  0.61040402  1.0
  C  C243  1  0.30375830  0.99129435  0.38959785  1.0
  N  N244  1  0.25899520  0.21310997  0.91654001  1.0
  N  N245  1  0.29657644  0.34245879  0.08346625  1.0
  N  N246  1  0.09229436  0.50878348  0.54576518  1.0
  N  N247  1  0.96301339  0.54652913  0.45423545  1.0
  N  N248  1  0.76516962  0.84958300  0.05435730  1.0
  N  N249  1  0.79523005  0.71080817  0.94564599  1.0
  N  N250  1  0.59963789  0.04533094  0.58447631  1.0
  N  N251  1  0.46085134  0.01516503  0.41552630  1.0
  O  O252  1  0.60726585  0.24016846  0.56492001  1.0
  O  O253  1  0.67524136  0.04234484  0.43507606  1.0
  O  O254  1  0.79219090  0.85737327  0.86723287  1.0
  O  O255  1  0.99014242  0.92495740  0.13276711  1.0
  O  O256  1  0.09567171  0.53267767  0.34295887  1.0
  O  O257  1  0.18971639  0.75271617  0.65704389  1.0
  O  O258  1  0.28268589  0.43959455  0.93683533  1.0
  O  O259  1  0.50276366  0.34584929  0.06316149  1.0
  O  O260  1  0.74346822  0.23753175  0.60220124  1.0
  O  O261  1  0.63531799  0.14125869  0.39778493  1.0
  O  O262  1  0.89143736  0.99361117  0.00598560  1.0
  O  O263  1  0.98763034  0.88544675  0.99401602  1.0
  O  O264  1  0.22047644  0.62479728  0.49253295  1.0
  O  O265  1  0.13225953  0.72794736  0.50746849  1.0
  O  O266  1  0.37497901  0.38237639  0.90422772  1.0
  O  O267  1  0.47815039  0.47074869  0.09577092  1.0
