# generated using pymatgen
data_Ho2Cu3H24(C4O5)6
_symmetry_space_group_name_H-M   'P 1'
_cell_length_a   12.76806630
_cell_length_b   12.77321038
_cell_length_c   16.42062722
_cell_angle_alpha   89.99724142
_cell_angle_beta   89.99968765
_cell_angle_gamma   119.98622230
_symmetry_Int_Tables_number   1
_chemical_formula_structural   Ho2Cu3H24(C4O5)6
_chemical_formula_sum   'Ho4 Cu6 H48 C48 O60'
_cell_volume   2319.56125031
_cell_formula_units_Z   2
loop_
 _symmetry_equiv_pos_site_id
 _symmetry_equiv_pos_as_xyz
  1  'x, y, z'
loop_
 _atom_site_type_symbol
 _atom_site_label
 _atom_site_symmetry_multiplicity
 _atom_site_fract_x
 _atom_site_fract_y
 _atom_site_fract_z
 _atom_site_occupancy
  Ho  Ho0  1  0.66666667  0.33327183  0.75002133  1.0
  Ho  Ho1  1  0.33338165  0.66666667  0.74999977  1.0
  Ho  Ho2  1  0.33333333  0.66666667  0.24999207  1.0
  Ho  Ho3  1  0.66666667  0.33333333  0.24999780  1.0
  Cu  Cu4  1  0.00001562  0.49999915  0.99996615  1.0
  Cu  Cu5  1  0.50000101  0.99998855  0.99999073  1.0
  Cu  Cu6  1  0.50000925  0.49999722  0.00003493  1.0
  Cu  Cu7  1  0.50000881  0.49999298  0.50001218  1.0
  Cu  Cu8  1  0.50001414  0.99999292  0.49995806  1.0
  Cu  Cu9  1  0.99999746  0.49996199  0.50002755  1.0
  H  H10  1  0.93610197  0.23911533  0.79471258  1.0
  H  H11  1  0.80374542  0.15111994  0.85608010  1.0
  H  H12  1  0.30294007  0.06390126  0.79479765  1.0
  H  H13  1  0.34737109  0.19626938  0.85608902  1.0
  H  H14  1  0.76079225  0.69694571  0.79474108  1.0
  H  H15  1  0.84886648  0.65260727  0.85604045  1.0
  H  H16  1  0.06387968  0.76089312  0.79470888  1.0
  H  H17  1  0.19624494  0.84889158  0.85605348  1.0
  H  H18  1  0.69703504  0.93609964  0.79474500  1.0
  H  H19  1  0.65264404  0.80374450  0.85605674  1.0
  H  H20  1  0.23909411  0.30300065  0.79486125  1.0
  H  H21  1  0.15110201  0.34750778  0.85610165  1.0
  H  H22  1  0.69709447  0.76103411  0.70514873  1.0
  H  H23  1  0.65250696  0.84892924  0.64387795  1.0
  H  H24  1  0.23906131  0.93608165  0.70515309  1.0
  H  H25  1  0.15110620  0.80366031  0.64391181  1.0
  H  H26  1  0.06396915  0.30299657  0.70523308  1.0
  H  H27  1  0.19639530  0.34745925  0.64392269  1.0
  H  H28  1  0.30291742  0.23908077  0.70525581  1.0
  H  H29  1  0.34734502  0.15110655  0.64393749  1.0
  H  H30  1  0.76102567  0.06399829  0.70512844  1.0
  H  H31  1  0.84889816  0.19647639  0.64389815  1.0
  H  H32  1  0.93601278  0.69697857  0.70516599  1.0
  H  H33  1  0.80354413  0.65246396  0.64389458  1.0
  H  H34  1  0.06382601  0.76082154  0.20524602  1.0
  H  H35  1  0.19622768  0.84883813  0.14392843  1.0
  H  H36  1  0.69695138  0.93611333  0.20528700  1.0
  H  H37  1  0.65266792  0.80380023  0.14395909  1.0
  H  H38  1  0.23904597  0.30295289  0.20520533  1.0
  H  H39  1  0.15108100  0.34744414  0.14392240  1.0
  H  H40  1  0.93615835  0.23908255  0.20520404  1.0
  H  H41  1  0.80373404  0.15110526  0.14390511  1.0
  H  H42  1  0.30301336  0.06399316  0.20517218  1.0
  H  H43  1  0.34752427  0.19641899  0.14391342  1.0
  H  H44  1  0.76078187  0.69693993  0.20533058  1.0
  H  H45  1  0.84889169  0.65272448  0.14396290  1.0
  H  H46  1  0.30303840  0.23912803  0.29475931  1.0
  H  H47  1  0.34743944  0.15112472  0.35607821  1.0
  H  H48  1  0.76114326  0.06401660  0.29485178  1.0
  H  H49  1  0.84896735  0.19645438  0.35610098  1.0
  H  H50  1  0.93604924  0.69702842  0.29490578  1.0
  H  H51  1  0.80349330  0.65238664  0.35611872  1.0
  H  H52  1  0.69707924  0.76108435  0.29487877  1.0
  H  H53  1  0.65239371  0.84891612  0.35613010  1.0
  H  H54  1  0.23905738  0.93605225  0.29475099  1.0
  H  H55  1  0.15112009  0.80370335  0.35606957  1.0
  H  H56  1  0.06387579  0.30297297  0.29480052  1.0
  H  H57  1  0.19631025  0.34737635  0.35607924  1.0
  C  C58  1  0.87826007  0.34339138  0.86553040  1.0
  C  C59  1  0.85098533  0.23134403  0.81642848  1.0
  C  C60  1  0.46507638  0.12165903  0.86558432  1.0
  C  C61  1  0.38031200  0.14896400  0.81645795  1.0
  C  C62  1  0.65657026  0.53484382  0.86555966  1.0
  C  C63  1  0.76858865  0.61962237  0.81641780  1.0
  C  C64  1  0.12174185  0.65662496  0.86552816  1.0
  C  C65  1  0.14900102  0.76866186  0.81641336  1.0
  C  C66  1  0.53490914  0.87832245  0.86556863  1.0
  C  C67  1  0.61968100  0.85103861  0.81642957  1.0
  C  C68  1  0.34341630  0.46516422  0.86558233  1.0
  C  C69  1  0.23136755  0.38038935  0.81647581  1.0
  C  C70  1  0.53490804  0.65663918  0.63442719  1.0
  C  C71  1  0.61965951  0.76870825  0.68351408  1.0
  C  C72  1  0.34343187  0.87829672  0.63437543  1.0
  C  C73  1  0.23137438  0.85100798  0.68351643  1.0
  C  C74  1  0.12174648  0.46512948  0.63447364  1.0
  C  C75  1  0.14906234  0.38036932  0.68357143  1.0
  C  C76  1  0.46507179  0.34338569  0.63445414  1.0
  C  C77  1  0.38029355  0.23134150  0.68356873  1.0
  C  C78  1  0.65656325  0.12171816  0.63439506  1.0
  C  C79  1  0.76864822  0.14905495  0.68351401  1.0
  C  C80  1  0.87822824  0.53481915  0.63444910  1.0
  C  C81  1  0.85091401  0.61958471  0.68353575  1.0
  C  C82  1  0.12171723  0.65657186  0.13443976  1.0
  C  C83  1  0.14895813  0.76859489  0.18355873  1.0
  C  C84  1  0.53486543  0.87829371  0.13442908  1.0
  C  C85  1  0.61964115  0.85103760  0.18358407  1.0
  C  C86  1  0.34340050  0.46511187  0.13446471  1.0
  C  C87  1  0.23132982  0.38033582  0.18356210  1.0
  C  C88  1  0.87829765  0.34337226  0.13441095  1.0
  C  C89  1  0.85103648  0.23133880  0.18353183  1.0
  C  C90  1  0.46516569  0.12172521  0.13440823  1.0
  C  C91  1  0.38041600  0.14905523  0.18353268  1.0
  C  C92  1  0.65660398  0.53486817  0.13448405  1.0
  C  C93  1  0.76862822  0.61966644  0.18361128  1.0
  C  C94  1  0.46516720  0.34339431  0.36555820  1.0
  C  C95  1  0.38040134  0.23136348  0.31644390  1.0
  C  C96  1  0.65662724  0.12168942  0.36557464  1.0
  C  C97  1  0.76873581  0.14905642  0.31646957  1.0
  C  C98  1  0.87826559  0.53482351  0.36557752  1.0
  C  C99  1  0.85094713  0.61958921  0.31648948  1.0
  C  C100  1  0.53487374  0.65660634  0.36557753  1.0
  C  C101  1  0.61960467  0.76870183  0.31649887  1.0
  C  C102  1  0.34343610  0.87830209  0.36555135  1.0
  C  C103  1  0.23136393  0.85099286  0.31643057  1.0
  C  C104  1  0.12173343  0.46510544  0.36557587  1.0
  C  C105  1  0.14898724  0.38032411  0.31645208  1.0
  O  O106  1  0.82015096  0.39660531  0.84949473  1.0
  O  O107  1  0.95893429  0.37134601  0.91992607  1.0
  O  O108  1  0.57639831  0.17973496  0.84953991  1.0
  O  O109  1  0.41235821  0.04102082  0.91996789  1.0
  O  O110  1  0.60334411  0.42359140  0.84952829  1.0
  O  O111  1  0.62867697  0.58758066  0.91998308  1.0
  O  O112  1  0.17984024  0.60340407  0.84948284  1.0
  O  O113  1  0.04108718  0.62867866  0.91994076  1.0
  O  O114  1  0.42358837  0.82022974  0.84952840  1.0
  O  O115  1  0.58761674  0.95894570  0.91995740  1.0
  O  O116  1  0.39666548  0.57641113  0.84952053  1.0
  O  O117  1  0.37131006  0.41242636  0.92000859  1.0
  O  O118  1  0.42359359  0.60339419  0.65049035  1.0
  O  O119  1  0.58761976  0.62869521  0.58001898  1.0
  O  O120  1  0.39670356  0.82025220  0.65044277  1.0
  O  O121  1  0.37131228  0.95889430  0.57996567  1.0
  O  O122  1  0.17976590  0.57638441  0.65049538  1.0
  O  O123  1  0.04106011  0.41236696  0.58008591  1.0
  O  O124  1  0.57638971  0.39660478  0.65049755  1.0
  O  O125  1  0.41235928  0.37132945  0.58004312  1.0
  O  O126  1  0.60326561  0.17973424  0.65047144  1.0
  O  O127  1  0.62869756  0.04112699  0.57998803  1.0
  O  O128  1  0.82021627  0.42356512  0.65049373  1.0
  O  O129  1  0.95890463  0.58756574  0.58005048  1.0
  O  O130  1  0.17979901  0.60333657  0.15050162  1.0
  O  O131  1  0.04110493  0.62865913  0.08000512  1.0
  O  O132  1  0.42354202  0.82019622  0.15046375  1.0
  O  O133  1  0.58758632  0.95891554  0.08003394  1.0
  O  O134  1  0.39662294  0.57636326  0.15049486  1.0
  O  O135  1  0.37134098  0.41237283  0.08007235  1.0
  O  O136  1  0.82021913  0.39660785  0.15046906  1.0
  O  O137  1  0.95892172  0.37129115  0.07998068  1.0
  O  O138  1  0.57648346  0.17976567  0.15046613  1.0
  O  O139  1  0.41244188  0.04111284  0.08001398  1.0
  O  O140  1  0.60340863  0.42361119  0.15050566  1.0
  O  O141  1  0.62867091  0.58760530  0.08008154  1.0
  O  O142  1  0.57648792  0.39662107  0.34950661  1.0
  O  O143  1  0.41245479  0.37132209  0.41997738  1.0
  O  O144  1  0.60336986  0.17975394  0.34953288  1.0
  O  O145  1  0.62869907  0.04102879  0.41994542  1.0
  O  O146  1  0.82028645  0.42357756  0.34951619  1.0
  O  O147  1  0.95890713  0.58756148  0.41999204  1.0
  O  O148  1  0.42355928  0.60332427  0.34950672  1.0
  O  O149  1  0.58760165  0.62868461  0.41998916  1.0
  O  O150  1  0.39667388  0.82021613  0.34951638  1.0
  O  O151  1  0.37135990  0.95894950  0.41992489  1.0
  O  O152  1  0.17975420  0.57635566  0.34953307  1.0
  O  O153  1  0.04109095  0.41236321  0.41999580  1.0
  O  O154  1  0.77605381  0.22380910  0.75000001  1.0
  O  O155  1  0.44767774  0.22383799  0.75001993  1.0
  O  O156  1  0.77610939  0.55225462  0.75000019  1.0
  O  O157  1  0.22391777  0.77618555  0.74997724  1.0
  O  O158  1  0.55229981  0.77614177  0.75000665  1.0
  O  O159  1  0.22391288  0.44772223  0.75000629  1.0
  O  O160  1  0.22384666  0.77609893  0.25000730  1.0
  O  O161  1  0.55224820  0.77609317  0.24998860  1.0
  O  O162  1  0.22383882  0.44767363  0.25001078  1.0
  O  O163  1  0.77617249  0.22385044  0.24999475  1.0
  O  O164  1  0.44778603  0.22387242  0.24998910  1.0
  O  O165  1  0.77622972  0.55228214  0.24999128  1.0
