# generated using pymatgen
data_ZnH9C9N3ClO4
_symmetry_space_group_name_H-M   'P 1'
_cell_length_a   9.64599782
_cell_length_b   10.58897613
_cell_length_c   10.63283605
_cell_angle_alpha   92.73378813
_cell_angle_beta   89.70544411
_cell_angle_gamma   89.52510907
_symmetry_Int_Tables_number   1
_chemical_formula_structural   ZnH9C9N3ClO4
_chemical_formula_sum   'Zn2 H18 C18 N6 Cl2 O8'
_cell_volume   1084.76112958
_cell_formula_units_Z   2
loop_
 _symmetry_equiv_pos_site_id
 _symmetry_equiv_pos_as_xyz
  1  'x, y, z'
loop_
 _atom_site_type_symbol
 _atom_site_label
 _atom_site_symmetry_multiplicity
 _atom_site_fract_x
 _atom_site_fract_y
 _atom_site_fract_z
 _atom_site_occupancy
  Zn  Zn0  1  0.65070604  0.51788319  0.51798850  1.0
  Zn  Zn1  1  0.35006418  0.51470607  0.51694486  1.0
  H  H2  1  0.28701617  0.42527098  0.90033620  1.0
  H  H3  1  0.71585247  0.43579260  0.88769409  1.0
  H  H4  1  0.29659237  0.40586632  0.13660917  1.0
  H  H5  1  0.13115826  0.67533010  0.40018511  1.0
  H  H6  1  0.11058849  0.52588203  0.32168279  1.0
  H  H7  1  0.86777362  0.56840492  0.32888242  1.0
  H  H8  1  0.88853862  0.69735168  0.43937589  1.0
  H  H9  1  0.88866645  0.35545345  0.40654064  1.0
  H  H10  1  0.86998971  0.33110132  0.56812401  1.0
  H  H11  1  0.13160781  0.33501967  0.43739156  1.0
  H  H12  1  0.11311260  0.34716981  0.60270567  1.0
  H  H13  1  0.11103535  0.68939261  0.62656273  1.0
  H  H14  1  0.13227771  0.55296438  0.71439592  1.0
  H  H15  1  0.88973478  0.51276560  0.71468274  1.0
  H  H16  1  0.86796906  0.66746601  0.66146715  1.0
  H  H17  1  0.28101578  0.89558339  0.45902437  1.0
  H  H18  1  0.70679285  0.87990221  0.42015946  1.0
  H  H19  1  0.28420214  0.12940501  0.41754283  1.0
  C  C20  1  0.50300131  0.50079760  0.27417560  1.0
  C  C21  1  0.49664343  0.49673191  0.75927738  1.0
  C  C22  1  0.50001827  0.75969878  0.51677869  1.0
  C  C23  1  0.50308581  0.27129968  0.48328133  1.0
  C  C24  1  0.63139968  0.44348701  0.07379588  1.0
  C  C25  1  0.37944822  0.44371102  0.95562815  1.0
  C  C26  1  0.62611473  0.45258329  0.94816704  1.0
  C  C27  1  0.38474645  0.43284684  0.08047388  1.0
  C  C28  1  0.07918096  0.58391146  0.40535275  1.0
  C  C29  1  0.92007382  0.59911762  0.41622299  1.0
  C  C30  1  0.92132886  0.39026286  0.50034009  1.0
  C  C31  1  0.08004412  0.38891426  0.51509486  1.0
  C  C32  1  0.07965686  0.59049269  0.63283643  1.0
  C  C33  1  0.92052222  0.57642215  0.64126915  1.0
  C  C34  1  0.62227406  0.06707349  0.42073349  1.0
  C  C35  1  0.37427026  0.95211124  0.46186294  1.0
  C  C36  1  0.62065556  0.94329004  0.44387756  1.0
  C  C37  1  0.37629700  0.07545099  0.43941460  1.0
  N  N38  1  0.50939063  0.45636287  0.14811784  1.0
  N  N39  1  0.49961004  0.47316916  0.88772554  1.0
  N  N40  1  0.86683906  0.52183307  0.51952540  1.0
  N  N41  1  0.13355446  0.52058206  0.51743859  1.0
  N  N42  1  0.50275674  0.14333362  0.44323993  1.0
  N  N43  1  0.49853306  0.88677333  0.48529371  1.0
  Cl  Cl44  1  0.78455046  0.39107913  0.13854350  1.0
  Cl  Cl45  1  0.75928596  0.12482923  0.33560809  1.0
  O  O46  1  0.61934615  0.71080866  0.53193781  1.0
  O  O47  1  0.38222770  0.70665868  0.52579528  1.0
  O  O48  1  0.62015542  0.32441047  0.49707883  1.0
  O  O49  1  0.38346782  0.32171194  0.50064778  1.0
  O  O50  1  0.61684169  0.52941281  0.32789049  1.0
  O  O51  1  0.37738725  0.50367697  0.70906610  1.0
  O  O52  1  0.38183157  0.50713781  0.32314336  1.0
  O  O53  1  0.61460919  0.50817745  0.70676167  1.0
