# generated using pymatgen
data_Al4H15C36O20F
_symmetry_space_group_name_H-M   'P 1'
_cell_length_a   6.66511888
_cell_length_b   16.43299307
_cell_length_c   18.78490535
_cell_angle_alpha   105.93716454
_cell_angle_beta   89.72810462
_cell_angle_gamma   89.72366909
_symmetry_Int_Tables_number   1
_chemical_formula_structural   Al4H15C36O20F
_chemical_formula_sum   'Al4 H15 C36 O20 F1'
_cell_volume   1978.32576151
_cell_formula_units_Z   1
loop_
 _symmetry_equiv_pos_site_id
 _symmetry_equiv_pos_as_xyz
  1  'x, y, z'
loop_
 _atom_site_type_symbol
 _atom_site_label
 _atom_site_symmetry_multiplicity
 _atom_site_fract_x
 _atom_site_fract_y
 _atom_site_fract_z
 _atom_site_occupancy
  Al  Al0  1  0.88967099  0.50475425  0.49642249  1.0
  Al  Al1  1  0.38887979  0.50736494  0.49676338  1.0
  Al  Al2  1  0.38294632  0.00493156  0.99658038  1.0
  Al  Al3  1  0.88327057  0.00699024  0.99679492  1.0
  H  H4  1  0.41110435  0.73942691  0.65626892  1.0
  H  H5  1  0.41512438  0.85536485  0.77346262  1.0
  H  H6  1  0.78481915  0.71880317  0.87417793  1.0
  H  H7  1  0.65156212  0.66478502  0.71095261  1.0
  H  H8  1  0.78740298  0.60030366  0.75652804  1.0
  H  H9  1  0.91785914  0.35608734  0.26990755  1.0
  H  H10  1  0.90742584  0.23869195  0.15358013  1.0
  H  H11  1  0.29085190  0.10950378  0.26785059  1.0
  H  H12  1  0.15003609  0.16039562  0.21108952  1.0
  H  H13  1  0.15377195  0.29554068  0.31641722  1.0
  H  H14  1  0.65306150  0.78446280  0.82814181  1.0
  H  H15  1  0.64309885  0.60758983  0.48434093  1.0
  H  H16  1  0.14647661  0.39326022  0.46922314  1.0
  H  H17  1  0.63930627  0.89629730  0.95815656  1.0
  H  H18  1  0.13632383  0.10440546  0.97883227  1.0
  C  C19  1  0.63112384  0.42120231  0.58186282  1.0
  C  C20  1  0.64610013  0.39283759  0.38341168  1.0
  C  C21  1  0.14444114  0.59411133  0.41169042  1.0
  C  C22  1  0.12807595  0.61912754  0.60832385  1.0
  C  C23  1  0.97237080  0.69982857  0.73014754  1.0
  C  C24  1  0.12803723  0.68816553  0.67842370  1.0
  C  C25  1  0.28792123  0.74625312  0.69593187  1.0
  C  C26  1  0.29034717  0.81109907  0.76174386  1.0
  C  C27  1  0.13285354  0.82206904  0.81424301  1.0
  C  C28  1  0.97420752  0.76520402  0.79599202  1.0
  C  C29  1  0.77648869  0.73862845  0.82292638  1.0
  C  C30  1  0.77585689  0.66409442  0.74884016  1.0
  C  C31  1  0.12720970  0.87393661  0.13646248  1.0
  C  C32  1  0.12871825  0.83015013  0.17986135  1.0
  C  C33  1  0.13027990  0.78189295  0.22697201  1.0
  C  C34  1  0.13141677  0.73711318  0.26999334  1.0
  C  C35  1  0.13414397  0.68868012  0.31694364  1.0
  C  C36  1  0.13791903  0.64447909  0.35998493  1.0
  C  C37  1  0.63341142  0.37157277  0.63427359  1.0
  C  C38  1  0.63297869  0.32796032  0.67780552  1.0
  C  C39  1  0.63194036  0.27985314  0.72504119  1.0
  C  C40  1  0.63108508  0.23533379  0.76829973  1.0
  C  C41  1  0.63166838  0.18701345  0.81535908  1.0
  C  C42  1  0.63379924  0.14296237  0.85856097  1.0
  C  C43  1  0.47651485  0.26904892  0.29500215  1.0
  C  C44  1  0.63666565  0.32503820  0.31240437  1.0
  C  C45  1  0.79180789  0.31249202  0.25924572  1.0
  C  C46  1  0.78528259  0.24698914  0.19379344  1.0
  C  C47  1  0.62389517  0.18971966  0.17741297  1.0
  C  C48  1  0.47089387  0.20227229  0.23038156  1.0
  C  C49  1  0.27377902  0.16787999  0.25063652  1.0
  C  C50  1  0.26983254  0.24876275  0.31895374  1.0
  C  C51  1  0.62216613  0.12006528  0.10760061  1.0
  C  C52  1  0.63879703  0.09265736  0.91031991  1.0
  C  C53  1  0.14005825  0.88988009  0.88499786  1.0
  C  C54  1  0.12500458  0.92351722  0.08403722  1.0
  O  O55  1  0.48064715  0.41257570  0.41828782  1.0
  O  O56  1  0.79792287  0.42930427  0.55136528  1.0
  O  O57  1  0.96070263  0.58354533  0.58776739  1.0
  O  O58  1  0.81748808  0.42433052  0.40419536  1.0
  O  O59  1  0.97761367  0.58229997  0.44062440  1.0
  O  O60  1  0.46221584  0.45144476  0.57053685  1.0
  O  O61  1  0.63972412  0.55763720  0.50229921  1.0
  O  O62  1  0.31649267  0.56698275  0.42394039  1.0
  O  O63  1  0.29413514  0.60143119  0.57331549  1.0
  O  O64  1  0.14117849  0.45447636  0.48752267  1.0
  O  O65  1  0.81058761  0.06537709  0.92291528  1.0
  O  O66  1  0.45438700  0.08483124  0.08735692  1.0
  O  O67  1  0.29206636  0.93163903  0.05375926  1.0
  O  O68  1  0.47134434  0.08115045  0.93912332  1.0
  O  O69  1  0.31090251  0.92218701  0.90618783  1.0
  O  O70  1  0.78788422  0.10172846  0.07260984  1.0
  O  O71  1  0.63475252  0.95459171  0.98817505  1.0
  O  O72  1  0.97416420  0.90989925  0.92003589  1.0
  O  O73  1  0.95620091  0.95361534  0.07231624  1.0
  O  O74  1  0.13333195  0.05771467  0.00114824  1.0
  F  F75  1  0.25201659  0.23384432  0.38895070  1.0
