# generated using pymatgen
data_Al4H52C75O26
_symmetry_space_group_name_H-M   'P 1'
_cell_length_a   6.62140581
_cell_length_b   20.76010959
_cell_length_c   23.56155425
_cell_angle_alpha   90.35196023
_cell_angle_beta   96.43913504
_cell_angle_gamma   92.38161155
_symmetry_Int_Tables_number   1
_chemical_formula_structural   Al4H52C75O26
_chemical_formula_sum   'Al4 H52 C75 O26'
_cell_volume   3215.39528395
_cell_formula_units_Z   1
loop_
 _symmetry_equiv_pos_site_id
 _symmetry_equiv_pos_as_xyz
  1  'x, y, z'
loop_
 _atom_site_type_symbol
 _atom_site_label
 _atom_site_symmetry_multiplicity
 _atom_site_fract_x
 _atom_site_fract_y
 _atom_site_fract_z
 _atom_site_occupancy
  Al  Al0  1  0.14472855  0.49738370  0.49592394  1.0
  Al  Al1  1  0.64592775  0.49701744  0.49819776  1.0
  Al  Al2  1  0.68092278  0.00174279  0.99987525  1.0
  Al  Al3  1  0.18122957  0.00061157  0.99773959  1.0
  H  H4  1  0.18244655  0.37260873  0.17051452  1.0
  H  H5  1  0.99313316  0.37917632  0.34251306  1.0
  H  H6  1  0.67307106  0.28867261  0.47035619  1.0
  H  H7  1  0.67873023  0.12542712  0.32573059  1.0
  H  H8  1  0.20360861  0.31512255  0.07968987  1.0
  H  H9  1  0.84773091  0.12165774  0.15055030  1.0
  H  H10  1  0.07624679  0.37618873  0.26647919  1.0
  H  H11  1  0.77882999  0.12220377  0.22908250  1.0
  H  H12  1  0.64931517  0.83197859  0.22787416  1.0
  H  H13  1  0.60846792  0.75027272  0.30310534  1.0
  H  H14  1  0.16342477  0.66475351  0.26666194  1.0
  H  H15  1  0.20409807  0.74630160  0.19129360  1.0
  H  H16  1  0.12170974  0.23103092  0.80037893  1.0
  H  H17  1  0.11919534  0.31423367  0.72528291  1.0
  H  H18  1  0.34584150  0.61738594  0.84544964  1.0
  H  H19  1  0.43736486  0.61246953  0.66413619  1.0
  H  H20  1  0.46618254  0.88037600  0.65137281  1.0
  H  H21  1  0.26514706  0.78555679  0.98106516  1.0
  H  H22  1  0.48453362  0.88338521  0.83896581  1.0
  H  H23  1  0.40732549  0.61386728  0.74535659  1.0
  H  H24  1  0.46056297  0.88273438  0.75479676  1.0
  H  H25  1  0.45122476  0.82078357  0.56118248  1.0
  H  H26  1  0.47510061  0.19916179  0.48328244  1.0
  H  H27  1  0.73931190  0.18853571  0.50367420  1.0
  H  H28  1  0.68615166  0.06918260  0.48583238  1.0
  H  H29  1  0.53141082  0.09659138  0.53744168  1.0
  H  H30  1  0.42135346  0.07922633  0.46620462  1.0
  H  H31  1  0.59534155  0.25200954  0.61118564  1.0
  H  H32  1  0.78786730  0.19589617  0.63159844  1.0
  H  H33  1  0.05714171  0.28423440  0.62152930  1.0
  H  H34  1  0.89819733  0.27108319  0.55655330  1.0
  H  H35  1  0.86306068  0.33884084  0.60037112  1.0
  H  H36  1  0.62907652  0.09182988  0.73499770  1.0
  H  H37  1  0.70574847  0.08946559  0.81014321  1.0
  H  H38  1  0.07102747  0.09493196  0.79341921  1.0
  H  H39  1  0.94222110  0.02869975  0.75488775  1.0
  H  H40  1  0.00215841  0.10089831  0.71832056  1.0
  H  H41  1  0.32890757  0.80150484  0.47158595  1.0
  H  H42  1  0.14765043  0.73494171  0.46886552  1.0
  H  H43  1  0.31431816  0.68538037  0.38911420  1.0
  H  H44  1  0.22886837  0.76364687  0.37038144  1.0
  H  H45  1  0.49262177  0.75251294  0.39188848  1.0
  H  H46  1  0.02142198  0.68567251  0.97289386  1.0
  H  H47  1  0.25734945  0.69184213  0.01799961  1.0
  H  H48  1  0.29260196  0.57343433  0.01367571  1.0
  H  H49  1  0.04883591  0.58917735  0.03461630  1.0
  H  H50  1  0.07176808  0.56450818  0.96321340  1.0
  H  H51  1  0.09460110  0.18039944  0.97395626  1.0
  H  H52  1  0.36851797  0.48495821  0.42129003  1.0
  H  H53  1  0.93187679  0.53756200  0.56274356  1.0
  H  H54  1  0.45272453  0.98867764  0.07280025  1.0
  H  H55  1  0.89308467  0.95736504  0.93529435  1.0
  C  C56  1  0.40418821  0.42501239  0.57623521  1.0
  C  C57  1  0.43635511  0.59621662  0.55176974  1.0
  C  C58  1  0.87852041  0.57077580  0.41720286  1.0
  C  C59  1  0.85359569  0.39962368  0.44202292  1.0
  C  C60  1  0.99617152  0.16286409  0.08343930  1.0
  C  C61  1  0.83500857  0.33847062  0.40821804  1.0
  C  C62  1  0.12974142  0.27257896  0.09670174  1.0
  C  C63  1  0.09841261  0.21782384  0.06233439  1.0
  C  C64  1  0.92796399  0.16464047  0.13688578  1.0
  C  C65  1  0.96506314  0.21920173  0.17327133  1.0
  C  C66  1  0.06772437  0.27446569  0.15199234  1.0
  C  C67  1  0.90519941  0.22092710  0.23053432  1.0
  C  C68  1  0.94476722  0.27796290  0.26430297  1.0
  C  C69  1  0.04520533  0.33227641  0.24097606  1.0
  C  C70  1  0.10474987  0.33067000  0.18727454  1.0
  C  C71  1  0.80870825  0.16635821  0.25433317  1.0
  C  C72  1  0.75213277  0.16772036  0.30849270  1.0
  C  C73  1  0.78455296  0.22446217  0.34292417  1.0
  C  C74  1  0.88219505  0.28032301  0.32126058  1.0
  C  C75  1  0.71890599  0.22694122  0.39870183  1.0
  C  C76  1  0.73413431  0.28418184  0.42963169  1.0
  C  C77  1  0.91310278  0.33625141  0.35621652  1.0
  C  C78  1  0.73815341  0.74957852  0.27844504  1.0
  C  C79  1  0.88332673  0.70208459  0.28984330  1.0
  C  C80  1  0.05143748  0.70144798  0.25782642  1.0
  C  C81  1  0.07434286  0.74698645  0.21597834  1.0
  C  C82  1  0.92961691  0.79466279  0.20478471  1.0
  C  C83  1  0.76110332  0.79517798  0.23662339  1.0
  C  C84  1  0.86611279  0.65631150  0.33343655  1.0
  C  C85  1  0.94910072  0.84107912  0.16186028  1.0
  C  C86  1  0.95682209  0.88123701  0.12459135  1.0
  C  C87  1  0.86315148  0.61701130  0.37153982  1.0
  C  C88  1  0.59738168  0.21048251  0.76002015  1.0
  C  C89  1  0.42572280  0.20188128  0.79085966  1.0
  C  C90  1  0.25379985  0.23939831  0.77733596  1.0
  C  C91  1  0.25263690  0.28586620  0.73562913  1.0
  C  C92  1  0.42410233  0.29618151  0.70570066  1.0
  C  C93  1  0.59612895  0.25823640  0.71780262  1.0
  C  C94  1  0.42314755  0.15771249  0.83607262  1.0
  C  C95  1  0.42275969  0.34268876  0.66220725  1.0
  C  C96  1  0.41712649  0.38123992  0.62334810  1.0
  C  C97  1  0.41305530  0.12040437  0.87549040  1.0
  C  C98  1  0.38027050  0.83905935  0.91222761  1.0
  C  C99  1  0.44541546  0.65857818  0.58424624  1.0
  C  C100  1  0.31949880  0.72383740  0.91019723  1.0
  C  C101  1  0.31321985  0.78232677  0.93850918  1.0
  C  C102  1  0.43432674  0.83825750  0.85719540  1.0
  C  C103  1  0.41887797  0.78018535  0.82505671  1.0
  C  C104  1  0.37271085  0.72154056  0.85304489  1.0
  C  C105  1  0.44154405  0.77837921  0.76467070  1.0
  C  C106  1  0.43501737  0.71822495  0.73542818  1.0
  C  C107  1  0.40821377  0.66051700  0.76676814  1.0
  C  C108  1  0.37429115  0.66197002  0.82302478  1.0
  C  C109  1  0.45745396  0.83632828  0.73284125  1.0
  C  C110  1  0.46018800  0.83529392  0.67487145  1.0
  C  C111  1  0.45264098  0.77594945  0.64380311  1.0
  C  C112  1  0.44601109  0.71683669  0.67445695  1.0
  C  C113  1  0.44964470  0.77504212  0.58367765  1.0
  C  C114  1  0.44571354  0.71725260  0.55392475  1.0
  C  C115  1  0.44333837  0.65875598  0.64278284  1.0
  C  C116  1  0.39047008  0.90163540  0.94394368  1.0
  C  C117  1  0.42204471  0.07512310  0.92136565  1.0
  C  C118  1  0.97362828  0.10019855  0.05152564  1.0
  C  C119  1  0.94544541  0.92767219  0.07920003  1.0
  C  C120  1  0.60331277  0.16854674  0.47698855  1.0
  C  C121  1  0.55764943  0.09917479  0.49225326  1.0
  C  C122  1  0.75235608  0.24745732  0.63141326  1.0
  C  C123  1  0.90122957  0.28787930  0.60097849  1.0
  C  C124  1  0.75018562  0.10665467  0.76913609  1.0
  C  C125  1  0.95376590  0.08158793  0.75818975  1.0
  C  C126  1  0.30359946  0.74986094  0.46063122  1.0
  C  C127  1  0.33699936  0.73704871  0.39919152  1.0
  C  C128  1  0.16973433  0.66352701  0.98307004  1.0
  C  C129  1  0.14467096  0.59348716  0.99954762  1.0
  C  C130  1  0.15747080  0.22032628  0.00323622  1.0
  O  O131  1  0.59857933  0.57829507  0.53356678  1.0
  O  O132  1  0.22675504  0.43311776  0.55098350  1.0
  O  O133  1  0.02128039  0.43248777  0.44405244  1.0
  O  O134  1  0.26521384  0.56518869  0.54617630  1.0
  O  O135  1  0.05908199  0.56203495  0.43987017  1.0
  O  O136  1  0.57033337  0.45201772  0.56417195  1.0
  O  O137  1  0.38262683  0.49059460  0.46233289  1.0
  O  O138  1  0.71457363  0.54305689  0.42980816  1.0
  O  O139  1  0.69923552  0.41528191  0.46589114  1.0
  O  O140  1  0.91120437  0.50633609  0.53162568  1.0
  O  O141  1  0.25666225  0.04663283  0.93234483  1.0
  O  O142  1  0.55886029  0.93442303  0.94766231  1.0
  O  O143  1  0.76563227  0.93787178  0.05654746  1.0
  O  O144  1  0.59897964  0.06646568  0.94670249  1.0
  O  O145  1  0.80505023  0.06822394  0.05027302  1.0
  O  O146  1  0.22958105  0.91825233  0.96432659  1.0
  O  O147  1  0.44401102  0.00632484  0.03465397  1.0
  O  O148  1  0.12959368  0.08196964  0.02981678  1.0
  O  O149  1  0.11113180  0.95402615  0.06636699  1.0
  O  O150  1  0.91510099  0.99104696  0.96434891  1.0
  O  O151  1  0.64142051  0.17019765  0.41807067  1.0
  O  O152  1  0.76554989  0.26948943  0.69038142  1.0
  O  O153  1  0.76981833  0.17673037  0.76994707  1.0
  O  O154  1  0.44467452  0.71179645  0.49580351  1.0
  O  O155  1  0.27504050  0.66528682  0.93290837  1.0
  O  O156  1  0.26469087  0.26409783  0.98628609  1.0
