# generated using pymatgen
data_Cu3H21WC27S3BrN7O
_symmetry_space_group_name_H-M   'P 1'
_cell_length_a   9.25854565
_cell_length_b   19.36184460
_cell_length_c   23.85332129
_cell_angle_alpha   85.73542570
_cell_angle_beta   78.79459896
_cell_angle_gamma   76.15650910
_symmetry_Int_Tables_number   1
_chemical_formula_structural   Cu3H21WC27S3BrN7O
_chemical_formula_sum   'Cu12 H84 W4 C108 S12 Br4 N28 O4'
_cell_volume   4070.91127731
_cell_formula_units_Z   4
loop_
 _symmetry_equiv_pos_site_id
 _symmetry_equiv_pos_as_xyz
  1  'x, y, z'
loop_
 _atom_site_type_symbol
 _atom_site_label
 _atom_site_symmetry_multiplicity
 _atom_site_fract_x
 _atom_site_fract_y
 _atom_site_fract_z
 _atom_site_occupancy
  Cu  Cu0  1  0.14823890  0.23887708  0.45708896  1.0
  Cu  Cu1  1  0.34448985  0.26090533  0.04278351  1.0
  Cu  Cu2  1  0.85175813  0.76112283  0.54291348  1.0
  Cu  Cu3  1  0.65551729  0.73909785  0.95721485  1.0
  Cu  Cu4  1  0.13464820  0.09625564  0.37246917  1.0
  Cu  Cu5  1  0.10342063  0.40363708  0.12740324  1.0
  Cu  Cu6  1  0.86534489  0.90374326  0.62753111  1.0
  Cu  Cu7  1  0.89657453  0.59636186  0.87259494  1.0
  Cu  Cu8  1  0.04550339  0.26965932  0.31843250  1.0
  Cu  Cu9  1  0.13346336  0.23014526  0.18145763  1.0
  Cu  Cu10  1  0.95448914  0.73033685  0.68157083  1.0
  Cu  Cu11  1  0.86653952  0.76985051  0.81853882  1.0
  H  H12  1  0.00224137  0.02817591  0.80710047  1.0
  H  H13  1  0.33757135  0.47212389  0.69290775  1.0
  H  H14  1  0.99776478  0.97182515  0.19289776  1.0
  H  H15  1  0.66241980  0.52788077  0.30709707  1.0
  H  H16  1  0.06693992  0.13852917  0.76165942  1.0
  H  H17  1  0.46747711  0.36185261  0.73836594  1.0
  H  H18  1  0.93305257  0.86147347  0.23833955  1.0
  H  H19  1  0.53251691  0.63815206  0.26163821  1.0
  H  H20  1  0.49990393  0.01624875  0.67914100  1.0
  H  H21  1  0.69565032  0.48432406  0.82063948  1.0
  H  H22  1  0.50008879  0.98375115  0.32086245  1.0
  H  H23  1  0.30436568  0.51567706  0.17935546  1.0
  H  H24  1  0.43098674  0.90567312  0.72197105  1.0
  H  H25  1  0.55881450  0.59482920  0.77775122  1.0
  H  H26  1  0.56901341  0.09432471  0.27802932  1.0
  H  H27  1  0.44120917  0.40517458  0.22224351  1.0
  H  H28  1  0.93632698  0.92065339  0.78109346  1.0
  H  H29  1  0.13808207  0.57959877  0.71892173  1.0
  H  H30  1  0.06367407  0.07934333  0.21890876  1.0
  H  H31  1  0.86192661  0.42039961  0.28107753  1.0
  H  H32  1  0.21411932  0.73020526  0.83423271  1.0
  H  H33  1  0.27805952  0.77010884  0.66559017  1.0
  H  H34  1  0.78589064  0.26979101  0.16576523  1.0
  H  H35  1  0.72192325  0.22989640  0.33441173  1.0
  H  H36  1  0.90181029  0.15598565  0.49406786  1.0
  H  H37  1  0.05190538  0.34398537  0.00600255  1.0
  H  H38  1  0.09818585  0.84401541  0.50593047  1.0
  H  H39  1  0.94809634  0.65600769  0.99399645  1.0
  H  H40  1  0.81403312  0.09441834  0.34043213  1.0
  H  H41  1  0.74844939  0.40545935  0.15962226  1.0
  H  H42  1  0.18595575  0.90557786  0.65957045  1.0
  H  H43  1  0.25154732  0.59453851  0.84037602  1.0
  H  H44  1  0.55365007  0.10659228  0.42281923  1.0
  H  H45  1  0.58290959  0.39330360  0.07716239  1.0
  H  H46  1  0.44633828  0.89341028  0.57718394  1.0
  H  H47  1  0.41709653  0.60668684  0.92283463  1.0
  H  H48  1  0.48010385  0.06431091  0.51057393  1.0
  H  H49  1  0.55515551  0.43588488  0.98944202  1.0
  H  H50  1  0.51989411  0.93568855  0.48942450  1.0
  H  H51  1  0.44485745  0.56410447  0.01055642  1.0
  H  H52  1  0.69681418  0.21907597  0.55913418  1.0
  H  H53  1  0.97498640  0.28087195  0.94081322  1.0
  H  H54  1  0.30317534  0.78092930  0.44086645  1.0
  H  H55  1  0.02501981  0.71912329  0.05918349  1.0
  H  H56  1  0.53535580  0.22360888  0.65498829  1.0
  H  H57  1  0.91407643  0.27657709  0.84493430  1.0
  H  H58  1  0.46463885  0.77639209  0.34501490  1.0
  H  H59  1  0.08592723  0.72342452  0.15506283  1.0
  H  H60  1  0.31061935  0.07348881  0.60443684  1.0
  H  H61  1  0.48896517  0.42700090  0.89549905  1.0
  H  H62  1  0.68937892  0.92651703  0.39556134  1.0
  H  H63  1  0.51104664  0.57299696  0.10449954  1.0
  H  H64  1  0.10426120  0.48313814  0.94151259  1.0
  H  H65  1  0.02873197  0.01695990  0.55859925  1.0
  H  H66  1  0.89573484  0.51686182  0.05848751  1.0
  H  H67  1  0.97125871  0.98304060  0.44140043  1.0
  H  H68  1  0.97597063  0.46337562  0.78442404  1.0
  H  H69  1  0.72377338  0.03673598  0.71578259  1.0
  H  H70  1  0.02402684  0.53662061  0.21557652  1.0
  H  H71  1  0.27623401  0.96326077  0.28421878  1.0
  H  H72  1  0.26004022  0.35214582  0.89806685  1.0
  H  H73  1  0.00999650  0.14796478  0.60201357  1.0
  H  H74  1  0.73995741  0.64785625  0.10193389  1.0
  H  H75  1  0.98999575  0.85203470  0.39798395  1.0
  H  H76  1  0.12262176  0.38860617  0.71626588  1.0
  H  H77  1  0.72734139  0.11178914  0.78396572  1.0
  H  H78  1  0.87738210  0.61139483  0.28373578  1.0
  H  H79  1  0.27267628  0.88820864  0.21603697  1.0
  H  H80  1  0.26145250  0.25868346  0.86070239  1.0
  H  H81  1  0.88036507  0.24136034  0.63922055  1.0
  H  H82  1  0.73854614  0.74131705  0.13929703  1.0
  H  H83  1  0.11961387  0.75864281  0.36077961  1.0
  H  H84  1  0.34653500  0.15440570  0.80050942  1.0
  H  H85  1  0.80138355  0.34578608  0.69922005  1.0
  H  H86  1  0.65346806  0.84559375  0.19948942  1.0
  H  H87  1  0.19860037  0.65421873  0.30077649  1.0
  H  H88  1  0.20190618  0.28231347  0.65674152  1.0
  H  H89  1  0.64109362  0.21821076  0.84332358  1.0
  H  H90  1  0.79809496  0.71769022  0.34325819  1.0
  H  H91  1  0.35892919  0.78178863  0.15667866  1.0
  H  H92  1  0.38549521  0.83039830  0.80557714  1.0
  H  H93  1  0.52125537  0.67002792  0.69417396  1.0
  H  H94  1  0.61450864  0.16960113  0.19442311  1.0
  H  H95  1  0.47873907  0.32998266  0.30582676  1.0
  W  W96  1  0.29410945  0.19718100  0.35399178  1.0
  W  W97  1  0.34514761  0.30262211  0.14587561  1.0
  W  W98  1  0.70588070  0.80281840  0.64601009  1.0
  W  W99  1  0.65485431  0.69737841  0.85412271  1.0
  C  C100  1  0.28782777  0.08536332  0.71726697  1.0
  C  C101  1  0.59085375  0.41511157  0.78261788  1.0
  C  C102  1  0.71217538  0.91463659  0.28273597  1.0
  C  C103  1  0.40915619  0.58489214  0.21738072  1.0
  C  C104  1  0.11045980  0.02557256  0.77843852  1.0
  C  C105  1  0.41460083  0.47479623  0.72150592  1.0
  C  C106  1  0.88953630  0.97442748  0.22155705  1.0
  C  C107  1  0.58540665  0.52520747  0.27849294  1.0
  C  C108  1  0.14744741  0.08764177  0.75333562  1.0
  C  C109  1  0.48867972  0.41277096  0.74664058  1.0
  C  C110  1  0.85255241  0.91235868  0.24666706  1.0
  C  C111  1  0.51131585  0.58723264  0.25336365  1.0
  C  C112  1  0.39097658  0.01928927  0.70740642  1.0
  C  C113  1  0.61815863  0.48120437  0.79235796  1.0
  C  C114  1  0.60902078  0.98070960  0.29259511  1.0
  C  C115  1  0.38186054  0.51879941  0.20763686  1.0
  C  C116  1  0.21265299  0.96001369  0.76701483  1.0
  C  C117  1  0.43977625  0.54037625  0.73286636  1.0
  C  C118  1  0.78734758  0.03998571  0.23298653  1.0
  C  C119  1  0.56023565  0.45963014  0.26713112  1.0
  C  C120  1  0.35342540  0.95703447  0.73179138  1.0
  C  C121  1  0.54248710  0.54343326  0.76798506  1.0
  C  C122  1  0.64657876  0.04296386  0.26821023  1.0
  C  C123  1  0.45751971  0.45657097  0.23201421  1.0
  C  C124  1  0.03191080  0.88245124  0.79339068  1.0
  C  C125  1  0.20765615  0.61783854  0.70657372  1.0
  C  C126  1  0.96809226  0.11754605  0.20661036  1.0
  C  C127  1  0.79234819  0.38216195  0.29342661  1.0
  C  C128  1  0.18027916  0.78480377  0.81939157  1.0
  C  C129  1  0.28414526  0.71551057  0.68045707  1.0
  C  C130  1  0.81972302  0.21519249  0.18060755  1.0
  C  C131  1  0.71584203  0.28449472  0.31954247  1.0
  C  C132  1  0.84478322  0.14071038  0.46293284  1.0
  C  C133  1  0.94835580  0.35927122  0.03710275  1.0
  C  C134  1  0.15521500  0.85929012  0.53706699  1.0
  C  C135  1  0.05164898  0.64072341  0.96289790  1.0
  C  C136  1  0.79415961  0.10879583  0.38476916  1.0
  C  C137  1  0.78746038  0.39116478  0.11527132  1.0
  C  C138  1  0.20583390  0.89120091  0.61523291  1.0
  C  C139  1  0.21254241  0.60883363  0.88472610  1.0
  C  C140  1  0.66536196  0.11305690  0.42517370  1.0
  C  C141  1  0.70343420  0.38690291  0.07484757  1.0
  C  C142  1  0.33462544  0.88694141  0.57482927  1.0
  C  C143  1  0.29657726  0.61308852  0.92515353  1.0
  C  C144  1  0.60052355  0.14037653  0.52896202  1.0
  C  C145  1  0.76999895  0.35974168  0.97101804  1.0
  C  C146  1  0.39947080  0.85962553  0.47103982  1.0
  C  C147  1  0.23001209  0.64024818  0.02898207  1.0
  C  C148  1  0.49143329  0.09972031  0.54199560  1.0
  C  C149  1  0.63342044  0.40053889  0.95797108  1.0
  C  C150  1  0.50856633  0.90028075  0.45800255  1.0
  C  C151  1  0.36659098  0.59945309  0.04202867  1.0
  C  C152  1  0.61398467  0.18619023  0.56933542  1.0
  C  C153  1  0.86958830  0.31390528  0.93062123  1.0
  C  C154  1  0.38600572  0.81381450  0.43066571  1.0
  C  C155  1  0.13041455  0.68609045  0.06937748  1.0
  C  C156  1  0.52173896  0.18933738  0.62308061  1.0
  C  C157  1  0.83439748  0.31091453  0.87683765  1.0
  C  C158  1  0.47824787  0.81066846  0.37691801  1.0
  C  C159  1  0.16560734  0.68908388  0.12315994  1.0
  C  C160  1  0.39649634  0.10466044  0.59489764  1.0
  C  C161  1  0.59636501  0.39569388  0.90504767  1.0
  C  C162  1  0.60350914  0.89533898  0.40510320  1.0
  C  C163  1  0.40364423  0.60430131  0.09495154  1.0
  C  C164  1  0.41273329  0.14832150  0.63660751  1.0
  C  C165  1  0.69801827  0.35205858  0.86329952  1.0
  C  C166  1  0.58726312  0.85168059  0.36339222  1.0
  C  C167  1  0.30198750  0.64794034  0.13669907  1.0
  C  C168  1  0.27959034  0.21091250  0.72456714  1.0
  C  C169  1  0.71531211  0.28948717  0.77536569  1.0
  C  C170  1  0.72040567  0.78908959  0.27543302  1.0
  C  C171  1  0.28469820  0.71051277  0.22463556  1.0
  C  C172  1  0.10022237  0.45948521  0.90222679  1.0
  C  C173  1  0.96179630  0.04060877  0.59790904  1.0
  C  C174  1  0.89977413  0.54051421  0.09777423  1.0
  C  C175  1  0.03820548  0.95938905  0.40209191  1.0
  C  C176  1  0.03219431  0.45218979  0.82099225  1.0
  C  C177  1  0.80540075  0.04791882  0.67920938  1.0
  C  C178  1  0.96780165  0.54781068  0.17900877  1.0
  C  C179  1  0.19459698  0.95208061  0.32079038  1.0
  C  C180  1  0.17934636  0.39477024  0.88087717  1.0
  C  C181  1  0.95483282  0.10532627  0.61923546  1.0
  C  C182  1  0.82065039  0.60522864  0.11912386  1.0
  C  C183  1  0.04516446  0.89467155  0.38076558  1.0
  C  C184  1  0.18497746  0.33099208  0.79286817  1.0
  C  C185  1  0.80858646  0.16920988  0.70723152  1.0
  C  C186  1  0.81502299  0.66900840  0.20713275  1.0
  C  C187  1  0.19140380  0.83079279  0.29276638  1.0
  C  C188  1  0.17061390  0.33729378  0.73516829  1.0
  C  C189  1  0.74305206  0.16304025  0.76497229  1.0
  C  C190  1  0.82938966  0.66270831  0.26483202  1.0
  C  C191  1  0.25693820  0.83695867  0.23502640  1.0
  C  C192  1  0.24857741  0.26478729  0.81599510  1.0
  C  C193  1  0.82887769  0.23538989  0.68394724  1.0
  C  C194  1  0.75141439  0.73521214  0.18400509  1.0
  C  C195  1  0.17111880  0.76460953  0.31605378  1.0
  C  C196  1  0.29694680  0.20567550  0.78195912  1.0
  C  C197  1  0.78432233  0.29459539  0.71788229  1.0
  C  C198  1  0.70304904  0.79432447  0.21804005  1.0
  C  C199  1  0.21568360  0.70540721  0.28211868  1.0
  C  C200  1  0.21639260  0.27753433  0.70129640  1.0
  C  C201  1  0.69547332  0.22290085  0.79875793  1.0
  C  C202  1  0.78360257  0.72246774  0.29870459  1.0
  C  C203  1  0.30452922  0.77710124  0.20124230  1.0
  C  C204  1  0.26723089  0.83388941  0.80529856  1.0
  C  C205  1  0.40621927  0.66646657  0.69449858  1.0
  C  C206  1  0.73277402  0.16610789  0.19470172  1.0
  C  C207  1  0.59376920  0.33354240  0.30550342  1.0
  S  S208  1  0.26613852  0.12602531  0.43463558  1.0
  S  S209  1  0.32693776  0.37378162  0.06522302  1.0
  S  S210  1  0.73385470  0.87397409  0.56536653  1.0
  S  S211  1  0.67305685  0.62622207  0.93477661  1.0
  S  S212  1  0.17904752  0.16032423  0.28919312  1.0
  S  S213  1  0.12835065  0.33951095  0.21068914  1.0
  S  S214  1  0.82094603  0.83967411  0.71080809  1.0
  S  S215  1  0.87164820  0.66048427  0.78930833  1.0
  S  S216  1  0.16698628  0.31028205  0.37824127  1.0
  S  S217  1  0.35543889  0.18952209  0.12162145  1.0
  S  S218  1  0.83300756  0.68971737  0.62175909  1.0
  S  S219  1  0.64456367  0.81047846  0.87837511  1.0
  Br  Br220  1  0.02958015  0.27743668  0.54683222  1.0
  Br  Br221  1  0.35512433  0.22243589  0.95292601  1.0
  Br  Br222  1  0.97043040  0.72256269  0.45317130  1.0
  Br  Br223  1  0.64490946  0.77757863  0.04706305  1.0
  N  N224  1  0.90519938  0.12587833  0.40871950  1.0
  N  N225  1  0.93960118  0.37406092  0.09132395  1.0
  N  N226  1  0.09479374  0.87411843  0.59128073  1.0
  N  N227  1  0.06039893  0.62593746  0.90867507  1.0
  N  N228  1  0.69827696  0.13346919  0.47489579  1.0
  N  N229  1  0.80661670  0.36649999  0.02512500  1.0
  N  N230  1  0.30171686  0.86653393  0.52510603  1.0
  N  N231  1  0.19339106  0.63348984  0.97487621  1.0
  N  N232  1  0.32306999  0.14896365  0.69172975  1.0
  N  N233  1  0.66436657  0.35151050  0.80813450  1.0
  N  N234  1  0.67692125  0.85103740  0.30826908  1.0
  N  N235  1  0.33563899  0.64849214  0.19186463  1.0
  N  N236  1  0.00891287  0.49494790  0.86459901  1.0
  N  N237  1  0.86840943  0.00514420  0.63559399  1.0
  N  N238  1  0.99108320  0.50505150  0.13540243  1.0
  N  N239  1  0.13159046  0.99485416  0.36440637  1.0
  N  N240  1  0.13563182  0.39049455  0.82894541  1.0
  N  N241  1  0.85498444  0.10962512  0.67120946  1.0
  N  N242  1  0.86436441  0.60950539  0.17105560  1.0
  N  N243  1  0.14501421  0.89037538  0.32878996  1.0
  N  N244  1  0.03409505  0.81555707  0.81146412  1.0
  N  N245  1  0.16084841  0.68470786  0.68848408  1.0
  N  N246  1  0.96590770  0.18443974  0.18853416  1.0
  N  N247  1  0.83914483  0.31529157  0.31151578  1.0
  N  N248  1  0.17182856  0.89576115  0.78904224  1.0
  N  N249  1  0.35656428  0.60458992  0.71085199  1.0
  N  N250  1  0.82817307  0.10423769  0.21096054  1.0
  N  N251  1  0.64344174  0.39541374  0.28914947  1.0
  O  O252  1  0.48496410  0.19210657  0.32582633  1.0
  O  O253  1  0.50275706  0.30767989  0.17401532  1.0
  O  O254  1  0.51502836  0.80789229  0.67417571  1.0
  O  O255  1  0.49724027  0.69232327  0.82598406  1.0
