# generated using pymatgen
data_Zn4H6C18N6O13
_symmetry_space_group_name_H-M   'P 1'
_cell_length_a   17.97962775
_cell_length_b   18.19552083
_cell_length_c   18.22924716
_cell_angle_alpha   60.93822634
_cell_angle_beta   60.61446938
_cell_angle_gamma   60.49072962
_symmetry_Int_Tables_number   1
_chemical_formula_structural   Zn4H6C18N6O13
_chemical_formula_sum   'Zn8 H12 C36 N12 O26'
_cell_volume   4281.65525143
_cell_formula_units_Z   2
loop_
 _symmetry_equiv_pos_site_id
 _symmetry_equiv_pos_as_xyz
  1  'x, y, z'
loop_
 _atom_site_type_symbol
 _atom_site_label
 _atom_site_symmetry_multiplicity
 _atom_site_fract_x
 _atom_site_fract_y
 _atom_site_fract_z
 _atom_site_occupancy
  Zn  Zn0  1  0.96273535  0.93995854  0.14743212  1.0
  Zn  Zn1  1  0.14235998  0.93618040  0.97322244  1.0
  Zn  Zn2  1  0.96404116  0.11260427  0.97565691  1.0
  Zn  Zn3  1  0.96436732  0.93638251  0.97167380  1.0
  Zn  Zn4  1  0.55127400  0.52497460  0.38630584  1.0
  Zn  Zn5  1  0.37486072  0.52396517  0.56071575  1.0
  Zn  Zn6  1  0.55560676  0.52613744  0.55970062  1.0
  Zn  Zn7  1  0.55327547  0.35039665  0.56013854  1.0
  H  H8  1  0.29022188  0.56898541  0.31523562  1.0
  H  H9  1  0.21980296  0.88902220  0.22363120  1.0
  H  H10  1  0.82756349  0.27380860  0.31471086  1.0
  H  H11  1  0.67733150  0.18931063  0.22168895  1.0
  H  H12  1  0.59782189  0.80213049  0.31454176  1.0
  H  H13  1  0.92436806  0.65670799  0.21560277  1.0
  H  H14  1  0.30337633  0.26729659  0.60994104  1.0
  H  H15  1  0.21556896  0.19252268  0.92938925  1.0
  H  H16  1  0.29516159  0.57282050  0.83677372  1.0
  H  H17  1  0.22450463  0.89330318  0.69036838  1.0
  H  H18  1  0.59921854  0.27491028  0.83439670  1.0
  H  H19  1  0.92626338  0.18936964  0.69291995  1.0
  C  C20  1  0.14799631  0.84116430  0.15632756  1.0
  C  C21  1  0.20543130  0.78115582  0.21581928  1.0
  C  C22  1  0.27456093  0.64092054  0.29414720  1.0
  C  C23  1  0.30645690  0.67676238  0.32134489  1.0
  C  C24  1  0.23647197  0.81702690  0.24384111  1.0
  C  C25  1  0.36525613  0.61789894  0.37956561  1.0
  C  C26  1  0.86497393  0.12224053  0.15741274  1.0
  C  C27  1  0.80525068  0.18048631  0.21607685  1.0
  C  C28  1  0.79432346  0.25469547  0.29337944  1.0
  C  C29  1  0.69979745  0.28322799  0.31959160  1.0
  C  C30  1  0.71072125  0.20875377  0.24253136  1.0
  C  C31  1  0.64167007  0.34170791  0.37798762  1.0
  C  C32  1  0.86891564  0.84155896  0.15296154  1.0
  C  C33  1  0.81151479  0.78208542  0.21165596  1.0
  C  C34  1  0.67122318  0.76983046  0.29210176  1.0
  C  C35  1  0.71061537  0.67677889  0.31822519  1.0
  C  C36  1  0.85094648  0.68903550  0.23783195  1.0
  C  C37  1  0.65227592  0.61823094  0.37762147  1.0
  C  C38  1  0.15004492  0.11914578  0.88096768  1.0
  C  C39  1  0.20858013  0.17757640  0.82162183  1.0
  C  C40  1  0.28357673  0.25017516  0.68178146  1.0
  C  C41  1  0.31081776  0.28181447  0.71777718  1.0
  C  C42  1  0.23566782  0.20938682  0.85756080  1.0
  C  C43  1  0.36882160  0.34071795  0.65864195  1.0
  C  C44  1  0.15004986  0.84262595  0.87434012  1.0
  C  C45  1  0.20857781  0.78431738  0.81564586  1.0
  C  C46  1  0.27892438  0.64491758  0.80424944  1.0
  C  C47  1  0.31086542  0.68182621  0.71154428  1.0
  C  C48  1  0.24060792  0.82121903  0.72294279  1.0
  C  C49  1  0.36925242  0.62271995  0.65366213  1.0
  C  C50  1  0.86992895  0.11963729  0.87655947  1.0
  C  C51  1  0.81274383  0.17886468  0.81681388  1.0
  C  C52  1  0.67277933  0.25541214  0.80302869  1.0
  C  C53  1  0.71269144  0.28517796  0.71047994  1.0
  C  C54  1  0.85269253  0.20875603  0.72428795  1.0
  C  C55  1  0.65445127  0.34406811  0.65170353  1.0
  N  N56  1  0.22417965  0.69316134  0.24077831  1.0
  N  N57  1  0.28766954  0.76479711  0.29634031  1.0
  N  N58  1  0.84751310  0.20314506  0.24133658  1.0
  N  N59  1  0.65747659  0.26048628  0.29450700  1.0
  N  N60  1  0.72170492  0.82286582  0.23874161  1.0
  N  N61  1  0.80043228  0.63596094  0.29138189  1.0
  N  N62  1  0.23244285  0.19762794  0.73372230  1.0
  N  N63  1  0.28720917  0.26150723  0.80566360  1.0
  N  N64  1  0.22757024  0.69613584  0.85668556  1.0
  N  N65  1  0.29203189  0.76997736  0.67047219  1.0
  N  N66  1  0.72276106  0.20198416  0.85664268  1.0
  N  N67  1  0.80267243  0.26201865  0.67062730  1.0
  O  O68  1  0.00883492  0.98121698  0.01641341  1.0
  O  O69  1  0.19024508  0.86146908  0.07313945  1.0
  O  O70  1  0.06311003  0.86629810  0.19599250  1.0
  O  O71  1  0.32445150  0.59060098  0.46263262  1.0
  O  O72  1  0.44988214  0.60127332  0.33926132  1.0
  O  O73  1  0.88606587  0.16262439  0.07412211  1.0
  O  O74  1  0.88758849  0.03869514  0.19734666  1.0
  O  O75  1  0.62168879  0.30127366  0.46122764  1.0
  O  O76  1  0.62039156  0.42524258  0.33785992  1.0
  O  O77  1  0.89354585  0.85907737  0.06960125  1.0
  O  O78  1  0.88734499  0.86731349  0.19368206  1.0
  O  O79  1  0.63080720  0.59879603  0.46084260  1.0
  O  O80  1  0.62922462  0.59575440  0.33785610  1.0
  O  O81  1  0.06521211  0.16003004  0.90472402  1.0
  O  O82  1  0.19139325  0.03553495  0.90180393  1.0
  O  O83  1  0.45381792  0.30088509  0.63925938  1.0
  O  O84  1  0.32678439  0.42397995  0.63360088  1.0
  O  O85  1  0.06514670  0.86462501  0.89514653  1.0
  O  O86  1  0.19168845  0.86446096  0.89616129  1.0
  O  O87  1  0.45415836  0.60074984  0.63293698  1.0
  O  O88  1  0.32744036  0.59980678  0.63311873  1.0
  O  O89  1  0.89130207  0.16009756  0.89987830  1.0
  O  O90  1  0.89161935  0.03611025  0.89642135  1.0
  O  O91  1  0.63448986  0.30337741  0.62727778  1.0
  O  O92  1  0.62971150  0.42761744  0.63429513  1.0
  O  O93  1  0.50836777  0.48173311  0.51738298  1.0
