# generated using pymatgen
data_Zn6H21C46S7O45F7
_symmetry_space_group_name_H-M   'P 1'
_cell_length_a   18.80369022
_cell_length_b   18.92053025
_cell_length_c   18.97423644
_cell_angle_alpha   109.03311077
_cell_angle_beta   109.69132036
_cell_angle_gamma   109.39550210
_symmetry_Int_Tables_number   1
_chemical_formula_structural   Zn6H21C46S7O45F7
_chemical_formula_sum   'Zn6 H21 C46 S7 O45 F7'
_cell_volume   5215.21726375
_cell_formula_units_Z   1
loop_
 _symmetry_equiv_pos_site_id
 _symmetry_equiv_pos_as_xyz
  1  'x, y, z'
loop_
 _atom_site_type_symbol
 _atom_site_label
 _atom_site_symmetry_multiplicity
 _atom_site_fract_x
 _atom_site_fract_y
 _atom_site_fract_z
 _atom_site_occupancy
  Zn  Zn0  1  0.99214817  0.44590773  0.92542227  1.0
  Zn  Zn1  1  0.97688079  0.55730111  0.04613295  1.0
  Zn  Zn2  1  0.57725832  0.00157557  0.07759211  1.0
  Zn  Zn3  1  0.45175668  0.99177361  0.94294341  1.0
  Zn  Zn4  1  0.55371221  0.57535880  0.48770522  1.0
  Zn  Zn5  1  0.42780209  0.44748053  0.48741973  1.0
  H  H6  1  0.32840925  0.53365500  0.98713103  1.0
  H  H7  1  0.44786972  0.31612622  0.23800921  1.0
  H  H8  1  0.04815345  0.85438579  0.99569598  1.0
  H  H9  1  0.29585179  0.95286513  0.00902729  1.0
  H  H10  1  0.43182725  0.63136420  0.95989673  1.0
  H  H11  1  0.20712739  0.55308077  0.99193528  1.0
  H  H12  1  0.77365958  0.32409787  0.17360789  1.0
  H  H13  1  0.63086663  0.23612047  0.58887099  1.0
  H  H14  1  0.67959042  0.88037201  0.03147752  1.0
  H  H15  1  0.65730898  0.27938040  0.39689007  1.0
  H  H16  1  0.69895763  0.42943096  0.28216795  1.0
  H  H17  1  0.21250632  0.45799057  0.30582643  1.0
  H  H18  1  0.39024802  0.02366546  0.18457610  1.0
  H  H19  1  0.37138702  0.75635125  0.33779799  1.0
  H  H20  1  0.20762582  0.50337629  0.17054987  1.0
  H  H21  1  0.64493297  0.20818117  0.94866344  1.0
  H  H22  1  0.70781004  0.54243021  0.70853650  1.0
  H  H23  1  0.04364256  0.71653602  0.97494324  1.0
  H  H24  1  0.73135459  0.51026372  0.84485927  1.0
  H  H25  1  0.44132559  0.63397503  0.69125657  1.0
  H  H26  1  0.59858641  0.78562313  0.71922053  1.0
  C  C27  1  0.10696627  0.53605844  0.12671606  1.0
  C  C28  1  0.25375901  0.59784417  0.98429987  1.0
  C  C29  1  0.28943833  0.58524570  0.33847536  1.0
  C  C30  1  0.09797382  0.60675897  0.96825930  1.0
  C  C31  1  0.27855032  0.51252831  0.34152011  1.0
  C  C32  1  0.21534176  0.58637822  0.27974416  1.0
  C  C33  1  0.17944041  0.54085444  0.19388942  1.0
  C  C34  1  0.75365735  0.20609443  0.02442095  1.0
  C  C35  1  0.66761021  0.17676901  0.98263980  1.0
  C  C36  1  0.81736806  0.28355770  0.03284189  1.0
  C  C37  1  0.83770239  0.27858810  0.97047536  1.0
  C  C38  1  0.16982132  0.75381636  0.98261990  1.0
  C  C39  1  0.65041048  0.41161792  0.67178357  1.0
  C  C40  1  0.64912113  0.47951648  0.66428083  1.0
  C  C41  1  0.72929915  0.42579407  0.73968161  1.0
  C  C42  1  0.84862310  0.49852690  0.89146695  1.0
  C  C43  1  0.76575591  0.47932298  0.82443653  1.0
  C  C44  1  0.55883390  0.88712861  0.93908860  1.0
  C  C45  1  0.37977135  0.87748449  0.98648833  1.0
  C  C46  1  0.53232520  0.11652531  0.14302849  1.0
  C  C47  1  0.60234010  0.10801139  0.98268212  1.0
  C  C48  1  0.53189854  0.65270078  0.61318244  1.0
  C  C49  1  0.30843215  0.80669987  0.98161424  1.0
  C  C50  1  0.34820945  0.49898560  0.39059170  1.0
  C  C51  1  0.51047067  0.42270513  0.36851382  1.0
  C  C52  1  0.57977141  0.47974034  0.59732774  1.0
  C  C53  1  0.49551580  0.69976736  0.72539785  1.0
  C  C54  1  0.89216577  0.35175255  0.96398789  1.0
  C  C55  1  0.54637367  0.72053343  0.69176368  1.0
  C  C56  1  0.50073753  0.76025362  0.79973813  1.0
  C  C57  1  0.56974077  0.82463353  0.87790770  1.0
  C  C58  1  0.57437321  0.33886468  0.30318765  1.0
  C  C59  1  0.50997031  0.35639889  0.29833246  1.0
  C  C60  1  0.30985920  0.73073000  0.97473640  1.0
  C  C61  1  0.56695889  0.27049091  0.23056237  1.0
  C  C62  1  0.53355903  0.18733656  0.21078655  1.0
  C  C63  1  0.09934777  0.76745294  0.98275305  1.0
  C  C64  1  0.10147073  0.84382683  0.99489230  1.0
  C  C65  1  0.17530004  0.91035959  0.00724757  1.0
  C  C66  1  0.24326261  0.90080165  0.00400104  1.0
  C  C67  1  0.24156668  0.82097813  0.98919781  1.0
  C  C68  1  0.24353012  0.66746959  0.97787117  1.0
  C  C69  1  0.17191080  0.67802555  0.97637179  1.0
  C  C70  1  0.37334792  0.71018432  0.96386097  1.0
  C  C71  1  0.38076634  0.64191917  0.96759244  1.0
  C  C72  1  0.32125541  0.58658948  0.98114282  1.0
  S  S73  1  0.85737211  0.38206187  0.12895768  1.0
  S  S74  1  0.55943548  0.30286686  0.59896114  1.0
  S  S75  1  0.67852673  0.84223499  0.91376125  1.0
  S  S76  1  0.67970276  0.39969912  0.39962401  1.0
  S  S77  1  0.60895226  0.30517241  0.16663940  1.0
  S  S78  1  0.48963991  0.15450366  0.27307554  1.0
  S  S79  1  0.39421928  0.68290165  0.39808287  1.0
  O  O80  1  0.08644655  0.48786086  0.04979214  1.0
  O  O81  1  0.47352761  0.57557151  0.58125545  1.0
  O  O82  1  0.42454657  0.54242890  0.40623943  1.0
  O  O83  1  0.07038849  0.57929059  0.14823345  1.0
  O  O84  1  0.32357760  0.44129536  0.41242490  1.0
  O  O85  1  0.56095850  0.50192912  0.39502021  1.0
  O  O86  1  0.45753000  0.39323298  0.39188468  1.0
  O  O87  1  0.60673857  0.53258771  0.57288558  1.0
  O  O88  1  0.49985862  0.42872990  0.57083362  1.0
  O  O89  1  0.07160118  0.52961673  0.91186541  1.0
  O  O90  1  0.06669500  0.62563578  0.01672455  1.0
  O  O91  1  0.50338361  0.90766218  0.90910895  1.0
  O  O92  1  0.88926030  0.46200401  0.86973521  1.0
  O  O93  1  0.87476809  0.55278611  0.96967036  1.0
  O  O94  1  0.92148274  0.33448614  0.91236502  1.0
  O  O95  1  0.90324033  0.42419462  0.00969579  1.0
  O  O96  1  0.60887339  0.91921002  0.02148704  1.0
  O  O97  1  0.95041248  0.42980565  0.17240377  1.0
  O  O98  1  0.80386063  0.41941270  0.10684645  1.0
  O  O99  1  0.83476653  0.34238865  0.18561972  1.0
  O  O100  1  0.49777053  0.29210124  0.62816569  1.0
  O  O101  1  0.53722815  0.28339234  0.51210244  1.0
  O  O102  1  0.45610695  0.91486108  0.04931307  1.0
  O  O103  1  0.60200296  0.24679116  0.62235282  1.0
  O  O104  1  0.68076383  0.76961744  0.86133618  1.0
  O  O105  1  0.73021864  0.92686879  0.92887738  1.0
  O  O106  1  0.69938899  0.84253612  0.00241355  1.0
  O  O107  1  0.74096280  0.45236112  0.38274447  1.0
  O  O108  1  0.67242069  0.43894578  0.47333876  1.0
  O  O109  1  0.70432836  0.32785900  0.40035449  1.0
  O  O110  1  0.67230106  0.27763233  0.16641684  1.0
  O  O111  1  0.53645475  0.27803593  0.08703815  1.0
  O  O112  1  0.65474931  0.40554704  0.21973961  1.0
  O  O113  1  0.35622450  0.89827742  0.92766429  1.0
  O  O114  1  0.56255210  0.18761104  0.35633812  1.0
  O  O115  1  0.41867068  0.17040555  0.26492599  1.0
  O  O116  1  0.45289052  0.05298092  0.22562642  1.0
  O  O117  1  0.42954892  0.70993084  0.48778989  1.0
  O  O118  1  0.44192213  0.67379518  0.35341496  1.0
  O  O119  1  0.36378188  0.75007086  0.38443096  1.0
  O  O120  1  0.58857840  0.09532579  0.17323648  1.0
  O  O121  1  0.47580457  0.08460915  0.06596539  1.0
  O  O122  1  0.62644045  0.08385928  0.03707815  1.0
  O  O123  1  0.52182617  0.07723952  0.92687031  1.0
  O  O124  1  0.58175636  0.67747846  0.58308870  1.0
  F  F125  1  0.18784297  0.63598399  0.31801179  1.0
  F  F126  1  0.78901943  0.17011875  0.06559616  1.0
  F  F127  1  0.80479294  0.20015060  0.90377214  1.0
  F  F128  1  0.76606324  0.38269661  0.70802971  1.0
  F  F129  1  0.41967275  0.74511621  0.78451153  1.0
  F  F130  1  0.17713909  0.98641818  0.02136211  1.0
  F  F131  1  0.42914970  0.76069556  0.94746762  1.0
