# generated using pymatgen
data_ZnH8C19(NO3)2
_symmetry_space_group_name_H-M   'P 1'
_cell_length_a   5.62109754
_cell_length_b   18.95414526
_cell_length_c   25.46336629
_cell_angle_alpha   90.00000094
_cell_angle_beta   90.00001627
_cell_angle_gamma   95.41458177
_symmetry_Int_Tables_number   1
_chemical_formula_structural   ZnH8C19(NO3)2
_chemical_formula_sum   'Zn4 H32 C76 N8 O24'
_cell_volume   2700.84074874
_cell_formula_units_Z   4
loop_
 _symmetry_equiv_pos_site_id
 _symmetry_equiv_pos_as_xyz
  1  'x, y, z'
loop_
 _atom_site_type_symbol
 _atom_site_label
 _atom_site_symmetry_multiplicity
 _atom_site_fract_x
 _atom_site_fract_y
 _atom_site_fract_z
 _atom_site_occupancy
  Zn  Zn0  1  0.10269746  0.55989391  0.53301948  1.0
  Zn  Zn1  1  0.89730163  0.94010531  0.03301963  1.0
  Zn  Zn2  1  0.89730201  0.44010595  0.46698071  1.0
  Zn  Zn3  1  0.10269768  0.05989402  0.96698056  1.0
  H  H4  1  0.46287784  0.91689173  0.10443044  1.0
  H  H5  1  0.53712169  0.58310855  0.60443071  1.0
  H  H6  1  0.53712181  0.08310866  0.89556896  1.0
  H  H7  1  0.46287779  0.41689131  0.39556947  1.0
  H  H8  1  0.37262501  0.84824208  0.18768494  1.0
  H  H9  1  0.62737607  0.65175715  0.68768522  1.0
  H  H10  1  0.62737447  0.15175778  0.81231485  1.0
  H  H11  1  0.37262713  0.34824324  0.31231457  1.0
  H  H12  1  0.01022818  0.74256816  0.16010727  1.0
  H  H13  1  0.98977498  0.75743213  0.66010718  1.0
  H  H14  1  0.98977308  0.25743170  0.83989291  1.0
  H  H15  1  0.01022644  0.24256826  0.33989300  1.0
  H  H16  1  0.07498413  0.81565394  0.07799755  1.0
  H  H17  1  0.92501520  0.68434582  0.57799745  1.0
  H  H18  1  0.92501535  0.18434592  0.92200263  1.0
  H  H19  1  0.07498606  0.31565404  0.42200273  1.0
  H  H20  1  0.11285462  0.59912120  0.25188069  1.0
  H  H21  1  0.88714672  0.90087856  0.75188098  1.0
  H  H22  1  0.88714681  0.40087919  0.74811910  1.0
  H  H23  1  0.11285437  0.09912077  0.24811920  1.0
  H  H24  1  0.05267134  0.52893355  0.33548785  1.0
  H  H25  1  0.94732815  0.97106569  0.83548815  1.0
  H  H26  1  0.94732797  0.47106578  0.66451194  1.0
  H  H27  1  0.05267133  0.02893417  0.16451203  1.0
  H  H28  1  0.04686091  0.70806770  0.43624947  1.0
  H  H29  1  0.95313889  0.79193207  0.93624938  1.0
  H  H30  1  0.95313857  0.29193216  0.56375071  1.0
  H  H31  1  0.04686076  0.20806832  0.06375080  1.0
  H  H32  1  0.08678842  0.78232923  0.35432315  1.0
  H  H33  1  0.91321110  0.71767001  0.85432305  1.0
  H  H34  1  0.91321301  0.21767116  0.64567703  1.0
  H  H35  1  0.08678821  0.28232932  0.14567674  1.0
  C  C36  1  0.57920749  0.87777359  0.11819296  1.0
  C  C37  1  0.42079384  0.62222670  0.61819322  1.0
  C  C38  1  0.42079216  0.12222680  0.88180683  1.0
  C  C39  1  0.57920920  0.37777316  0.38180696  1.0
  C  C40  1  0.52952135  0.83962586  0.16425482  1.0
  C  C41  1  0.47047809  0.66037390  0.66425469  1.0
  C  C42  1  0.47047813  0.16037400  0.83574497  1.0
  C  C43  1  0.52952156  0.33962649  0.33574510  1.0
  C  C44  1  0.68716705  0.79113360  0.17987216  1.0
  C  C45  1  0.31283596  0.70886616  0.67987242  1.0
  C  C46  1  0.31283226  0.20886573  0.82012763  1.0
  C  C47  1  0.68716707  0.29113370  0.32012777  1.0
  C  C48  1  0.88455223  0.78027502  0.14877848  1.0
  C  C49  1  0.11544719  0.71972474  0.64877833  1.0
  C  C50  1  0.11544547  0.21972484  0.85122131  1.0
  C  C51  1  0.88455407  0.28027512  0.35122146  1.0
  C  C52  1  0.92165745  0.82063338  0.10351384  1.0
  C  C53  1  0.07834369  0.67936638  0.60351369  1.0
  C  C54  1  0.07834381  0.17936648  0.89648595  1.0
  C  C55  1  0.92165579  0.32063348  0.39648649  1.0
  C  C56  1  0.45001811  0.70214509  0.23148198  1.0
  C  C57  1  0.54998159  0.79785520  0.73148147  1.0
  C  C58  1  0.54998332  0.29785530  0.76851860  1.0
  C  C59  1  0.45001806  0.20214519  0.26851871  1.0
  C  C60  1  0.42303902  0.66113379  0.28062984  1.0
  C  C61  1  0.57696058  0.83886597  0.78062972  1.0
  C  C62  1  0.57696063  0.33886660  0.71937034  1.0
  C  C63  1  0.42303874  0.16113336  0.21937046  1.0
  C  C64  1  0.58742115  0.67406228  0.32264314  1.0
  C  C65  1  0.41257688  0.82593802  0.82264302  1.0
  C  C66  1  0.41257866  0.32593864  0.67735704  1.0
  C  C67  1  0.58742260  0.17406184  0.17735717  1.0
  C  C68  1  0.78183921  0.72722233  0.31757391  1.0
  C  C69  1  0.21815704  0.77277797  0.81757377  1.0
  C  C70  1  0.21816061  0.27277860  0.68242628  1.0
  C  C71  1  0.78184066  0.22722189  0.18242642  1.0
  C  C72  1  0.82221201  0.76765735  0.26838717  1.0
  C  C73  1  0.17778773  0.73234294  0.76838702  1.0
  C  C74  1  0.17778586  0.23234304  0.73161301  1.0
  C  C75  1  0.82220997  0.26765692  0.23161316  1.0
  C  C76  1  0.23564448  0.60832526  0.28480603  1.0
  C  C77  1  0.76435495  0.89167398  0.78480632  1.0
  C  C78  1  0.76435678  0.39167460  0.71519415  1.0
  C  C79  1  0.23564453  0.10832588  0.21519426  1.0
  C  C80  1  0.20382962  0.56889193  0.33119071  1.0
  C  C81  1  0.79617181  0.93110784  0.83119060  1.0
  C  C82  1  0.79617163  0.43110794  0.66880908  1.0
  C  C83  1  0.20382945  0.06889202  0.16880919  1.0
  C  C84  1  0.35722269  0.58150197  0.37367252  1.0
  C  C85  1  0.64277702  0.91849780  0.87367241  1.0
  C  C86  1  0.64277679  0.41849789  0.62632727  1.0
  C  C87  1  0.35722051  0.08150153  0.12632738  1.0
  C  C88  1  0.55887162  0.63289049  0.36991341  1.0
  C  C89  1  0.44112809  0.86710928  0.86991367  1.0
  C  C90  1  0.44112981  0.36710990  0.63008638  1.0
  C  C91  1  0.55887300  0.13289005  0.13008651  1.0
  C  C92  1  0.73517565  0.64515163  0.41006325  1.0
  C  C93  1  0.26482394  0.85484761  0.91006311  1.0
  C  C94  1  0.26482561  0.35484823  0.58993694  1.0
  C  C95  1  0.73517537  0.14515172  0.08993746  1.0
  C  C96  1  0.91567350  0.70011590  0.40482789  1.0
  C  C97  1  0.08432609  0.79988334  0.90482813  1.0
  C  C98  1  0.08432598  0.29988396  0.59517190  1.0
  C  C99  1  0.91567322  0.20011599  0.09517205  1.0
  C  C100  1  0.93974928  0.74105475  0.35895886  1.0
  C  C101  1  0.06025025  0.75894449  0.85895871  1.0
  C  C102  1  0.06025198  0.25894511  0.64104133  1.0
  C  C103  1  0.93974923  0.24105537  0.14104148  1.0
  C  C104  1  0.27615023  0.54506986  0.42388544  1.0
  C  C105  1  0.72384972  0.95493045  0.92388573  1.0
  C  C106  1  0.72385120  0.45493053  0.57611435  1.0
  C  C107  1  0.27614993  0.04506994  0.07611445  1.0
  C  C108  1  0.76907535  0.59404864  0.45418192  1.0
  C  C109  1  0.23092447  0.90595114  0.95418218  1.0
  C  C110  1  0.23092396  0.40595069  0.54581747  1.0
  C  C111  1  0.76907518  0.09404925  0.04581800  1.0
  N  N112  1  0.77375217  0.86903184  0.08883510  1.0
  N  N113  1  0.22624911  0.63096845  0.58883496  1.0
  N  N114  1  0.22624925  0.13096856  0.91116469  1.0
  N  N115  1  0.77375053  0.36903194  0.41116483  1.0
  N  N116  1  0.65015592  0.75277796  0.22826992  1.0
  N  N117  1  0.34984538  0.74722180  0.72826979  1.0
  N  N118  1  0.34984550  0.24722243  0.77172987  1.0
  N  N119  1  0.65015410  0.25277806  0.27173000  1.0
  O  O120  1  0.28748010  0.58318153  0.46523269  1.0
  O  O121  1  0.71251973  0.91681825  0.96523258  1.0
  O  O122  1  0.71251938  0.41681834  0.53476750  1.0
  O  O123  1  0.28747958  0.08318108  0.03476721  1.0
  O  O124  1  0.18183825  0.48191879  0.41988793  1.0
  O  O125  1  0.81816138  0.01808118  0.91988783  1.0
  O  O126  1  0.81816317  0.51808160  0.58011186  1.0
  O  O127  1  0.18183632  0.98191868  0.08011196  1.0
  O  O128  1  0.74040839  0.52851869  0.44147268  1.0
  O  O129  1  0.25959124  0.97148056  0.94147255  1.0
  O  O130  1  0.25959270  0.47148064  0.55852711  1.0
  O  O131  1  0.74040824  0.02851931  0.05852724  1.0
  O  O132  1  0.84997922  0.61938811  0.49725596  1.0
  O  O133  1  0.15002244  0.88061167  0.99725621  1.0
  O  O134  1  0.15002187  0.38061122  0.50274383  1.0
  O  O135  1  0.84997721  0.11938872  0.00274397  1.0
  O  O136  1  0.31239937  0.69270972  0.19388443  1.0
  O  O137  1  0.68760011  0.80729004  0.69388472  1.0
  O  O138  1  0.68760011  0.30729014  0.80611575  1.0
  O  O139  1  0.31239937  0.19270982  0.30611547  1.0
  O  O140  1  0.99275756  0.81239123  0.26127303  1.0
  O  O141  1  0.00724040  0.68760907  0.76127248  1.0
  O  O142  1  0.00724099  0.18761128  0.73872637  1.0
  O  O143  1  0.99275747  0.31239133  0.23872691  1.0
