# generated using pymatgen
data_AlH7C13O5F
_symmetry_space_group_name_H-M   'P 1'
_cell_length_a   6.67635837
_cell_length_b   11.16610117
_cell_length_c   17.72046065
_cell_angle_alpha   88.57772522
_cell_angle_beta   79.75035467
_cell_angle_gamma   73.35719560
_symmetry_Int_Tables_number   1
_chemical_formula_structural   AlH7C13O5F
_chemical_formula_sum   'Al2 H14 C26 O10 F2'
_cell_volume   1245.02369282
_cell_formula_units_Z   2
loop_
 _symmetry_equiv_pos_site_id
 _symmetry_equiv_pos_as_xyz
  1  'x, y, z'
loop_
 _atom_site_type_symbol
 _atom_site_label
 _atom_site_symmetry_multiplicity
 _atom_site_fract_x
 _atom_site_fract_y
 _atom_site_fract_z
 _atom_site_occupancy
  Al  Al0  1  0.99777504  0.50008017  0.50381040  1.0
  Al  Al1  1  0.49783813  0.50079855  0.50333314  1.0
  H  H2  1  0.15509554  0.62528102  0.57156136  1.0
  H  H3  1  0.84014465  0.36575008  0.44505134  1.0
  H  H4  1  0.04375280  0.49631281  0.27246107  1.0
  H  H5  1  0.11549097  0.48679316  0.12879825  1.0
  H  H6  1  0.70913876  0.56858292  0.12892545  1.0
  H  H7  1  0.63726944  0.57381967  0.27256022  1.0
  H  H8  1  0.26575423  0.44688828  0.87629732  1.0
  H  H9  1  0.34706315  0.43811679  0.73262958  1.0
  H  H10  1  0.95077409  0.49926774  0.73708765  1.0
  H  H11  1  0.87057153  0.51134382  0.88071567  1.0
  H  H12  1  0.11022742  0.86646999  0.47061237  1.0
  H  H13  1  0.28459479  0.86710325  0.38198768  1.0
  H  H14  1  0.15345969  0.10148770  0.38111161  1.0
  H  H15  1  0.98133695  0.10272931  0.47104314  1.0
  C  C16  1  0.63950913  0.72596117  0.51104204  1.0
  C  C17  1  0.69071615  0.47649214  0.64153995  1.0
  C  C18  1  0.35398569  0.27470021  0.50403671  1.0
  C  C19  1  0.30353766  0.52574316  0.36586744  1.0
  C  C20  1  0.33779217  0.53362189  0.28064954  1.0
  C  C21  1  0.18856600  0.51190427  0.24008535  1.0
  C  C22  1  0.22843525  0.50699198  0.16045403  1.0
  C  C23  1  0.41916319  0.52463768  0.11929279  1.0
  C  C24  1  0.56416123  0.55211842  0.16057138  1.0
  C  C25  1  0.52408717  0.55563202  0.24022360  1.0
  C  C26  1  0.46681444  0.51141551  0.03840345  1.0
  C  C27  1  0.51086234  0.49593615  0.96875672  1.0
  C  C28  1  0.56124361  0.48209779  0.88790190  1.0
  C  C29  1  0.41511568  0.45885402  0.84555133  1.0
  C  C30  1  0.46008447  0.45365853  0.76596562  1.0
  C  C31  1  0.65194631  0.47015941  0.72679843  1.0
  C  C32  1  0.80157372  0.48808141  0.76847993  1.0
  C  C33  1  0.75708492  0.49446330  0.84805703  1.0
  C  C34  1  0.56400444  0.86481981  0.51426761  1.0
  C  C35  1  0.41997472  0.13644142  0.51128305  1.0
  C  C36  1  0.38905221  0.92990866  0.48220602  1.0
  C  C37  1  0.59200814  0.07183346  0.54646709  1.0
  C  C38  1  0.31937479  0.05992290  0.48109126  1.0
  C  C39  1  0.66119488  0.94101253  0.54789191  1.0
  C  C40  1  0.22227761  0.91298051  0.43890069  1.0
  C  C41  1  0.14136663  0.06087255  0.43829312  1.0
  O  O42  1  0.83746753  0.67364493  0.50553071  1.0
  O  O43  1  0.53809537  0.47417611  0.60797775  1.0
  O  O44  1  0.49898982  0.32941459  0.49564114  1.0
  O  O45  1  0.12581159  0.51207729  0.39894300  1.0
  O  O46  1  0.15740496  0.32601322  0.50421770  1.0
  O  O47  1  0.45693618  0.52899393  0.39878030  1.0
  O  O48  1  0.49594638  0.67132928  0.51240801  1.0
  O  O49  1  0.87025017  0.48855740  0.60911780  1.0
  O  O50  1  0.20708833  0.54990779  0.53948985  1.0
  O  O51  1  0.78931409  0.44966447  0.46742761  1.0
  F  F52  1  0.69478544  0.13485796  0.58280107  1.0
  F  F53  1  0.82426773  0.88967118  0.58560469  1.0
