# generated using pymatgen
data_AlH6C13ClO5F
_symmetry_space_group_name_H-M   'P 1'
_cell_length_a   6.63936196
_cell_length_b   11.07447248
_cell_length_c   15.11318605
_cell_angle_alpha   92.23268949
_cell_angle_beta   98.74309788
_cell_angle_gamma   106.24284422
_symmetry_Int_Tables_number   1
_chemical_formula_structural   AlH6C13ClO5F
_chemical_formula_sum   'Al2 H12 C26 Cl2 O10 F2'
_cell_volume   1050.58734572
_cell_formula_units_Z   2
loop_
 _symmetry_equiv_pos_site_id
 _symmetry_equiv_pos_as_xyz
  1  'x, y, z'
loop_
 _atom_site_type_symbol
 _atom_site_label
 _atom_site_symmetry_multiplicity
 _atom_site_fract_x
 _atom_site_fract_y
 _atom_site_fract_z
 _atom_site_occupancy
  Al  Al0  1  0.00200093  0.50003177  0.50271152  1.0
  Al  Al1  1  0.50291998  0.50122715  0.50329381  1.0
  H  H2  1  0.34341546  0.64959695  0.56538232  1.0
  H  H3  1  0.65844963  0.34560208  0.45725348  1.0
  H  H4  1  0.64483411  0.38680195  0.94778351  1.0
  H  H5  1  0.37359638  0.57569030  0.05308010  1.0
  H  H6  1  0.82413237  0.43114013  0.24261184  1.0
  H  H7  1  0.71213939  0.43082763  0.08030467  1.0
  H  H8  1  0.17413299  0.60188992  0.76551331  1.0
  H  H9  1  0.28250907  0.61161509  0.92901411  1.0
  H  H10  1  0.54380861  0.76156896  0.38317256  1.0
  H  H11  1  0.33240336  0.87401286  0.28933493  1.0
  H  H12  1  0.80734853  0.22816854  0.37853531  1.0
  H  H13  1  0.46721380  0.10846788  0.28549940  1.0
  C  C14  1  0.86199524  0.72489152  0.49284725  1.0
  C  C15  1  0.80297779  0.50319207  0.66436254  1.0
  C  C16  1  0.14019019  0.27449064  0.50438979  1.0
  C  C17  1  0.20308993  0.49839355  0.34103498  1.0
  C  C18  1  0.84931809  0.49777408  0.76369613  1.0
  C  C19  1  0.15744905  0.50408655  0.24159914  1.0
  C  C20  1  0.70098248  0.43823706  0.81750889  1.0
  C  C21  1  0.76367879  0.43825895  0.90999879  1.0
  C  C22  1  0.30993409  0.54726321  0.18559063  1.0
  C  C23  1  0.24826285  0.54349820  0.09280968  1.0
  C  C24  1  0.94303666  0.46180636  0.19960775  1.0
  C  C25  1  0.88140988  0.46088386  0.10776574  1.0
  C  C26  1  0.05877918  0.55734143  0.80713991  1.0
  C  C27  1  0.11929731  0.56071126  0.89923984  1.0
  C  C28  1  0.97234041  0.50009435  0.95308923  1.0
  C  C29  1  0.03372905  0.50077021  0.05155624  1.0
  C  C30  1  0.92788197  0.86520505  0.48995700  1.0
  C  C31  1  0.79719112  0.92984526  0.43857345  1.0
  C  C32  1  0.12190818  0.93429927  0.53865363  1.0
  C  C33  1  0.60039232  0.86369357  0.38386093  1.0
  C  C34  1  0.48257801  0.92701108  0.33105734  1.0
  C  C35  1  0.06797475  0.13328101  0.49490688  1.0
  C  C36  1  0.19078621  0.06722167  0.54181753  1.0
  C  C37  1  0.87048751  0.06505153  0.43944260  1.0
  C  C38  1  0.74771376  0.12664188  0.38216065  1.0
  C  C39  1  0.55796883  0.05921258  0.32931560  1.0
  Cl  Cl40  1  0.43873504  0.35811087  0.77454786  1.0
  Cl  Cl41  1  0.57920330  0.61046125  0.22552019  1.0
  O  O42  1  0.99770749  0.66828589  0.47909351  1.0
  O  O43  1  0.61212568  0.48892435  0.62694466  1.0
  O  O44  1  0.32922324  0.32839647  0.49322785  1.0
  O  O45  1  0.04111660  0.47190557  0.38059574  1.0
  O  O46  1  0.00491533  0.32960293  0.52174402  1.0
  O  O47  1  0.39457616  0.51653269  0.37930584  1.0
  O  O48  1  0.67724507  0.67330672  0.51011312  1.0
  O  O49  1  0.96438899  0.52595692  0.62450792  1.0
  O  O50  1  0.29385399  0.56205821  0.54110604  1.0
  O  O51  1  0.70893749  0.43724260  0.46440004  1.0
  F  F52  1  0.37703469  0.12675984  0.59568724  1.0
  F  F53  1  0.25008106  0.87818415  0.58955891  1.0
