# generated using pymatgen
data_ZnH16C21N2O7
_symmetry_space_group_name_H-M   'P 1'
_cell_length_a   9.79153095
_cell_length_b   11.12893460
_cell_length_c   23.79385013
_cell_angle_alpha   89.21259772
_cell_angle_beta   78.17703385
_cell_angle_gamma   84.55215084
_symmetry_Int_Tables_number   1
_chemical_formula_structural   ZnH16C21N2O7
_chemical_formula_sum   'Zn2 H32 C42 N4 O14'
_cell_volume   2526.28749093
_cell_formula_units_Z   2
loop_
 _symmetry_equiv_pos_site_id
 _symmetry_equiv_pos_as_xyz
  1  'x, y, z'
loop_
 _atom_site_type_symbol
 _atom_site_label
 _atom_site_symmetry_multiplicity
 _atom_site_fract_x
 _atom_site_fract_y
 _atom_site_fract_z
 _atom_site_occupancy
  Zn  Zn0  1  0.64896913  0.51128529  0.48087830  1.0
  Zn  Zn1  1  0.35402244  0.48425757  0.51528071  1.0
  H  H2  1  0.49105920  0.80581563  0.94489826  1.0
  H  H3  1  0.49964061  0.19945501  0.05288165  1.0
  H  H4  1  0.48058709  0.80519822  0.05221757  1.0
  H  H5  1  0.51167964  0.19994163  0.94545278  1.0
  H  H6  1  0.67723560  0.39686274  0.20088713  1.0
  H  H7  1  0.31293406  0.60243008  0.79546598  1.0
  H  H8  1  0.67226523  0.40276437  0.30630662  1.0
  H  H9  1  0.31965094  0.59067651  0.69004126  1.0
  H  H10  1  0.27675259  0.60910151  0.23077330  1.0
  H  H11  1  0.71953306  0.40063972  0.76806631  1.0
  H  H12  1  0.39256965  0.10779034  0.50095203  1.0
  H  H13  1  0.62143080  0.88767422  0.48661697  1.0
  H  H14  1  0.71475123  0.09490313  0.48089660  1.0
  H  H15  1  0.29840582  0.90314191  0.51206599  1.0
  H  H16  1  0.87130642  0.42638050  0.52592895  1.0
  H  H17  1  0.13523077  0.55281529  0.46248782  1.0
  H  H18  1  0.80160762  0.61302590  0.35713324  1.0
  H  H19  1  0.72270624  0.72944771  0.40665204  1.0
  H  H20  1  0.87538731  0.75377322  0.35378893  1.0
  H  H21  1  0.93726494  0.71706506  0.44967837  1.0
  H  H22  1  0.02058313  0.60444705  0.39889116  1.0
  H  H23  1  0.23643618  0.21556234  0.56121443  1.0
  H  H24  1  0.26695088  0.31865294  0.61253092  1.0
  H  H25  1  0.13009280  0.22177422  0.63169838  1.0
  H  H26  1  0.02953211  0.42970536  0.61436132  1.0
  H  H27  1  0.99619201  0.32495520  0.56522368  1.0
  H  H28  1  0.34555076  0.71753184  0.39513872  1.0
  H  H29  1  0.17462553  0.77904476  0.38837012  1.0
  H  H30  1  0.32160247  0.79855817  0.33111978  1.0
  H  H31  1  0.82802882  0.22035542  0.61504492  1.0
  H  H32  1  0.66428913  0.28429678  0.60080574  1.0
  H  H33  1  0.67076495  0.20798799  0.66778707  1.0
  C  C34  1  0.42986722  0.73007907  0.50351956  1.0
  C  C35  1  0.58136590  0.26699532  0.49024284  1.0
  C  C36  1  0.58909557  0.44383399  0.23030205  1.0
  C  C37  1  0.40304029  0.55691421  0.76653376  1.0
  C  C38  1  0.58597018  0.44698298  0.28888317  1.0
  C  C39  1  0.40726147  0.55059730  0.70790583  1.0
  C  C40  1  0.47279894  0.50589019  0.32767771  1.0
  C  C41  1  0.52281193  0.49299327  0.66980538  1.0
  C  C42  1  0.36091184  0.56483202  0.30575500  1.0
  C  C43  1  0.63590483  0.43868948  0.69244165  1.0
  C  C44  1  0.36309043  0.56142449  0.24688099  1.0
  C  C45  1  0.63249085  0.44531535  0.75132354  1.0
  C  C46  1  0.47648769  0.50130869  0.20969098  1.0
  C  C47  1  0.51670637  0.50367871  0.78784309  1.0
  C  C48  1  0.40707801  0.86360246  0.50344596  1.0
  C  C49  1  0.60580339  0.13347645  0.48791513  1.0
  C  C50  1  0.51531825  0.93325265  0.49411245  1.0
  C  C51  1  0.49882519  0.06279807  0.49452366  1.0
  C  C52  1  0.07630307  0.49836718  0.49575736  1.0
  C  C53  1  0.92822586  0.48867705  0.49614245  1.0
  C  C54  1  0.47846288  0.50046843  0.39029906  1.0
  C  C55  1  0.51851796  0.49454787  0.60701116  1.0
  C  C56  1  0.51066265  0.39030251  0.87662703  1.0
  C  C57  1  0.48191489  0.61504177  0.12096464  1.0
  C  C58  1  0.50609888  0.61658114  0.87622682  1.0
  C  C59  1  0.48355381  0.38896236  0.12158266  1.0
  C  C60  1  0.49823130  0.61402036  0.93914086  1.0
  C  C61  1  0.49238015  0.39128020  0.05861722  1.0
  C  C62  1  0.49876277  0.50280866  0.96866486  1.0
  C  C63  1  0.49237820  0.50245954  0.02903957  1.0
  C  C64  1  0.50549047  0.39193723  0.93933714  1.0
  C  C65  1  0.48617284  0.61327335  0.05832101  1.0
  C  C66  1  0.49139505  0.72172000  0.96891934  1.0
  C  C67  1  0.49955032  0.28353063  0.02882936  1.0
  C  C68  1  0.48550479  0.72139487  0.02837873  1.0
  C  C69  1  0.50616947  0.28382075  0.96930503  1.0
  C  C70  1  0.91794714  0.64165364  0.42360196  1.0
  C  C71  1  0.82335484  0.68703632  0.38297359  1.0
  C  C72  1  0.08032946  0.36961622  0.57815024  1.0
  C  C73  1  0.18529948  0.27596776  0.59689888  1.0
  C  C74  1  0.27555290  0.73693679  0.36483203  1.0
  C  C75  1  0.72533729  0.26614735  0.63443413  1.0
  N  N76  1  0.51209423  0.50367915  0.84888235  1.0
  N  N77  1  0.47960494  0.50183750  0.14879506  1.0
  N  N78  1  0.14570218  0.44609062  0.53135452  1.0
  N  N79  1  0.85647298  0.55028614  0.46402058  1.0
  O  O80  1  0.55671292  0.68345816  0.49057564  1.0
  O  O81  1  0.45460624  0.31351017  0.49932889  1.0
  O  O82  1  0.32148247  0.67199431  0.51607027  1.0
  O  O83  1  0.68987044  0.32540299  0.48337181  1.0
  O  O84  1  0.60054080  0.49376702  0.40167320  1.0
  O  O85  1  0.39751780  0.48893154  0.59544444  1.0
  O  O86  1  0.36383541  0.50091433  0.42680231  1.0
  O  O87  1  0.63180400  0.50348378  0.57081528  1.0
  O  O88  1  0.51303848  0.29645591  0.84974716  1.0
  O  O89  1  0.48104349  0.70884626  0.14767644  1.0
  O  O90  1  0.50783272  0.71084728  0.84875601  1.0
  O  O91  1  0.47959779  0.29493519  0.14923670  1.0
  O  O92  1  0.24575110  0.62833107  0.33942974  1.0
  O  O93  1  0.75275332  0.37580953  0.65969619  1.0
