# generated using pymatgen
data_ZnH6(C5O2)2
_symmetry_space_group_name_H-M   'P 1'
_cell_length_a   7.50359007
_cell_length_b   15.39159067
_cell_length_c   15.39687609
_cell_angle_alpha   89.99691269
_cell_angle_beta   89.72764797
_cell_angle_gamma   89.84890628
_symmetry_Int_Tables_number   1
_chemical_formula_structural   ZnH6(C5O2)2
_chemical_formula_sum   'Zn4 H24 C40 O16'
_cell_volume   1778.19261721
_cell_formula_units_Z   4
loop_
 _symmetry_equiv_pos_site_id
 _symmetry_equiv_pos_as_xyz
  1  'x, y, z'
loop_
 _atom_site_type_symbol
 _atom_site_label
 _atom_site_symmetry_multiplicity
 _atom_site_fract_x
 _atom_site_fract_y
 _atom_site_fract_z
 _atom_site_occupancy
  Zn  Zn0  1  0.66597701  0.99998363  0.49962508  1.0
  Zn  Zn1  1  0.30765271  0.99734043  0.49739525  1.0
  Zn  Zn2  1  0.30763181  0.50250671  0.00255772  1.0
  Zn  Zn3  1  0.66597038  0.49901962  0.99872013  1.0
  H  H4  1  0.11948548  0.80574081  0.69180813  1.0
  H  H5  1  0.11953150  0.69369840  0.80825233  1.0
  H  H6  1  0.82265891  0.65145146  0.76818640  1.0
  H  H7  1  0.82162225  0.73449509  0.84889999  1.0
  H  H8  1  0.82136150  0.84897433  0.73123676  1.0
  H  H9  1  0.82295516  0.76590173  0.65055368  1.0
  H  H10  1  0.11935281  0.19148632  0.30594209  1.0
  H  H11  1  0.11939119  0.30790031  0.19386493  1.0
  H  H12  1  0.82148842  0.34928581  0.23395935  1.0
  H  H13  1  0.82257815  0.26854667  0.15094447  1.0
  H  H14  1  0.82265232  0.15085589  0.26529647  1.0
  H  H15  1  0.82134517  0.23152833  0.34838637  1.0
  H  H16  1  0.27051007  0.19290657  0.69292891  1.0
  H  H17  1  0.27054479  0.30717645  0.80722555  1.0
  H  H18  1  0.97249281  0.26581073  0.84784377  1.0
  H  H19  1  0.97278215  0.34775758  0.76595898  1.0
  H  H20  1  0.97306342  0.23171361  0.64991706  1.0
  H  H21  1  0.97259157  0.14976753  0.73178584  1.0
  H  H22  1  0.87288926  0.80622050  0.30600169  1.0
  H  H23  1  0.87306447  0.69197202  0.19183467  1.0
  H  H24  1  0.17061160  0.65118356  0.23282956  1.0
  H  H25  1  0.17102480  0.73316410  0.15094718  1.0
  H  H26  1  0.17055631  0.84930054  0.26708212  1.0
  H  H27  1  0.17017612  0.76736809  0.34900858  1.0
  C  C28  1  0.58124039  0.88379868  0.38355756  1.0
  C  C29  1  0.40766062  0.88216583  0.61370600  1.0
  C  C30  1  0.55219266  0.11535168  0.61514500  1.0
  C  C31  1  0.40751356  0.11373149  0.38210996  1.0
  C  C32  1  0.55211463  0.38386122  0.88379042  1.0
  C  C33  1  0.40774057  0.61749950  0.88588139  1.0
  C  C34  1  0.58138747  0.61539718  0.11520228  1.0
  C  C35  1  0.40764470  0.38584239  0.11737598  1.0
  C  C36  1  0.40511370  0.68493718  0.81706317  1.0
  C  C37  1  0.40508227  0.81486655  0.68267535  1.0
  C  C38  1  0.56248284  0.71846287  0.78234982  1.0
  C  C39  1  0.24500558  0.78124857  0.71732848  1.0
  C  C40  1  0.56248896  0.78161308  0.71729138  1.0
  C  C41  1  0.24501509  0.71837597  0.78261657  1.0
  C  C42  1  0.76399348  0.71433933  0.78660923  1.0
  C  C43  1  0.76399117  0.78601357  0.71288170  1.0
  C  C44  1  0.40499569  0.31700207  0.18480815  1.0
  C  C45  1  0.40492170  0.18266471  0.31477963  1.0
  C  C46  1  0.56236577  0.28245596  0.21818226  1.0
  C  C47  1  0.24484954  0.21713279  0.28130696  1.0
  C  C48  1  0.56233406  0.21741485  0.28135306  1.0
  C  C49  1  0.24488480  0.28239892  0.21841003  1.0
  C  C50  1  0.76386483  0.28691500  0.21385112  1.0
  C  C51  1  0.76384550  0.21316647  0.28550347  1.0
  C  C52  1  0.55595626  0.31562057  0.81568294  1.0
  C  C53  1  0.55600978  0.18343486  0.68339451  1.0
  C  C54  1  0.71317224  0.28129468  0.78140806  1.0
  C  C55  1  0.39594213  0.21783574  0.71785730  1.0
  C  C56  1  0.71323111  0.21711938  0.71716996  1.0
  C  C57  1  0.39592228  0.28177886  0.78184160  1.0
  C  C58  1  0.91458957  0.28520714  0.78533311  1.0
  C  C59  1  0.91465386  0.21251683  0.71261121  1.0
  C  C60  1  0.58716039  0.68348855  0.18328895  1.0
  C  C61  1  0.58697818  0.81568659  0.31544308  1.0
  C  C62  1  0.42995346  0.71783916  0.21761316  1.0
  C  C63  1  0.74728727  0.78139549  0.28117020  1.0
  C  C64  1  0.42979723  0.78188571  0.28164365  1.0
  C  C65  1  0.74736696  0.71722156  0.21703924  1.0
  C  C66  1  0.22865966  0.71380630  0.21354777  1.0
  C  C67  1  0.22840340  0.78653313  0.28626403  1.0
  O  O68  1  0.73009867  0.91366623  0.41324197  1.0
  O  O69  1  0.42792310  0.90881816  0.40878339  1.0
  O  O70  1  0.25668854  0.90893599  0.58323087  1.0
  O  O71  1  0.55923704  0.90956702  0.58903002  1.0
  O  O72  1  0.40199860  0.08869335  0.58857042  1.0
  O  O73  1  0.70512085  0.08762549  0.58721371  1.0
  O  O74  1  0.55909993  0.08925687  0.40938164  1.0
  O  O75  1  0.25654888  0.08308776  0.40903073  1.0
  O  O76  1  0.40189279  0.41094096  0.91096685  1.0
  O  O77  1  0.70501488  0.41127435  0.91096697  1.0
  O  O78  1  0.55933127  0.58970404  0.90982481  1.0
  O  O79  1  0.25676846  0.59101673  0.91695713  1.0
  O  O80  1  0.73024811  0.58517700  0.08479264  1.0
  O  O81  1  0.42809269  0.59073550  0.09070809  1.0
  O  O82  1  0.25668365  0.41681379  0.09108042  1.0
  O  O83  1  0.55924654  0.40991886  0.08942627  1.0
