# generated using pymatgen
data_NdH14(C11O4)2
_symmetry_space_group_name_H-M   'P 1'
_cell_length_a   8.60265017
_cell_length_b   14.29258334
_cell_length_c   14.80599191
_cell_angle_alpha   66.14293975
_cell_angle_beta   73.13805579
_cell_angle_gamma   89.98385897
_symmetry_Int_Tables_number   1
_chemical_formula_structural   NdH14(C11O4)2
_chemical_formula_sum   'Nd2 H28 C44 O16'
_cell_volume   1579.02242383
_cell_formula_units_Z   2
loop_
 _symmetry_equiv_pos_site_id
 _symmetry_equiv_pos_as_xyz
  1  'x, y, z'
loop_
 _atom_site_type_symbol
 _atom_site_label
 _atom_site_symmetry_multiplicity
 _atom_site_fract_x
 _atom_site_fract_y
 _atom_site_fract_z
 _atom_site_occupancy
  Nd  Nd0  1  0.64607879  0.00489696  0.45372002  1.0
  Nd  Nd1  1  0.10010256  0.99515510  0.54593507  1.0
  H  H2  1  0.80731376  0.79896799  0.33153344  1.0
  H  H3  1  0.13888309  0.20100670  0.66882364  1.0
  H  H4  1  0.80672626  0.63299546  0.31430530  1.0
  H  H5  1  0.12129909  0.36684568  0.68626985  1.0
  H  H6  1  0.19101248  0.55563657  0.45524833  1.0
  H  H7  1  0.64615945  0.44407840  0.54506375  1.0
  H  H8  1  0.18847682  0.72076088  0.47212615  1.0
  H  H9  1  0.66036263  0.27909390  0.52788148  1.0
  H  H10  1  0.90804548  0.53082682  0.24514230  1.0
  H  H11  1  0.15334985  0.46924374  0.75516358  1.0
  H  H12  1  0.86071967  0.35535699  0.25473691  1.0
  H  H13  1  0.11578428  0.64476212  0.74537787  1.0
  H  H14  1  0.02536734  0.22771629  0.52264110  1.0
  H  H15  1  0.54828400  0.77195455  0.47760583  1.0
  H  H16  1  0.06539264  0.40049904  0.51719364  1.0
  H  H17  1  0.58263668  0.59906374  0.48336979  1.0
  H  H18  1  0.41454234  0.71537697  0.76802170  1.0
  H  H19  1  0.18282638  0.28541817  0.23212697  1.0
  H  H20  1  0.33641485  0.54900557  0.92334430  1.0
  H  H21  1  0.25985255  0.45187044  0.07687407  1.0
  H  H22  1  0.81506613  0.57762552  0.95568441  1.0
  H  H23  1  0.77079213  0.42234356  0.04413645  1.0
  H  H24  1  0.89505338  0.73999809  0.79417734  1.0
  H  H25  1  0.68938210  0.25992219  0.20555579  1.0
  H  H26  1  0.35986124  0.92306560  0.34885099  1.0
  H  H27  1  0.70972616  0.07671856  0.65032763  1.0
  H  H28  1  0.59201016  0.96016147  0.15369667  1.0
  H  H29  1  0.74495007  0.03931480  0.84608826  1.0
  C  C30  1  0.98542164  0.86616575  0.42108258  1.0
  C  C31  1  0.40633709  0.13392161  0.57870963  1.0
  C  C32  1  0.99656893  0.76990694  0.40368404  1.0
  C  C33  1  0.40019911  0.23001526  0.59643346  1.0
  C  C34  1  0.89138592  0.74499195  0.35764143  1.0
  C  C35  1  0.24907382  0.25491133  0.64267163  1.0
  C  C36  1  0.89246634  0.65229408  0.34782262  1.0
  C  C37  1  0.24040406  0.34756219  0.65258265  1.0
  C  C38  1  0.99732531  0.58092303  0.38470219  1.0
  C  C39  1  0.38206721  0.41889204  0.61570524  1.0
  C  C40  1  0.10561873  0.60804564  0.42815040  1.0
  C  C41  1  0.53369437  0.39174659  0.57214992  1.0
  C  C42  1  0.10574610  0.70130892  0.43704854  1.0
  C  C43  1  0.54267981  0.29853057  0.56309493  1.0
  C  C44  1  0.98669052  0.47896306  0.38205240  1.0
  C  C45  1  0.36880577  0.52084017  0.61838230  1.0
  C  C46  1  0.93209406  0.46452101  0.30706487  1.0
  C  C47  1  0.23931098  0.53548559  0.69321247  1.0
  C  C48  1  0.90720168  0.36665620  0.31115504  1.0
  C  C49  1  0.21870287  0.63343776  0.68899886  1.0
  C  C50  1  0.93790616  0.27991678  0.38959759  1.0
  C  C51  1  0.32785148  0.72007858  0.61055223  1.0
  C  C52  1  0.99918297  0.29401172  0.46184209  1.0
  C  C53  1  0.46122495  0.70578132  0.53842694  1.0
  C  C54  1  0.02265810  0.39190736  0.45819478  1.0
  C  C55  1  0.48093161  0.60780005  0.54226024  1.0
  C  C56  1  0.89255452  0.17509473  0.39875532  1.0
  C  C57  1  0.29168817  0.82502805  0.60115669  1.0
  C  C58  1  0.70984375  0.83582780  0.67368511  1.0
  C  C59  1  0.38379895  0.16434402  0.32589260  1.0
  C  C60  1  0.65982128  0.73774008  0.77078850  1.0
  C  C61  1  0.43084089  0.26262817  0.22906625  1.0
  C  C62  1  0.50191633  0.68387130  0.80911431  1.0
  C  C63  1  0.31124433  0.31678417  0.19093733  1.0
  C  C64  1  0.45830132  0.59088033  0.89758044  1.0
  C  C65  1  0.35605360  0.40976562  0.10246459  1.0
  C  C66  1  0.56925827  0.54950158  0.95263013  1.0
  C  C67  1  0.52198666  0.45089939  0.04731764  1.0
  C  C68  1  0.72681474  0.60577366  0.91410261  1.0
  C  C69  1  0.64094793  0.39440567  0.08576530  1.0
  C  C70  1  0.77222249  0.69771095  0.82434934  1.0
  C  C71  1  0.59673063  0.30237893  0.17543689  1.0
  C  C72  1  0.48363938  0.93935739  0.29183560  1.0
  C  C73  1  0.77589516  0.06017684  0.70773586  1.0
  O  O74  1  0.85928551  0.91094670  0.41233456  1.0
  O  O75  1  0.27146202  0.08934921  0.58726557  1.0
  O  O76  1  0.10053712  0.89703037  0.44481415  1.0
  O  O77  1  0.54511825  0.10304428  0.55481030  1.0
  O  O78  1  0.89190460  0.09437439  0.48130538  1.0
  O  O79  1  0.37348471  0.90565701  0.51854391  1.0
  O  O80  1  0.84046384  0.16596536  0.33060655  1.0
  O  O81  1  0.17149556  0.83430786  0.66920778  1.0
  O  O82  1  0.60621873  0.86988053  0.62566128  1.0
  O  O83  1  0.23222728  0.13046377  0.37407075  1.0
  O  O84  1  0.85498602  0.88065046  0.64377720  1.0
  O  O85  1  0.49917007  0.11901415  0.35530506  1.0
  O  O86  1  0.61278427  0.95166206  0.30790350  1.0
  O  O87  1  0.92092268  0.04749007  0.69219366  1.0
  O  O88  1  0.47854081  0.94369079  0.20065685  1.0
  O  O89  1  0.67907908  0.05601551  0.79867934  1.0
