# generated using pymatgen
data_ZnH40C38N3O10
_symmetry_space_group_name_H-M   'P 1'
_cell_length_a   18.75667225
_cell_length_b   19.08323554
_cell_length_c   19.48815107
_cell_angle_alpha   90.83367744
_cell_angle_beta   89.91722133
_cell_angle_gamma   89.79932945
_symmetry_Int_Tables_number   1
_chemical_formula_structural   ZnH40C38N3O10
_chemical_formula_sum   'Zn2 H80 C76 N6 O20'
_cell_volume   6974.76072851
_cell_formula_units_Z   2
loop_
 _symmetry_equiv_pos_site_id
 _symmetry_equiv_pos_as_xyz
  1  'x, y, z'
loop_
 _atom_site_type_symbol
 _atom_site_label
 _atom_site_symmetry_multiplicity
 _atom_site_fract_x
 _atom_site_fract_y
 _atom_site_fract_z
 _atom_site_occupancy
  Zn  Zn0  1  0.58234238  0.50302577  0.49873017  1.0
  Zn  Zn1  1  0.41884114  0.50035015  0.49581469  1.0
  H  H2  1  0.59279865  0.28794955  0.54146125  1.0
  H  H3  1  0.63373224  0.48767965  0.28019267  1.0
  H  H4  1  0.41160966  0.53931646  0.28518907  1.0
  H  H5  1  0.62743152  0.50727451  0.71579710  1.0
  H  H6  1  0.39974532  0.45689869  0.83615429  1.0
  H  H7  1  0.63126598  0.48355479  0.15285651  1.0
  H  H8  1  0.40660885  0.53291323  0.15784256  1.0
  H  H9  1  0.62467601  0.50076938  0.84388755  1.0
  H  H10  1  0.60565834  0.41899332  0.93658098  1.0
  H  H11  1  0.41937494  0.55942128  0.05657321  1.0
  H  H12  1  0.60816846  0.43004069  0.06233848  1.0
  H  H13  1  0.36901484  0.71760927  0.54353620  1.0
  H  H14  1  0.41509939  0.54490653  0.93123607  1.0
  H  H15  1  0.76448876  0.67300802  0.58921927  1.0
  H  H16  1  0.71242081  0.60587036  0.62826095  1.0
  H  H17  1  0.60150045  0.67665527  0.61099834  1.0
  H  H18  1  0.66507847  0.72298814  0.66242538  1.0
  H  H19  1  0.65258524  0.74561059  0.57507593  1.0
  H  H20  1  0.24042161  0.40848687  0.32772069  1.0
  H  H21  1  0.29301729  0.36801906  0.39293376  1.0
  H  H22  1  0.40390101  0.38919946  0.32495028  1.0
  H  H23  1  0.34150425  0.33718617  0.27757461  1.0
  H  H24  1  0.58224155  0.72609998  0.46555964  1.0
  H  H25  1  0.35267969  0.42724311  0.25824478  1.0
  H  H26  1  0.76403424  0.32612250  0.41384672  1.0
  H  H27  1  0.71244717  0.39339945  0.37409641  1.0
  H  H28  1  0.60100339  0.32489684  0.39226388  1.0
  H  H29  1  0.66439770  0.27576394  0.34253512  1.0
  H  H30  1  0.65081561  0.25609686  0.43055010  1.0
  H  H31  1  0.23727171  0.59340034  0.66576410  1.0
  H  H32  1  0.28878123  0.63120258  0.59843265  1.0
  H  H33  1  0.40019052  0.61641867  0.66697507  1.0
  H  H34  1  0.33604931  0.66897926  0.71202626  1.0
  H  H35  1  0.37002347  0.27946706  0.49487459  1.0
  H  H36  1  0.35035876  0.58034126  0.73571496  1.0
  H  H37  1  0.76075114  0.68063042  0.44381130  1.0
  H  H38  1  0.82841664  0.64302208  0.38986041  1.0
  H  H39  1  0.91803723  0.72765368  0.44001188  1.0
  H  H40  1  0.84503823  0.77351617  0.40271317  1.0
  H  H41  1  0.85026658  0.76502139  0.49343815  1.0
  H  H42  1  0.23938103  0.55776672  0.32271117  1.0
  H  H43  1  0.16904879  0.60949844  0.35959564  1.0
  H  H44  1  0.08240826  0.55481236  0.27542733  1.0
  H  H45  1  0.15299004  0.59850786  0.23228604  1.0
  H  H46  1  0.59369367  0.15778708  0.56262891  1.0
  H  H47  1  0.15352889  0.50540544  0.23778144  1.0
  H  H48  1  0.76216598  0.32072898  0.55809754  1.0
  H  H49  1  0.83072087  0.35776337  0.61084646  1.0
  H  H50  1  0.91946217  0.27250332  0.55951878  1.0
  H  H51  1  0.84662997  0.22686463  0.59699817  1.0
  H  H52  1  0.85132143  0.23620856  0.50634379  1.0
  H  H53  1  0.23872465  0.43972012  0.67305394  1.0
  H  H54  1  0.16794725  0.38859915  0.63693087  1.0
  H  H55  1  0.08200102  0.44480836  0.72140905  1.0
  H  H56  1  0.15247160  0.40039614  0.76426152  1.0
  H  H57  1  0.36926491  0.84821759  0.56299586  1.0
  H  H58  1  0.15358576  0.49345507  0.75836381  1.0
  H  H59  1  0.99608026  0.43057817  0.32143637  1.0
  H  H60  1  0.92699393  0.49503621  0.32990211  1.0
  H  H61  1  0.83489110  0.40348139  0.30247652  1.0
  H  H62  1  0.89860981  0.40915748  0.23481762  1.0
  H  H63  1  0.90320191  0.33882136  0.29382497  1.0
  H  H64  1  0.00237381  0.68036661  0.56857340  1.0
  H  H65  1  0.07064315  0.67569616  0.50446084  1.0
  H  H66  1  0.16318396  0.70508366  0.59302525  1.0
  H  H67  1  0.09601577  0.77135391  0.59203838  1.0
  H  H68  1  0.58323916  0.85709328  0.48368580  1.0
  H  H69  1  0.09639074  0.70781927  0.65809057  1.0
  H  H70  1  0.99718291  0.56465067  0.67616700  1.0
  H  H71  1  0.92448376  0.50465540  0.66774260  1.0
  H  H72  1  0.83809425  0.60239558  0.69606590  1.0
  H  H73  1  0.90043086  0.59025925  0.76386265  1.0
  H  H74  1  0.91064164  0.66154879  0.70666392  1.0
  H  H75  1  0.00557668  0.31788342  0.43584430  1.0
  H  H76  1  0.07744010  0.32799342  0.49544757  1.0
  H  H77  1  0.16548906  0.29844217  0.40192487  1.0
  H  H78  1  0.10308815  0.22910146  0.41202038  1.0
  H  H79  1  0.36936387  0.14991789  0.51731591  1.0
  H  H80  1  0.09437178  0.28783867  0.34226398  1.0
  H  H81  1  0.40392613  0.46347346  0.70768393  1.0
  C  C82  1  0.52185470  0.50793833  0.36703871  1.0
  C  C83  1  0.45734231  0.51923605  0.96009828  1.0
  C  C84  1  0.51483030  0.49691303  0.06986801  1.0
  C  C85  1  0.51063138  0.48173933  0.92443146  1.0
  C  C86  1  0.73335229  0.56084895  0.50876162  1.0
  C  C87  1  0.26881418  0.48987517  0.43928851  1.0
  C  C88  1  0.73343480  0.44038428  0.49299665  1.0
  C  C89  1  0.26843157  0.50858257  0.55701230  1.0
  C  C90  1  0.80774440  0.56371994  0.49994025  1.0
  C  C91  1  0.19428373  0.49777604  0.43611878  1.0
  C  C92  1  0.80794789  0.43727404  0.50091410  1.0
  C  C93  1  0.51650052  0.49513555  0.62830375  1.0
  C  C94  1  0.19400723  0.50007282  0.55995357  1.0
  C  C95  1  0.84677755  0.50041672  0.50005546  1.0
  C  C96  1  0.15514578  0.49904203  0.49802207  1.0
  C  C97  1  0.96331655  0.45700093  0.45269385  1.0
  C  C98  1  0.03855236  0.54774030  0.54023066  1.0
  C  C99  1  0.96395118  0.54334492  0.54515948  1.0
  C  C100  1  0.03797555  0.45236573  0.45654394  1.0
  C  C101  1  0.07661129  0.49975748  0.49820063  1.0
  C  C102  1  0.92531319  0.50026154  0.49927603  1.0
  C  C103  1  0.48241064  0.36740931  0.50122996  1.0
  C  C104  1  0.51186266  0.47946517  0.84879467  1.0
  C  C105  1  0.47839490  0.63608953  0.50072157  1.0
  C  C106  1  0.54472245  0.25648280  0.53583489  1.0
  C  C107  1  0.41537773  0.74907663  0.53063831  1.0
  C  C108  1  0.53602737  0.75397366  0.48634714  1.0
  C  C109  1  0.41847768  0.25190477  0.50964669  1.0
  C  C110  1  0.54505007  0.18484922  0.54757062  1.0
  C  C111  1  0.41542120  0.82120374  0.54112495  1.0
  C  C112  1  0.53646282  0.82619648  0.49656360  1.0
  C  C113  1  0.41818637  0.18039808  0.52209078  1.0
  C  C114  1  0.48172762  0.14614193  0.54038721  1.0
  C  C115  1  0.51811937  0.50544758  0.14525985  1.0
  C  C116  1  0.47673145  0.86017513  0.52560994  1.0
  C  C117  1  0.48177955  0.29029987  0.51580960  1.0
  C  C118  1  0.47618963  0.71474989  0.50485448  1.0
  C  C119  1  0.47915667  0.93526812  0.54154490  1.0
  C  C120  1  0.48169171  0.07030091  0.54998722  1.0
  C  C121  1  0.45164725  0.47171802  0.73859686  1.0
  C  C122  1  0.58424605  0.49728696  0.25255004  1.0
  C  C123  1  0.45916538  0.52696537  0.25512053  1.0
  C  C124  1  0.57805225  0.49584956  0.74291269  1.0
  C  C125  1  0.44969926  0.46852916  0.80989182  1.0
  C  C126  1  0.51551967  0.48689349  0.70462852  1.0
  C  C127  1  0.58222553  0.49445018  0.18123806  1.0
  C  C128  1  0.45710565  0.52354174  0.18388035  1.0
  C  C129  1  0.57629407  0.49172203  0.81404795  1.0
  C  C130  1  0.71114634  0.64919676  0.59154018  1.0
  C  C131  1  0.65400504  0.70175339  0.61080406  1.0
  C  C132  1  0.29360054  0.40661775  0.35148628  1.0
  C  C133  1  0.35151368  0.38939869  0.30003738  1.0
  C  C134  1  0.71091014  0.35075658  0.41155423  1.0
  C  C135  1  0.65315851  0.29877781  0.39348214  1.0
  C  C136  1  0.29041953  0.59485062  0.64178487  1.0
  C  C137  1  0.52223007  0.51181730  0.29034874  1.0
  C  C138  1  0.34785138  0.61597601  0.69211184  1.0
  C  C139  1  0.81840191  0.67084339  0.43898743  1.0
  C  C140  1  0.86055871  0.73816029  0.44415740  1.0
  C  C141  1  0.18149083  0.56016603  0.33180864  1.0
  C  C142  1  0.14005871  0.55423780  0.26545081  1.0
  C  C143  1  0.81988941  0.33011868  0.56185201  1.0
  C  C144  1  0.86194534  0.26250685  0.55577377  1.0
  C  C145  1  0.18079308  0.43795272  0.66434551  1.0
  C  C146  1  0.13969680  0.44468260  0.73098764  1.0
  C  C147  1  0.93940926  0.43867355  0.33425143  1.0
  C  C148  1  0.56491465  0.45024397  0.96297152  1.0
  C  C149  1  0.89110437  0.39487055  0.28877661  1.0
  C  C150  1  0.05931586  0.66934265  0.55962755  1.0
  C  C151  1  0.10660852  0.71603759  0.60327931  1.0
  C  C152  1  0.94004165  0.56021395  0.66387059  1.0
  C  C153  1  0.89460333  0.60642556  0.71026943  1.0
  C  C154  1  0.06248398  0.33114451  0.44078531  1.0
  C  C155  1  0.10914720  0.28390062  0.39659203  1.0
  C  C156  1  0.45988929  0.52727326  0.03106514  1.0
  C  C157  1  0.56648810  0.45706035  0.03404115  1.0
  N  N158  1  0.41896037  0.03789029  0.56329788  1.0
  N  N159  1  0.54376208  0.96673138  0.54703295  1.0
  N  N160  1  0.41779066  0.96910410  0.55803299  1.0
  N  N161  1  0.54474677  0.03563327  0.55042553  1.0
  N  N162  1  0.69737061  0.50071788  0.50096964  1.0
  N  N163  1  0.30457472  0.49933514  0.49817846  1.0
  O  O164  1  0.58227868  0.49821817  0.39608074  1.0
  O  O165  1  0.30899085  0.47509544  0.38271729  1.0
  O  O166  1  0.69416122  0.38225555  0.47857064  1.0
  O  O167  1  0.30732590  0.52516696  0.61379400  1.0
  O  O168  1  0.84238652  0.62641107  0.49435078  1.0
  O  O169  1  0.15987514  0.50208898  0.37433558  1.0
  O  O170  1  0.84294241  0.37448096  0.50614108  1.0
  O  O171  1  0.15929756  0.49606056  0.62168846  1.0
  O  O172  1  0.92663405  0.41803599  0.40450922  1.0
  O  O173  1  0.07515496  0.59744960  0.57771117  1.0
  O  O174  1  0.92784916  0.58239688  0.59403472  1.0
  O  O175  1  0.45784199  0.48848146  0.59685662  1.0
  O  O176  1  0.07399708  0.40234945  0.41838608  1.0
  O  O177  1  0.57705279  0.50902883  0.60126085  1.0
  O  O178  1  0.46190494  0.51294648  0.39672019  1.0
  O  O179  1  0.54178597  0.39843887  0.50510774  1.0
  O  O180  1  0.41843086  0.60521833  0.50778083  1.0
  O  O181  1  0.53872306  0.60737023  0.49241611  1.0
  O  O182  1  0.42225937  0.39503295  0.48613728  1.0
  O  O183  1  0.69393561  0.61898567  0.52408918  1.0
