# generated using pymatgen
data_CoH24C36(NO2)2
_symmetry_space_group_name_H-M   'P 1'
_cell_length_a   16.29409209
_cell_length_b   19.20616734
_cell_length_c   19.20920030
_cell_angle_alpha   79.63915048
_cell_angle_beta   64.89290440
_cell_angle_gamma   64.91248878
_symmetry_Int_Tables_number   1
_chemical_formula_structural   CoH24C36(NO2)2
_chemical_formula_sum   'Co4 H96 C144 N8 O16'
_cell_volume   4929.94634805
_cell_formula_units_Z   4
loop_
 _symmetry_equiv_pos_site_id
 _symmetry_equiv_pos_as_xyz
  1  'x, y, z'
loop_
 _atom_site_type_symbol
 _atom_site_label
 _atom_site_symmetry_multiplicity
 _atom_site_fract_x
 _atom_site_fract_y
 _atom_site_fract_z
 _atom_site_occupancy
  Co  Co0  1  0.12951148  0.49998043  0.49982036  1.0
  Co  Co1  1  0.37934902  0.99978685  0.00001633  1.0
  Co  Co2  1  0.62931496  0.50017489  0.50001793  1.0
  Co  Co3  1  0.87915744  0.99997817  0.00021035  1.0
  H  H4  1  0.10148040  0.70548453  0.60239696  1.0
  H  H5  1  0.40968835  0.29415941  0.39748830  1.0
  H  H6  1  0.55671833  0.10239579  0.79434422  1.0
  H  H7  1  0.45356728  0.89763858  0.20565814  1.0
  H  H8  1  0.60134286  0.60250590  0.70583639  1.0
  H  H9  1  0.90935835  0.39760112  0.29452019  1.0
  H  H10  1  0.05687680  0.79433763  0.10236179  1.0
  H  H11  1  0.95345470  0.20565592  0.89759983  1.0
  H  H12  1  0.14732130  0.77614117  0.66768824  1.0
  H  H13  1  0.59147271  0.22365896  0.33214239  1.0
  H  H14  1  0.67335639  0.16752304  0.72359952  1.0
  H  H15  1  0.56462406  0.83245768  0.27631380  1.0
  H  H16  1  0.64728024  0.66784721  0.77633886  1.0
  H  H17  1  0.09114855  0.33230850  0.22385799  1.0
  H  H18  1  0.17340093  0.72369036  0.16754828  1.0
  H  H19  1  0.06447211  0.27640247  0.83247737  1.0
  H  H20  1  0.33661082  0.56007589  0.72854987  1.0
  H  H21  1  0.62538008  0.43981417  0.27132205  1.0
  H  H22  1  0.64659914  0.22863322  0.93958707  1.0
  H  H23  1  0.81491067  0.77154354  0.06018404  1.0
  H  H24  1  0.83651637  0.72867421  0.56018528  1.0
  H  H25  1  0.12524491  0.27144524  0.43991717  1.0
  H  H26  1  0.14663629  0.93981973  0.22846027  1.0
  H  H27  1  0.31481680  0.06041767  0.77137405  1.0
  H  H28  1  0.28855496  0.49045086  0.66429182  1.0
  H  H29  1  0.44346123  0.50931183  0.33557533  1.0
  H  H30  1  0.52900188  0.16436230  0.00928856  1.0
  H  H31  1  0.70258503  0.83550570  0.99061930  1.0
  H  H32  1  0.78835134  0.66442457  0.49068471  1.0
  H  H33  1  0.94330416  0.33570347  0.50955159  1.0
  H  H34  1  0.02871540  0.00938174  0.16449588  1.0
  H  H35  1  0.20265088  0.99071420  0.83563467  1.0
  H  H36  1  0.11794985  0.79629471  0.79423220  1.0
  H  H37  1  0.70894018  0.20363511  0.20551801  1.0
  H  H38  1  0.66450760  0.29407153  0.70343060  1.0
  H  H39  1  0.66221984  0.70603722  0.29652618  1.0
  H  H40  1  0.61809283  0.79448114  0.79636982  1.0
  H  H41  1  0.20848365  0.20576688  0.20369907  1.0
  H  H42  1  0.16477092  0.70348297  0.29398179  1.0
  H  H43  1  0.16201582  0.29656369  0.70592807  1.0
  H  H44  1  0.15222252  0.86849473  0.86570323  1.0
  H  H45  1  0.88687309  0.13155068  0.13399152  1.0
  H  H46  1  0.77080596  0.36566793  0.63130987  1.0
  H  H47  1  0.76802640  0.63449117  0.36856525  1.0
  H  H48  1  0.65241891  0.86600943  0.86844921  1.0
  H  H49  1  0.38642944  0.13429040  0.13150468  1.0
  H  H50  1  0.27106989  0.63144624  0.36552741  1.0
  H  H51  1  0.26778523  0.36868787  0.63433340  1.0
  H  H52  1  0.45977482  0.71777199  0.77281528  1.0
  H  H53  1  0.95072637  0.28195293  0.22737694  1.0
  H  H54  1  0.92777437  0.27274929  0.78185639  1.0
  H  H55  1  0.98269653  0.72736007  0.21772838  1.0
  H  H56  1  0.96006012  0.77262461  0.71803728  1.0
  H  H57  1  0.45036147  0.22718742  0.28222724  1.0
  H  H58  1  0.42778947  0.78226454  0.27264201  1.0
  H  H59  1  0.48238133  0.21814435  0.72725345  1.0
  H  H60  1  0.42492258  0.64492259  0.70231023  1.0
  H  H61  1  0.77252520  0.35482459  0.29786523  1.0
  H  H62  1  0.82036450  0.20201063  0.85460869  1.0
  H  H63  1  0.87737600  0.79783758  0.14491727  1.0
  H  H64  1  0.92521280  0.70213740  0.64517209  1.0
  H  H65  1  0.27215162  0.29769230  0.35507312  1.0
  H  H66  1  0.32013589  0.85508084  0.20216423  1.0
  H  H67  1  0.37698754  0.14539058  0.79798846  1.0
  H  H68  1  0.19866042  0.85080164  0.97266882  1.0
  H  H69  1  0.02282968  0.14919561  0.02727272  1.0
  H  H70  1  0.79995160  0.47252964  0.64874698  1.0
  H  H71  1  0.92167442  0.52752552  0.35077503  1.0
  H  H72  1  0.69929758  0.97272954  0.85080171  1.0
  H  H73  1  0.52213463  0.02733068  0.14919728  1.0
  H  H74  1  0.29997193  0.64922574  0.47248422  1.0
  H  H75  1  0.42122107  0.35125517  0.52747746  1.0
  H  H76  1  0.23360594  0.92588088  0.04114255  1.0
  H  H77  1  0.20126294  0.07379461  0.95906413  1.0
  H  H78  1  0.91008157  0.54088240  0.57362072  1.0
  H  H79  1  0.02491819  0.45914765  0.42593791  1.0
  H  H80  1  0.73411878  0.04093645  0.92620696  1.0
  H  H81  1  0.70063379  0.95885663  0.07411551  1.0
  H  H82  1  0.41000922  0.57405803  0.54085356  1.0
  H  H83  1  0.52458280  0.42637880  0.45912095  1.0
  H  H84  1  0.48328112  0.92439431  0.85138730  1.0
  H  H85  1  0.25936970  0.07513054  0.14894792  1.0
  H  H86  1  0.15807183  0.35123537  0.57539521  1.0
  H  H87  1  0.08491247  0.64882631  0.42443264  1.0
  H  H88  1  0.98344701  0.85105046  0.92487097  1.0
  H  H89  1  0.75907211  0.14860864  0.07560439  1.0
  H  H90  1  0.65817418  0.57556396  0.35116653  1.0
  H  H91  1  0.58470664  0.42460090  0.64876683  1.0
  H  H92  1  0.46130167  0.84511220  0.77529523  1.0
  H  H93  1  0.08204269  0.15477081  0.22484150  1.0
  H  H94  1  0.05673444  0.27527406  0.65482988  1.0
  H  H95  1  0.98701839  0.72489458  0.34506459  1.0
  H  H96  1  0.96165451  0.77516131  0.84522714  1.0
  H  H97  1  0.58171616  0.22469786  0.15488966  1.0
  H  H98  1  0.55696582  0.65493719  0.27510678  1.0
  H  H99  1  0.48683785  0.34517165  0.72473188  1.0
  C  C100  1  0.16424672  0.55212605  0.59054739  1.0
  C  C101  1  0.30711079  0.44766932  0.40914393  1.0
  C  C102  1  0.46632429  0.09045904  0.94778592  1.0
  C  C103  1  0.50453611  0.90915879  0.05226972  1.0
  C  C104  1  0.66392849  0.59085470  0.55232657  1.0
  C  C105  1  0.80692046  0.40944572  0.44787489  1.0
  C  C106  1  0.96597059  0.94772824  0.09084395  1.0
  C  C107  1  0.00456918  0.05221097  0.90953514  1.0
  C  C108  1  0.19089253  0.59383620  0.63051054  1.0
  C  C109  1  0.41542130  0.40590590  0.36931335  1.0
  C  C110  1  0.53469522  0.13040803  0.90598309  1.0
  C  C111  1  0.57111648  0.86938649  0.09399667  1.0
  C  C112  1  0.69064251  0.63068614  0.59408654  1.0
  C  C113  1  0.91524016  0.36948110  0.40616766  1.0
  C  C114  1  0.03450049  0.90600349  0.13061704  1.0
  C  C115  1  0.07108634  0.09401640  0.86958969  1.0
  C  C116  1  0.15165972  0.67440480  0.63139361  1.0
  C  C117  1  0.45769924  0.32533586  0.36846279  1.0
  C  C118  1  0.57594251  0.13130771  0.82541779  1.0
  C  C119  1  0.53277499  0.86863140  0.17455902  1.0
  C  C120  1  0.65149700  0.63153502  0.67466117  1.0
  C  C121  1  0.95745709  0.36860319  0.32559770  1.0
  C  C122  1  0.07596413  0.82544501  0.13137580  1.0
  C  C123  1  0.03266691  0.17458378  0.86869065  1.0
  C  C124  1  0.17748247  0.71342965  0.66778771  1.0
  C  C125  1  0.55896214  0.28636681  0.33209207  1.0
  C  C126  1  0.64087868  0.16763800  0.78632625  1.0
  C  C127  1  0.59499849  0.83234079  0.21357990  1.0
  C  C128  1  0.67742016  0.66790450  0.71363297  1.0
  C  C129  1  0.05869703  0.33220671  0.28657358  1.0
  C  C130  1  0.14092171  0.78641892  0.16766756  1.0
  C  C131  1  0.09483884  0.21367658  0.83236377  1.0
  C  C132  1  0.24437637  0.67297211  0.70337387  1.0
  C  C133  1  0.62098592  0.32684122  0.29655334  1.0
  C  C134  1  0.66749786  0.20316827  0.82668432  1.0
  C  C135  1  0.69750764  0.79684868  0.17316368  1.0
  C  C136  1  0.74437927  0.70344492  0.67315921  1.0
  C  C137  1  0.12071886  0.29662452  0.32702553  1.0
  C  C138  1  0.16751823  0.82683682  0.20315999  1.0
  C  C139  1  0.19734754  0.17332099  0.79683323  1.0
  C  C140  1  0.28509994  0.59214306  0.70081710  1.0
  C  C141  1  0.57827565  0.40768100  0.29904193  1.0
  C  C142  1  0.62727883  0.20077965  0.90752280  1.0
  C  C143  1  0.73565553  0.79925320  0.09232596  1.0
  C  C144  1  0.78499973  0.70095473  0.59231903  1.0
  C  C145  1  0.07806331  0.29917891  0.40785463  1.0
  C  C146  1  0.12723166  0.90767929  0.20075727  1.0
  C  C147  1  0.23558001  0.09247974  0.79922054  1.0
  C  C148  1  0.25808774  0.55307162  0.66540321  1.0
  C  C149  1  0.47676171  0.44669824  0.33442589  1.0
  C  C150  1  0.56116556  0.16537719  0.94667829  1.0
  C  C151  1  0.67323205  0.83449051  0.05324452  1.0
  C  C152  1  0.75788546  0.66557229  0.55329949  1.0
  C  C153  1  0.97656398  0.33459224  0.44692828  1.0
  C  C154  1  0.06096474  0.94675651  0.16551293  1.0
  C  C155  1  0.17321841  0.05332303  0.83461918  1.0
  C  C156  1  0.26830926  0.71503133  0.74415628  1.0
  C  C157  1  0.72783963  0.28478381  0.25588014  1.0
  C  C158  1  0.73368467  0.24385237  0.78459444  1.0
  C  C159  1  0.76234187  0.75622477  0.21521286  1.0
  C  C160  1  0.76850147  0.74411841  0.71521665  1.0
  C  C161  1  0.22749960  0.25584160  0.28496504  1.0
  C  C162  1  0.23377605  0.78479170  0.24378126  1.0
  C  C163  1  0.26213062  0.21540472  0.75615168  1.0
  C  C164  1  0.19292178  0.77864024  0.79004883  1.0
  C  C165  1  0.76204432  0.22124140  0.20983348  1.0
  C  C166  1  0.72184255  0.28986772  0.72105878  1.0
  C  C167  1  0.73293543  0.71029029  0.27885822  1.0
  C  C168  1  0.69312216  0.79016561  0.77875984  1.0
  C  C169  1  0.26161519  0.20994915  0.22135492  1.0
  C  C170  1  0.22207344  0.72114758  0.28972213  1.0
  C  C171  1  0.23276892  0.27894116  0.71013309  1.0
  C  C172  1  0.21172162  0.81868674  0.83106609  1.0
  C  C173  1  0.86191227  0.18127803  0.16877106  1.0
  C  C174  1  0.78060587  0.33099226  0.68106617  1.0
  C  C175  1  0.79288770  0.66919314  0.31876945  1.0
  C  C176  1  0.71196576  0.83122707  0.81872001  1.0
  C  C177  1  0.36148147  0.16893463  0.18131246  1.0
  C  C178  1  0.28084244  0.68123592  0.33082079  1.0
  C  C179  1  0.29266590  0.31893483  0.66900985  1.0
  C  C180  1  0.30837444  0.79712122  0.82512911  1.0
  C  C181  1  0.93102021  0.20276562  0.17486444  1.0
  C  C182  1  0.85571134  0.32506280  0.70258331  1.0
  C  C183  1  0.88362705  0.67510387  0.29717240  1.0
  C  C184  1  0.80865323  0.82513674  0.79723012  1.0
  C  C185  1  0.43062923  0.17487172  0.20287497  1.0
  C  C186  1  0.35590197  0.70282539  0.32490387  1.0
  C  C187  1  0.38335570  0.29741947  0.67494252  1.0
  C  C188  1  0.38453006  0.73462851  0.77803654  1.0
  C  C189  1  0.89751491  0.26516179  0.22211338  1.0
  C  C190  1  0.86937465  0.27788963  0.76503612  1.0
  C  C191  1  0.91257445  0.72221498  0.23467196  1.0
  C  C192  1  0.88479250  0.77788696  0.73483458  1.0
  C  C193  1  0.39719359  0.22196574  0.26536699  1.0
  C  C194  1  0.36946442  0.76532720  0.27778674  1.0
  C  C195  1  0.41229842  0.23496426  0.72211389  1.0
  C  C196  1  0.36476422  0.69322093  0.73889128  1.0
  C  C197  1  0.79718768  0.30655680  0.26127094  1.0
  C  C198  1  0.80835728  0.23860534  0.80637247  1.0
  C  C199  1  0.85362267  0.76142748  0.19330686  1.0
  C  C200  1  0.86501621  0.73872773  0.69344159  1.0
  C  C201  1  0.29687618  0.26110952  0.30677509  1.0
  C  C202  1  0.30835735  0.80669337  0.23857917  1.0
  C  C203  1  0.35333977  0.19362634  0.76139815  1.0
  C  C204  1  0.32784763  0.84065114  0.86777969  1.0
  C  C205  1  0.03671696  0.15919013  0.13231997  1.0
  C  C206  1  0.91883781  0.36764203  0.65905200  1.0
  C  C207  1  0.94579028  0.63249632  0.34068858  1.0
  C  C208  1  0.82822919  0.86768304  0.84080696  1.0
  C  C209  1  0.53628755  0.13221603  0.15934648  1.0
  C  C210  1  0.41897085  0.65930947  0.36750602  1.0
  C  C211  1  0.44552730  0.34095192  0.63236436  1.0
  C  C212  1  0.26332823  0.86496695  0.94358217  1.0
  C  C213  1  0.07241599  0.13487330  0.05650761  1.0
  C  C214  1  0.87875217  0.44339968  0.63461404  1.0
  C  C215  1  0.95711448  0.55668475  0.36500317  1.0
  C  C216  1  0.76379431  0.94349487  0.86512515  1.0
  C  C217  1  0.57188170  0.05641928  0.13503160  1.0
  C  C218  1  0.37880092  0.63499378  0.44332183  1.0
  C  C219  1  0.45676062  0.36539076  0.55660618  1.0
  C  C220  1  0.28217664  0.90738108  0.98193322  1.0
  C  C221  1  0.17199301  0.09231522  0.01828830  1.0
  C  C222  1  0.94007059  0.48170883  0.59218342  1.0
  C  C223  1  0.01428095  0.51834146  0.40743464  1.0
  C  C224  1  0.78259530  0.98171008  0.90768507  1.0
  C  C225  1  0.67150149  0.01806242  0.09261454  1.0
  C  C226  1  0.44006105  0.59256221  0.48165832  1.0
  C  C227  1  0.51395869  0.40781521  0.51829809  1.0
  C  C228  1  0.42246015  0.90527826  0.87594833  1.0
  C  C229  1  0.20402665  0.09433212  0.12433229  1.0
  C  C230  1  0.07815340  0.37580243  0.59444070  1.0
  C  C231  1  0.04859404  0.62429993  0.40534320  1.0
  C  C232  1  0.92268631  0.87566897  0.90566885  1.0
  C  C233  1  0.70369861  0.12404519  0.09471970  1.0
  C  C234  1  0.57824116  0.59465157  0.37569557  1.0
  C  C235  1  0.54839994  0.40555945  0.62419986  1.0
  C  C236  1  0.40963732  0.86131154  0.83444077  1.0
  C  C237  1  0.10575652  0.13845268  0.16573975  1.0
  C  C238  1  0.02128610  0.33434093  0.63847828  1.0
  C  C239  1  0.99429178  0.66580949  0.36135943  1.0
  C  C240  1  0.90994948  0.83426105  0.86154481  1.0
  C  C241  1  0.60539698  0.16555464  0.13868940  1.0
  C  C242  1  0.52145905  0.63863733  0.33419187  1.0
  C  C243  1  0.49410029  0.36152402  0.66566659  1.0
  N  N244  1  0.35984514  0.92835790  0.94880167  1.0
  N  N245  1  0.23740399  0.07120542  0.05150240  1.0
  N  N246  1  0.03870405  0.44859822  0.57124610  1.0
  N  N247  1  0.05880441  0.55145478  0.42843665  1.0
  N  N248  1  0.86010868  0.94849642  0.92879667  1.0
  N  N249  1  0.73701066  0.05119484  0.07164017  1.0
  N  N250  1  0.53869856  0.57155627  0.44854367  1.0
  N  N251  1  0.55854840  0.42875257  0.55140534  1.0
  O  O252  1  0.10471644  0.59160476  0.55671108  1.0
  O  O253  1  0.25307350  0.40823728  0.44289272  1.0
  O  O254  1  0.44607623  0.05670139  0.90834940  1.0
  O  O255  1  0.41110757  0.94289873  0.09174136  1.0
  O  O256  1  0.60421137  0.55709946  0.59175779  1.0
  O  O257  1  0.75303309  0.44328673  0.40839508  1.0
  O  O258  1  0.94575108  0.90825111  0.05710158  1.0
  O  O259  1  0.91112810  0.09164567  0.94329000  1.0
  O  O260  1  0.20186610  0.47938818  0.58718572  1.0
  O  O261  1  0.26871948  0.52040941  0.41253097  1.0
  O  O262  1  0.43132848  0.08705879  0.02051882  1.0
  O  O263  1  0.53883046  0.91248883  0.97952200  1.0
  O  O264  1  0.70166423  0.58746803  0.47958329  1.0
  O  O265  1  0.76843929  0.41280126  0.52061352  1.0
  O  O266  1  0.93084484  0.02047577  0.08750845  1.0
  O  O267  1  0.03891136  0.97948120  0.91293641  1.0
