# generated using pymatgen
data_CdH13C18N3O4
_symmetry_space_group_name_H-M   'P 1'
_cell_length_a   11.77744918
_cell_length_b   25.59363100
_cell_length_c   25.59363693
_cell_angle_alpha   119.99987485
_cell_angle_beta   90.00002619
_cell_angle_gamma   89.99999978
_symmetry_Int_Tables_number   1
_chemical_formula_structural   CdH13C18N3O4
_chemical_formula_sum   'Cd6 H78 C108 N18 O24'
_cell_volume   6681.07469585
_cell_formula_units_Z   6
loop_
 _symmetry_equiv_pos_site_id
 _symmetry_equiv_pos_as_xyz
  1  'x, y, z'
loop_
 _atom_site_type_symbol
 _atom_site_label
 _atom_site_symmetry_multiplicity
 _atom_site_fract_x
 _atom_site_fract_y
 _atom_site_fract_z
 _atom_site_occupancy
  Cd  Cd0  1  0.00000049  0.93779067  0.41151847  1.0
  Cd  Cd1  1  0.99999977  0.58848095  0.52627233  1.0
  Cd  Cd2  1  0.00000371  0.47372856  0.06220951  1.0
  Cd  Cd3  1  0.00000058  0.06220917  0.58848151  1.0
  Cd  Cd4  1  0.00000307  0.41151986  0.47372824  1.0
  Cd  Cd5  1  0.00000245  0.52627264  0.93779115  1.0
  H  H6  1  0.79379630  0.99467433  0.38214713  1.0
  H  H7  1  0.58373384  0.99631387  0.37963636  1.0
  H  H8  1  0.58548128  0.87574799  0.45283555  1.0
  H  H9  1  0.79540619  0.88062873  0.45289800  1.0
  H  H10  1  0.79379642  0.61785359  0.61252795  1.0
  H  H11  1  0.58373395  0.62036386  0.61667831  1.0
  H  H12  1  0.58548211  0.54716500  0.42291333  1.0
  H  H13  1  0.79540788  0.54710275  0.42773148  1.0
  H  H14  1  0.79379697  0.38747416  0.00532711  1.0
  H  H15  1  0.58373450  0.38332160  0.00368764  1.0
  H  H16  1  0.58548112  0.57708724  0.12425271  1.0
  H  H17  1  0.79540773  0.57226970  0.11937148  1.0
  H  H18  1  0.79379727  0.00532697  0.61785453  1.0
  H  H19  1  0.58373311  0.00368742  0.62036603  1.0
  H  H20  1  0.58548133  0.12425239  0.54716600  1.0
  H  H21  1  0.79540624  0.11937168  0.54710282  1.0
  H  H22  1  0.79379546  0.38214591  0.38747281  1.0
  H  H23  1  0.58373384  0.37963291  0.38332182  1.0
  H  H24  1  0.58548219  0.45283538  0.57708744  1.0
  H  H25  1  0.79540710  0.45289857  0.57226902  1.0
  H  H26  1  0.79379745  0.61252625  0.99467293  1.0
  H  H27  1  0.58373499  0.61667787  0.99631267  1.0
  H  H28  1  0.58548064  0.42291314  0.87574727  1.0
  H  H29  1  0.79540640  0.42773025  0.88062833  1.0
  H  H30  1  0.20620484  0.00532738  0.61785506  1.0
  H  H31  1  0.41626645  0.00368785  0.62036623  1.0
  H  H32  1  0.41452071  0.12425238  0.54716480  1.0
  H  H33  1  0.20459410  0.11937118  0.54710173  1.0
  H  H34  1  0.20620387  0.38214678  0.38747318  1.0
  H  H35  1  0.41626634  0.37963425  0.38332169  1.0
  H  H36  1  0.41451902  0.45283446  0.57708696  1.0
  H  H37  1  0.20459411  0.45289807  0.57226910  1.0
  H  H38  1  0.20620332  0.61252621  0.99467285  1.0
  H  H39  1  0.41626579  0.61667786  0.99631304  1.0
  H  H40  1  0.41451917  0.42291268  0.87574741  1.0
  H  H41  1  0.20459341  0.42773022  0.88062864  1.0
  H  H42  1  0.20620132  0.99467204  0.38214631  1.0
  H  H43  1  0.41626379  0.99631205  0.37963387  1.0
  H  H44  1  0.41451981  0.87574618  0.45283423  1.0
  H  H45  1  0.20459405  0.88062779  0.45289864  1.0
  H  H46  1  0.20620313  0.61785445  0.61252754  1.0
  H  H47  1  0.41626560  0.62036520  0.61667818  1.0
  H  H48  1  0.41451895  0.54716454  0.42291269  1.0
  H  H49  1  0.20459319  0.54710226  0.42773078  1.0
  H  H50  1  0.20620453  0.38747321  0.00532618  1.0
  H  H51  1  0.41626700  0.38332204  0.00368667  1.0
  H  H52  1  0.41452050  0.57708723  0.12425230  1.0
  H  H53  1  0.20459389  0.57226876  0.11937095  1.0
  H  H54  1  0.00000141  0.17044235  0.55210870  1.0
  H  H55  1  0.00000227  0.32520519  0.57881800  1.0
  H  H56  1  0.00000823  0.27932869  0.61421148  1.0
  H  H57  1  0.99999969  0.19819890  0.37337316  1.0
  H  H58  1  0.00000046  0.09328586  0.35920624  1.0
  H  H59  1  0.99999981  0.44789282  0.61833254  1.0
  H  H60  1  0.00000235  0.42118124  0.74638565  1.0
  H  H61  1  0.00000231  0.38578776  0.66511416  1.0
  H  H62  1  0.99999991  0.62662546  0.82482584  1.0
  H  H63  1  0.99999987  0.64079448  0.73407977  1.0
  H  H64  1  0.00000070  0.38166703  0.82955846  1.0
  H  H65  1  0.99999560  0.25361262  0.67479527  1.0
  H  H66  1  0.99999052  0.33488350  0.72067177  1.0
  H  H67  1  0.99999736  0.17517393  0.80180091  1.0
  H  H68  1  0.99999911  0.26591879  0.90671344  1.0
  H  H69  1  0.99999888  0.82955802  0.44789204  1.0
  H  H70  1  0.99999972  0.67479383  0.42118168  1.0
  H  H71  1  0.00000048  0.72067251  0.38578879  1.0
  H  H72  1  0.99999982  0.80180064  0.62662727  1.0
  H  H73  1  0.00000060  0.90671399  0.64079453  1.0
  H  H74  1  0.00000132  0.55210846  0.38166631  1.0
  H  H75  1  0.00000041  0.57881725  0.25361170  1.0
  H  H76  1  0.00000045  0.61421119  0.33488186  1.0
  H  H77  1  0.00000122  0.37337311  0.17517361  1.0
  H  H78  1  0.00000127  0.35920635  0.26592042  1.0
  H  H79  1  0.99999789  0.61833198  0.17044043  1.0
  H  H80  1  0.99999712  0.74638602  0.32520354  1.0
  H  H81  1  0.99999795  0.66511513  0.27932664  1.0
  H  H82  1  0.99999961  0.82482561  0.19819874  1.0
  H  H83  1  0.00000118  0.73408158  0.09328652  1.0
  C  C84  1  0.74316990  0.96939318  0.39776399  1.0
  C  C85  1  0.62528274  0.96970809  0.39649295  1.0
  C  C86  1  0.56296450  0.93626260  0.41656375  1.0
  C  C87  1  0.62631015  0.90333732  0.43689819  1.0
  C  C88  1  0.74431448  0.90555617  0.43707614  1.0
  C  C89  1  0.74316913  0.60223560  0.57162988  1.0
  C  C90  1  0.62528113  0.60350562  0.57321394  1.0
  C  C91  1  0.56296285  0.58343598  0.51969919  1.0
  C  C92  1  0.62631016  0.56310151  0.46643963  1.0
  C  C93  1  0.74431534  0.56292556  0.46848110  1.0
  C  C94  1  0.74316972  0.42837104  0.03060678  1.0
  C  C95  1  0.62528341  0.42678519  0.03029170  1.0
  C  C96  1  0.56296348  0.48030029  0.06373679  1.0
  C  C97  1  0.62631083  0.53356141  0.09666301  1.0
  C  C98  1  0.74431516  0.53152033  0.09444531  1.0
  C  C99  1  0.74317000  0.03060768  0.60223783  1.0
  C  C100  1  0.62528114  0.03029365  0.60350772  1.0
  C  C101  1  0.56296289  0.06373777  0.58343700  1.0
  C  C102  1  0.62631021  0.09666306  0.56310219  1.0
  C  C103  1  0.74431454  0.09444424  0.56292506  1.0
  C  C104  1  0.74316906  0.39776300  0.42837081  1.0
  C  C105  1  0.62528191  0.39649296  0.42678554  1.0
  C  C106  1  0.56296199  0.41656304  0.48030050  1.0
  C  C107  1  0.62631019  0.43689842  0.53356092  1.0
  C  C108  1  0.74431537  0.43707529  0.53151954  1.0
  C  C109  1  0.74317018  0.57162890  0.96939223  1.0
  C  C110  1  0.62528302  0.57321475  0.96970729  1.0
  C  C111  1  0.56296136  0.51969873  0.93626173  1.0
  C  C112  1  0.62630953  0.46643898  0.90333699  1.0
  C  C113  1  0.74431471  0.46848006  0.90555549  1.0
  C  C114  1  0.25683124  0.03060854  0.60223782  1.0
  C  C115  1  0.37471840  0.03029318  0.60350824  1.0
  C  C116  1  0.43703749  0.06373822  0.58343721  1.0
  C  C117  1  0.37369184  0.09666259  0.56310193  1.0
  C  C118  1  0.25568666  0.09444465  0.56292482  1.0
  C  C119  1  0.25683031  0.39776341  0.42837096  1.0
  C  C120  1  0.37471831  0.39649295  0.42678590  1.0
  C  C121  1  0.43703659  0.41656348  0.48030071  1.0
  C  C122  1  0.37368928  0.43689840  0.53356127  1.0
  C  C123  1  0.25568580  0.43707525  0.53151947  1.0
  C  C124  1  0.25682972  0.57162888  0.96939295  1.0
  C  C125  1  0.37471603  0.57321428  0.96970703  1.0
  C  C126  1  0.43703766  0.51969962  0.93626255  1.0
  C  C127  1  0.37369031  0.46643896  0.90333695  1.0
  C  C128  1  0.25568428  0.46847958  0.90555481  1.0
  C  C129  1  0.25682944  0.96939134  0.39776341  1.0
  C  C130  1  0.37471660  0.96970626  0.39649357  1.0
  C  C131  1  0.43703825  0.93626170  0.41656368  1.0
  C  C132  1  0.37369093  0.90333595  0.43689787  1.0
  C  C133  1  0.25568490  0.90555433  0.43707517  1.0
  C  C134  1  0.25683038  0.60223647  0.57162909  1.0
  C  C135  1  0.37471753  0.60350651  0.57321358  1.0
  C  C136  1  0.43703830  0.58343597  0.51969839  1.0
  C  C137  1  0.37369009  0.56310195  0.46643943  1.0
  C  C138  1  0.25568492  0.56292553  0.46848064  1.0
  C  C139  1  0.25683096  0.42837101  0.03060672  1.0
  C  C140  1  0.37471727  0.42678516  0.03029205  1.0
  C  C141  1  0.43703723  0.48030119  0.06373762  1.0
  C  C142  1  0.37369076  0.53356139  0.09666258  1.0
  C  C143  1  0.25568558  0.53151985  0.09444463  1.0
  C  C144  1  0.00000560  0.06418322  0.44736915  1.0
  C  C145  1  0.00000391  0.12619835  0.45510368  1.0
  C  C146  1  0.00000224  0.17653090  0.51283151  1.0
  C  C147  1  0.00000054  0.23543749  0.52125296  1.0
  C  C148  1  0.99999974  0.24269420  0.46954578  1.0
  C  C149  1  0.99999971  0.19101672  0.41190388  1.0
  C  C150  1  0.00000134  0.13325106  0.40391369  1.0
  C  C151  1  0.99999974  0.30325974  0.47444992  1.0
  C  C152  1  0.99999896  0.55263347  0.61681515  1.0
  C  C153  1  0.99999899  0.54489813  0.67109475  1.0
  C  C154  1  0.99999984  0.48717044  0.66369919  1.0
  C  C155  1  0.99999816  0.47874663  0.71418292  1.0
  C  C156  1  0.99999819  0.53045389  0.77314707  1.0
  C  C157  1  0.99999904  0.58809542  0.77911210  1.0
  C  C158  1  0.99999987  0.59608655  0.72933687  1.0
  C  C159  1  0.99999992  0.52554828  0.82880754  1.0
  C  C160  1  0.00000330  0.38318417  0.93581591  1.0
  C  C161  1  0.99999824  0.32890533  0.87380236  1.0
  C  C162  1  0.99999906  0.33630047  0.82346852  1.0
  C  C163  1  0.99999904  0.28581543  0.76456300  1.0
  C  C164  1  0.99999564  0.22685154  0.75730617  1.0
  C  C165  1  0.99999821  0.22088840  0.80898467  1.0
  C  C166  1  0.99999824  0.27066421  0.86674945  1.0
  C  C167  1  0.99999391  0.17119252  0.69674006  1.0
  C  C168  1  0.99999893  0.93581625  0.55263153  1.0
  C  C169  1  0.99999893  0.87380156  0.54489644  1.0
  C  C170  1  0.99999805  0.82346901  0.48716900  1.0
  C  C171  1  0.99999720  0.76456288  0.47874778  1.0
  C  C172  1  0.99999637  0.75730579  0.53045448  1.0
  C  C173  1  0.99999895  0.80898281  0.58809616  1.0
  C  C174  1  0.99999980  0.86674886  0.59608643  1.0
  C  C175  1  0.99999467  0.69674024  0.52554956  1.0
  C  C176  1  0.00000217  0.44736780  0.38318487  1.0
  C  C177  1  0.00000385  0.45510313  0.32890487  1.0
  C  C178  1  0.00000300  0.51283128  0.33630066  1.0
  C  C179  1  0.00000298  0.52125328  0.28581564  1.0
  C  C180  1  0.00000295  0.46954603  0.22685149  1.0
  C  C181  1  0.00000379  0.41190450  0.22088764  1.0
  C  C182  1  0.00000297  0.40391427  0.27066332  1.0
  C  C183  1  0.00000037  0.47445209  0.17119085  1.0
  C  C184  1  0.99999699  0.61681440  0.06418276  1.0
  C  C185  1  0.99999872  0.67109465  0.12619712  1.0
  C  C186  1  0.00000037  0.66369989  0.17653143  1.0
  C  C187  1  0.99999793  0.71418455  0.23543648  1.0
  C  C188  1  0.99999793  0.77314844  0.24269370  1.0
  C  C189  1  0.00000038  0.77911062  0.19101422  1.0
  C  C190  1  0.00000035  0.72933751  0.13325118  1.0
  C  C191  1  0.99999796  0.82880656  0.30326014  1.0
  N  N192  1  0.80196192  0.93821256  0.41810765  1.0
  N  N193  1  0.80196197  0.58189210  0.52010530  1.0
  N  N194  1  0.80196260  0.47989606  0.06178739  1.0
  N  N195  1  0.80196201  0.06178830  0.58189379  1.0
  N  N196  1  0.80196196  0.41810695  0.47989445  1.0
  N  N197  1  0.80196303  0.52010479  0.93821209  1.0
  N  N198  1  0.19803836  0.06178826  0.58189371  1.0
  N  N199  1  0.19803831  0.41810781  0.47989482  1.0
  N  N200  1  0.19803769  0.52010385  0.93821234  1.0
  N  N201  1  0.19803658  0.93821027  0.41810722  1.0
  N  N202  1  0.19803663  0.58189207  0.52010444  1.0
  N  N203  1  0.19803981  0.47989557  0.06178630  1.0
  N  N204  1  0.99999640  0.28455738  0.57774863  1.0
  N  N205  1  0.99999646  0.42225108  0.70680719  1.0
  N  N206  1  0.00000488  0.29319200  0.71544273  1.0
  N  N207  1  0.99999887  0.71544261  0.42225124  1.0
  N  N208  1  0.00000128  0.57774883  0.29319098  1.0
  N  N209  1  0.99999795  0.70680700  0.28455576  1.0
  O  O210  1  0.00000558  0.01915413  0.39377778  1.0
  O  O211  1  0.00000563  0.05726181  0.49353602  1.0
  O  O212  1  0.00000050  0.30603712  0.42614099  1.0
  O  O213  1  0.99999807  0.35172401  0.52697810  1.0
  O  O214  1  0.99999897  0.60622441  0.62537752  1.0
  O  O215  1  0.99999809  0.50646789  0.56372651  1.0
  O  O216  1  0.99999909  0.57385736  0.87989451  1.0
  O  O217  1  0.00000239  0.47301931  0.82474227  1.0
  O  O218  1  0.00000332  0.37462321  0.98084574  1.0
  O  O219  1  0.00000245  0.43627251  0.94273874  1.0
  O  O220  1  0.99999221  0.12010645  0.69396250  1.0
  O  O221  1  0.99999643  0.17525715  0.64827701  1.0
  O  O222  1  0.99999896  0.98084579  0.60622234  1.0
  O  O223  1  0.00000054  0.94273805  0.50646514  1.0
  O  O224  1  0.99999385  0.69396280  0.57385874  1.0
  O  O225  1  0.99999550  0.64827597  0.47302138  1.0
  O  O226  1  0.00000217  0.39377686  0.37462250  1.0
  O  O227  1  0.00000050  0.49353428  0.43627357  1.0
  O  O228  1  0.99999957  0.42614308  0.12010481  1.0
  O  O229  1  0.99999875  0.52698106  0.17525651  1.0
  O  O230  1  0.99999442  0.62537535  0.01915214  1.0
  O  O231  1  0.99999784  0.56372605  0.05726148  1.0
  O  O232  1  0.00000299  0.87989302  0.30603857  1.0
  O  O233  1  0.99999374  0.82474238  0.35172420  1.0
