# generated using pymatgen
data_Al2H9C16S2(NO4)3
_symmetry_space_group_name_H-M   'P 1'
_cell_length_a   6.74511393
_cell_length_b   11.03180511
_cell_length_c   11.82591266
_cell_angle_alpha   63.34675388
_cell_angle_beta   83.93031178
_cell_angle_gamma   73.51624396
_symmetry_Int_Tables_number   1
_chemical_formula_structural   Al2H9C16S2(NO4)3
_chemical_formula_sum   'Al2 H9 C16 S2 N3 O12'
_cell_volume   753.90522007
_cell_formula_units_Z   1
loop_
 _symmetry_equiv_pos_site_id
 _symmetry_equiv_pos_as_xyz
  1  'x, y, z'
loop_
 _atom_site_type_symbol
 _atom_site_label
 _atom_site_symmetry_multiplicity
 _atom_site_fract_x
 _atom_site_fract_y
 _atom_site_fract_z
 _atom_site_occupancy
  Al  Al0  1  0.49883395  0.99999320  0.50066044  1.0
  Al  Al1  1  0.99774509  0.99828505  0.50171849  1.0
  H  H2  1  0.68968341  0.08520278  0.60131937  1.0
  H  H3  1  0.30228882  0.91760097  0.39729012  1.0
  H  H4  1  0.23313338  0.65163811  0.45013001  1.0
  H  H5  1  0.62348993  0.58969436  0.53654156  1.0
  H  H6  1  0.36011501  0.41226182  0.45309326  1.0
  H  H7  1  0.15462834  0.30599912  0.10883817  1.0
  H  H8  1  0.32094767  0.17271872  0.23217631  1.0
  H  H9  1  0.84433925  0.69314411  0.89262724  1.0
  H  H10  1  0.67703052  0.82719692  0.76985189  1.0
  C  C11  1  0.28751937  0.83191820  0.71388754  1.0
  C  C12  1  0.15042602  0.22228770  0.50500026  1.0
  C  C13  1  0.71147732  0.16571444  0.28720509  1.0
  C  C14  1  0.84591531  0.77613874  0.49424619  1.0
  C  C15  1  0.06922183  0.36616700  0.49937476  1.0
  C  C16  1  0.92249195  0.63402655  0.49617149  1.0
  C  C17  1  0.86124308  0.42065967  0.51893424  1.0
  C  C18  1  0.12970586  0.58456655  0.47148383  1.0
  C  C19  1  0.78598072  0.55089242  0.51996117  1.0
  C  C20  1  0.20111260  0.45225893  0.47385479  1.0
  C  C21  1  0.44122368  0.33493252  0.11373318  1.0
  C  C22  1  0.55943311  0.66238923  0.88644042  1.0
  C  C23  1  0.63445990  0.29319224  0.17519262  1.0
  C  C24  1  0.36618336  0.70403963  0.82507572  1.0
  C  C25  1  0.58393155  0.52690617  0.99199523  1.0
  C  C26  1  0.41737295  0.46987471  0.00763877  1.0
  S  S27  1  0.77515235  0.41933966  0.10665911  1.0
  S  S28  1  0.22551978  0.57767896  0.89323759  1.0
  N  N29  1  0.70935177  0.34609616  0.52367903  1.0
  N  N30  1  0.29974014  0.25991473  0.14755942  1.0
  N  N31  1  0.69988001  0.73799830  0.85297448  1.0
  O  O32  1  0.40583904  0.91627234  0.66638499  1.0
  O  O33  1  0.02255399  0.14790998  0.53445553  1.0
  O  O34  1  0.89034061  0.13909002  0.33449305  1.0
  O  O35  1  0.65552774  0.81569535  0.51638703  1.0
  O  O36  1  0.59124312  0.08256793  0.33465327  1.0
  O  O37  1  0.97808932  0.84660864  0.46994897  1.0
  O  O38  1  0.10881208  0.85674207  0.66722894  1.0
  O  O39  1  0.33989873  0.18464548  0.48175129  1.0
  O  O40  1  0.72824840  0.01665500  0.56671982  1.0
  O  O41  1  0.26799305  0.98201766  0.43573555  1.0
  O  O42  1  0.65626426  0.36438635  0.41897013  1.0
  O  O43  1  0.64030807  0.27684200  0.62678733  1.0
