# generated using pymatgen
data_Al2H20C17O11
_symmetry_space_group_name_H-M   'P 1'
_cell_length_a   6.65101060
_cell_length_b   14.30090536
_cell_length_c   16.00089970
_cell_angle_alpha   89.99979064
_cell_angle_beta   89.99963533
_cell_angle_gamma   98.06664551
_symmetry_Int_Tables_number   1
_chemical_formula_structural   Al2H20C17O11
_chemical_formula_sum   'Al4 H40 C34 O22'
_cell_volume   1506.87440088
_cell_formula_units_Z   2
loop_
 _symmetry_equiv_pos_site_id
 _symmetry_equiv_pos_as_xyz
  1  'x, y, z'
loop_
 _atom_site_type_symbol
 _atom_site_label
 _atom_site_symmetry_multiplicity
 _atom_site_fract_x
 _atom_site_fract_y
 _atom_site_fract_z
 _atom_site_occupancy
  Al  Al0  1  0.17907824  0.75911890  0.50096279  1.0
  Al  Al1  1  0.82091988  0.24088076  0.00096255  1.0
  Al  Al2  1  0.67993764  0.76064604  0.50069072  1.0
  Al  Al3  1  0.32006566  0.23935573  0.00069028  1.0
  H  H4  1  0.21397932  0.86843621  0.25374333  1.0
  H  H5  1  0.78601485  0.13155514  0.75375233  1.0
  H  H6  1  0.96539699  0.83021668  0.21692358  1.0
  H  H7  1  0.03459405  0.16977769  0.71693248  1.0
  H  H8  1  0.02934843  0.93620672  0.10629370  1.0
  H  H9  1  0.97066037  0.06379239  0.60630043  1.0
  H  H10  1  0.26556354  0.98489553  0.14963578  1.0
  H  H11  1  0.73444298  0.01510266  0.64963722  1.0
  H  H12  1  0.27840919  0.00897583  0.34870866  1.0
  H  H13  1  0.72159273  0.99101008  0.84871632  1.0
  H  H14  1  0.28882422  0.12717245  0.24627734  1.0
  H  H15  1  0.71117823  0.87282104  0.74627979  1.0
  H  H16  1  0.71399366  0.00018462  0.34430632  1.0
  H  H17  1  0.28602090  0.99981259  0.84430541  1.0
  H  H18  1  0.66515958  0.90024586  0.28016229  1.0
  H  H19  1  0.33483499  0.09975243  0.78015916  1.0
  H  H20  1  0.70759991  0.99315710  0.15914262  1.0
  H  H21  1  0.29239914  0.00683683  0.65914181  1.0
  H  H22  1  0.72122313  0.09338023  0.22360857  1.0
  H  H23  1  0.27877532  0.90661409  0.72360861  1.0
  H  H24  1  0.07457906  0.05742609  0.39488195  1.0
  H  H25  1  0.92543129  0.94255957  0.89488284  1.0
  H  H26  1  0.06219419  0.16269346  0.28520359  1.0
  H  H27  1  0.93780409  0.83729772  0.78520103  1.0
  H  H28  1  0.67553908  0.56169361  0.29892989  1.0
  H  H29  1  0.32447500  0.43830523  0.79892757  1.0
  H  H30  1  0.77963683  0.44968167  0.20382712  1.0
  H  H31  1  0.22036773  0.55031697  0.70382853  1.0
  H  H32  1  0.20999222  0.55599580  0.30299670  1.0
  H  H33  1  0.79001736  0.44400798  0.80299717  1.0
  H  H34  1  0.02370023  0.34298321  0.19808576  1.0
  H  H35  1  0.16323501  0.35326141  0.29521630  1.0
  H  H36  1  0.25849378  0.29683489  0.20553877  1.0
  H  H37  1  0.97630808  0.65703665  0.69812054  1.0
  H  H38  1  0.83669418  0.64675892  0.79523283  1.0
  H  H39  1  0.74150431  0.70318143  0.70554044  1.0
  H  H40  1  0.46245413  0.87722064  0.53428775  1.0
  H  H41  1  0.53753350  0.12278030  0.03429010  1.0
  H  H42  1  0.89007227  0.64034679  0.53089949  1.0
  H  H43  1  0.10992643  0.35966050  0.03088312  1.0
  C  C44  1  0.40265202  0.64819151  0.38781271  1.0
  C  C45  1  0.59735754  0.35181044  0.88780975  1.0
  C  C46  1  0.39153040  0.64324534  0.61361566  1.0
  C  C47  1  0.60846919  0.35676295  0.11360826  1.0
  C  C48  1  0.95980242  0.87471139  0.61497738  1.0
  C  C49  1  0.04019898  0.12528840  0.11497826  1.0
  C  C50  1  0.96837670  0.87008315  0.38684645  1.0
  C  C51  1  0.03162419  0.12991035  0.88685049  1.0
  C  C52  1  0.07063787  0.89289804  0.23599765  1.0
  C  C53  1  0.92936171  0.10709550  0.73600501  1.0
  C  C54  1  0.10335527  0.96579887  0.16387904  1.0
  C  C55  1  0.89664206  0.03419928  0.66388486  1.0
  C  C56  1  0.12679964  0.02809645  0.33645707  1.0
  C  C57  1  0.87320633  0.97189233  0.83646117  1.0
  C  C58  1  0.77295345  0.96474746  0.29050080  1.0
  C  C59  1  0.22704866  0.03524651  0.79050011  1.0
  C  C60  1  0.98188559  0.93761257  0.31307360  1.0
  C  C61  1  0.01811234  0.06237848  0.81307852  1.0
  C  C62  1  0.01426899  0.05647788  0.18811056  1.0
  C  C63  1  0.98573037  0.94351802  0.68811062  1.0
  C  C64  1  0.13204039  0.10114798  0.26488784  1.0
  C  C65  1  0.86796055  0.89884613  0.76488844  1.0
  C  C66  1  0.79015776  0.02902966  0.21232919  1.0
  C  C67  1  0.20983761  0.97096401  0.71232863  1.0
  C  C68  1  0.36820681  0.57803433  0.31990108  1.0
  C  C69  1  0.63180490  0.42196724  0.81989840  1.0
  C  C70  1  0.51715885  0.53931628  0.28159554  1.0
  C  C71  1  0.48285506  0.46068618  0.78159761  1.0
  C  C72  1  0.62576987  0.42613658  0.18185866  1.0
  C  C73  1  0.37423547  0.57386853  0.68186572  1.0
  C  C74  1  0.47313465  0.46641781  0.21817305  1.0
  C  C75  1  0.52686828  0.53358571  0.71817661  1.0
  C  C76  1  0.17496739  0.35327944  0.22650452  1.0
  C  C77  1  0.82501459  0.64673895  0.72652046  1.0
  O  O78  1  0.56292675  0.66443560  0.57743300  1.0
  O  O79  1  0.43706947  0.33557501  0.07742499  1.0
  O  O80  1  0.24137000  0.66657020  0.42378280  1.0
  O  O81  1  0.75863326  0.33342735  0.92377874  1.0
  O  O82  1  0.12860580  0.83653976  0.40745113  1.0
  O  O83  1  0.87139333  0.16345364  0.90745725  1.0
  O  O84  1  0.22809454  0.67627835  0.59405386  1.0
  O  O85  1  0.77190290  0.32372721  0.09404789  1.0
  O  O86  1  0.11982539  0.85484352  0.57932083  1.0
  O  O87  1  0.88017825  0.14516210  0.07932758  1.0
  O  O88  1  0.58346482  0.68332039  0.40676128  1.0
  O  O89  1  0.41654594  0.31667652  0.90675530  1.0
  O  O90  1  0.44628763  0.81820336  0.50361835  1.0
  O  O91  1  0.55371714  0.18179839  0.00362107  1.0
  O  O92  1  0.77826798  0.84237712  0.59397205  1.0
  O  O93  1  0.22173570  0.15762914  0.09397284  1.0
  O  O94  1  0.79879176  0.85348084  0.42453152  1.0
  O  O95  1  0.20121404  0.14651529  0.92453056  1.0
  O  O96  1  0.91134031  0.70148605  0.50363838  1.0
  O  O97  1  0.08865650  0.29851431  0.00363416  1.0
  O  O98  1  0.27188337  0.44447387  0.19838079  1.0
  O  O99  1  0.72811976  0.55554389  0.69838923  1.0
