# generated using pymatgen
data_Zn2H8C37O13F8
_symmetry_space_group_name_H-M   'P 1'
_cell_length_a   15.78581514
_cell_length_b   15.96788767
_cell_length_c   30.28284516
_cell_angle_alpha   89.21104103
_cell_angle_beta   89.36246815
_cell_angle_gamma   89.98542484
_symmetry_Int_Tables_number   1
_chemical_formula_structural   Zn2H8C37O13F8
_chemical_formula_sum   'Zn4 H16 C74 O26 F16'
_cell_volume   7632.08317483
_cell_formula_units_Z   2
loop_
 _symmetry_equiv_pos_site_id
 _symmetry_equiv_pos_as_xyz
  1  'x, y, z'
loop_
 _atom_site_type_symbol
 _atom_site_label
 _atom_site_symmetry_multiplicity
 _atom_site_fract_x
 _atom_site_fract_y
 _atom_site_fract_z
 _atom_site_occupancy
  Zn  Zn0  1  0.49858341  0.91118227  0.50048937  1.0
  Zn  Zn1  1  0.50136136  0.08180383  0.49879406  1.0
  Zn  Zn2  1  0.91448787  0.49886834  0.99996944  1.0
  Zn  Zn3  1  0.08628881  0.50250199  0.99891743  1.0
  H  H4  1  0.88318037  0.87602953  0.22505960  1.0
  H  H5  1  0.83612834  0.07847818  0.77819971  1.0
  H  H6  1  0.10918203  0.19906554  0.34827793  1.0
  H  H7  1  0.77883127  0.83390867  0.68498319  1.0
  H  H8  1  0.20789691  0.86485730  0.15026871  1.0
  H  H9  1  0.83389069  0.23691675  0.81455300  1.0
  H  H10  1  0.76970838  0.15670516  0.30874582  1.0
  H  H11  1  0.11942216  0.79901892  0.65936924  1.0
  H  H12  1  0.13218887  0.05311541  0.80015783  1.0
  H  H13  1  0.11166943  0.22143593  0.15978714  1.0
  H  H14  1  0.84156546  0.85071196  0.85929654  1.0
  H  H15  1  0.85363403  0.14149344  0.13970906  1.0
  H  H16  1  0.10702285  0.79140247  0.84299370  1.0
  H  H17  1  0.18561065  0.14657402  0.20656690  1.0
  H  H18  1  0.79487875  0.95576893  0.82012838  1.0
  H  H19  1  0.15914777  0.00076669  0.20895026  1.0
  C  C20  1  0.39020205  0.96353033  0.56106446  1.0
  C  C21  1  0.93557088  0.14003700  0.79367540  1.0
  C  C22  1  0.09399927  0.83653560  0.16207938  1.0
  C  C23  1  0.94690771  0.20574718  0.82374138  1.0
  C  C24  1  0.87114231  0.05076392  0.28941339  1.0
  C  C25  1  0.08789724  0.92667584  0.69825046  1.0
  C  C26  1  0.80515254  0.04467666  0.32049413  1.0
  C  C27  1  0.15103590  0.91320084  0.66674193  1.0
  C  C28  1  0.13236829  0.93415443  0.29520875  1.0
  C  C29  1  0.91198991  0.08465836  0.69157541  1.0
  C  C30  1  0.19205295  0.94517720  0.32823721  1.0
  C  C31  1  0.60792719  0.95842963  0.43855163  1.0
  C  C32  1  0.85198164  0.08954203  0.65853676  1.0
  C  C33  1  0.00565253  0.99214340  0.24799310  1.0
  C  C34  1  0.99579939  0.00964369  0.75232340  1.0
  C  C35  1  0.38417996  0.03423088  0.44337521  1.0
  C  C36  1  0.61762605  0.03005028  0.55496540  1.0
  C  C37  1  0.92753737  0.98569981  0.27954831  1.0
  C  C38  1  0.07340012  0.00193191  0.72046928  1.0
  C  C39  1  0.79275222  0.96932286  0.34463237  1.0
  C  C40  1  0.20538384  0.98012305  0.65460453  1.0
  C  C41  1  0.07799179  0.99968229  0.28208786  1.0
  C  C42  1  0.05813329  0.18087867  0.16829896  1.0
  C  C43  1  0.92295161  0.01246266  0.71824582  1.0
  C  C44  1  0.20156283  0.02097977  0.35065643  1.0
  C  C45  1  0.79924202  0.02153134  0.64864981  1.0
  C  C46  1  0.01408492  0.91645019  0.21667981  1.0
  C  C47  1  0.00232063  0.08591937  0.78330664  1.0
  C  C48  1  0.02352609  0.78509029  0.15374934  1.0
  C  C49  1  0.02463649  0.21747549  0.84534359  1.0
  C  C50  1  0.99973666  0.06542816  0.21386855  1.0
  C  C51  1  0.98775220  0.93763053  0.78699099  1.0
  C  C52  1  0.98119773  0.19155028  0.14613308  1.0
  C  C53  1  0.90268554  0.86103919  0.84293425  1.0
  C  C54  1  0.97209607  0.81086220  0.85468450  1.0
  C  C55  1  0.26380596  0.03017079  0.38313016  1.0
  C  C56  1  0.73765014  0.02720129  0.61552235  1.0
  C  C57  1  0.31869049  0.03593444  0.41082963  1.0
  C  C58  1  0.68338729  0.03114898  0.58734457  1.0
  C  C59  1  0.91504649  0.91216951  0.30517941  1.0
  C  C60  1  0.12730719  0.06818615  0.70715131  1.0
  C  C61  1  0.72780747  0.96120505  0.37657933  1.0
  C  C62  1  0.27006044  0.97091942  0.62271265  1.0
  C  C63  1  0.67193875  0.95609726  0.40450626  1.0
  C  C64  1  0.92558872  0.07631050  0.18890400  1.0
  C  C65  1  0.32584054  0.96391796  0.59493608  1.0
  C  C66  1  0.02814711  0.72087143  0.12252143  1.0
  C  C67  1  0.03477124  0.28136935  0.87632832  1.0
  C  C68  1  0.03288088  0.66613870  0.09498146  1.0
  C  C69  1  0.04038635  0.33629203  0.90367749  1.0
  C  C70  1  0.97224944  0.25586752  0.11394985  1.0
  C  C71  1  0.96349601  0.74571204  0.88652285  1.0
  C  C72  1  0.96585235  0.31209107  0.08664960  1.0
  C  C73  1  0.95780685  0.68846721  0.91334820  1.0
  C  C74  1  0.96619516  0.37953905  0.05462273  1.0
  C  C75  1  0.05622072  0.88910487  0.80197027  1.0
  C  C76  1  0.96054163  0.62014901  0.94479500  1.0
  C  C77  1  0.03256564  0.60460453  0.06113345  1.0
  C  C78  1  0.03831056  0.39800348  0.93750126  1.0
  C  C79  1  0.84965249  0.90374574  0.33593599  1.0
  C  C80  1  0.19111839  0.05683707  0.67555167  1.0
  C  C81  1  0.08684879  0.07357763  0.30609966  1.0
  C  C82  1  0.87126199  0.94478440  0.70709023  1.0
  C  C83  1  0.14605781  0.08685132  0.33893765  1.0
  C  C84  1  0.81070405  0.94728368  0.67370953  1.0
  C  C85  1  0.94326314  0.86600336  0.20811519  1.0
  C  C86  1  0.91404204  0.13684610  0.15651154  1.0
  C  C87  1  0.07911613  0.09508990  0.80616860  1.0
  C  C88  1  0.94868454  0.80294500  0.17761001  1.0
  C  C89  1  0.08917435  0.15929311  0.83548101  1.0
  C  C90  1  0.06687587  0.11890309  0.20069390  1.0
  C  C91  1  0.91130242  0.92329154  0.81071698  1.0
  C  C92  1  0.05068521  0.82678944  0.83412242  1.0
  C  C93  1  0.08891223  0.90253592  0.19236755  1.0
  O  O94  1  0.41521459  0.89164575  0.54686458  1.0
  O  O95  1  0.03369372  0.59568379  0.95621950  1.0
  O  O96  1  0.10532188  0.58071006  0.04563042  1.0
  O  O97  1  0.96557182  0.42148920  0.95099232  1.0
  O  O98  1  0.96082108  0.57826013  0.04850044  1.0
  O  O99  1  0.10995890  0.42490410  0.95211045  1.0
  O  O100  1  0.03828920  0.40683119  0.04237128  1.0
  O  O101  1  0.88925360  0.58954004  0.95862984  1.0
  O  O102  1  0.14528943  0.10758407  0.22020501  1.0
  O  O103  1  0.84194377  0.97287471  0.80097840  1.0
  O  O104  1  0.16415223  0.94519648  0.19542264  1.0
  O  O105  1  0.58398230  0.03052585  0.45073741  1.0
  O  O106  1  0.85482235  0.13718485  0.77651240  1.0
  O  O107  1  0.15234733  0.16110765  0.35985474  1.0
  O  O108  1  0.76199084  0.87964368  0.66517794  1.0
  O  O109  1  0.16766933  0.82272670  0.14007131  1.0
  O  O110  1  0.88113578  0.25742480  0.83232420  1.0
  O  O111  1  0.75230027  0.10994147  0.32791119  1.0
  O  O112  1  0.16173227  0.83793992  0.64730850  1.0
  O  O113  1  0.41317832  0.10521569  0.45646751  1.0
  O  O114  1  0.59074742  0.95871507  0.54356240  1.0
  O  O115  1  0.40841368  0.96240134  0.45651854  1.0
  O  O116  1  0.59109078  0.10164780  0.54033811  1.0
  O  O117  1  0.41710699  0.03450731  0.54764094  1.0
  O  O118  1  0.58039745  0.88774380  0.45414046  1.0
  O  O119  1  0.89372553  0.40656035  0.04125090  1.0
  F  F120  1  0.84200396  0.83098931  0.35864834  1.0
  F  F121  1  0.96116351  0.15270899  0.69755187  1.0
  F  F122  1  0.87902293  0.75553683  0.17010419  1.0
  F  F123  1  0.16444423  0.16733850  0.85625744  1.0
  F  F124  1  0.24259559  0.88010715  0.33869122  1.0
  F  F125  1  0.84451284  0.16155329  0.63524008  1.0
  F  F126  1  0.96881295  0.84661118  0.30132609  1.0
  F  F127  1  0.12088891  0.14628459  0.72347081  1.0
  F  F128  1  0.24053195  0.12291578  0.66478438  1.0
  F  F129  1  0.03564938  0.14092997  0.29693878  1.0
  F  F130  1  0.87520745  0.86885839  0.72870968  1.0
  F  F131  1  0.85848232  0.02472296  0.19730095  1.0
  F  F132  1  0.13535864  0.90307522  0.78473406  1.0
  F  F133  1  0.87590172  0.12769888  0.26884889  1.0
  F  F134  1  0.03815081  0.85807160  0.70763614  1.0
  F  F135  1  0.13030501  0.85750004  0.27705682  1.0
