# generated using pymatgen
data_CuH27C36IN7O3
_symmetry_space_group_name_H-M   'P 1'
_cell_length_a   8.68721038
_cell_length_b   19.69493637
_cell_length_c   24.72649072
_cell_angle_alpha   90.00005801
_cell_angle_beta   90.17552744
_cell_angle_gamma   89.99991120
_symmetry_Int_Tables_number   1
_chemical_formula_structural   CuH27C36IN7O3
_chemical_formula_sum   'Cu4 H108 C144 I4 N28 O12'
_cell_volume   4230.53572734
_cell_formula_units_Z   4
loop_
 _symmetry_equiv_pos_site_id
 _symmetry_equiv_pos_as_xyz
  1  'x, y, z'
loop_
 _atom_site_type_symbol
 _atom_site_label
 _atom_site_symmetry_multiplicity
 _atom_site_fract_x
 _atom_site_fract_y
 _atom_site_fract_z
 _atom_site_occupancy
  Cu  Cu0  1  0.45727762  0.50066241  0.54944986  1.0
  Cu  Cu1  1  0.04271212  0.00066290  0.45054878  1.0
  Cu  Cu2  1  0.54271409  0.49933405  0.45054497  1.0
  Cu  Cu3  1  0.95727697  0.99933711  0.54946100  1.0
  H  H4  1  0.07486812  0.98759848  0.73288482  1.0
  H  H5  1  0.42513247  0.48759491  0.26711948  1.0
  H  H6  1  0.92513618  0.01240762  0.26711288  1.0
  H  H7  1  0.57486134  0.51240713  0.73288466  1.0
  H  H8  1  0.17384577  0.88918581  0.68124332  1.0
  H  H9  1  0.32616434  0.38918237  0.31876256  1.0
  H  H10  1  0.82615161  0.11081471  0.31875516  1.0
  H  H11  1  0.67384560  0.61081256  0.68124083  1.0
  H  H12  1  0.90089885  0.75410014  0.77861461  1.0
  H  H13  1  0.59911503  0.25410079  0.22138640  1.0
  H  H14  1  0.09911573  0.24589733  0.22138757  1.0
  H  H15  1  0.40089040  0.74589871  0.77861252  1.0
  H  H16  1  0.80097487  0.85233815  0.83025917  1.0
  H  H17  1  0.69902832  0.35233866  0.16974147  1.0
  H  H18  1  0.19903158  0.14765881  0.16974622  1.0
  H  H19  1  0.30096911  0.64765983  0.83025459  1.0
  H  H20  1  0.31960776  0.73253632  0.62240181  1.0
  H  H21  1  0.18039037  0.23253763  0.37759743  1.0
  H  H22  1  0.68040684  0.26746268  0.37759916  1.0
  H  H23  1  0.81959319  0.76746543  0.62240141  1.0
  H  H24  1  0.46847766  0.64889747  0.56850524  1.0
  H  H25  1  0.03152760  0.14890252  0.43149720  1.0
  H  H26  1  0.53153465  0.35109949  0.43149532  1.0
  H  H27  1  0.96845118  0.85110359  0.56851012  1.0
  H  H28  1  0.14953461  0.49711899  0.59657109  1.0
  H  H29  1  0.35045329  0.99711939  0.40343317  1.0
  H  H30  1  0.85045932  0.50288305  0.40342738  1.0
  H  H31  1  0.64952779  0.00288417  0.59657415  1.0
  H  H32  1  0.99045535  0.57332513  0.65570917  1.0
  H  H33  1  0.50953270  0.07331840  0.34429080  1.0
  H  H34  1  0.00953861  0.42667335  0.34428768  1.0
  H  H35  1  0.49045192  0.92667451  0.65571249  1.0
  H  H36  1  0.99252079  0.10805440  0.83648355  1.0
  H  H37  1  0.50747290  0.60805877  0.16351606  1.0
  H  H38  1  0.00748589  0.89194308  0.16351052  1.0
  H  H39  1  0.49252556  0.39194632  0.83648566  1.0
  H  H40  1  0.92254079  0.21568662  0.78927576  1.0
  H  H41  1  0.57746405  0.71568695  0.21072357  1.0
  H  H42  1  0.07746476  0.78431187  0.21071709  1.0
  H  H43  1  0.42253332  0.28431662  0.78927572  1.0
  H  H44  1  0.63262894  0.10201530  0.68054835  1.0
  H  H45  1  0.86737060  0.60201710  0.31944805  1.0
  H  H46  1  0.36736736  0.89798268  0.31944690  1.0
  H  H47  1  0.13263144  0.39798901  0.68054762  1.0
  H  H48  1  0.70595533  0.99495091  0.72660948  1.0
  H  H49  1  0.79403935  0.49495201  0.27338881  1.0
  H  H50  1  0.29404324  0.00504910  0.27338698  1.0
  H  H51  1  0.20596609  0.50505461  0.72660930  1.0
  H  H52  1  0.83720176  0.41873218  0.68959294  1.0
  H  H53  1  0.66279884  0.91873004  0.31041017  1.0
  H  H54  1  0.16277254  0.58127088  0.31040829  1.0
  H  H55  1  0.33721229  0.08127353  0.68959160  1.0
  H  H56  1  0.70507002  0.50106654  0.62907012  1.0
  H  H57  1  0.79492283  0.00106726  0.37093265  1.0
  H  H58  1  0.29490541  0.49893804  0.37093233  1.0
  H  H59  1  0.20509058  0.99893783  0.62907034  1.0
  H  H60  1  0.40030784  0.35530833  0.57360456  1.0
  H  H61  1  0.09971055  0.85530741  0.42639646  1.0
  H  H62  1  0.59969648  0.64469016  0.42639233  1.0
  H  H63  1  0.90029126  0.14469362  0.57361053  1.0
  H  H64  1  0.51978922  0.26572083  0.63037145  1.0
  H  H65  1  0.98022118  0.76572161  0.36962875  1.0
  H  H66  1  0.48020586  0.73428121  0.36962702  1.0
  H  H67  1  0.01978535  0.23428348  0.63037260  1.0
  H  H68  1  0.01143935  0.90494387  0.89208988  1.0
  H  H69  1  0.48856398  0.40493952  0.10790709  1.0
  H  H70  1  0.98856608  0.09506071  0.10790904  1.0
  H  H71  1  0.51143459  0.59505897  0.89208938  1.0
  H  H72  1  0.95132901  0.90853996  0.98917649  1.0
  H  H73  1  0.54867632  0.40853681  0.01082259  1.0
  H  H74  1  0.04867532  0.09146309  0.01082000  1.0
  H  H75  1  0.45132219  0.59146371  0.98917711  1.0
  H  H76  1  0.61301273  0.06461096  0.96045904  1.0
  H  H77  1  0.88699141  0.56460779  0.03954382  1.0
  H  H78  1  0.38700532  0.93539109  0.03954195  1.0
  H  H79  1  0.11300016  0.43539121  0.96045748  1.0
  H  H80  1  0.66976282  0.05939430  0.86274119  1.0
  H  H81  1  0.83023328  0.55939080  0.13726163  1.0
  H  H82  1  0.33025175  0.94060977  0.13726140  1.0
  H  H83  1  0.16975603  0.44060667  0.86273764  1.0
  H  H84  1  0.69152934  0.91044656  0.12447573  1.0
  H  H85  1  0.80848632  0.41044541  0.87552460  1.0
  H  H86  1  0.30849899  0.08955346  0.87552933  1.0
  H  H87  1  0.19151105  0.58955003  0.12447470  1.0
  H  H88  1  0.64258040  0.89670097  0.22227026  1.0
  H  H89  1  0.85742610  0.39669611  0.77773003  1.0
  H  H90  1  0.35742957  0.10330665  0.77773191  1.0
  H  H91  1  0.14256899  0.60329680  0.22226804  1.0
  H  H92  1  0.56763555  0.10258014  0.24308474  1.0
  H  H93  1  0.93236043  0.60257640  0.75691690  1.0
  H  H94  1  0.43237211  0.89742647  0.75691783  1.0
  H  H95  1  0.06763583  0.39741651  0.24308037  1.0
  H  H96  1  0.60457938  0.12494216  0.14369266  1.0
  H  H97  1  0.89542340  0.62494212  0.85631024  1.0
  H  H98  1  0.39544446  0.87505887  0.85630673  1.0
  H  H99  1  0.10457167  0.37505382  0.14368905  1.0
  H  H100  1  0.22894313  0.77140831  0.68867663  1.0
  H  H101  1  0.27106520  0.27140440  0.31132390  1.0
  H  H102  1  0.77105422  0.22859119  0.31132348  1.0
  H  H103  1  0.72893333  0.72859054  0.68867500  1.0
  H  H104  1  0.59566489  0.21874482  0.69747125  1.0
  H  H105  1  0.90434338  0.71874454  0.30252851  1.0
  H  H106  1  0.40433710  0.78125570  0.30252685  1.0
  H  H107  1  0.09565165  0.28125954  0.69747240  1.0
  H  H108  1  0.80282706  0.95049027  0.05895404  1.0
  H  H109  1  0.69717809  0.45049132  0.94104628  1.0
  H  H110  1  0.19718296  0.04950619  0.94104570  1.0
  H  H111  1  0.30281578  0.54950818  0.05895462  1.0
  C  C112  1  0.93266708  0.92682220  0.78565486  1.0
  C  C113  1  0.56733006  0.42682083  0.21434744  1.0
  C  C114  1  0.06734063  0.07317832  0.21434488  1.0
  C  C115  1  0.43266611  0.57317868  0.78565387  1.0
  C  C116  1  0.03597148  0.93656051  0.74274006  1.0
  C  C117  1  0.46403387  0.43655943  0.25726543  1.0
  C  C118  1  0.96402363  0.06344001  0.25725680  1.0
  C  C119  1  0.53596915  0.56343956  0.74273874  1.0
  C  C120  1  0.09113800  0.88167581  0.71374496  1.0
  C  C121  1  0.40887218  0.38167379  0.28625849  1.0
  C  C122  1  0.90885942  0.11832116  0.28625150  1.0
  C  C123  1  0.59113547  0.61832114  0.71374408  1.0
  C  C124  1  0.04464007  0.81539585  0.72663474  1.0
  C  C125  1  0.45536465  0.31539277  0.27336580  1.0
  C  C126  1  0.95536542  0.18460213  0.27336135  1.0
  C  C127  1  0.54463498  0.68460419  0.72663512  1.0
  C  C128  1  0.93908042  0.80519346  0.76865609  1.0
  C  C129  1  0.56093671  0.30519262  0.23134618  1.0
  C  C130  1  0.06093071  0.19480655  0.23134527  1.0
  C  C131  1  0.43906297  0.69480587  0.76865271  1.0
  C  C132  1  0.88304213  0.86056560  0.79766706  1.0
  C  C133  1  0.61696444  0.36056621  0.20233563  1.0
  C  C134  1  0.11696209  0.13943340  0.20233469  1.0
  C  C135  1  0.38303752  0.63943228  0.79766409  1.0
  C  C136  1  0.04839557  0.70392402  0.68044397  1.0
  C  C137  1  0.45159801  0.20392050  0.31955726  1.0
  C  C138  1  0.95160992  0.29607396  0.31955171  1.0
  C  C139  1  0.54838657  0.79607494  0.68044806  1.0
  C  C140  1  0.14487207  0.65871640  0.64600784  1.0
  C  C141  1  0.35512289  0.15871198  0.35399013  1.0
  C  C142  1  0.85512762  0.34128208  0.35399066  1.0
  C  C143  1  0.64486757  0.84128245  0.64600914  1.0
  C  C144  1  0.27892673  0.68037267  0.61974628  1.0
  C  C145  1  0.22107150  0.18037193  0.38025656  1.0
  C  C146  1  0.72107641  0.31962633  0.38025222  1.0
  C  C147  1  0.77892695  0.81963113  0.61974557  1.0
  C  C148  1  0.36170161  0.63452581  0.58874734  1.0
  C  C149  1  0.13829334  0.13452821  0.41125505  1.0
  C  C150  1  0.63830382  0.36547166  0.41125157  1.0
  C  C151  1  0.86169701  0.86547434  0.58874948  1.0
  C  C152  1  0.18451059  0.54924305  0.60505335  1.0
  C  C153  1  0.31547887  0.04924277  0.39495057  1.0
  C  C154  1  0.81547760  0.45075900  0.39494470  1.0
  C  C155  1  0.68451950  0.95075725  0.60505560  1.0
  C  C156  1  0.09634184  0.59168497  0.63731610  1.0
  C  C157  1  0.40365095  0.09168053  0.36268666  1.0
  C  C158  1  0.90364866  0.40831555  0.36268115  1.0
  C  C159  1  0.59634170  0.90831390  0.63731828  1.0
  C  C160  1  0.85188019  0.04491381  0.78520043  1.0
  C  C161  1  0.64811038  0.54491359  0.21479387  1.0
  C  C162  1  0.14812184  0.95508467  0.21479605  1.0
  C  C163  1  0.35188475  0.45508845  0.78520218  1.0
  C  C164  1  0.91461586  0.10712929  0.80186550  1.0
  C  C165  1  0.58537901  0.60712959  0.19813291  1.0
  C  C166  1  0.08538735  0.89287022  0.19812937  1.0
  C  C167  1  0.41461719  0.39287448  0.80186678  1.0
  C  C168  1  0.87510193  0.16744123  0.77586619  1.0
  C  C169  1  0.62489380  0.66744053  0.22413631  1.0
  C  C170  1  0.12489780  0.83255827  0.22412988  1.0
  C  C171  1  0.37510700  0.33256253  0.77586380  1.0
  C  C172  1  0.77074828  0.16561742  0.73245774  1.0
  C  C173  1  0.72924514  0.66561924  0.26754556  1.0
  C  C174  1  0.22924567  0.83438361  0.26753992  1.0
  C  C175  1  0.27075448  0.33438635  0.73245617  1.0
  C  C176  1  0.71334355  0.10295665  0.71434138  1.0
  C  C177  1  0.78665480  0.60295795  0.28565622  1.0
  C  C178  1  0.28665733  0.89704387  0.28565469  1.0
  C  C179  1  0.21335069  0.39704714  0.71433986  1.0
  C  C180  1  0.75383615  0.04313214  0.74016425  1.0
  C  C181  1  0.74615786  0.54313496  0.25983087  1.0
  C  C182  1  0.24616818  0.95686685  0.25983224  1.0
  C  C183  1  0.25383728  0.45687064  0.74016437  1.0
  C  C184  1  0.77723317  0.28496127  0.69949344  1.0
  C  C185  1  0.72276327  0.78495959  0.30051077  1.0
  C  C186  1  0.22275959  0.71504128  0.30050583  1.0
  C  C187  1  0.27723520  0.21504550  0.69949055  1.0
  C  C188  1  0.68939809  0.33460703  0.66594125  1.0
  C  C189  1  0.81060164  0.83460584  0.33406260  1.0
  C  C190  1  0.31058661  0.66539501  0.33405799  1.0
  C  C191  1  0.18940254  0.16539620  0.66594117  1.0
  C  C192  1  0.74033216  0.40210355  0.66491622  1.0
  C  C193  1  0.75966617  0.90210341  0.33508849  1.0
  C  C194  1  0.25964553  0.59789747  0.33508827  1.0
  C  C195  1  0.24034843  0.09790066  0.66491248  1.0
  C  C196  1  0.66615716  0.44853376  0.63180400  1.0
  C  C197  1  0.83383875  0.94853514  0.36819871  1.0
  C  C198  1  0.33382522  0.55146625  0.36819645  1.0
  C  C199  1  0.16616888  0.05146792  0.63180507  1.0
  C  C200  1  0.49610404  0.36694379  0.60077521  1.0
  C  C201  1  0.00390278  0.86694697  0.39922660  1.0
  C  C202  1  0.50388301  0.63305317  0.39922203  1.0
  C  C203  1  0.99610370  0.13305609  0.60077758  1.0
  C  C204  1  0.56392051  0.31738740  0.63284975  1.0
  C  C205  1  0.93608047  0.81738820  0.36715207  1.0
  C  C206  1  0.43606191  0.68261363  0.36714828  1.0
  C  C207  1  0.06393182  0.18261740  0.63284930  1.0
  C  C208  1  0.84615725  0.98283313  0.87010017  1.0
  C  C209  1  0.65384432  0.48282904  0.12990138  1.0
  C  C210  1  0.15385273  0.01716841  0.12990160  1.0
  C  C211  1  0.34615422  0.51716944  0.87009671  1.0
  C  C212  1  0.92320126  0.93972204  0.90662202  1.0
  C  C213  1  0.57681086  0.43971543  0.09337752  1.0
  C  C214  1  0.07681334  0.06028051  0.09337896  1.0
  C  C215  1  0.42318307  0.56028306  0.90662096  1.0
  C  C216  1  0.88847836  0.94169570  0.96144205  1.0
  C  C217  1  0.61153605  0.44168847  0.03855789  1.0
  C  C218  1  0.11154203  0.05830939  0.03855732  1.0
  C  C219  1  0.38846132  0.55830900  0.96144140  1.0
  C  C220  1  0.77767609  0.98699369  0.98164983  1.0
  C  C221  1  0.72233354  0.48698991  0.01835054  1.0
  C  C222  1  0.22233739  0.01300683  0.01834952  1.0
  C  C223  1  0.27766841  0.51300553  0.98164958  1.0
  C  C224  1  0.69948234  0.02967199  0.94531031  1.0
  C  C225  1  0.80051505  0.52966890  0.05469048  1.0
  C  C226  1  0.30052536  0.97032853  0.05469024  1.0
  C  C227  1  0.19948463  0.47032705  0.94530802  1.0
  C  C228  1  0.73293564  0.02681943  0.89053988  1.0
  C  C229  1  0.76706061  0.52681644  0.10946130  1.0
  C  C230  1  0.26706859  0.97318160  0.10946146  1.0
  C  C231  1  0.23294139  0.47318002  0.89053639  1.0
  C  C232  1  0.67285308  0.03581206  0.06700978  1.0
  C  C233  1  0.82715350  0.53580965  0.93299145  1.0
  C  C234  1  0.32716384  0.96418896  0.93299040  1.0
  C  C235  1  0.17284621  0.46418580  0.06700583  1.0
  C  C236  1  0.65567970  0.02034113  0.12610492  1.0
  C  C237  1  0.84432462  0.52033811  0.87389669  1.0
  C  C238  1  0.34434639  0.97965990  0.87389690  1.0
  C  C239  1  0.15566585  0.47965886  0.12610218  1.0
  C  C240  1  0.66751372  0.95538757  0.14886914  1.0
  C  C241  1  0.83248448  0.45538536  0.85113278  1.0
  C  C242  1  0.33250307  0.04461193  0.85113710  1.0
  C  C243  1  0.16750251  0.54461059  0.14886729  1.0
  C  C244  1  0.63929163  0.94722359  0.20396541  1.0
  C  C245  1  0.86070201  0.44722180  0.79603568  1.0
  C  C246  1  0.36071717  0.05277743  0.79603757  1.0
  C  C247  1  0.13928041  0.55277415  0.20396235  1.0
  C  C248  1  0.59413990  0.06109382  0.21527354  1.0
  C  C249  1  0.90584818  0.56109419  0.78472724  1.0
  C  C250  1  0.40586661  0.93890569  0.78472862  1.0
  C  C251  1  0.09413775  0.43890125  0.21526838  1.0
  C  C252  1  0.61710830  0.07406310  0.16050006  1.0
  C  C253  1  0.88288668  0.57406254  0.83949913  1.0
  C  C254  1  0.38290980  0.92593692  0.83949890  1.0
  C  C255  1  0.11710271  0.42593391  0.16049650  1.0
  I  I256  1  0.71534043  0.56904993  0.52038940  1.0
  I  I257  1  0.78464311  0.06905232  0.47960692  1.0
  I  I258  1  0.28465128  0.43094551  0.47960502  1.0
  I  I259  1  0.21534719  0.93094312  0.52040003  1.0
  N  N260  1  0.88152274  0.98415829  0.81459532  1.0
  N  N261  1  0.61846507  0.48415786  0.18540335  1.0
  N  N262  1  0.11847696  0.01583918  0.18540237  1.0
  N  N263  1  0.38152769  0.51584215  0.81459593  1.0
  N  N264  1  0.11449851  0.76229739  0.69721866  1.0
  N  N265  1  0.38550754  0.26229440  0.30278226  1.0
  N  N266  1  0.88550350  0.23769907  0.30277904  1.0
  N  N267  1  0.61448980  0.73770003  0.69721785  1.0
  N  N268  1  0.31781628  0.56933901  0.58196876  1.0
  N  N269  1  0.18218119  0.06934292  0.41803399  1.0
  N  N270  1  0.68216956  0.43066252  0.41803130  1.0
  N  N271  1  0.81782293  0.93065811  0.58197260  1.0
  N  N272  1  0.71113440  0.22357090  0.70642109  1.0
  N  N273  1  0.78887040  0.72357068  0.29357865  1.0
  N  N274  1  0.28886649  0.77643013  0.29357458  1.0
  N  N275  1  0.21112807  0.27643491  0.70642267  1.0
  N  N276  1  0.54612450  0.43182797  0.59956164  1.0
  N  N277  1  0.95387724  0.93183286  0.40044027  1.0
  N  N278  1  0.45386138  0.56816697  0.40043640  1.0
  N  N279  1  0.04612461  0.06816867  0.59956470  1.0
  N  N280  1  0.74773758  0.98702403  0.03739544  1.0
  N  N281  1  0.75227089  0.48702202  0.96260574  1.0
  N  N282  1  0.25227243  0.01297395  0.96260471  1.0
  N  N283  1  0.24772763  0.51297545  0.03739356  1.0
  N  N284  1  0.60388338  0.99878594  0.23716798  1.0
  N  N285  1  0.89611297  0.49878527  0.76283277  1.0
  N  N286  1  0.39612605  0.00121389  0.76283219  1.0
  N  N287  1  0.10388094  0.50121017  0.23716691  1.0
  O  O288  1  0.91260327  0.68731540  0.69156659  1.0
  O  O289  1  0.58739353  0.18730856  0.30843634  1.0
  O  O290  1  0.08740562  0.31268715  0.30843194  1.0
  O  O291  1  0.41259562  0.81269044  0.69157061  1.0
  O  O292  1  0.90692864  0.30045050  0.71822088  1.0
  O  O293  1  0.59306303  0.80045193  0.28178858  1.0
  O  O294  1  0.09306411  0.69954951  0.28177880  1.0
  O  O295  1  0.40693307  0.19955316  0.71821597  1.0
  O  O296  1  0.62057358  0.08900848  0.04764041  1.0
  O  O297  1  0.87943051  0.58900656  0.95236085  1.0
  O  O298  1  0.37944216  0.91099254  0.95236138  1.0
  O  O299  1  0.12056000  0.41098837  0.04763600  1.0
