# generated using pymatgen
data_AlH21C45(BrO)6
_symmetry_space_group_name_H-M   'P 1'
_cell_length_a   3.98642030
_cell_length_b   23.51674537
_cell_length_c   23.56281972
_cell_angle_alpha   60.07790271
_cell_angle_beta   86.94403378
_cell_angle_gamma   87.80531608
_symmetry_Int_Tables_number   1
_chemical_formula_structural   AlH21C45(BrO)6
_chemical_formula_sum   'Al1 H21 C45 Br6 O6'
_cell_volume   1911.61682345
_cell_formula_units_Z   1
loop_
 _symmetry_equiv_pos_site_id
 _symmetry_equiv_pos_as_xyz
  1  'x, y, z'
loop_
 _atom_site_type_symbol
 _atom_site_label
 _atom_site_symmetry_multiplicity
 _atom_site_fract_x
 _atom_site_fract_y
 _atom_site_fract_z
 _atom_site_occupancy
  Al  Al0  1  0.96573135  0.50034147  0.50009132  1.0
  H  H1  1  0.60955356  0.32579071  0.67382073  1.0
  H  H2  1  0.62646813  0.20491657  0.74175048  1.0
  H  H3  1  0.22819171  0.98142833  0.84523585  1.0
  H  H4  1  0.38760580  0.73832833  0.19093373  1.0
  H  H5  1  0.74801471  0.76443636  0.10768039  1.0
  H  H6  1  0.76028991  0.82957163  0.98824748  1.0
  H  H7  1  0.51178894  0.89072685  0.89763293  1.0
  H  H8  1  0.56903009  0.49815555  0.32570723  1.0
  H  H9  1  0.58433550  0.54987385  0.20532595  1.0
  H  H10  1  0.23586308  0.67542195  0.98285203  1.0
  H  H11  1  0.26814691  0.57552314  0.73622856  1.0
  H  H12  1  0.69135544  0.62313899  0.76381491  1.0
  H  H13  1  0.72260148  0.67792891  0.82864779  1.0
  H  H14  1  0.47597324  0.71181066  0.89071501  1.0
  H  H15  1  0.58869244  0.67504710  0.49982189  1.0
  H  H16  1  0.59679045  0.74249651  0.55341330  1.0
  H  H17  1  0.20238070  0.84577021  0.67867725  1.0
  H  H18  1  0.35707576  0.18982987  0.57492133  1.0
  H  H19  1  0.76944689  0.10865945  0.62486922  1.0
  H  H20  1  0.78307492  0.98835703  0.67985793  1.0
  H  H21  1  0.48551692  0.89780367  0.71223190  1.0
  C  C22  1  0.47424699  0.39974758  0.54787347  1.0
  C  C23  1  0.43975925  0.54877365  0.55243846  1.0
  C  C24  1  0.48410367  0.55322114  0.39969026  1.0
  C  C25  1  0.55529797  0.29547565  0.65246622  1.0
  C  C26  1  0.56088800  0.22752453  0.69079451  1.0
  C  C27  1  0.35453539  0.07675218  0.76612252  1.0
  C  C28  1  0.35482124  0.00853584  0.79722248  1.0
  C  C29  1  0.44770507  0.65653042  0.28744095  1.0
  C  C30  1  0.43800008  0.68577010  0.21955626  1.0
  C  C31  1  0.62796307  0.74530496  0.08025523  1.0
  C  C32  1  0.63450931  0.78240183  0.01240390  1.0
  C  C33  1  0.48439782  0.32634247  0.58591276  1.0
  C  C34  1  0.48931745  0.18805739  0.66389422  1.0
  C  C35  1  0.49450371  0.11546615  0.70229081  1.0
  C  C36  1  0.50333740  0.97488580  0.76702874  1.0
  C  C37  1  0.49954527  0.90244656  0.80107585  1.0
  C  C38  1  0.50276078  0.86541785  0.86963046  1.0
  C  C39  1  0.53509021  0.55113595  0.29546549  1.0
  C  C40  1  0.53814756  0.58021621  0.22772068  1.0
  C  C41  1  0.35587964  0.65829068  0.07735802  1.0
  C  C42  1  0.35597249  0.69554613  0.00928392  1.0
  C  C43  1  0.34792659  0.55985384  0.65422433  1.0
  C  C44  1  0.34310422  0.59785294  0.68446887  1.0
  C  C45  1  0.57880234  0.67188985  0.74556446  1.0
  C  C46  1  0.59459740  0.70273897  0.78246391  1.0
  C  C47  1  0.49204163  0.58864444  0.32653215  1.0
  C  C48  1  0.48513874  0.64818387  0.18832262  1.0
  C  C49  1  0.48627372  0.68220113  0.11584463  1.0
  C  C50  1  0.49499605  0.75833673  0.97511990  1.0
  C  C51  1  0.49430546  0.79669121  0.90279726  1.0
  C  C52  1  0.48273286  0.76519271  0.86573739  1.0
  C  C53  1  0.51810422  0.65365635  0.55175041  1.0
  C  C54  1  0.51914644  0.69166550  0.58176983  1.0
  C  C55  1  0.30907986  0.76626882  0.66065497  1.0
  C  C56  1  0.31750016  0.79723081  0.69778105  1.0
  C  C57  1  0.41976572  0.28711727  0.55871690  1.0
  C  C58  1  0.41890569  0.21896017  0.59708811  1.0
  C  C59  1  0.64556843  0.08051587  0.67312027  1.0
  C  C60  1  0.65227643  0.01247857  0.70408867  1.0
  C  C61  1  0.43335673  0.58721017  0.58747619  1.0
  C  C62  1  0.42921893  0.66443988  0.64862643  1.0
  C  C63  1  0.43590199  0.70208399  0.68348181  1.0
  C  C64  1  0.46261097  0.76644827  0.75922757  1.0
  C  C65  1  0.47823666  0.80071921  0.79720063  1.0
  C  C66  1  0.48807735  0.86940595  0.76554211  1.0
  Br  Br67  1  0.21955136  0.47047993  0.70499343  1.0
  Br  Br68  1  0.31280906  0.32606342  0.46905741  1.0
  Br  Br69  1  0.37559895  0.71073206  0.32583834  1.0
  Br  Br70  1  0.10649716  0.81653912  0.57775244  1.0
  Br  Br71  1  0.13984576  0.11291230  0.81579586  1.0
  Br  Br72  1  0.15559353  0.57398230  0.11295505  1.0
  O  O73  1  0.71001126  0.56494073  0.42843916  1.0
  O  O74  1  0.71506555  0.42912198  0.50696839  1.0
  O  O75  1  0.67818023  0.50739704  0.56389149  1.0
  O  O76  1  0.25112759  0.51141339  0.42802730  1.0
  O  O77  1  0.21049409  0.56208580  0.51190789  1.0
  O  O78  1  0.22671637  0.42734130  0.56141234  1.0
