# generated using pymatgen
data_AlH5C12NO7F
_symmetry_space_group_name_H-M   'P 1'
_cell_length_a   6.82235591
_cell_length_b   11.08898463
_cell_length_c   17.68386244
_cell_angle_alpha   84.36669390
_cell_angle_beta   80.50471856
_cell_angle_gamma   73.20221407
_symmetry_Int_Tables_number   1
_chemical_formula_structural   AlH5C12NO7F
_chemical_formula_sum   'Al2 H10 C24 N2 O14 F2'
_cell_volume   1261.39821201
_cell_formula_units_Z   2
loop_
 _symmetry_equiv_pos_site_id
 _symmetry_equiv_pos_as_xyz
  1  'x, y, z'
loop_
 _atom_site_type_symbol
 _atom_site_label
 _atom_site_symmetry_multiplicity
 _atom_site_fract_x
 _atom_site_fract_y
 _atom_site_fract_z
 _atom_site_occupancy
  Al  Al0  1  0.50287443  0.49935456  0.49944925  1.0
  Al  Al1  1  0.00250639  0.49934611  0.50007882  1.0
  H  H2  1  0.27275446  0.38837933  0.58014621  1.0
  H  H3  1  0.73285777  0.61218369  0.42017377  1.0
  H  H4  1  0.35620676  0.88691351  0.52856308  1.0
  H  H5  1  0.64815779  0.11178793  0.47248100  1.0
  H  H6  1  0.32668264  0.55442482  0.72138976  1.0
  H  H7  1  0.23744924  0.55846091  0.86387017  1.0
  H  H8  1  0.89112850  0.44699170  0.88275667  1.0
  H  H9  1  0.09703009  0.55196597  0.11934719  1.0
  H  H10  1  0.67305544  0.44940465  0.27523489  1.0
  H  H11  1  0.75349029  0.44702345  0.13244603  1.0
  C  C12  1  0.69871077  0.50442704  0.63621298  1.0
  C  C13  1  0.85407825  0.27435494  0.49596061  1.0
  C  C14  1  0.30500028  0.49466360  0.36337669  1.0
  C  C15  1  0.15089524  0.72442360  0.50417008  1.0
  C  C16  1  0.93330409  0.13322603  0.49545151  1.0
  C  C17  1  0.07109228  0.86547775  0.50558317  1.0
  C  C18  1  0.13253114  0.06742956  0.51029004  1.0
  C  C19  1  0.87159519  0.93123992  0.49101373  1.0
  C  C20  1  0.20138331  0.93683854  0.51619770  1.0
  C  C21  1  0.80295398  0.06183105  0.48493636  1.0
  C  C22  1  0.65444014  0.50466149  0.72154384  1.0
  C  C23  1  0.44788468  0.53325049  0.75779475  1.0
  C  C24  1  0.39844140  0.53457079  0.83701934  1.0
  C  C25  1  0.55725003  0.50389249  0.88368282  1.0
  C  C26  1  0.76507645  0.47339202  0.84844176  1.0
  C  C27  1  0.80955039  0.47517134  0.76908829  1.0
  C  C28  1  0.51112986  0.50234118  0.96461295  1.0
  C  C29  1  0.47435906  0.50047656  0.03459384  1.0
  C  C30  1  0.43173799  0.49847723  0.11560269  1.0
  C  C31  1  0.22553962  0.52681977  0.15248649  1.0
  C  C32  1  0.18599000  0.52428448  0.23194852  1.0
  C  C33  1  0.34450204  0.49598385  0.27797416  1.0
  C  C34  1  0.54923496  0.46970265  0.24005287  1.0
  C  C35  1  0.59381996  0.46932531  0.16070566  1.0
  N  N36  1  0.28666944  0.13536045  0.51340328  1.0
  N  N37  1  0.71741809  0.86326707  0.48801237  1.0
  O  O38  1  0.55804073  0.48660594  0.60272495  1.0
  O  O39  1  0.98234745  0.33010202  0.50953994  1.0
  O  O40  1  0.13424438  0.47771508  0.39651225  1.0
  O  O41  1  0.33798380  0.67410146  0.51317229  1.0
  O  O42  1  0.44755337  0.51176696  0.39616218  1.0
  O  O43  1  0.02223519  0.66875750  0.49083415  1.0
  O  O44  1  0.87062145  0.52071596  0.60382876  1.0
  O  O45  1  0.66776046  0.32471829  0.48593724  1.0
  O  O46  1  0.26402172  0.44487996  0.53454326  1.0
  O  O47  1  0.74153699  0.55417777  0.46510242  1.0
  O  O48  1  0.36547261  0.17066539  0.45009546  1.0
  O  O49  1  0.33515618  0.14498102  0.57640404  1.0
  O  O50  1  0.66833837  0.85387187  0.42507610  1.0
  O  O51  1  0.63901176  0.82778605  0.55134868  1.0
  F  F52  1  0.01303398  0.44278377  0.73863106  1.0
  F  F53  1  0.98367791  0.55471043  0.26402806  1.0
