# generated using pymatgen
data_Zn2H16C29(NO5)2
_symmetry_space_group_name_H-M   'P 1'
_cell_length_a   9.79929039
_cell_length_b   11.04656644
_cell_length_c   16.18155397
_cell_angle_alpha   93.12185326
_cell_angle_beta   90.83902158
_cell_angle_gamma   92.96235668
_symmetry_Int_Tables_number   1
_chemical_formula_structural   Zn2H16C29(NO5)2
_chemical_formula_sum   'Zn2 H16 C29 N2 O10'
_cell_volume   1746.42475973
_cell_formula_units_Z   1
loop_
 _symmetry_equiv_pos_site_id
 _symmetry_equiv_pos_as_xyz
  1  'x, y, z'
loop_
 _atom_site_type_symbol
 _atom_site_label
 _atom_site_symmetry_multiplicity
 _atom_site_fract_x
 _atom_site_fract_y
 _atom_site_fract_z
 _atom_site_occupancy
  Zn  Zn0  1  0.63855506  0.49999328  0.49831406  1.0
  Zn  Zn1  1  0.35059623  0.48753363  0.50524370  1.0
  H  H2  1  0.80758657  0.89061436  0.45030383  1.0
  H  H3  1  0.30079253  0.10546905  0.56979348  1.0
  H  H4  1  0.70049628  0.09732395  0.35172900  1.0
  H  H5  1  0.71322606  0.57126054  0.09110287  1.0
  H  H6  1  0.85831942  0.43873475  0.61927641  1.0
  H  H7  1  0.27456504  0.51943466  0.07002377  1.0
  H  H8  1  0.80764097  0.11396311  0.44239358  1.0
  H  H9  1  0.57468930  0.77547733  0.25854462  1.0
  H  H10  1  0.11502012  0.42759610  0.62228148  1.0
  H  H11  1  0.87204276  0.49907846  0.30347304  1.0
  H  H12  1  0.88348892  0.65425269  0.33991399  1.0
  H  H13  1  0.13271329  0.49818881  0.30744855  1.0
  H  H14  1  0.14058630  0.65122471  0.34892135  1.0
  H  H15  1  0.72814166  0.56944878  0.93742172  1.0
  H  H16  1  0.28957256  0.51852642  0.91638767  1.0
  H  H17  1  0.29963473  0.88067071  0.57287813  1.0
  C  C18  1  0.48716668  0.72892677  0.50632523  1.0
  C  C19  1  0.38344957  0.05654073  0.54137888  1.0
  C  C20  1  0.48793160  0.12450307  0.50285326  1.0
  C  C21  1  0.49322060  0.50283155  0.33971040  1.0
  C  C22  1  0.59076535  0.05772995  0.46711109  1.0
  C  C23  1  0.71681521  0.06527188  0.41400588  1.0
  C  C24  1  0.71700704  0.92082639  0.41820615  1.0
  C  C25  1  0.06996132  0.51915249  0.43771189  1.0
  C  C26  1  0.06125450  0.45552186  0.56763775  1.0
  C  C27  1  0.91944547  0.46141085  0.56601216  1.0
  C  C28  1  0.92764218  0.52382944  0.43552958  1.0
  C  C29  1  0.62099506  0.55964369  0.05240289  1.0
  C  C30  1  0.92416537  0.56489145  0.34805701  1.0
  C  C31  1  0.08602336  0.56220357  0.35129281  1.0
  C  C32  1  0.48630072  0.25901698  0.50025339  1.0
  C  C33  1  0.50947642  0.50696094  0.66462732  1.0
  C  C34  1  0.62925434  0.55869564  0.96686467  1.0
  C  C35  1  0.50994540  0.54183990  0.91673455  1.0
  C  C36  1  0.38174482  0.52989036  0.95514015  1.0
  C  C37  1  0.37344773  0.53053678  0.04063363  1.0
  C  C38  1  0.49314739  0.54342999  0.09064516  1.0
  C  C39  1  0.70435399  0.85038861  0.33574395  1.0
  C  C40  1  0.51673100  0.53319095  0.82929662  1.0
  C  C41  1  0.48692210  0.53510542  0.17758101  1.0
  C  C42  1  0.48588354  0.52227402  0.25199535  1.0
  C  C43  1  0.51683044  0.52146928  0.75397051  1.0
  C  C44  1  0.59053069  0.93211851  0.47013551  1.0
  C  C45  1  0.48806444  0.86388131  0.50748090  1.0
  C  C46  1  0.38298882  0.93023171  0.54338706  1.0
  N  N47  1  0.14012755  0.48526555  0.50251081  1.0
  N  N48  1  0.84914632  0.49659790  0.49888927  1.0
  O  O49  1  0.60330384  0.68174069  0.50522611  1.0
  O  O50  1  0.57262864  0.82466996  0.31088361  1.0
  O  O51  1  0.37088596  0.67197433  0.50536750  1.0
  O  O52  1  0.61338720  0.50788961  0.37121778  1.0
  O  O53  1  0.38112068  0.48286028  0.37656284  1.0
  O  O54  1  0.60033419  0.31551694  0.48787162  1.0
  O  O55  1  0.37182055  0.30704551  0.51061719  1.0
  O  O56  1  0.62193429  0.49745745  0.62664962  1.0
  O  O57  1  0.38994050  0.50518226  0.63253047  1.0
  O  O58  1  0.80159654  0.82001029  0.29416239  1.0
