# generated using pymatgen
data_Zn4H9C28S2BrCl4O13
_symmetry_space_group_name_H-M   'P 1'
_cell_length_a   18.38974261
_cell_length_b   19.62202441
_cell_length_c   32.68312580
_cell_angle_alpha   78.72617922
_cell_angle_beta   73.67150901
_cell_angle_gamma   62.13297558
_symmetry_Int_Tables_number   1
_chemical_formula_structural   Zn4H9C28S2BrCl4O13
_chemical_formula_sum   'Zn16 H36 C112 S8 Br4 Cl16 O52'
_cell_volume   9976.76451938
_cell_formula_units_Z   4
loop_
 _symmetry_equiv_pos_site_id
 _symmetry_equiv_pos_as_xyz
  1  'x, y, z'
loop_
 _atom_site_type_symbol
 _atom_site_label
 _atom_site_symmetry_multiplicity
 _atom_site_fract_x
 _atom_site_fract_y
 _atom_site_fract_z
 _atom_site_occupancy
  Zn  Zn0  1  0.57965733  0.54614013  0.48161302  1.0
  Zn  Zn1  1  0.47416742  0.48063506  0.56096186  1.0
  Zn  Zn2  1  0.54721369  0.39974973  0.47545280  1.0
  Zn  Zn3  1  0.39085199  0.56933843  0.48397645  1.0
  Zn  Zn4  1  0.19287235  0.18223501  0.26357518  1.0
  Zn  Zn5  1  0.17212509  0.34952731  0.27493461  1.0
  Zn  Zn6  1  0.28486727  0.26910044  0.18809502  1.0
  Zn  Zn7  1  0.34909736  0.20160192  0.27513022  1.0
  Zn  Zn8  1  0.77666105  0.75578182  0.68553041  1.0
  Zn  Zn9  1  0.85044918  0.68681225  0.77138360  1.0
  Zn  Zn10  1  0.67311982  0.70127926  0.77215762  1.0
  Zn  Zn11  1  0.70115930  0.85179318  0.77035360  1.0
  Zn  Zn12  1  0.07405374  0.90063866  0.97476271  1.0
  Zn  Zn13  1  0.88741819  0.04709101  0.98431797  1.0
  Zn  Zn14  1  0.05441209  0.06844037  0.97604155  1.0
  Zn  Zn15  1  0.98733536  0.98841340  0.06106109  1.0
  H  H16  1  0.25023864  0.95649761  0.33959281  1.0
  H  H17  1  0.71046209  0.97039525  0.59119133  1.0
  H  H18  1  0.98295654  0.44981866  0.37598907  1.0
  H  H19  1  0.93238566  0.49876354  0.33259501  1.0
  H  H20  1  0.79083302  0.54721498  0.38423202  1.0
  H  H21  1  0.84102092  0.49798523  0.42775544  1.0
  H  H22  1  0.97611517  0.66322404  0.57434463  1.0
  H  H23  1  0.97181189  0.75531752  0.57602324  1.0
  H  H24  1  0.11625456  0.71373995  0.52704741  1.0
  H  H25  1  0.11996811  0.62200029  0.52498134  1.0
  H  H26  1  0.68746816  0.75418163  0.57541490  1.0
  H  H27  1  0.77994013  0.66486628  0.57506989  1.0
  H  H28  1  0.73362527  0.61432017  0.52660324  1.0
  H  H29  1  0.64125327  0.70381763  0.52675580  1.0
  H  H30  1  0.46238930  0.20325955  0.36946981  1.0
  H  H31  1  0.50960748  0.24621322  0.32352470  1.0
  H  H32  1  0.55883976  0.29598885  0.37094185  1.0
  H  H33  1  0.51157406  0.25318882  0.41691124  1.0
  H  H34  1  0.15731571  0.66112284  0.03806875  1.0
  H  H35  1  0.97194003  0.09570699  0.16758971  1.0
  H  H36  1  0.06133456  0.00413844  0.16853204  1.0
  H  H37  1  0.11016171  0.05138548  0.21719070  1.0
  H  H38  1  0.02176082  0.14353881  0.21580674  1.0
  H  H39  1  0.62881069  0.19998904  0.03110478  1.0
  H  H40  1  0.62590125  0.11002073  0.03246821  1.0
  H  H41  1  0.48097675  0.16193508  0.08111932  1.0
  H  H42  1  0.48427681  0.25155463  0.08014193  1.0
  H  H43  1  0.75018094  0.29307151  0.90991475  1.0
  H  H44  1  0.72781066  0.00954695  0.92960158  1.0
  H  H45  1  0.77267694  0.05776124  0.88554919  1.0
  H  H46  1  0.72507017  0.01276571  0.83503746  1.0
  H  H47  1  0.67835069  0.96627321  0.87926675  1.0
  H  H48  1  0.32354268  0.74383594  0.91364730  1.0
  H  H49  1  0.27581921  0.78978702  0.86900912  1.0
  H  H50  1  0.41970546  0.74510710  0.81938121  1.0
  H  H51  1  0.46742068  0.69831541  0.86389616  1.0
  C  C52  1  0.56339287  0.56374381  0.57113631  1.0
  C  C53  1  0.55613773  0.31342714  0.55877387  1.0
  C  C54  1  0.70473552  0.41406211  0.43138461  1.0
  C  C55  1  0.40657049  0.45222413  0.43332959  1.0
  C  C56  1  0.45803861  0.68158888  0.43915352  1.0
  C  C57  1  0.29411267  0.57109424  0.56999895  1.0
  C  C58  1  0.03720254  0.30051882  0.31188509  1.0
  C  C59  1  0.18853605  0.43852550  0.19186597  1.0
  C  C60  1  0.20091975  0.18152866  0.17235990  1.0
  C  C61  1  0.46452314  0.18124226  0.18954688  1.0
  C  C62  1  0.31711847  0.06755522  0.31357756  1.0
  C  C63  1  0.29153285  0.33594388  0.32289394  1.0
  C  C64  1  0.95759277  0.67654199  0.68445250  1.0
  C  C65  1  0.79333296  0.56871741  0.81381325  1.0
  C  C66  1  0.67464705  0.67824019  0.68449477  1.0
  C  C67  1  0.54774391  0.83543274  0.81890591  1.0
  C  C68  1  0.69928455  0.92611393  0.68203394  1.0
  C  C69  1  0.82974082  0.81078025  0.81678214  1.0
  C  C70  1  0.94676807  0.91998921  0.92957254  1.0
  C  C71  1  0.90684122  0.18295584  0.93861583  1.0
  C  C72  1  0.20880682  0.94552530  0.93154368  1.0
  C  C73  1  0.08081448  0.07573236  0.05904563  1.0
  C  C74  1  0.06224930  0.81848377  0.06042017  1.0
  C  C75  1  0.80284989  0.06443379  0.07536852  1.0
  C  C76  1  0.47450915  0.80586032  0.40212810  1.0
  C  C77  1  0.30847869  0.94258230  0.34864294  1.0
  C  C78  1  0.43577666  0.75659774  0.41394316  1.0
  C  C79  1  0.34677573  0.99174655  0.33794443  1.0
  C  C80  1  0.35468776  0.87518855  0.37235153  1.0
  C  C81  1  0.42808394  0.87395437  0.37869318  1.0
  C  C82  1  0.57803474  0.22096763  0.62702219  1.0
  C  C83  1  0.68081946  0.01601532  0.61301433  1.0
  C  C84  1  0.58388613  0.23806681  0.58319643  1.0
  C  C85  1  0.67263559  0.00113012  0.65684710  1.0
  C  C86  1  0.64552472  0.09650302  0.60193302  1.0
  C  C87  1  0.61243966  0.14050443  0.63773520  1.0
  C  C88  1  0.95139128  0.32424875  0.34073686  1.0
  C  C89  1  0.78754184  0.38036088  0.40017392  1.0
  C  C90  1  0.91504514  0.39371651  0.35990796  1.0
  C  C91  1  0.82210612  0.30976144  0.38048168  1.0
  C  C92  1  0.83695535  0.42037646  0.38833036  1.0
  C  C93  1  0.90206482  0.28249706  0.35149258  1.0
  C  C94  1  0.92880573  0.46285390  0.36271031  1.0
  C  C95  1  0.84012126  0.49313311  0.39500469  1.0
  C  C96  1  0.04559118  0.64877606  0.65802762  1.0
  C  C97  1  0.21148134  0.60012734  0.60129118  1.0
  C  C98  1  0.05787613  0.66058146  0.61361386  1.0
  C  C99  1  0.20152010  0.58855678  0.64641126  1.0
  C  C100  1  0.13726354  0.63779874  0.58645196  1.0
  C  C101  1  0.12059489  0.61145684  0.67422893  1.0
  C  C102  1  0.01243180  0.69277690  0.57704139  1.0
  C  C103  1  0.10275533  0.66674063  0.54621071  1.0
  C  C104  1  0.64132090  0.64883306  0.65856859  1.0
  C  C105  1  0.58848007  0.59039468  0.60245456  1.0
  C  C106  1  0.66331700  0.65790148  0.61409571  1.0
  C  C107  1  0.56482990  0.57995200  0.64775035  1.0
  C  C108  1  0.63812007  0.62996183  0.58731070  1.0
  C  C109  1  0.58959141  0.60943165  0.67517439  1.0
  C  C110  1  0.71166439  0.69108491  0.57725793  1.0
  C  C111  1  0.68276091  0.65952041  0.54683959  1.0
  C  C112  1  0.31494856  0.37272583  0.34989462  1.0
  C  C113  1  0.37180746  0.43033387  0.40441873  1.0
  C  C114  1  0.39263641  0.33092519  0.36142683  1.0
  C  C115  1  0.29308800  0.47556384  0.39222102  1.0
  C  C116  1  0.41970457  0.35836628  0.38752600  1.0
  C  C117  1  0.26529933  0.44737611  0.36563813  1.0
  C  C118  1  0.47189409  0.25520531  0.35637030  1.0
  C  C119  1  0.50264504  0.28638322  0.38603206  1.0
  C  C120  1  0.11307246  0.58844080  0.18119716  1.0
  C  C121  1  0.13228805  0.67090571  0.07184605  1.0
  C  C122  1  0.16185399  0.51419765  0.16744510  1.0
  C  C123  1  0.08468984  0.74420835  0.08634407  1.0
  C  C124  1  0.14294798  0.61393855  0.10644628  1.0
  C  C125  1  0.10252248  0.64538761  0.14652463  1.0
  C  C126  1  0.11616055  0.10338655  0.08477821  1.0
  C  C127  1  0.17547759  0.15575658  0.14069245  1.0
  C  C128  1  0.09262423  0.09594205  0.12920392  1.0
  C  C129  1  0.20206703  0.16283749  0.09537305  1.0
  C  C130  1  0.12052001  0.12144699  0.15589677  1.0
  C  C131  1  0.17269901  0.13762775  0.06811438  1.0
  C  C132  1  0.04013834  0.06690745  0.16599448  1.0
  C  C133  1  0.07127785  0.09640806  0.19633117  1.0
  C  C134  1  0.72025120  0.09013817  0.10719594  1.0
  C  C135  1  0.55318659  0.14916166  0.16365505  1.0
  C  C136  1  0.64594708  0.12824477  0.09227338  1.0
  C  C137  1  0.62785510  0.10982500  0.18004281  1.0
  C  C138  1  0.56623813  0.15674697  0.11919803  1.0
  C  C139  1  0.70930439  0.08062680  0.15246867  1.0
  C  C140  1  0.61169261  0.15616034  0.05196231  1.0
  C  C141  1  0.52114414  0.18847833  0.08252623  1.0
  C  C142  1  0.88959620  0.44274067  0.85079445  1.0
  C  C143  1  0.80339911  0.30713063  0.90213607  1.0
  C  C144  1  0.81455015  0.49352441  0.83840796  1.0
  C  C145  1  0.87915532  0.25873298  0.91411079  1.0
  C  C146  1  0.80645545  0.37517456  0.87911728  1.0
  C  C147  1  0.88482647  0.37587307  0.87407285  1.0
  C  C148  1  0.92358660  0.88728496  0.90023065  1.0
  C  C149  1  0.86635374  0.83497658  0.84345921  1.0
  C  C150  1  0.84531370  0.93001777  0.88934550  1.0
  C  C151  1  0.94695401  0.79020367  0.85341200  1.0
  C  C152  1  0.81825815  0.90543390  0.86180929  1.0
  C  C153  1  0.97491025  0.81549468  0.88127696  1.0
  C  C154  1  0.76484953  0.00450745  0.89656296  1.0
  C  C155  1  0.73431457  0.97670100  0.86510816  1.0
  C  C156  1  0.29620022  0.92175654  0.90470916  1.0
  C  C157  1  0.46280529  0.86872589  0.84823090  1.0
  C  C158  1  0.33695587  0.85094282  0.88662035  1.0
  C  C159  1  0.42357892  0.94077946  0.86680046  1.0
  C  C160  1  0.41628797  0.82596307  0.85932056  1.0
  C  C161  1  0.34222742  0.96659271  0.89441702  1.0
  C  C162  1  0.32760108  0.77948027  0.88347247  1.0
  C  C163  1  0.41770474  0.75118200  0.85241548  1.0
  S  S164  1  0.34266470  0.79359446  0.39591129  1.0
  S  S165  1  0.43920470  0.95644077  0.35625861  1.0
  S  S166  1  0.63185956  0.15510603  0.55527706  1.0
  S  S167  1  0.62286417  0.08382166  0.68481477  1.0
  S  S168  1  0.19438269  0.51453968  0.11187111  1.0
  S  S169  1  0.05217389  0.74465516  0.14178223  1.0
  S  S170  1  0.73826455  0.45867661  0.85550266  1.0
  S  S171  1  0.95408401  0.29473010  0.89760870  1.0
  Br  Br172  1  0.57570476  0.78855150  0.41471405  1.0
  Br  Br173  1  0.52979908  0.29135324  0.66938840  1.0
  Br  Br174  1  0.06554499  0.61559313  0.23795593  1.0
  Br  Br175  1  0.98806528  0.45598074  0.84054339  1.0
  Cl  Cl176  1  0.76784044  0.25463598  0.39017258  1.0
  Cl  Cl177  1  0.93684326  0.19781498  0.32843604  1.0
  Cl  Cl178  1  0.28837790  0.54933069  0.66868672  1.0
  Cl  Cl179  1  0.11728657  0.59044780  0.72813496  1.0
  Cl  Cl180  1  0.50781332  0.52820168  0.67134769  1.0
  Cl  Cl181  1  0.55344231  0.59638999  0.72933416  1.0
  Cl  Cl182  1  0.22881102  0.56751872  0.40847616  1.0
  Cl  Cl183  1  0.17032030  0.50765292  0.35170966  1.0
  Cl  Cl184  1  0.27328225  0.20024421  0.07151989  1.0
  Cl  Cl185  1  0.21069546  0.14634548  0.01390209  1.0
  Cl  Cl186  1  0.62288528  0.09703254  0.23420133  1.0
  Cl  Cl187  1  0.79499362  0.03054839  0.17576945  1.0
  Cl  Cl188  1  0.01505298  0.70488156  0.82998601  1.0
  Cl  Cl189  1  0.07246083  0.75485308  0.89224346  1.0
  Cl  Cl190  1  0.47246229  0.00067566  0.85591071  1.0
  Cl  Cl191  1  0.30187194  0.05313194  0.91646887  1.0
  O  O192  1  0.50004644  0.50019210  0.49858224  1.0
  O  O193  1  0.60805333  0.55941105  0.53290663  1.0
  O  O194  1  0.53557416  0.37207316  0.57852138  1.0
  O  O195  1  0.66475883  0.37338701  0.44620857  1.0
  O  O196  1  0.49962865  0.54940318  0.58410658  1.0
  O  O197  1  0.68168479  0.48265124  0.44089878  1.0
  O  O198  1  0.55551494  0.31367644  0.51960897  1.0
  O  O199  1  0.48280327  0.40510512  0.43537089  1.0
  O  O200  1  0.40352820  0.65502378  0.44561459  1.0
  O  O201  1  0.36018810  0.51243336  0.45370911  1.0
  O  O202  1  0.52667342  0.65016021  0.45212709  1.0
  O  O203  1  0.35365421  0.50843251  0.58059922  1.0
  O  O204  1  0.29717776  0.61019653  0.53381555  1.0
  O  O205  1  0.24924550  0.25031742  0.25012432  1.0
  O  O206  1  0.08085202  0.23097938  0.30191037  1.0
  O  O207  1  0.16033672  0.43729756  0.23224405  1.0
  O  O208  1  0.23685152  0.22590166  0.15928982  1.0
  O  O209  1  0.05996637  0.35511604  0.30031195  1.0
  O  O210  1  0.18208711  0.15630015  0.21119828  1.0
  O  O211  1  0.23827361  0.38012912  0.16976587  1.0
  O  O212  1  0.40805597  0.22396819  0.16801603  1.0
  O  O213  1  0.35598684  0.10802160  0.31216184  1.0
  O  O214  1  0.45122788  0.16380944  0.22955725  1.0
  O  O215  1  0.25573500  0.08593102  0.29613595  1.0
  O  O216  1  0.21527602  0.36335511  0.31996516  1.0
  O  O217  1  0.35322666  0.27642397  0.30520833  1.0
  O  O218  1  0.74915997  0.75016154  0.74818627  1.0
  O  O219  1  0.89962845  0.69830718  0.66375054  1.0
  O  O220  1  0.85392800  0.58690117  0.79633722  1.0
  O  O221  1  0.66243680  0.66212009  0.72460888  1.0
  O  O222  1  0.94651375  0.67799695  0.72448902  1.0
  O  O223  1  0.71503905  0.71688382  0.66310176  1.0
  O  O224  1  0.71577238  0.60938887  0.81181733  1.0
  O  O225  1  0.56350246  0.77556130  0.80143684  1.0
  O  O226  1  0.67763401  0.93052406  0.72261562  1.0
  O  O227  1  0.59740431  0.86614650  0.81381798  1.0
  O  O228  1  0.74047310  0.86492917  0.66185039  1.0
  O  O229  1  0.85135544  0.73906746  0.81654627  1.0
  O  O230  1  0.77591729  0.86594863  0.79736719  1.0
  O  O231  1  0.99852216  0.00081826  0.99894292  1.0
  O  O232  1  0.02355571  0.89153658  0.93183852  1.0
  O  O233  1  0.85745255  0.15041353  0.95183670  1.0
  O  O234  1  0.16111638  0.01708166  0.93559355  1.0
  O  O235  1  0.88512388  0.97659093  0.94970056  1.0
  O  O236  1  0.18847856  0.89014257  0.94740393  1.0
  O  O237  1  0.98173150  0.15656489  0.94427134  1.0
  O  O238  1  0.07465982  0.10582500  0.02127163  1.0
  O  O239  1  0.02062268  0.87916254  0.08130170  1.0
  O  O240  1  0.05715862  0.02382969  0.07863037  1.0
  O  O241  1  0.08659023  0.81560807  0.01988962  1.0
  O  O242  1  0.79896398  0.06072272  0.03742063  1.0
  O  O243  1  0.86872531  0.05053955  0.08747379  1.0
