# generated using pymatgen
data_Zn2H24C37(N2O3)3
_symmetry_space_group_name_H-M   'P 1'
_cell_length_a   11.44225623
_cell_length_b   20.13317300
_cell_length_c   29.51034606
_cell_angle_alpha   89.99994854
_cell_angle_beta   98.88268012
_cell_angle_gamma   89.99992810
_symmetry_Int_Tables_number   1
_chemical_formula_structural   Zn2H24C37(N2O3)3
_chemical_formula_sum   'Zn8 H96 C148 N24 O36'
_cell_volume   6716.73226026
_cell_formula_units_Z   4
loop_
 _symmetry_equiv_pos_site_id
 _symmetry_equiv_pos_as_xyz
  1  'x, y, z'
loop_
 _atom_site_type_symbol
 _atom_site_label
 _atom_site_symmetry_multiplicity
 _atom_site_fract_x
 _atom_site_fract_y
 _atom_site_fract_z
 _atom_site_occupancy
  Zn  Zn0  1  0.45184236  0.92293953  0.45411340  1.0
  Zn  Zn1  1  0.46457065  0.57825609  0.54241006  1.0
  Zn  Zn2  1  0.54815899  0.42293810  0.04588621  1.0
  Zn  Zn3  1  0.53543156  0.07825562  0.95759055  1.0
  Zn  Zn4  1  0.54815722  0.07706134  0.54588675  1.0
  Zn  Zn5  1  0.53543069  0.42174428  0.45758985  1.0
  Zn  Zn6  1  0.45184234  0.57706078  0.95411268  1.0
  Zn  Zn7  1  0.46456978  0.92174376  0.04241038  1.0
  H  H8  1  0.60421004  0.60701968  0.29225026  1.0
  H  H9  1  0.61832972  0.60796493  0.22442897  1.0
  H  H10  1  0.44136901  0.69798741  0.45550436  1.0
  H  H11  1  0.54745346  0.56559300  0.35500277  1.0
  H  H12  1  0.52845303  0.77748611  0.32928139  1.0
  H  H13  1  0.57678138  0.56561101  0.15424840  1.0
  H  H14  1  0.47773964  0.69614742  0.03926088  1.0
  H  H15  1  0.54978415  0.77756418  0.17572306  1.0
  H  H16  1  0.68505656  0.89077855  0.52420411  1.0
  H  H17  1  0.90215213  0.88863623  0.52391984  1.0
  H  H18  1  0.83276165  0.95624119  0.38317289  1.0
  H  H19  1  0.61828299  0.95746065  0.39022262  1.0
  H  H20  1  0.05700526  0.83892109  0.49857142  1.0
  H  H21  1  0.27348170  0.84225829  0.49395998  1.0
  H  H22  1  0.23114521  0.99778924  0.40192115  1.0
  H  H23  1  0.01261710  0.00252146  0.40245874  1.0
  H  H24  1  0.68501495  0.51845169  0.59772516  1.0
  H  H25  1  0.90347411  0.51666103  0.60076963  1.0
  H  H26  1  0.85669821  0.65249814  0.48571620  1.0
  H  H27  1  0.64106024  0.65089191  0.48942257  1.0
  H  H28  1  0.05378854  0.48127796  0.56960519  1.0
  H  H29  1  0.27267692  0.48290306  0.57028687  1.0
  H  H30  1  0.26195265  0.67080344  0.51428287  1.0
  H  H31  1  0.04305695  0.67966849  0.51290304  1.0
  H  H32  1  0.39578944  0.10701914  0.20775011  1.0
  H  H33  1  0.38167154  0.10796530  0.27557116  1.0
  H  H34  1  0.55863202  0.19798746  0.04449537  1.0
  H  H35  1  0.45254524  0.06559300  0.14499657  1.0
  H  H36  1  0.47154515  0.27748556  0.17071846  1.0
  H  H37  1  0.42322087  0.06561126  0.34575148  1.0
  H  H38  1  0.52225962  0.19614795  0.46073875  1.0
  H  H39  1  0.45021491  0.27756543  0.32427650  1.0
  H  H40  1  0.31494487  0.39077870  0.97579627  1.0
  H  H41  1  0.09784930  0.38863605  0.97608020  1.0
  H  H42  1  0.16723785  0.45624193  0.11682693  1.0
  H  H43  1  0.38171650  0.45746124  0.10977754  1.0
  H  H44  1  0.94299365  0.33892142  0.00142810  1.0
  H  H45  1  0.72651719  0.34225927  0.00603987  1.0
  H  H46  1  0.76885418  0.49778957  0.09807864  1.0
  H  H47  1  0.98738176  0.50252248  0.09754064  1.0
  H  H48  1  0.31498652  0.01845244  0.90227443  1.0
  H  H49  1  0.09652826  0.01666195  0.89923001  1.0
  H  H50  1  0.14330028  0.15249753  0.01428374  1.0
  H  H51  1  0.35893914  0.15089165  0.01057777  1.0
  H  H52  1  0.94621266  0.98127808  0.93039444  1.0
  H  H53  1  0.72732427  0.98290284  0.92971310  1.0
  H  H54  1  0.73804844  0.17080328  0.98571762  1.0
  H  H55  1  0.95694324  0.17966818  0.98709706  1.0
  H  H56  1  0.39579041  0.39298069  0.70775028  1.0
  H  H57  1  0.38167251  0.39203495  0.77557133  1.0
  H  H58  1  0.55863233  0.30201296  0.54449522  1.0
  H  H59  1  0.45254611  0.43440737  0.64499670  1.0
  H  H60  1  0.47154743  0.22251426  0.67071847  1.0
  H  H61  1  0.42322085  0.43438837  0.84575157  1.0
  H  H62  1  0.52225993  0.30385146  0.96073893  1.0
  H  H63  1  0.45021631  0.22243420  0.82427646  1.0
  H  H64  1  0.31494390  0.10922282  0.47579677  1.0
  H  H65  1  0.09784833  0.11136513  0.47608070  1.0
  H  H66  1  0.16723616  0.04375669  0.61682682  1.0
  H  H67  1  0.38171569  0.04253724  0.60977782  1.0
  H  H68  1  0.94299432  0.16107928  0.50142873  1.0
  H  H69  1  0.72651698  0.15774158  0.50604079  1.0
  H  H70  1  0.76885436  0.00221013  0.59807900  1.0
  H  H71  1  0.98738247  0.99747742  0.59754107  1.0
  H  H72  1  0.31498462  0.48154768  0.40227499  1.0
  H  H73  1  0.09652724  0.48333735  0.39923062  1.0
  H  H74  1  0.14330136  0.34750124  0.51428497  1.0
  H  H75  1  0.35894110  0.34910697  0.51057837  1.0
  H  H76  1  0.94621280  0.51872191  0.43039506  1.0
  H  H77  1  0.72732442  0.51709731  0.42971305  1.0
  H  H78  1  0.73804692  0.32919643  0.48571796  1.0
  H  H79  1  0.95694351  0.32033138  0.48709818  1.0
  H  H80  1  0.60420924  0.89298173  0.79224999  1.0
  H  H81  1  0.61832715  0.89203507  0.72442826  1.0
  H  H82  1  0.44136667  0.80201241  0.95550472  1.0
  H  H83  1  0.54745433  0.93440737  0.85500392  1.0
  H  H84  1  0.52845442  0.72251531  0.82928169  1.0
  H  H85  1  0.57677694  0.93438812  0.65424856  1.0
  H  H86  1  0.47774083  0.80385242  0.53926078  1.0
  H  H87  1  0.54978289  0.72243444  0.67572320  1.0
  H  H88  1  0.68505558  0.60922216  0.02420360  1.0
  H  H89  1  0.90215204  0.61136382  0.02392006  1.0
  H  H90  1  0.83276349  0.54375745  0.88317298  1.0
  H  H91  1  0.61828661  0.54253863  0.89022316  1.0
  H  H92  1  0.05700592  0.66107795  0.99857138  1.0
  H  H93  1  0.27348238  0.65774159  0.99395960  1.0
  H  H94  1  0.23114627  0.50221080  0.90192122  1.0
  H  H95  1  0.01261780  0.49747789  0.90245883  1.0
  H  H96  1  0.68501481  0.98154693  0.09772515  1.0
  H  H97  1  0.90347308  0.98333743  0.10076991  1.0
  H  H98  1  0.85670018  0.84750234  0.98571544  1.0
  H  H99  1  0.64106132  0.84910822  0.98942175  1.0
  H  H100  1  0.05378602  0.01872229  0.06960498  1.0
  H  H101  1  0.27267441  0.01709753  0.07028700  1.0
  H  H102  1  0.26195378  0.82919758  0.01428235  1.0
  H  H103  1  0.04305810  0.82033170  0.01290252  1.0
  C  C104  1  0.46548273  0.81302791  0.41062190  1.0
  C  C105  1  0.48343421  0.74389922  0.39383945  1.0
  C  C106  1  0.46833623  0.68977014  0.42211304  1.0
  C  C107  1  0.49166733  0.62559744  0.40770935  1.0
  C  C108  1  0.52948366  0.61618563  0.36539111  1.0
  C  C109  1  0.54254265  0.67025660  0.33666016  1.0
  C  C110  1  0.51913686  0.73473973  0.35092521  1.0
  C  C111  1  0.48028149  0.56672047  0.43792810  1.0
  C  C112  1  0.56335427  0.69230881  0.25452693  1.0
  C  C113  1  0.56585847  0.67032723  0.17110406  1.0
  C  C114  1  0.55888481  0.61593195  0.14114153  1.0
  C  C115  1  0.52573354  0.62463355  0.09396616  1.0
  C  C116  1  0.50222666  0.68842680  0.07606528  1.0
  C  C117  1  0.51305134  0.74295618  0.10582369  1.0
  C  C118  1  0.54393583  0.73449250  0.15329702  1.0
  C  C119  1  0.51326158  0.56507367  0.06310408  1.0
  C  C120  1  0.49221255  0.81157082  0.08632407  1.0
  C  C121  1  0.72160324  0.90568728  0.49374010  1.0
  C  C122  1  0.84285343  0.90373176  0.49315253  1.0
  C  C123  1  0.88727187  0.92260262  0.45330402  1.0
  C  C124  1  0.80474274  0.94270084  0.41558777  1.0
  C  C125  1  0.68500436  0.94334410  0.41907068  1.0
  C  C126  1  0.01529458  0.92121169  0.45109185  1.0
  C  C127  1  0.09131136  0.87572304  0.47693378  1.0
  C  C128  1  0.21169029  0.87681721  0.47445607  1.0
  C  C129  1  0.18764814  0.96349659  0.42257999  1.0
  C  C130  1  0.06634549  0.96550824  0.42306922  1.0
  C  C131  1  0.72719064  0.54692361  0.57334124  1.0
  C  C132  1  0.84897229  0.54597885  0.57457752  1.0
  C  C133  1  0.90003564  0.58332866  0.54256381  1.0
  C  C134  1  0.82342920  0.62221080  0.51156116  1.0
  C  C135  1  0.70244468  0.62081067  0.51288495  1.0
  C  C136  1  0.02867807  0.58116389  0.54180392  1.0
  C  C137  1  0.09584441  0.52516572  0.55772400  1.0
  C  C138  1  0.21730948  0.52513488  0.55774188  1.0
  C  C139  1  0.21108096  0.63027333  0.52616113  1.0
  C  C140  1  0.08945803  0.63439145  0.52537854  1.0
  C  C141  1  0.53451890  0.31302743  0.08937881  1.0
  C  C142  1  0.51656582  0.24389873  0.10616087  1.0
  C  C143  1  0.53166305  0.18976967  0.07788693  1.0
  C  C144  1  0.50833034  0.12559896  0.09228989  1.0
  C  C145  1  0.47051315  0.11618562  0.13460842  1.0
  C  C146  1  0.45745491  0.17025607  0.16333972  1.0
  C  C147  1  0.48086230  0.23473970  0.14907472  1.0
  C  C148  1  0.51971810  0.06672102  0.06207162  1.0
  C  C149  1  0.43664589  0.19230968  0.24547241  1.0
  C  C150  1  0.43414263  0.17032750  0.32889637  1.0
  C  C151  1  0.44111731  0.11593317  0.35885764  1.0
  C  C152  1  0.47426855  0.12463419  0.40603367  1.0
  C  C153  1  0.49777351  0.18842739  0.42393440  1.0
  C  C154  1  0.48694869  0.24295781  0.39417596  1.0
  C  C155  1  0.45606422  0.23449322  0.34670229  1.0
  C  C156  1  0.48673978  0.06507375  0.43689507  1.0
  C  C157  1  0.50778642  0.31157192  0.41367547  1.0
  C  C158  1  0.27839815  0.40568808  0.00626020  1.0
  C  C159  1  0.15714708  0.40373265  0.00684738  1.0
  C  C160  1  0.11272860  0.42260348  0.04669588  1.0
  C  C161  1  0.19525679  0.44270160  0.08441206  1.0
  C  C162  1  0.31499517  0.44334478  0.08092949  1.0
  C  C163  1  0.98470501  0.42121243  0.04890766  1.0
  C  C164  1  0.90868833  0.37572436  0.02306542  1.0
  C  C165  1  0.78830940  0.37681812  0.02554279  1.0
  C  C166  1  0.81235133  0.46349642  0.07741982  1.0
  C  C167  1  0.93365310  0.46550848  0.07693054  1.0
  C  C168  1  0.27281076  0.04692336  0.92665867  1.0
  C  C169  1  0.15102823  0.04597919  0.92542200  1.0
  C  C170  1  0.09996479  0.08332899  0.95743602  1.0
  C  C171  1  0.17657202  0.12221055  0.98843902  1.0
  C  C172  1  0.29755478  0.12081082  0.98711479  1.0
  C  C173  1  0.97132325  0.08116360  0.95819562  1.0
  C  C174  1  0.90415705  0.02516501  0.94227592  1.0
  C  C175  1  0.78269198  0.02513475  0.94225838  1.0
  C  C176  1  0.78892024  0.13027265  0.97383905  1.0
  C  C177  1  0.91054315  0.13439119  0.97462164  1.0
  C  C178  1  0.53451950  0.18697196  0.58937841  1.0
  C  C179  1  0.51656801  0.25610115  0.60616119  1.0
  C  C180  1  0.53166334  0.31023023  0.57788677  1.0
  C  C181  1  0.50833047  0.37440144  0.59228968  1.0
  C  C182  1  0.47051414  0.38381474  0.63460826  1.0
  C  C183  1  0.45745692  0.32974427  0.66333965  1.0
  C  C184  1  0.48086536  0.26526064  0.64907442  1.0
  C  C185  1  0.51971808  0.43327990  0.56207137  1.0
  C  C186  1  0.43664618  0.30769057  0.74547259  1.0
  C  C187  1  0.43414375  0.32967264  0.82889625  1.0
  C  C188  1  0.44111741  0.38406643  0.85885776  1.0
  C  C189  1  0.47426780  0.37536582  0.90603375  1.0
  C  C190  1  0.49777380  0.31157208  0.92393458  1.0
  C  C191  1  0.48694823  0.25704220  0.89417613  1.0
  C  C192  1  0.45606462  0.26550638  0.84670217  1.0
  C  C193  1  0.48674064  0.43492521  0.93689521  1.0
  C  C194  1  0.50778525  0.18842806  0.91367564  1.0
  C  C195  1  0.27839722  0.09431309  0.50626044  1.0
  C  C196  1  0.15714614  0.09626811  0.50684796  1.0
  C  C197  1  0.11272771  0.07739676  0.54669579  1.0
  C  C198  1  0.19525683  0.05729704  0.58441238  1.0
  C  C199  1  0.31499433  0.05665428  0.58092908  1.0
  C  C200  1  0.98470499  0.07878719  0.54890830  1.0
  C  C201  1  0.90868909  0.12427683  0.52306574  1.0
  C  C202  1  0.78830840  0.12318216  0.52554436  1.0
  C  C203  1  0.81235143  0.03650329  0.57742050  1.0
  C  C204  1  0.93365408  0.03449114  0.57693059  1.0
  C  C205  1  0.27281247  0.45307477  0.42666014  1.0
  C  C206  1  0.15102640  0.45401953  0.42542292  1.0
  C  C207  1  0.09996482  0.41667072  0.45743707  1.0
  C  C208  1  0.17657303  0.37778808  0.48844016  1.0
  C  C209  1  0.29755401  0.37918920  0.48711447  1.0
  C  C210  1  0.97132238  0.41883549  0.45819628  1.0
  C  C211  1  0.90415693  0.47483415  0.44227592  1.0
  C  C212  1  0.78269098  0.47486499  0.44225798  1.0
  C  C213  1  0.78891950  0.36972704  0.47383975  1.0
  C  C214  1  0.91054242  0.36560892  0.47462234  1.0
  C  C215  1  0.46548067  0.68697244  0.91062134  1.0
  C  C216  1  0.48343376  0.75610114  0.89383928  1.0
  C  C217  1  0.46833475  0.81023020  0.92211277  1.0
  C  C218  1  0.49166658  0.87440141  0.90771045  1.0
  C  C219  1  0.52948377  0.88381524  0.86539157  1.0
  C  C220  1  0.54254378  0.82974479  0.83666071  1.0
  C  C221  1  0.51913815  0.76526117  0.85092548  1.0
  C  C222  1  0.48028059  0.93327935  0.93792881  1.0
  C  C223  1  0.56335015  0.80768920  0.75452753  1.0
  C  C224  1  0.56585429  0.82967188  0.67110464  1.0
  C  C225  1  0.55888049  0.88406770  0.64114173  1.0
  C  C226  1  0.52573102  0.87536668  0.59396681  1.0
  C  C227  1  0.50222694  0.81157298  0.57606512  1.0
  C  C228  1  0.51305088  0.75704305  0.60582419  1.0
  C  C229  1  0.54393358  0.76550665  0.65329741  1.0
  C  C230  1  0.51325802  0.93492612  0.56310463  1.0
  C  C231  1  0.49221315  0.68842895  0.58632434  1.0
  C  C232  1  0.72160231  0.59431328  0.99374102  1.0
  C  C233  1  0.84285249  0.59626872  0.99315209  1.0
  C  C234  1  0.88727186  0.57739689  0.95330466  1.0
  C  C235  1  0.80474367  0.55729827  0.91558916  1.0
  C  C236  1  0.68500617  0.55665510  0.91907042  1.0
  C  C237  1  0.01529545  0.57878744  0.95109221  1.0
  C  C238  1  0.09131124  0.62427650  0.97693405  1.0
  C  C239  1  0.21169105  0.62318274  0.97445606  1.0
  C  C240  1  0.18764912  0.53650345  0.92258004  1.0
  C  C241  1  0.06634559  0.53449140  0.92306956  1.0
  C  C242  1  0.72719058  0.95307552  0.07334091  1.0
  C  C243  1  0.84897222  0.95402018  0.07457753  1.0
  C  C244  1  0.90003567  0.91667038  0.04256317  1.0
  C  C245  1  0.82342843  0.87778883  0.01156050  1.0
  C  C246  1  0.70244568  0.87918855  0.01288474  1.0
  C  C247  1  0.02867721  0.91883627  0.04180391  1.0
  C  C248  1  0.09584341  0.97483487  0.05772394  1.0
  C  C249  1  0.21730847  0.97486562  0.05774216  1.0
  C  C250  1  0.21108110  0.86972821  0.02616053  1.0
  C  C251  1  0.08945819  0.86560918  0.02537794  1.0
  N  N252  1  0.58176872  0.65547057  0.29494893  1.0
  N  N253  1  0.59619340  0.65628668  0.21814554  1.0
  N  N254  1  0.64374992  0.92543782  0.45753699  1.0
  N  N255  1  0.25944702  0.92038213  0.44806002  1.0
  N  N256  1  0.65458250  0.58275407  0.54260374  1.0
  N  N257  1  0.27444905  0.57683065  0.54249382  1.0
  N  N258  1  0.41822976  0.15547002  0.20505101  1.0
  N  N259  1  0.40380774  0.15628703  0.28185422  1.0
  N  N260  1  0.35625054  0.42543902  0.04246324  1.0
  N  N261  1  0.74055257  0.42038354  0.05194017  1.0
  N  N262  1  0.34541882  0.08275374  0.95739647  1.0
  N  N263  1  0.72555229  0.07683054  0.95750674  1.0
  N  N264  1  0.41823174  0.34452980  0.70505093  1.0
  N  N265  1  0.40380794  0.34371319  0.78185438  1.0
  N  N266  1  0.35624966  0.07456156  0.54246383  1.0
  N  N267  1  0.74055344  0.07961774  0.55194019  1.0
  N  N268  1  0.34541619  0.41724580  0.45739669  1.0
  N  N269  1  0.72555141  0.42316922  0.45750638  1.0
  N  N270  1  0.58176892  0.84453085  0.79494909  1.0
  N  N271  1  0.59618918  0.84371384  0.71814543  1.0
  N  N272  1  0.64374991  0.57456235  0.95753662  1.0
  N  N273  1  0.25944700  0.57961733  0.94805964  1.0
  N  N274  1  0.65458252  0.91724564  0.04260344  1.0
  N  N275  1  0.27444817  0.92316983  0.04249347  1.0
  O  O276  1  0.46323401  0.86227253  0.38393512  1.0
  O  O277  1  0.45587078  0.81940592  0.45342884  1.0
  O  O278  1  0.45149928  0.57059843  0.02382680  1.0
  O  O279  1  0.56493934  0.51186295  0.07937207  1.0
  O  O280  1  0.42442281  0.57372184  0.47148591  1.0
  O  O281  1  0.52807444  0.51281688  0.42689292  1.0
  O  O282  1  0.46326016  0.81648464  0.04242947  1.0
  O  O283  1  0.50435344  0.86208494  0.11213908  1.0
  O  O284  1  0.52412956  0.74915779  0.25140070  1.0
  O  O285  1  0.53676749  0.36227151  0.11606522  1.0
  O  O286  1  0.54412994  0.31940499  0.04657114  1.0
  O  O287  1  0.54850207  0.07059792  0.47617269  1.0
  O  O288  1  0.43506216  0.01186359  0.42062747  1.0
  O  O289  1  0.57557765  0.07372191  0.02851454  1.0
  O  O290  1  0.47192617  0.01281696  0.07310758  1.0
  O  O291  1  0.53673881  0.31648417  0.45757074  1.0
  O  O292  1  0.49564807  0.36208608  0.38786159  1.0
  O  O293  1  0.47586868  0.24915763  0.24859815  1.0
  O  O294  1  0.53676733  0.13772784  0.61606480  1.0
  O  O295  1  0.54413056  0.18059495  0.54657108  1.0
  O  O296  1  0.54850383  0.42940194  0.97617220  1.0
  O  O297  1  0.43506200  0.48813692  0.92062683  1.0
  O  O298  1  0.57557676  0.42627853  0.52851390  1.0
  O  O299  1  0.47192602  0.48718349  0.57310728  1.0
  O  O300  1  0.53673941  0.18351473  0.95757000  1.0
  O  O301  1  0.49564437  0.13791393  0.88786063  1.0
  O  O302  1  0.47587001  0.25084209  0.74859843  1.0
  O  O303  1  0.46323296  0.63772786  0.88393465  1.0
  O  O304  1  0.45586875  0.68059488  0.95342862  1.0
  O  O305  1  0.45149485  0.92940344  0.52382764  1.0
  O  O306  1  0.56493742  0.98813727  0.57937302  1.0
  O  O307  1  0.42442193  0.92627846  0.97148628  1.0
  O  O308  1  0.52807517  0.98718291  0.92689336  1.0
  O  O309  1  0.46326165  0.68351521  0.54242946  1.0
  O  O310  1  0.50435327  0.63791528  0.61213934  1.0
  O  O311  1  0.52412912  0.75084522  0.75140257  1.0
