# generated using pymatgen
data_Zn4C24S4Br4N4O21
_symmetry_space_group_name_H-M   'P 1'
_cell_length_a   19.45216097
_cell_length_b   19.48704737
_cell_length_c   33.02192481
_cell_angle_alpha   79.44953107
_cell_angle_beta   79.54535316
_cell_angle_gamma   64.11917573
_symmetry_Int_Tables_number   1
_chemical_formula_structural   Zn4C24S4Br4N4O21
_chemical_formula_sum   'Zn16 C96 S16 Br16 N16 O84'
_cell_volume   10998.42508920
_cell_formula_units_Z   4
loop_
 _symmetry_equiv_pos_site_id
 _symmetry_equiv_pos_as_xyz
  1  'x, y, z'
loop_
 _atom_site_type_symbol
 _atom_site_label
 _atom_site_symmetry_multiplicity
 _atom_site_fract_x
 _atom_site_fract_y
 _atom_site_fract_z
 _atom_site_occupancy
  Zn  Zn0  1  0.59734503  0.94121739  0.52489570  1.0
  Zn  Zn1  1  0.51150432  0.01834641  0.43988902  1.0
  Zn  Zn2  1  0.44198311  0.93668434  0.51726369  1.0
  Zn  Zn3  1  0.45052081  0.10107960  0.51995424  1.0
  Zn  Zn4  1  0.64820777  0.30297182  0.73115824  1.0
  Zn  Zn5  1  0.81685799  0.30380672  0.73534433  1.0
  Zn  Zn6  1  0.73033596  0.23564733  0.81113091  1.0
  Zn  Zn7  1  0.80499028  0.15320887  0.72558016  1.0
  Zn  Zn8  1  0.23114012  0.73808880  0.31130576  1.0
  Zn  Zn9  1  0.30616849  0.65186331  0.22709968  1.0
  Zn  Zn10  1  0.14867308  0.80216896  0.23094370  1.0
  Zn  Zn11  1  0.31716470  0.80386311  0.23515734  1.0
  Zn  Zn12  1  0.94232331  0.43611201  0.01692364  1.0
  Zn  Zn13  1  0.94888724  0.60040496  0.02115332  1.0
  Zn  Zn14  1  0.09683926  0.44174945  0.02478661  1.0
  Zn  Zn15  1  0.00844262  0.52128626  0.93989927  1.0
  C  C16  1  0.67776467  0.93684333  0.44122948  1.0
  C  C17  1  0.43007660  0.93161976  0.43373823  1.0
  C  C18  1  0.56008084  0.81422084  0.56328141  1.0
  C  C19  1  0.32244542  0.06199060  0.55973730  1.0
  C  C20  1  0.57143375  0.06568206  0.56829495  1.0
  C  C21  1  0.44146622  0.18398327  0.43791296  1.0
  C  C22  1  0.69197151  0.42748016  0.69232382  1.0
  C  C23  1  0.81729113  0.31601671  0.81973894  1.0
  C  C24  1  0.56410235  0.31004997  0.81292058  1.0
  C  C25  1  0.80837168  0.07094166  0.80897019  1.0
  C  C26  1  0.68003150  0.18469198  0.68187080  1.0
  C  C27  1  0.93596150  0.18628279  0.68911864  1.0
  C  C28  1  0.31028067  0.57201821  0.31043935  1.0
  C  C29  1  0.18246389  0.68206590  0.18206021  1.0
  C  C30  1  0.06519934  0.80948023  0.31294844  1.0
  C  C31  1  0.19166174  0.92730973  0.19228460  1.0
  C  C32  1  0.31833241  0.81837122  0.31892395  1.0
  C  C33  1  0.43627436  0.68596132  0.18920796  1.0
  C  C34  1  0.82264664  0.55978332  0.06017195  1.0
  C  C35  1  0.07067838  0.56729421  0.06766929  1.0
  C  C36  1  0.06046061  0.31421728  0.06319654  1.0
  C  C37  1  0.17572969  0.43979177  0.94041259  1.0
  C  C38  1  0.93017307  0.43104717  0.93323469  1.0
  C  C39  1  0.93600543  0.68557827  0.93905137  1.0
  C  C40  1  0.59892370  0.09553869  0.59818782  1.0
  C  C41  1  0.65157220  0.15359028  0.65312536  1.0
  C  C42  1  0.55080921  0.16615687  0.61374312  1.0
  C  C43  1  0.69718588  0.07997469  0.64030889  1.0
  C  C44  1  0.57911976  0.19735500  0.63845857  1.0
  C  C45  1  0.67324717  0.05397963  0.61072732  1.0
  C  C46  1  0.40182595  0.90188535  0.40421671  1.0
  C  C47  1  0.34706400  0.84751482  0.34850627  1.0
  C  C48  1  0.35921744  0.85752267  0.41931575  1.0
  C  C49  1  0.38519063  0.89589106  0.33349413  1.0
  C  C50  1  0.33659524  0.82637236  0.39162255  1.0
  C  C51  1  0.41701271  0.91844968  0.36084472  1.0
  C  C52  1  0.54717976  0.68851207  0.59996821  1.0
  C  C53  1  0.70907650  0.54826058  0.65099348  1.0
  C  C54  1  0.58513791  0.73631735  0.58657776  1.0
  C  C55  1  0.67045988  0.50120830  0.66487916  1.0
  C  C56  1  0.66305691  0.61818221  0.62879460  1.0
  C  C57  1  0.59101243  0.62144459  0.62491797  1.0
  C  C58  1  0.42127292  0.27727802  0.36878069  1.0
  C  C59  1  0.32208793  0.47911598  0.37949623  1.0
  C  C60  1  0.41350952  0.25886077  0.41165325  1.0
  C  C61  1  0.33088000  0.49710190  0.33663631  1.0
  C  C62  1  0.35793375  0.39900135  0.39154582  1.0
  C  C63  1  0.39096070  0.35757349  0.35718149  1.0
  C  C64  1  0.77015370  0.92677737  0.37212771  1.0
  C  C65  1  0.97261953  0.82828892  0.38224657  1.0
  C  C66  1  0.75263354  0.91702482  0.41498555  1.0
  C  C67  1  0.99044558  0.83687783  0.33936385  1.0
  C  C68  1  0.89231382  0.85796129  0.39409153  1.0
  C  C69  1  0.85028113  0.89140816  0.35989567  1.0
  C  C70  1  0.20073141  0.15931892  0.60044274  1.0
  C  C71  1  0.05381385  0.09320753  0.64433345  1.0
  C  C72  1  0.24472618  0.09082374  0.58329306  1.0
  C  C73  1  0.00993709  0.16128168  0.66194081  1.0
  C  C74  1  0.12486973  0.09110037  0.62351258  1.0
  C  C75  1  0.13252040  0.15918344  0.62433931  1.0
  C  C76  1  0.84568241  0.34615790  0.84903690  1.0
  C  C77  1  0.90154456  0.40085022  0.90408031  1.0
  C  C78  1  0.83237063  0.32866075  0.89236876  1.0
  C  C79  1  0.91956256  0.41356477  0.86074755  1.0
  C  C80  1  0.85544897  0.36031683  0.91959494  1.0
  C  C81  1  0.88706797  0.39150424  0.83354455  1.0
  C  C82  1  0.47094992  0.32952405  0.88211476  1.0
  C  C83  1  0.26873747  0.42918924  0.87139505  1.0
  C  C84  1  0.48923070  0.33811167  0.83925432  1.0
  C  C85  1  0.25073097  0.41956775  0.91421888  1.0
  C  C86  1  0.34894689  0.39348977  0.85941222  1.0
  C  C87  1  0.39054339  0.35980493  0.89375147  1.0
  C  C88  1  0.87770503  0.92096148  0.82073239  1.0
  C  C89  1  0.87521512  0.83576170  0.92702704  1.0
  C  C90  1  0.83855654  0.99413037  0.83325287  1.0
  C  C91  1  0.91350937  0.76235062  0.91472006  1.0
  C  C92  1  0.85918571  0.89339306  0.89270431  1.0
  C  C93  1  0.88830695  0.86271887  0.85474369  1.0
  C  C94  1  0.15381606  0.65265252  0.15245788  1.0
  C  C95  1  0.09945537  0.59700662  0.09700600  1.0
  C  C96  1  0.08094906  0.69701901  0.13826926  1.0
  C  C97  1  0.17456293  0.55558227  0.10844007  1.0
  C  C98  1  0.05166082  0.66680214  0.11347352  1.0
  C  C99  1  0.19928315  0.57998895  0.13837435  1.0
  C  C100  1  0.55342846  0.59257070  0.14417850  1.0
  C  C101  1  0.70087734  0.65775686  0.10007014  1.0
  C  C102  1  0.50980040  0.66087623  0.16163074  1.0
  C  C103  1  0.74468502  0.58895222  0.08324818  1.0
  C  C104  1  0.63240992  0.65815528  0.12383389  1.0
  C  C105  1  0.62451432  0.59012871  0.12323311  1.0
  C  C106  1  0.20889969  0.04819991  0.15108363  1.0
  C  C107  1  0.04730803  0.18870051  0.09989836  1.0
  C  C108  1  0.17015857  0.00122195  0.16492797  1.0
  C  C109  1  0.08547361  0.23634423  0.08650917  1.0
  C  C110  1  0.09090589  0.12162680  0.12493162  1.0
  C  C111  1  0.16299725  0.11816907  0.12886082  1.0
  S  S112  1  0.67511203  0.69822946  0.60383611  1.0
  S  S113  1  0.57849730  0.54174328  0.64993838  1.0
  S  S114  1  0.36753183  0.33998728  0.43760299  1.0
  S  S115  1  0.38143990  0.41609537  0.31101313  1.0
  S  S116  1  0.83424088  0.86628877  0.44036814  1.0
  S  S117  1  0.90869353  0.88284294  0.31370315  1.0
  S  S118  1  0.20194402  0.02684895  0.59566540  1.0
  S  S119  1  0.05512232  0.22327126  0.65215945  1.0
  S  S120  1  0.40786202  0.38465483  0.81336675  1.0
  S  S121  1  0.33198227  0.36835226  0.93985454  1.0
  S  S122  1  0.81620893  0.99185911  0.88662964  1.0
  S  S123  1  0.93136854  0.76415878  0.86114191  1.0
  S  S124  1  0.55517128  0.72264216  0.15150832  1.0
  S  S125  1  0.70149174  0.52537050  0.09564099  1.0
  S  S126  1  0.07824300  0.04195271  0.14993911  1.0
  S  S127  1  0.17536835  0.19805516  0.10391380  1.0
  Br  Br128  1  0.44590429  0.21814860  0.60420493  1.0
  Br  Br129  1  0.78871035  0.01242924  0.66386202  1.0
  Br  Br130  1  0.52009465  0.30102427  0.64876076  1.0
  Br  Br131  1  0.74494097  0.96508689  0.58616862  1.0
  Br  Br132  1  0.32694324  0.84187980  0.47660539  1.0
  Br  Br133  1  0.38993808  0.93593611  0.27666809  1.0
  Br  Br134  1  0.29599606  0.75283748  0.41314015  1.0
  Br  Br135  1  0.48389033  0.96655751  0.33786367  1.0
  Br  Br136  1  0.78743254  0.25916000  0.91530918  1.0
  Br  Br137  1  0.99202015  0.45522489  0.83801498  1.0
  Br  Br138  1  0.81972758  0.35075732  0.97675840  1.0
  Br  Br139  1  0.89532644  0.42871532  0.77642548  1.0
  Br  Br140  1  0.02232134  0.80041173  0.14913988  1.0
  Br  Br141  1  0.24593034  0.46911363  0.08175473  1.0
  Br  Br142  1  0.94653668  0.71917325  0.10471672  1.0
  Br  Br143  1  0.29177993  0.51101422  0.16057669  1.0
  N  N144  1  0.47375709  0.69789761  0.58944350  1.0
  N  N145  1  0.78837149  0.53138935  0.65511810  1.0
  N  N146  1  0.45063873  0.22581596  0.33662457  1.0
  N  N147  1  0.27850406  0.53157252  0.41048642  1.0
  N  N148  1  0.71756636  0.97111301  0.34115051  1.0
  N  N149  1  0.02472417  0.79875957  0.41421452  1.0
  N  N150  1  0.21582861  0.22762657  0.59451582  1.0
  N  N151  1  0.03299523  0.03032606  0.64285388  1.0
  N  N152  1  0.52291296  0.29869699  0.91410026  1.0
  N  N153  1  0.21651550  0.47304412  0.84018967  1.0
  N  N154  1  0.91020280  0.90093619  0.77892487  1.0
  N  N155  1  0.85600799  0.85806198  0.96888946  1.0
  N  N156  1  0.53258411  0.52963046  0.14317977  1.0
  N  N157  1  0.71635790  0.72590181  0.09386271  1.0
  N  N158  1  0.28820638  0.03138854  0.15514305  1.0
  N  N159  1  0.97386584  0.19821458  0.08929604  1.0
  O  O160  1  0.50057732  0.99940607  0.50071806  1.0
  O  O161  1  0.68095337  0.93565398  0.47979610  1.0
  O  O162  1  0.42999112  0.99802081  0.42341023  1.0
  O  O163  1  0.48863168  0.85412607  0.56161440  1.0
  O  O164  1  0.61945270  0.95030550  0.42377369  1.0
  O  O165  1  0.61462698  0.83458172  0.54783235  1.0
  O  O166  1  0.45216954  0.88886511  0.46724794  1.0
  O  O167  1  0.33865442  0.00359918  0.54114983  1.0
  O  O168  1  0.53316876  0.11453223  0.54032415  1.0
  O  O169  1  0.36534885  0.09507837  0.56113385  1.0
  O  O170  1  0.58841653  0.99399737  0.57294451  1.0
  O  O171  1  0.49322150  0.12609289  0.42161540  1.0
  O  O172  1  0.41099714  0.18590523  0.47573981  1.0
  O  O173  1  0.74978905  0.24974261  0.75054481  1.0
  O  O174  1  0.64980054  0.39216569  0.69213425  1.0
  O  O175  1  0.86145335  0.29331540  0.78676633  1.0
  O  O176  1  0.62132008  0.25592840  0.82874316  1.0
  O  O177  1  0.74684656  0.40805687  0.71378545  1.0
  O  O178  1  0.56279541  0.34270973  0.77552286  1.0
  O  O179  1  0.75140020  0.31479808  0.82990557  1.0
  O  O180  1  0.79149317  0.12685190  0.82971340  1.0
  O  O181  1  0.75152857  0.16954842  0.67676401  1.0
  O  O182  1  0.79973602  0.07454282  0.77134616  1.0
  O  O183  1  0.63098550  0.22396225  0.70937320  1.0
  O  O184  1  0.90341772  0.25817422  0.69299916  1.0
  O  O185  1  0.91251332  0.13557156  0.70679300  1.0
  O  O186  1  0.25014878  0.74960013  0.25043827  1.0
  O  O187  1  0.29854433  0.62999275  0.32754952  1.0
  O  O188  1  0.25433550  0.66482728  0.17806330  1.0
  O  O189  1  0.06330858  0.84120025  0.27533466  1.0
  O  O190  1  0.30915512  0.56923380  0.27208545  1.0
  O  O191  1  0.12301543  0.75675113  0.32900339  1.0
  O  O192  1  0.13302878  0.72207873  0.20918749  1.0
  O  O193  1  0.14971689  0.89183704  0.19192679  1.0
  O  O194  1  0.36237694  0.79564260  0.28593015  1.0
  O  O195  1  0.24639293  0.90796680  0.21381231  1.0
  O  O196  1  0.25200933  0.81811437  0.32893611  1.0
  O  O197  1  0.41377120  0.63506827  0.20775931  1.0
  O  O198  1  0.40331392  0.75803631  0.19253600  1.0
  O  O199  1  0.00015703  0.49961827  0.00044273  1.0
  O  O200  1  0.83868508  0.50251443  0.04069389  1.0
  O  O201  1  0.03101179  0.61615244  0.04016606  1.0
  O  O202  1  0.11480979  0.33501109  0.04796922  1.0
  O  O203  1  0.86611070  0.59154020  0.06286867  1.0
  O  O204  1  0.98902050  0.35381830  0.06125539  1.0
  O  O205  1  0.08784444  0.49553218  0.07242593  1.0
  O  O206  1  0.17952068  0.43654435  0.97910969  1.0
  O  O207  1  0.92974639  0.49745170  0.92247326  1.0
  O  O208  1  0.11702590  0.45558339  0.92275337  1.0
  O  O209  1  0.95252357  0.38854985  0.96674090  1.0
  O  O210  1  0.90475041  0.68128374  0.97609940  1.0
  O  O211  1  0.98445515  0.62966257  0.91929827  1.0
  O  O212  1  0.44125897  0.66235263  0.61480918  1.0
  O  O213  1  0.45039193  0.73611924  0.55667118  1.0
  O  O214  1  0.80117374  0.58883676  0.65491515  1.0
  O  O215  1  0.83694117  0.46419536  0.65680572  1.0
  O  O216  1  0.47542669  0.25219204  0.30276476  1.0
  O  O217  1  0.44604169  0.16354677  0.34379458  1.0
  O  O218  1  0.29973992  0.50855288  0.44582463  1.0
  O  O219  1  0.22342033  0.59200669  0.40075761  1.0
  O  O220  1  0.74044696  0.95035990  0.30574542  1.0
  O  O221  1  0.65744763  0.02637567  0.35090593  1.0
  O  O222  1  0.99874762  0.77372477  0.44813159  1.0
  O  O223  1  0.08702579  0.80346032  0.40683877  1.0
  O  O224  1  0.18693486  0.26887572  0.62326988  1.0
  O  O225  1  0.25243533  0.24175246  0.56195521  1.0
  O  O226  1  0.08868440  0.96706100  0.63853238  1.0
  O  O227  1  0.96472373  0.04357203  0.64388459  1.0
  O  O228  1  0.49619360  0.27449842  0.94805312  1.0
  O  O229  1  0.58634767  0.30106614  0.90671842  1.0
  O  O230  1  0.23909742  0.45091663  0.80508526  1.0
  O  O231  1  0.15687417  0.52918254  0.84947472  1.0
  O  O232  1  0.91773407  0.83671700  0.77263857  1.0
  O  O233  1  0.93034370  0.94565601  0.75363623  1.0
  O  O234  1  0.80114502  0.92205195  0.97273959  1.0
  O  O235  1  0.89567996  0.81602866  0.99634156  1.0
  O  O236  1  0.58821057  0.46647629  0.13830639  1.0
  O  O237  1  0.46417454  0.54239457  0.14527146  1.0
  O  O238  1  0.68696491  0.76785163  0.12228967  1.0
  O  O239  1  0.75370608  0.73910526  0.06139913  1.0
  O  O240  1  0.30115976  0.08897307  0.15429398  1.0
  O  O241  1  0.33668363  0.96416365  0.15738173  1.0
  O  O242  1  0.94086033  0.16339464  0.11483376  1.0
  O  O243  1  0.95101993  0.23576816  0.05629133  1.0
