# generated using pymatgen
data_ZnSiH16C24N8(O4F3)2
_symmetry_space_group_name_H-M   'P 1'
_cell_length_a   7.64458569
_cell_length_b   13.73275333
_cell_length_c   13.73276715
_cell_angle_alpha   89.01168050
_cell_angle_beta   82.19791557
_cell_angle_gamma   82.19239523
_symmetry_Int_Tables_number   1
_chemical_formula_structural   ZnSiH16C24N8(O4F3)2
_chemical_formula_sum   'Zn1 Si1 H16 C24 N8 O8 F6'
_cell_volume   1415.09472522
_cell_formula_units_Z   1
loop_
 _symmetry_equiv_pos_site_id
 _symmetry_equiv_pos_as_xyz
  1  'x, y, z'
loop_
 _atom_site_type_symbol
 _atom_site_label
 _atom_site_symmetry_multiplicity
 _atom_site_fract_x
 _atom_site_fract_y
 _atom_site_fract_z
 _atom_site_occupancy
  Zn  Zn0  1  0.49998306  0.49887948  0.50112980  1.0
  Si  Si1  1  0.99998984  0.49941739  0.50057872  1.0
  H  H2  1  0.27100809  0.57040540  0.34591030  1.0
  H  H3  1  0.28095266  0.57918797  0.16758328  1.0
  H  H4  1  0.82414043  0.42888451  0.14307590  1.0
  H  H5  1  0.79505056  0.43411864  0.32506110  1.0
  H  H6  1  0.20678064  0.43087311  0.85782847  1.0
  H  H7  1  0.68094291  0.57737736  0.83437788  1.0
  H  H8  1  0.69655910  0.56834251  0.65576619  1.0
  H  H9  1  0.23415034  0.43599213  0.67569196  1.0
  H  H10  1  0.30344069  0.34424936  0.43164737  1.0
  H  H11  1  0.31909334  0.16564344  0.42259008  1.0
  H  H12  1  0.79319921  0.14216677  0.56916583  1.0
  H  H13  1  0.76582466  0.32430408  0.56405287  1.0
  H  H14  1  0.17578630  0.85696959  0.57102054  1.0
  H  H15  1  0.71907115  0.83241031  0.42083977  1.0
  H  H16  1  0.72898014  0.65408126  0.42963405  1.0
  H  H17  1  0.20488156  0.67498124  0.56580323  1.0
  C  C18  1  0.39213292  0.54035470  0.29862588  1.0
  C  C19  1  0.39716113  0.54259974  0.19724980  1.0
  C  C20  1  0.55157294  0.50029869  0.13747594  1.0
  C  C21  1  0.69829138  0.46106328  0.18442008  1.0
  C  C22  1  0.68301765  0.46282921  0.28650421  1.0
  C  C23  1  0.56355706  0.49767138  0.02994110  1.0
  C  C24  1  0.43449422  0.49911252  0.97134995  1.0
  C  C25  1  0.31788712  0.46227684  0.81660530  1.0
  C  C26  1  0.44627781  0.50063389  0.86373319  1.0
  C  C27  1  0.58188847  0.54161496  0.80425916  1.0
  C  C28  1  0.58876755  0.53917077  0.70281779  1.0
  C  C29  1  0.33287020  0.46389107  0.71448905  1.0
  C  C30  1  0.41123774  0.29719036  0.46081990  1.0
  C  C31  1  0.41812471  0.19574926  0.45837425  1.0
  C  C32  1  0.55371727  0.13626813  0.49938679  1.0
  C  C33  1  0.68210468  0.18338995  0.53774404  1.0
  C  C34  1  0.66711488  0.28551563  0.53613338  1.0
  C  C35  1  0.56547544  0.02864661  0.50091480  1.0
  C  C36  1  0.43642051  0.97006527  0.50228724  1.0
  C  C37  1  0.30165758  0.81561130  0.53887272  1.0
  C  C38  1  0.44840782  0.86253429  0.49967007  1.0
  C  C39  1  0.60283134  0.80275574  0.45739443  1.0
  C  C40  1  0.60784579  0.70137651  0.45965488  1.0
  C  C41  1  0.31692024  0.71352712  0.53710793  1.0
  N  N42  1  0.53161129  0.50056320  0.34278699  1.0
  N  N43  1  0.46748167  0.50052169  0.65851071  1.0
  N  N44  1  0.53249609  0.34149831  0.49950439  1.0
  N  N45  1  0.46835420  0.65723018  0.49942121  1.0
  N  N46  1  0.75021394  0.49312126  0.97987994  1.0
  N  N47  1  0.24821273  0.50066889  0.02102007  1.0
  N  N48  1  0.75173034  0.97896153  0.49946802  1.0
  N  N49  1  0.24977407  0.02013348  0.50671250  1.0
  O  O50  1  0.81282737  0.57163066  0.97457786  1.0
  O  O51  1  0.82766898  0.41234315  0.94982553  1.0
  O  O52  1  0.15579734  0.58190059  0.02656000  1.0
  O  O53  1  0.20058201  0.42175906  0.05058928  1.0
  O  O54  1  0.84431187  0.97337978  0.41828973  1.0
  O  O55  1  0.79917714  0.94942693  0.57843039  1.0
  O  O56  1  0.18733133  0.02544813  0.42814950  1.0
  O  O57  1  0.17217153  0.05019182  0.58745482  1.0
  F  F58  1  0.22603172  0.50403068  0.50519998  1.0
  F  F59  1  0.77395359  0.49477349  0.49598065  1.0
  F  F60  1  0.99995898  0.58824320  0.41174483  1.0
  F  F61  1  0.00002720  0.41112740  0.58886685  1.0
  F  F62  1  0.05233996  0.41171062  0.41112187  1.0
  F  F63  1  0.94764075  0.58887302  0.58827864  1.0
