# generated using pymatgen
data_Zn4H8C40Br12O13
_symmetry_space_group_name_H-M   'P 1'
_cell_length_a   23.91390913
_cell_length_b   23.91424631
_cell_length_c   23.91240785
_cell_angle_alpha   66.86641876
_cell_angle_beta   72.32587244
_cell_angle_gamma   107.67120339
_symmetry_Int_Tables_number   1
_chemical_formula_structural   Zn4H8C40Br12O13
_chemical_formula_sum   'Zn8 H16 C80 Br24 O26'
_cell_volume   10494.37001205
_cell_formula_units_Z   2
loop_
 _symmetry_equiv_pos_site_id
 _symmetry_equiv_pos_as_xyz
  1  'x, y, z'
loop_
 _atom_site_type_symbol
 _atom_site_label
 _atom_site_symmetry_multiplicity
 _atom_site_fract_x
 _atom_site_fract_y
 _atom_site_fract_z
 _atom_site_occupancy
  Zn  Zn0  1  0.05732354  0.09955943  0.45775248  1.0
  Zn  Zn1  1  0.05732308  0.95776194  0.48491173  1.0
  Zn  Zn2  1  0.94267442  0.95775102  0.59956775  1.0
  Zn  Zn3  1  0.94269049  0.98492957  0.45774760  1.0
  Zn  Zn4  1  0.94267842  0.40044029  0.04224511  1.0
  Zn  Zn5  1  0.05733129  0.54224921  0.90042683  1.0
  Zn  Zn6  1  0.94268038  0.54223863  0.01507865  1.0
  Zn  Zn7  1  0.05731030  0.51507268  0.04225208  1.0
  H  H8  1  0.92394180  0.27210697  0.96389334  1.0
  H  H9  1  0.07605454  0.46389818  0.77206861  1.0
  H  H10  1  0.92393759  0.03609737  0.72792942  1.0
  H  H11  1  0.07600400  0.22790407  0.53609338  1.0
  H  H12  1  0.07607559  0.61220100  0.15181341  1.0
  H  H13  1  0.92395166  0.65187500  0.11213949  1.0
  H  H14  1  0.07600792  0.84809384  0.38788486  1.0
  H  H15  1  0.92393489  0.88783479  0.34814947  1.0
  H  H16  1  0.73598718  0.27209884  0.15187296  1.0
  H  H17  1  0.73598544  0.46390428  0.11213998  1.0
  H  H18  1  0.26402429  0.03610412  0.38785796  1.0
  H  H19  1  0.26401390  0.22789199  0.34819266  1.0
  H  H20  1  0.26402937  0.65190633  0.77208671  1.0
  H  H21  1  0.26400261  0.61213758  0.96392514  1.0
  H  H22  1  0.73599643  0.88786468  0.53607924  1.0
  H  H23  1  0.73597535  0.84816290  0.72790084  1.0
  C  C24  1  0.18181089  0.09089597  0.40910327  1.0
  C  C25  1  0.99999980  0.86319662  0.63680002  1.0
  C  C26  1  0.99998410  0.09089204  0.59091247  1.0
  C  C27  1  0.81819265  0.90910519  0.59089122  1.0
  C  C28  1  0.00000491  0.13680297  0.36319197  1.0
  C  C29  1  0.99999059  0.90908887  0.40909815  1.0
  C  C30  1  0.00000674  0.40910923  0.90908160  1.0
  C  C31  1  0.00000468  0.63680396  0.86319272  1.0
  C  C32  1  0.81819069  0.40910153  0.09090938  1.0
  C  C33  1  0.99999621  0.59091423  0.09089466  1.0
  C  C34  1  0.00000128  0.36319927  0.13680624  1.0
  C  C35  1  0.18180886  0.59090900  0.90910646  1.0
  C  C36  1  0.00000379  0.19489638  0.30510277  1.0
  C  C37  1  0.00000152  0.30510586  0.19489237  1.0
  C  C38  1  0.95701201  0.18011588  0.27689631  1.0
  C  C39  1  0.04299269  0.31988534  0.22309883  1.0
  C  C40  1  0.95701045  0.23390762  0.22310314  1.0
  C  C41  1  0.04299410  0.26609516  0.27689142  1.0
  C  C42  1  0.99999892  0.80510582  0.69489282  1.0
  C  C43  1  0.00000762  0.69489477  0.80509955  1.0
  C  C44  1  0.95701454  0.77689436  0.76610196  1.0
  C  C45  1  0.04299064  0.72310519  0.73389416  1.0
  C  C46  1  0.95701790  0.72310366  0.81989166  1.0
  C  C47  1  0.04298640  0.77689589  0.68010305  1.0
  C  C48  1  0.00000164  0.37167780  0.87165359  1.0
  C  C49  1  0.95706526  0.30008363  0.90828408  1.0
  C  C50  1  0.95728210  0.26560177  0.87324524  1.0
  C  C51  1  0.99998870  0.30060540  0.80059723  1.0
  C  C52  1  0.04269695  0.37324739  0.76557873  1.0
  C  C53  1  0.04292765  0.40829400  0.80005194  1.0
  C  C54  1  0.99998023  0.26530970  0.76531932  1.0
  C  C55  1  0.99997214  0.23467803  0.73468781  1.0
  C  C56  1  0.99996477  0.19939789  0.69939591  1.0
  C  C57  1  0.95727053  0.12675177  0.73441698  1.0
  C  C58  1  0.95704880  0.09170464  0.69994126  1.0
  C  C59  1  0.99997196  0.12832602  0.62833926  1.0
  C  C60  1  0.04288456  0.19992379  0.59170619  1.0
  C  C61  1  0.04265464  0.23440771  0.62674359  1.0
  C  C62  1  0.00000932  0.62836069  0.12831030  1.0
  C  C63  1  0.04294843  0.63467822  0.15696152  1.0
  C  C64  1  0.04272879  0.66949917  0.19166222  1.0
  C  C65  1  0.00001061  0.69942532  0.19936975  1.0
  C  C66  1  0.95730749  0.69172920  0.16943216  1.0
  C  C67  1  0.95708205  0.65702582  0.13461716  1.0
  C  C68  1  0.99999844  0.73469299  0.23467566  1.0
  C  C69  1  0.99998039  0.76530336  0.26532390  1.0
  C  C70  1  0.99996945  0.80057622  0.30062548  1.0
  C  C71  1  0.04266188  0.80825312  0.33057972  1.0
  C  C72  1  0.04288868  0.84295755  0.36539474  1.0
  C  C73  1  0.99997425  0.87164084  0.37168469  1.0
  C  C74  1  0.95705013  0.86534044  0.34301549  1.0
  C  C75  1  0.95727230  0.83052209  0.30831216  1.0
  C  C76  1  0.74333127  0.37167150  0.12833729  1.0
  C  C77  1  0.70835911  0.30007984  0.15701189  1.0
  C  C78  1  0.63883697  0.26559828  0.19171894  1.0
  C  C79  1  0.60120647  0.30061116  0.19940440  1.0
  C  C80  1  0.63883701  0.37325425  0.16945383  1.0
  C  C81  1  0.70835868  0.40829744  0.13463301  1.0
  C  C82  1  0.53063199  0.26532566  0.23469827  1.0
  C  C83  1  0.46937181  0.23468798  0.26534122  1.0
  C  C84  1  0.39879959  0.19938847  0.30064369  1.0
  C  C85  1  0.36116727  0.12675003  0.33057332  1.0
  C  C86  1  0.29165051  0.09170889  0.36538431  1.0
  C  C87  1  0.25667314  0.12832550  0.37169435  1.0
  C  C88  1  0.29163941  0.19991304  0.34304909  1.0
  C  C89  1  0.36115947  0.23439203  0.30835456  1.0
  C  C90  1  0.25666808  0.62834993  0.87167641  1.0
  C  C91  1  0.29164996  0.65703904  0.80007375  1.0
  C  C92  1  0.36117155  0.69174733  0.76559449  1.0
  C  C93  1  0.39879664  0.69942120  0.80061807  1.0
  C  C94  1  0.36115664  0.66946276  0.87326970  1.0
  C  C95  1  0.29163483  0.63464057  0.90831166  1.0
  C  C96  1  0.46937074  0.73470307  0.76533034  1.0
  C  C97  1  0.53063178  0.76533502  0.73467768  1.0
  C  C98  1  0.60120512  0.80062467  0.69937917  1.0
  C  C99  1  0.63884389  0.83056442  0.62673110  1.0
  C  C100  1  0.70836524  0.86538090  0.59168903  1.0
  C  C101  1  0.74333311  0.87168244  0.62831797  1.0
  C  C102  1  0.70835515  0.84301877  0.69991903  1.0
  C  C103  1  0.63883372  0.80831931  0.73439560  1.0
  Br  Br104  1  0.89643330  0.08769643  0.30874644  1.0
  Br  Br105  1  0.10357121  0.41230531  0.19124980  1.0
  Br  Br106  1  0.89643218  0.20517366  0.19126239  1.0
  Br  Br107  1  0.10357085  0.29482962  0.30873369  1.0
  Br  Br108  1  0.89643398  0.80872954  0.79485039  1.0
  Br  Br109  1  0.10356795  0.69126586  0.70514834  1.0
  Br  Br110  1  0.89644776  0.69125593  0.91232291  1.0
  Br  Br111  1  0.10355301  0.80873790  0.58767178  1.0
  Br  Br112  1  0.10160293  0.42495368  0.66878702  1.0
  Br  Br113  1  0.89837039  0.16882239  0.92497111  1.0
  Br  Br114  1  0.10154207  0.33119431  0.57500926  1.0
  Br  Br115  1  0.89840051  0.07504450  0.83121533  1.0
  Br  Br116  1  0.89840268  0.72960754  0.17662936  1.0
  Br  Br117  1  0.10163559  0.67669911  0.22953497  1.0
  Br  Br118  1  0.89839381  0.82335848  0.27040062  1.0
  Br  Br119  1  0.10154937  0.77035454  0.32340119  1.0
  Br  Br120  1  0.59376113  0.42496382  0.17662786  1.0
  Br  Br121  1  0.59376361  0.16881409  0.22961933  1.0
  Br  Br122  1  0.40623037  0.33117003  0.27048329  1.0
  Br  Br123  1  0.40624877  0.07504872  0.32336630  1.0
  Br  Br124  1  0.40622016  0.67661823  0.92499514  1.0
  Br  Br125  1  0.40625089  0.72965558  0.66880085  1.0
  Br  Br126  1  0.59375080  0.77043545  0.83118572  1.0
  Br  Br127  1  0.59378132  0.82337417  0.57501030  1.0
  O  O128  1  0.00000298  0.99999997  0.49999755  1.0
  O  O129  1  0.15298269  0.12707409  0.41399101  1.0
  O  O130  1  0.03971053  0.88573309  0.57457321  1.0
  O  O131  1  0.95891966  0.02589116  0.62709030  1.0
  O  O132  1  0.15298569  0.02590168  0.43302170  1.0
  O  O133  1  0.04106132  0.12706778  0.52590660  1.0
  O  O134  1  0.96028195  0.88570494  0.65398690  1.0
  O  O135  1  0.84701486  0.91399444  0.62707394  1.0
  O  O136  1  0.96031096  0.07458443  0.38570915  1.0
  O  O137  1  0.84702520  0.93303780  0.52588712  1.0
  O  O138  1  0.03970729  0.15398296  0.38571572  1.0
  O  O139  1  0.04106341  0.91398627  0.43302637  1.0
  O  O140  1  0.95893071  0.93303267  0.41398210  1.0
  O  O141  1  0.00000217  0.50000112  0.99999772  1.0
  O  O142  1  0.95893063  0.37293399  0.97408902  1.0
  O  O143  1  0.03972503  0.61429565  0.84600617  1.0
  O  O144  1  0.84701807  0.47410048  0.06697674  1.0
  O  O145  1  0.04108070  0.47410699  0.87290504  1.0
  O  O146  1  0.84701634  0.37292547  0.08601784  1.0
  O  O147  1  0.96028968  0.61426332  0.92542063  1.0
  O  O148  1  0.95892558  0.58601371  0.06696885  1.0
  O  O149  1  0.03968928  0.42542042  0.11429260  1.0
  O  O150  1  0.04106210  0.56697458  0.08600909  1.0
  O  O151  1  0.96030121  0.34601981  0.11427389  1.0
  O  O152  1  0.15299103  0.58601405  0.87292215  1.0
  O  O153  1  0.15297450  0.56696965  0.97411125  1.0
