# generated using pymatgen
data_Zn4H36C48N6O13
_symmetry_space_group_name_H-M   'P 1'
_cell_length_a   27.12436071
_cell_length_b   27.49145365
_cell_length_c   27.58542589
_cell_angle_alpha   61.61814120
_cell_angle_beta   61.09378761
_cell_angle_gamma   60.90895449
_symmetry_Int_Tables_number   1
_chemical_formula_structural   Zn4H36C48N6O13
_chemical_formula_sum   'Zn8 H72 C96 N12 O26'
_cell_volume   14938.96191752
_cell_formula_units_Z   2
loop_
 _symmetry_equiv_pos_site_id
 _symmetry_equiv_pos_as_xyz
  1  'x, y, z'
loop_
 _atom_site_type_symbol
 _atom_site_label
 _atom_site_symmetry_multiplicity
 _atom_site_fract_x
 _atom_site_fract_y
 _atom_site_fract_z
 _atom_site_occupancy
  Zn  Zn0  1  0.03102744  0.02289642  0.03341990  1.0
  Zn  Zn1  1  0.03377730  0.90825949  0.03425327  1.0
  Zn  Zn2  1  0.03304036  0.01927044  0.91944083  1.0
  Zn  Zn3  1  0.91313399  0.02083410  0.03428706  1.0
  Zn  Zn4  1  0.47161794  0.46324253  0.47789296  1.0
  Zn  Zn5  1  0.47414143  0.57775398  0.47376847  1.0
  Zn  Zn6  1  0.59060473  0.46201441  0.47905704  1.0
  Zn  Zn7  1  0.46708732  0.46980919  0.59077163  1.0
  H  H8  1  0.38760918  0.55675035  0.25772894  1.0
  H  H9  1  0.35037089  0.62196546  0.21892765  1.0
  H  H10  1  0.40978279  0.54391863  0.33680369  1.0
  H  H11  1  0.34342341  0.69381879  0.39062661  1.0
  H  H12  1  0.28339300  0.75127162  0.32357660  1.0
  H  H13  1  0.26778773  0.68904191  0.23922258  1.0
  H  H14  1  0.27149777  0.79964316  0.23753199  1.0
  H  H15  1  0.17883734  0.74069957  0.22893950  1.0
  H  H16  1  0.11198067  0.79720321  0.16846606  1.0
  H  H17  1  0.17724852  0.94059678  0.09303193  1.0
  H  H18  1  0.29561215  0.86089150  0.15454589  1.0
  H  H19  1  0.25920066  0.92567848  0.11438507  1.0
  H  H20  1  0.24513509  0.38497986  0.57180605  1.0
  H  H21  1  0.20630729  0.34707078  0.63602382  1.0
  H  H22  1  0.32471237  0.40746980  0.55961871  1.0
  H  H23  1  0.37801209  0.34305155  0.70857802  1.0
  H  H24  1  0.31145753  0.28256132  0.76422029  1.0
  H  H25  1  0.22939210  0.26523616  0.69976964  1.0
  H  H26  1  0.22397628  0.26812314  0.81212375  1.0
  H  H27  1  0.21825972  0.17860358  0.74769817  1.0
  H  H28  1  0.16110536  0.10925530  0.80286869  1.0
  H  H29  1  0.08492368  0.16713434  0.95162436  1.0
  H  H30  1  0.13889903  0.28831143  0.87612925  1.0
  H  H31  1  0.10141444  0.24882940  0.94001349  1.0
  H  H32  1  0.56371818  0.24582982  0.39544049  1.0
  H  H33  1  0.62824626  0.20779267  0.35506766  1.0
  H  H34  1  0.55413514  0.32258595  0.41919119  1.0
  H  H35  1  0.70714464  0.37553107  0.34676369  1.0
  H  H36  1  0.76055530  0.31137480  0.28392321  1.0
  H  H37  1  0.69225049  0.22885128  0.27265335  1.0
  H  H38  1  0.80838082  0.22480552  0.27033806  1.0
  H  H39  1  0.74060923  0.21410917  0.18700495  1.0
  H  H40  1  0.79509393  0.15207767  0.12189477  1.0
  H  H41  1  0.94788673  0.07920694  0.17568617  1.0
  H  H42  1  0.87246345  0.14196648  0.29147656  1.0
  H  H43  1  0.93743706  0.10188606  0.25346752  1.0
  H  H44  1  0.39118074  0.78883853  0.56795479  1.0
  H  H45  1  0.35330688  0.80144830  0.63287199  1.0
  H  H46  1  0.41076872  0.70127639  0.55462818  1.0
  H  H47  1  0.33645521  0.57258193  0.70167222  1.0
  H  H48  1  0.27756116  0.64324537  0.75818476  1.0
  H  H49  1  0.26902815  0.79966087  0.69741323  1.0
  H  H50  1  0.26914903  0.69208976  0.80737622  1.0
  H  H51  1  0.18125599  0.84804273  0.74799466  1.0
  H  H52  1  0.11631481  0.91868074  0.80456623  1.0
  H  H53  1  0.17714822  0.79037574  0.94944044  1.0
  H  H54  1  0.29384028  0.69088777  0.86989057  1.0
  H  H55  1  0.25738314  0.70341803  0.93472592  1.0
  H  H56  1  0.57337267  0.77344760  0.26154901  1.0
  H  H57  1  0.63824609  0.78759761  0.22451125  1.0
  H  H58  1  0.56212365  0.68721248  0.33791083  1.0
  H  H59  1  0.71319953  0.56043251  0.39395796  1.0
  H  H60  1  0.76854388  0.63146636  0.33038569  1.0
  H  H61  1  0.70092318  0.78784166  0.24669488  1.0
  H  H62  1  0.81826546  0.68439348  0.24463641  1.0
  H  H63  1  0.74532018  0.84495289  0.22915912  1.0
  H  H64  1  0.79691068  0.91908352  0.16566720  1.0
  H  H65  1  0.95480485  0.78695736  0.09987084  1.0
  H  H66  1  0.88541594  0.67874848  0.16453997  1.0
  H  H67  1  0.94877541  0.69558947  0.12483059  1.0
  H  H68  1  0.55608766  0.38229452  0.80184032  1.0
  H  H69  1  0.62025305  0.34252335  0.81753729  1.0
  H  H70  1  0.54775833  0.40455683  0.71206363  1.0
  H  H71  1  0.70308614  0.33246601  0.58288282  1.0
  H  H72  1  0.75589495  0.27055728  0.65619203  1.0
  H  H73  1  0.68586953  0.25974208  0.81431803  1.0
  H  H74  1  0.80210569  0.25566194  0.71021460  1.0
  H  H75  1  0.73514393  0.17371028  0.86646871  1.0
  H  H76  1  0.79227745  0.10669962  0.93574013  1.0
  H  H77  1  0.94581638  0.15624265  0.80677955  1.0
  H  H78  1  0.86750510  0.27548607  0.70965629  1.0
  H  H79  1  0.93356763  0.23536887  0.72174301  1.0
  C  C80  1  0.35068865  0.62207454  0.29316865  1.0
  C  C81  1  0.38211614  0.58970515  0.33294024  1.0
  C  C82  1  0.37979324  0.61535333  0.36752368  1.0
  C  C83  1  0.34517110  0.67444891  0.36314636  1.0
  C  C84  1  0.31260282  0.70624430  0.32510699  1.0
  C  C85  1  0.31410582  0.68154392  0.28956216  1.0
  C  C86  1  0.27872270  0.71467417  0.25086024  1.0
  C  C87  1  0.25800877  0.77396384  0.22856977  1.0
  C  C88  1  0.21877270  0.80687221  0.19362385  1.0
  C  C89  1  0.17990973  0.78389398  0.19769080  1.0
  C  C90  1  0.14192057  0.81527617  0.16488577  1.0
  C  C91  1  0.14087276  0.87234336  0.12739401  1.0
  C  C92  1  0.17854915  0.89639423  0.12278481  1.0
  C  C93  1  0.21828387  0.86426914  0.15455286  1.0
  C  C94  1  0.09994226  0.90738553  0.09220461  1.0
  C  C95  1  0.41437523  0.57964833  0.40878630  1.0
  C  C96  1  0.28099043  0.34874496  0.63638859  1.0
  C  C97  1  0.32073237  0.38036214  0.60487953  1.0
  C  C98  1  0.35528228  0.37860149  0.63059597  1.0
  C  C99  1  0.35060879  0.34444186  0.68902914  1.0
  C  C100  1  0.31279845  0.31151187  0.71988712  1.0
  C  C101  1  0.27754079  0.31224108  0.69496040  1.0
  C  C102  1  0.23957351  0.27613735  0.72650885  1.0
  C  C103  1  0.21642920  0.25476624  0.78537537  1.0
  C  C104  1  0.18245012  0.21488100  0.81686428  1.0
  C  C105  1  0.18746809  0.17749632  0.79192955  1.0
  C  C106  1  0.15642015  0.13813954  0.82253288  1.0
  C  C107  1  0.11981506  0.13417845  0.88077146  1.0
  C  C108  1  0.11391209  0.17069152  0.90651343  1.0
  C  C109  1  0.14358149  0.21184115  0.87529118  1.0
  C  C110  1  0.08707634  0.09128078  0.91608354  1.0
  C  C111  1  0.39741714  0.41252227  0.59524375  1.0
  C  C112  1  0.63004129  0.28088850  0.35649676  1.0
  C  C113  1  0.59974048  0.31914489  0.38953097  1.0
  C  C114  1  0.62722086  0.35277216  0.38643112  1.0
  C  C115  1  0.68616929  0.34892555  0.34919455  1.0
  C  C116  1  0.71581971  0.31245536  0.31498573  1.0
  C  C117  1  0.68926179  0.27778040  0.31744484  1.0
  C  C118  1  0.72030306  0.23969300  0.28152586  1.0
  C  C119  1  0.78045608  0.21633760  0.25895334  1.0
  C  C120  1  0.81179608  0.18034856  0.22092329  1.0
  C  C121  1  0.78553699  0.18310370  0.18588234  1.0
  C  C122  1  0.81573827  0.14936971  0.14892757  1.0
  C  C123  1  0.87494066  0.11234232  0.14500938  1.0
  C  C124  1  0.90207614  0.10872195  0.17919670  1.0
  C  C125  1  0.87120710  0.14122682  0.21797005  1.0
  C  C126  1  0.91024763  0.07705832  0.10414300  1.0
  C  C127  1  0.59258878  0.39272181  0.42270340  1.0
  C  C128  1  0.35101734  0.72847669  0.63163340  1.0
  C  C129  1  0.38163933  0.68918201  0.59961641  1.0
  C  C130  1  0.37674878  0.63340042  0.62470169  1.0
  C  C131  1  0.34018175  0.61604694  0.68276444  1.0
  C  C132  1  0.30831850  0.65536352  0.71409349  1.0
  C  C133  1  0.31259216  0.71188532  0.69003444  1.0
  C  C134  1  0.27836042  0.75309848  0.72289911  1.0
  C  C135  1  0.25705263  0.73861669  0.78192573  1.0
  C  C136  1  0.21897068  0.77975922  0.81489759  1.0
  C  C137  1  0.18182638  0.83607255  0.79157242  1.0
  C  C138  1  0.14487312  0.87538047  0.82298441  1.0
  C  C139  1  0.14300135  0.85813350  0.88048839  1.0
  C  C140  1  0.17905769  0.80248959  0.90487556  1.0
  C  C141  1  0.21791827  0.76327979  0.87269275  1.0
  C  C142  1  0.10248954  0.89866822  0.91606669  1.0
  C  C143  1  0.41081887  0.59251165  0.58956466  1.0
  C  C144  1  0.63903675  0.71501027  0.29756607  1.0
  C  C145  1  0.60776431  0.67540092  0.33534274  1.0
  C  C146  1  0.63406060  0.62002332  0.36968529  1.0
  C  C147  1  0.69302205  0.60350932  0.36682616  1.0
  C  C148  1  0.72374549  0.64323187  0.33068958  1.0
  C  C149  1  0.69822594  0.69947602  0.29552027  1.0
  C  C150  1  0.72935899  0.74192508  0.25807839  1.0
  C  C151  1  0.78935424  0.73028834  0.23552689  1.0
  C  C152  1  0.81924978  0.77384631  0.19910001  1.0
  C  C153  1  0.79084145  0.83253283  0.19941335  1.0
  C  C154  1  0.81941248  0.87406580  0.16471341  1.0
  C  C155  1  0.87922602  0.85698868  0.12905377  1.0
  C  C156  1  0.90849052  0.79920246  0.12807376  1.0
  C  C157  1  0.87935011  0.75755937  0.16150518  1.0
  C  C158  1  0.91300619  0.89906167  0.09227673  1.0
  C  C159  1  0.59793846  0.58010457  0.40915741  1.0
  C  C160  1  0.62376430  0.34288737  0.74129912  1.0
  C  C161  1  0.59378232  0.37529998  0.70029888  1.0
  C  C162  1  0.62202055  0.37198576  0.64358844  1.0
  C  C163  1  0.68149267  0.33512025  0.62703625  1.0
  C  C164  1  0.71078668  0.30142013  0.66800445  1.0
  C  C165  1  0.68347076  0.30402874  0.72555339  1.0
  C  C166  1  0.71417694  0.26813738  0.76849367  1.0
  C  C167  1  0.77434818  0.24469154  0.75613017  1.0
  C  C168  1  0.80648802  0.20597258  0.79765715  1.0
  C  C169  1  0.78087847  0.17137842  0.85388210  1.0
  C  C170  1  0.81261402  0.13324644  0.89256714  1.0
  C  C171  1  0.87279974  0.12734195  0.87481547  1.0
  C  C172  1  0.89923533  0.16112073  0.81947253  1.0
  C  C173  1  0.86680022  0.20137867  0.78109359  1.0
  C  C174  1  0.90948331  0.08551188  0.91403618  1.0
  C  C175  1  0.58801430  0.40767366  0.60163844  1.0
  N  N176  1  0.35407778  0.59558697  0.25889128  1.0
  N  N177  1  0.25569775  0.88898070  0.14897005  1.0
  N  N178  1  0.24680533  0.35171726  0.60971110  1.0
  N  N179  1  0.13620907  0.24786812  0.90223211  1.0
  N  N180  1  0.60169055  0.24754152  0.36084733  1.0
  N  N181  1  0.89917101  0.13647625  0.25183941  1.0
  N  N182  1  0.35695322  0.78364749  0.60597551  1.0
  N  N183  1  0.25391499  0.70819860  0.89760255  1.0
  N  N184  1  0.61136185  0.76966781  0.26379498  1.0
  N  N185  1  0.91005016  0.70056989  0.15872961  1.0
  N  N186  1  0.59445611  0.34769120  0.79729197  1.0
  N  N187  1  0.89417940  0.23510412  0.72660127  1.0
  O  O188  1  0.00081664  0.99361749  0.00474824  1.0
  O  O189  1  0.07223677  0.88101114  0.09178464  1.0
  O  O190  1  0.09559513  0.96139156  0.06474122  1.0
  O  O191  1  0.41589740  0.60637178  0.43514660  1.0
  O  O192  1  0.44012139  0.52483329  0.41471459  1.0
  O  O193  1  0.08725900  0.06325172  0.88993415  1.0
  O  O194  1  0.06103492  0.08591714  0.97050042  1.0
  O  O195  1  0.42179750  0.41692444  0.62207933  1.0
  O  O196  1  0.40608857  0.43468477  0.54031233  1.0
  O  O197  1  0.88271205  0.07412754  0.07937683  1.0
  O  O198  1  0.96617730  0.05228480  0.09712528  1.0
  O  O199  1  0.62061344  0.41652880  0.42631046  1.0
  O  O200  1  0.53671569  0.39985599  0.44768187  1.0
  O  O201  1  0.07719198  0.95193886  0.88967928  1.0
  O  O202  1  0.09623541  0.87683178  0.97045844  1.0
  O  O203  1  0.41149715  0.53948573  0.61634058  1.0
  O  O204  1  0.43695774  0.61377212  0.53511820  1.0
  O  O205  1  0.88390573  0.95347567  0.08681305  1.0
  O  O206  1  0.96929983  0.87660807  0.06885373  1.0
  O  O207  1  0.62435881  0.52680401  0.43438448  1.0
  O  O208  1  0.54242402  0.60304979  0.41441814  1.0
  O  O209  1  0.88194148  0.06497118  0.96816197  1.0
  O  O210  1  0.96603272  0.07385186  0.88975479  1.0
  O  O211  1  0.61728053  0.41111154  0.54792416  1.0
  O  O212  1  0.53181395  0.43211543  0.62330539  1.0
  O  O213  1  0.50284315  0.49228681  0.50573883  1.0
