# generated using pymatgen
data_ZnH5C9NO5
_symmetry_space_group_name_H-M   'P 1'
_cell_length_a   7.39730988
_cell_length_b   9.10399744
_cell_length_c   13.07162484
_cell_angle_alpha   75.99306429
_cell_angle_beta   84.43045628
_cell_angle_gamma   75.22867520
_symmetry_Int_Tables_number   1
_chemical_formula_structural   ZnH5C9NO5
_chemical_formula_sum   'Zn2 H10 C18 N2 O10'
_cell_volume   825.32055816
_cell_formula_units_Z   2
loop_
 _symmetry_equiv_pos_site_id
 _symmetry_equiv_pos_as_xyz
  1  'x, y, z'
loop_
 _atom_site_type_symbol
 _atom_site_label
 _atom_site_symmetry_multiplicity
 _atom_site_fract_x
 _atom_site_fract_y
 _atom_site_fract_z
 _atom_site_occupancy
  Zn  Zn0  1  0.69916865  0.42469494  0.51264899  1.0
  Zn  Zn1  1  0.30082473  0.57530066  0.48735375  1.0
  H  H2  1  0.25934822  0.56219179  0.17062144  1.0
  H  H3  1  0.70546067  0.11184604  0.36717288  1.0
  H  H4  1  0.74066983  0.43781415  0.82938651  1.0
  H  H5  1  0.85845801  0.44122007  0.18444172  1.0
  H  H6  1  0.14154418  0.55877201  0.81555562  1.0
  H  H7  1  0.10997366  0.58068345  0.00347418  1.0
  H  H8  1  0.89003241  0.41930972  0.99652679  1.0
  H  H9  1  0.91104111  0.65851585  0.46587877  1.0
  H  H10  1  0.08895972  0.34148993  0.53411129  1.0
  H  H11  1  0.29454744  0.88817455  0.63283494  1.0
  C  C12  1  0.49327717  0.20306386  0.52460216  1.0
  C  C13  1  0.73549458  0.46295104  0.13834678  1.0
  C  C14  1  0.60376793  0.46833881  0.86856771  1.0
  C  C15  1  0.39624911  0.53166681  0.13143028  1.0
  C  C16  1  0.59093221  0.47954757  0.97514813  1.0
  C  C17  1  0.40908400  0.52047748  0.02484748  1.0
  C  C18  1  0.44699077  0.05035961  0.52822215  1.0
  C  C19  1  0.55298592  0.94965146  0.47177446  1.0
  C  C20  1  0.28137212  0.01343155  0.59508125  1.0
  C  C21  1  0.71860514  0.98657256  0.40492287  1.0
  C  C22  1  0.50674801  0.79692041  0.47539119  1.0
  C  C23  1  0.46276576  0.48871319  0.69879308  1.0
  C  C24  1  0.53727242  0.51126384  0.30120661  1.0
  C  C25  1  0.55566406  0.50331047  0.18765503  1.0
  C  C26  1  0.44433327  0.49668731  0.81234508  1.0
  C  C27  1  0.24776223  0.54842014  0.96540987  1.0
  C  C28  1  0.75224682  0.45159578  0.03458599  1.0
  C  C29  1  0.26451812  0.53705249  0.86166619  1.0
  N  N30  1  0.02495612  0.56211724  0.48734694  1.0
  N  N31  1  0.97504333  0.43787574  0.51264734  1.0
  O  O32  1  0.66331176  0.20098747  0.53376455  1.0
  O  O33  1  0.85906884  0.88823400  0.38857715  1.0
  O  O34  1  0.33665908  0.79901013  0.46624959  1.0
  O  O35  1  0.35686217  0.32182447  0.51066221  1.0
  O  O36  1  0.64312010  0.67818618  0.48933270  1.0
  O  O37  1  0.62400109  0.42725767  0.66380763  1.0
  O  O38  1  0.37598961  0.57273672  0.33619762  1.0
  O  O39  1  0.31566551  0.54632605  0.64487352  1.0
  O  O40  1  0.68433039  0.45364821  0.35512863  1.0
  O  O41  1  0.14089221  0.11177055  0.61141748  1.0
