# generated using pymatgen
data_Ni3H18C30N15O7
_symmetry_space_group_name_H-M   'P 1'
_cell_length_a   19.85230352
_cell_length_b   19.85250300
_cell_length_c   19.85234338
_cell_angle_alpha   70.52936124
_cell_angle_beta   70.52873484
_cell_angle_gamma   109.47121993
_symmetry_Int_Tables_number   1
_chemical_formula_structural   Ni3H18C30N15O7
_chemical_formula_sum   'Ni12 H72 C120 N60 O28'
_cell_volume   6023.08439183
_cell_formula_units_Z   4
loop_
 _symmetry_equiv_pos_site_id
 _symmetry_equiv_pos_as_xyz
  1  'x, y, z'
loop_
 _atom_site_type_symbol
 _atom_site_label
 _atom_site_symmetry_multiplicity
 _atom_site_fract_x
 _atom_site_fract_y
 _atom_site_fract_z
 _atom_site_occupancy
  Ni  Ni0  1  0.00000694  0.66590564  0.90107668  1.0
  Ni  Ni1  1  0.43301659  0.33410443  0.66589880  1.0
  Ni  Ni2  1  0.56697037  0.90106752  0.09893287  1.0
  Ni  Ni3  1  0.00000381  0.09892233  0.33409355  1.0
  Ni  Ni4  1  0.33410096  0.33410673  0.56696684  1.0
  Ni  Ni5  1  0.66590162  0.09891189  0.00000882  1.0
  Ni  Ni6  1  0.09892381  0.66589935  0.00000562  1.0
  Ni  Ni7  1  0.90107177  0.90107127  0.43302601  1.0
  Ni  Ni8  1  0.66588489  0.99998720  0.90108568  1.0
  Ni  Ni9  1  0.90107679  0.56697506  0.09893493  1.0
  Ni  Ni10  1  0.33409979  0.43303183  0.66589573  1.0
  Ni  Ni11  1  0.09892452  0.00000068  0.33409219  1.0
  H  H12  1  0.23662003  0.51099919  0.63571142  1.0
  H  H13  1  0.85330275  0.48901713  0.27437235  1.0
  H  H14  1  0.14670430  0.87233428  0.36429022  1.0
  H  H15  1  0.76335432  0.12764566  0.72563923  1.0
  H  H16  1  0.48899239  0.72562514  0.14670409  1.0
  H  H17  1  0.51099318  0.36429697  0.76338016  1.0
  H  H18  1  0.12765921  0.27437120  0.23662165  1.0
  H  H19  1  0.87235062  0.63572852  0.85328483  1.0
  H  H20  1  0.27437321  0.76336285  0.87234484  1.0
  H  H21  1  0.63572032  0.14671055  0.12766375  1.0
  H  H22  1  0.72563518  0.85329535  0.51100237  1.0
  H  H23  1  0.36429288  0.23663585  0.48899884  1.0
  H  H24  1  0.72564967  0.48901222  0.14670632  1.0
  H  H25  1  0.36429596  0.51099873  0.76336246  1.0
  H  H26  1  0.27437250  0.12765736  0.23663045  1.0
  H  H27  1  0.63569955  0.87232593  0.85329380  1.0
  H  H28  1  0.76338359  0.27436997  0.87234568  1.0
  H  H29  1  0.14670878  0.63570396  0.12766239  1.0
  H  H30  1  0.85329147  0.72562684  0.51099241  1.0
  H  H31  1  0.23662150  0.36428921  0.48900113  1.0
  H  H32  1  0.51099715  0.23662864  0.63570863  1.0
  H  H33  1  0.48899501  0.85329140  0.27436287  1.0
  H  H34  1  0.87233631  0.14671431  0.36428492  1.0
  H  H35  1  0.12767391  0.76339530  0.72561969  1.0
  H  H36  1  0.16289709  0.57042452  0.70391836  1.0
  H  H37  1  0.72567103  0.42959673  0.40752401  1.0
  H  H38  1  0.27432951  0.86680781  0.29607964  1.0
  H  H39  1  0.83709316  0.13317424  0.59248971  1.0
  H  H40  1  0.42957693  0.59247273  0.27433636  1.0
  H  H41  1  0.57041771  0.29608731  0.83710808  1.0
  H  H42  1  0.13318943  0.40752498  0.16289520  1.0
  H  H43  1  0.86682442  0.70392650  0.72565893  1.0
  H  H44  1  0.40752564  0.83710331  0.86681661  1.0
  H  H45  1  0.70391940  0.27433425  0.13318982  1.0
  H  H46  1  0.59248298  0.72567302  0.57041712  1.0
  H  H47  1  0.29609019  0.16290287  0.42957803  1.0
  H  H48  1  0.59249701  0.42959574  0.27432700  1.0
  H  H49  1  0.29609486  0.57042416  0.83709266  1.0
  H  H50  1  0.40752082  0.13317675  0.16289176  1.0
  H  H51  1  0.70391195  0.86680447  0.72566609  1.0
  H  H52  1  0.83710616  0.40751923  0.86682218  1.0
  H  H53  1  0.27432936  0.70391270  0.13319358  1.0
  H  H54  1  0.72566086  0.59247895  0.57041001  1.0
  H  H55  1  0.16289298  0.29608133  0.42957916  1.0
  H  H56  1  0.57041717  0.16290093  0.70391840  1.0
  H  H57  1  0.42958617  0.72567048  0.40751282  1.0
  H  H58  1  0.86681441  0.27434477  0.29608181  1.0
  H  H59  1  0.13319494  0.83711327  0.59246821  1.0
  H  H60  1  0.87650259  0.79892211  0.86758065  1.0
  H  H61  1  0.33351404  0.20109270  0.92240867  1.0
  H  H62  1  0.66647144  0.74405006  0.13246690  1.0
  H  H63  1  0.12348769  0.25592856  0.07759375  1.0
  H  H64  1  0.20105956  0.07756099  0.66648987  1.0
  H  H65  1  0.79891126  0.13240445  0.12350723  1.0
  H  H66  1  0.25596563  0.92246065  0.87649096  1.0
  H  H67  1  0.74405031  0.86752723  0.33351751  1.0
  H  H68  1  0.92243267  0.12348560  0.74406035  1.0
  H  H69  1  0.86757502  0.66650418  0.25592475  1.0
  H  H70  1  0.07757030  0.33350791  0.79892299  1.0
  H  H71  1  0.13245280  0.87651284  0.20106493  1.0
  H  H72  1  0.07758401  0.20107686  0.66647157  1.0
  H  H73  1  0.13245932  0.79893845  0.12348284  1.0
  H  H74  1  0.92242688  0.25592288  0.87649876  1.0
  H  H75  1  0.86757588  0.74407791  0.33349763  1.0
  H  H76  1  0.12350889  0.92241612  0.74407102  1.0
  H  H77  1  0.66646999  0.86752891  0.25594140  1.0
  H  H78  1  0.33352220  0.07760605  0.79890927  1.0
  H  H79  1  0.87648976  0.13241882  0.20107161  1.0
  H  H80  1  0.79892753  0.87649532  0.86756820  1.0
  H  H81  1  0.20105099  0.33351329  0.92244155  1.0
  H  H82  1  0.74406072  0.66648579  0.13245623  1.0
  H  H83  1  0.25595155  0.12351599  0.07755286  1.0
  C  C84  1  0.24852483  0.52594318  0.67997708  1.0
  C  C85  1  0.79409020  0.47406982  0.27741483  1.0
  C  C86  1  0.20591486  0.92849692  0.32002414  1.0
  C  C87  1  0.75146146  0.07147850  0.72259575  1.0
  C  C88  1  0.47404647  0.72258397  0.20592033  1.0
  C  C89  1  0.52593625  0.32002483  0.75147504  1.0
  C  C90  1  0.07149276  0.27741631  0.24851973  1.0
  C  C91  1  0.92851913  0.67999687  0.79407363  1.0
  C  C92  1  0.27741141  0.75146306  0.92851798  1.0
  C  C93  1  0.67998573  0.20591888  0.07150025  1.0
  C  C94  1  0.72258981  0.79408393  0.52594211  1.0
  C  C95  1  0.32002306  0.24853498  0.47405322  1.0
  C  C96  1  0.72260295  0.47407195  0.20591687  1.0
  C  C97  1  0.32002355  0.52594323  0.75146546  1.0
  C  C98  1  0.27741212  0.07148679  0.24852994  1.0
  C  C99  1  0.67997137  0.92849183  0.79408675  1.0
  C  C100  1  0.75148162  0.27741043  0.92851616  1.0
  C  C101  1  0.20592006  0.67996936  0.07149991  1.0
  C  C102  1  0.79408035  0.72258770  0.52593578  1.0
  C  C103  1  0.24852535  0.32002152  0.47405628  1.0
  C  C104  1  0.52593930  0.24853146  0.67997834  1.0
  C  C105  1  0.47404914  0.79407937  0.27740944  1.0
  C  C106  1  0.92850733  0.20592548  0.32001360  1.0
  C  C107  1  0.07150569  0.75149275  0.72257841  1.0
  C  C108  1  0.20767791  0.55867922  0.71815123  1.0
  C  C109  1  0.72317865  0.44133614  0.35099921  1.0
  C  C110  1  0.27681940  0.92581812  0.28184813  1.0
  C  C111  1  0.79231213  0.07415854  0.64901149  1.0
  C  C112  1  0.44131566  0.64899962  0.27683133  1.0
  C  C113  1  0.55867901  0.28185074  0.79232316  1.0
  C  C114  1  0.07417035  0.35100602  0.20767368  1.0
  C  C115  1  0.92584090  0.71816385  0.72316416  1.0
  C  C116  1  0.35100026  0.79231578  0.92583877  1.0
  C  C117  1  0.71815343  0.27682953  0.07417461  1.0
  C  C118  1  0.64900380  0.72317748  0.55867646  1.0
  C  C119  1  0.28185192  0.20768395  0.44131783  1.0
  C  C120  1  0.64901647  0.44133706  0.27682128  1.0
  C  C121  1  0.28185477  0.55868281  0.79231230  1.0
  C  C122  1  0.35099583  0.07416048  0.20767642  1.0
  C  C123  1  0.71814848  0.92581821  0.72317562  1.0
  C  C124  1  0.79232578  0.35099753  0.92583905  1.0
  C  C125  1  0.27682382  0.71814926  0.07417902  1.0
  C  C126  1  0.72316913  0.64900308  0.55866962  1.0
  C  C127  1  0.20767918  0.28184917  0.44131657  1.0
  C  C128  1  0.55868113  0.20768492  0.71815077  1.0
  C  C129  1  0.44132196  0.72317505  0.35099411  1.0
  C  C130  1  0.92583160  0.27683818  0.28184396  1.0
  C  C131  1  0.07418034  0.79233557  0.64898815  1.0
  C  C132  1  0.22273981  0.57395885  0.77725892  1.0
  C  C133  1  0.64879288  0.42605775  0.35121162  1.0
  C  C134  1  0.35120747  0.99998775  0.22273796  1.0
  C  C135  1  0.77725715  0.99999127  0.64878808  1.0
  C  C136  1  0.42604064  0.64878539  0.35121827  1.0
  C  C137  1  0.57395518  0.22273714  0.77726502  1.0
  C  C138  1  0.00000223  0.35122574  0.22273584  1.0
  C  C139  1  0.00000721  0.77726725  0.64877271  1.0
  C  C140  1  0.35121441  0.77725853  0.00001145  1.0
  C  C141  1  0.77726234  0.35121800  0.00000782  1.0
  C  C142  1  0.64878124  0.64878850  0.57395241  1.0
  C  C143  1  0.22274228  0.22274216  0.42603531  1.0
  C  C144  1  0.17668470  0.60237791  0.82331344  1.0
  C  C145  1  0.57431838  0.39763559  0.42568515  1.0
  C  C146  1  0.42569006  0.00000058  0.17668255  1.0
  C  C147  1  0.82331604  0.99999731  0.57430768  1.0
  C  C148  1  0.39761959  0.57431397  0.42568827  1.0
  C  C149  1  0.60237056  0.17668358  0.82332320  1.0
  C  C150  1  0.99999927  0.42569740  0.17669083  1.0
  C  C151  1  0.00000340  0.82331497  0.57429788  1.0
  C  C152  1  0.42569025  0.82331594  0.00000137  1.0
  C  C153  1  0.82331362  0.42569528  0.00000206  1.0
  C  C154  1  0.57430912  0.57431261  0.60237249  1.0
  C  C155  1  0.17669051  0.17668995  0.39761421  1.0
  C  C156  1  0.86276799  0.68402598  0.00001675  1.0
  C  C157  1  0.31596145  0.31598346  0.82125660  1.0
  C  C158  1  0.68401977  0.86275369  0.00001184  1.0
  C  C159  1  0.13723205  0.13722484  0.17874434  1.0
  C  C160  1  0.31596691  0.17875566  0.68401643  1.0
  C  C161  1  0.68401582  0.99997881  0.13723712  1.0
  C  C162  1  0.13724636  0.82126828  0.86277718  1.0
  C  C163  1  0.86275763  0.99998070  0.31597185  1.0
  C  C164  1  0.82125821  0.13721636  0.86277169  1.0
  C  C165  1  0.00001092  0.68403169  0.13723178  1.0
  C  C166  1  0.17874161  0.31598479  0.68401330  1.0
  C  C167  1  0.00001058  0.86277214  0.31596774  1.0
  C  C168  1  0.81457802  0.72835788  0.00001581  1.0
  C  C169  1  0.27162737  0.27164110  0.91379058  1.0
  C  C170  1  0.72835985  0.81456787  0.00001524  1.0
  C  C171  1  0.18542918  0.18542303  0.08620660  1.0
  C  C172  1  0.27162798  0.08621403  0.72836103  1.0
  C  C173  1  0.72835420  0.99997454  0.18543033  1.0
  C  C174  1  0.18543869  0.91380119  0.81457810  1.0
  C  C175  1  0.81456476  0.99997998  0.27163326  1.0
  C  C176  1  0.91379294  0.18541256  0.81457526  1.0
  C  C177  1  0.00000950  0.72837537  0.18541974  1.0
  C  C178  1  0.08621297  0.27163691  0.72835397  1.0
  C  C179  1  0.00001033  0.81458478  0.27162843  1.0
  C  C180  1  0.82995659  0.78704316  0.92516048  1.0
  C  C181  1  0.28780701  0.21295855  0.95708567  1.0
  C  C182  1  0.71218761  0.75508913  0.07487744  1.0
  C  C183  1  0.17003654  0.24489861  0.04291062  1.0
  C  C184  1  0.21294058  0.04289525  0.71219638  1.0
  C  C185  1  0.78703781  0.07483182  0.17005198  1.0
  C  C186  1  0.24491442  0.95711359  0.82995205  1.0
  C  C187  1  0.75508284  0.92511257  0.28781574  1.0
  C  C188  1  0.95709792  0.17003275  0.75509584  1.0
  C  C189  1  0.92515055  0.71220512  0.24489991  1.0
  C  C190  1  0.04290536  0.28780381  0.78704013  1.0
  C  C191  1  0.07487097  0.82996138  0.21294462  1.0
  C  C192  1  0.04291246  0.21294668  0.71217961  1.0
  C  C193  1  0.07487194  0.78705962  0.17003680  1.0
  C  C194  1  0.95709921  0.24489200  0.82994992  1.0
  C  C195  1  0.92515563  0.75511103  0.28779372  1.0
  C  C196  1  0.17004805  0.95709454  0.75510129  1.0
  C  C197  1  0.71217497  0.92511162  0.24490811  1.0
  C  C198  1  0.28781169  0.04291783  0.78704855  1.0
  C  C199  1  0.82994412  0.07483593  0.21294780  1.0
  C  C200  1  0.78704827  0.82994557  0.92515631  1.0
  C  C201  1  0.21293722  0.28780786  0.95710177  1.0
  C  C202  1  0.75509445  0.71218496  0.07486918  1.0
  C  C203  1  0.24491369  0.17005701  0.04288619  1.0
  N  N204  1  0.30260310  0.50827894  0.69739038  1.0
  N  N205  1  0.79433944  0.49173450  0.20567439  1.0
  N  N206  1  0.20567287  0.99999294  0.30260210  1.0
  N  N207  1  0.69738415  0.99998533  0.79433115  1.0
  N  N208  1  0.49170810  0.79432496  0.20567170  1.0
  N  N209  1  0.50826753  0.30260366  0.69740105  1.0
  N  N210  1  0.99999884  0.20567631  0.30259583  1.0
  N  N211  1  0.00001208  0.69741643  0.79431952  1.0
  N  N212  1  0.20567202  0.69738454  0.00000898  1.0
  N  N213  1  0.69740900  0.20567151  0.00000685  1.0
  N  N214  1  0.79432714  0.79432777  0.50827687  1.0
  N  N215  1  0.30260906  0.30261333  0.49171385  1.0
  N  N216  1  0.09013056  0.63760547  0.86866883  1.0
  N  N217  1  0.49372820  0.36240353  0.54746691  1.0
  N  N218  1  0.50627374  0.95879612  0.13133408  1.0
  N  N219  1  0.90986656  0.04119876  0.45252220  1.0
  N  N220  1  0.36239165  0.45253288  0.50626725  1.0
  N  N221  1  0.63760287  0.13133265  0.90987292  1.0
  N  N222  1  0.04119684  0.54747530  0.09013860  1.0
  N  N223  1  0.95879775  0.86866334  0.49372529  1.0
  N  N224  1  0.54746412  0.90986085  0.95881140  1.0
  N  N225  1  0.86866195  0.50627556  0.04120614  1.0
  N  N226  1  0.45252355  0.49373307  0.63760201  1.0
  N  N227  1  0.13133196  0.09013344  0.36239072  1.0
  N  N228  1  0.45252814  0.36240153  0.50626677  1.0
  N  N229  1  0.13132762  0.63760404  0.90987302  1.0
  N  N230  1  0.54747069  0.04119434  0.09014067  1.0
  N  N231  1  0.86866511  0.95879835  0.49372088  1.0
  N  N232  1  0.90986300  0.54747761  0.95880414  1.0
  N  N233  1  0.50626686  0.86866238  0.04121166  1.0
  N  N234  1  0.49372420  0.45253388  0.63760196  1.0
  N  N235  1  0.09013246  0.13133393  0.36239315  1.0
  N  N236  1  0.63760098  0.09013117  0.86867396  1.0
  N  N237  1  0.36239045  0.49373276  0.54746782  1.0
  N  N238  1  0.95879593  0.50627327  0.13134416  1.0
  N  N239  1  0.04119996  0.90986492  0.45252142  1.0
  N  N240  1  0.11707469  0.61579401  0.81374254  1.0
  N  N241  1  0.57046847  0.38421867  0.49871473  1.0
  N  N242  1  0.42953510  0.93081683  0.18625290  1.0
  N  N243  1  0.88292926  0.06918364  0.50127936  1.0
  N  N244  1  0.38420644  0.50128715  0.42952881  1.0
  N  N245  1  0.61579019  0.18625382  0.88293283  1.0
  N  N246  1  0.06918184  0.49872294  0.11707668  1.0
  N  N247  1  0.93081330  0.81373757  0.57046412  1.0
  N  N248  1  0.49871746  0.88292922  0.93081182  1.0
  N  N249  1  0.81374049  0.42953753  0.06918872  1.0
  N  N250  1  0.50128048  0.57047201  0.61578594  1.0
  N  N251  1  0.18625942  0.11707621  0.38420062  1.0
  N  N252  1  0.50128930  0.38421712  0.42952962  1.0
  N  N253  1  0.18625258  0.61579073  0.88292816  1.0
  N  N254  1  0.49872067  0.06918341  0.11707657  1.0
  N  N255  1  0.81374209  0.93081137  0.57046386  1.0
  N  N256  1  0.88292611  0.49872366  0.93081798  1.0
  N  N257  1  0.42953149  0.81374410  0.06918462  1.0
  N  N258  1  0.57046263  0.50128492  0.61578826  1.0
  N  N259  1  0.11707508  0.18626004  0.38420464  1.0
  N  N260  1  0.61578426  0.11706992  0.81374990  1.0
  N  N261  1  0.38420268  0.57046846  0.49871556  1.0
  N  N262  1  0.93081129  0.42953700  0.18626998  1.0
  N  N263  1  0.06918981  0.88292781  0.50127084  1.0
  O  O264  1  0.91577494  0.70235687  0.92960712  1.0
  O  O265  1  0.36804376  0.29765043  0.78657794  1.0
  O  O266  1  0.63194253  0.84534636  0.07042822  1.0
  O  O267  1  0.08421446  0.15462527  0.21341787  1.0
  O  O268  1  0.29761869  0.21341657  0.63194742  1.0
  O  O269  1  0.70234899  0.07038760  0.08423085  1.0
  O  O270  1  0.15464026  0.78659290  0.91578914  1.0
  O  O271  1  0.84536326  0.92957055  0.36804174  1.0
  O  O272  1  0.78658994  0.08420623  0.84537142  1.0
  O  O273  1  0.92959886  0.63195530  0.15463543  1.0
  O  O274  1  0.21341394  0.36805852  0.70235243  1.0
  O  O275  1  0.07041831  0.91578964  0.29763000  1.0
  O  O276  1  0.21341628  0.29764493  0.63193767  1.0
  O  O277  1  0.07042553  0.70236897  0.08422181  1.0
  O  O278  1  0.78657952  0.15461894  0.91577782  1.0
  O  O279  1  0.92959848  0.84536182  0.36804976  1.0
  O  O280  1  0.08423139  0.78658585  0.84537936  1.0
  O  O281  1  0.63193779  0.92956776  0.15464142  1.0
  O  O282  1  0.36804761  0.21342821  0.70235753  1.0
  O  O283  1  0.91575792  0.07039719  0.29764227  1.0
  O  O284  1  0.70235618  0.91575519  0.92959908  1.0
  O  O285  1  0.29761759  0.36804801  0.78658725  1.0
  O  O286  1  0.84538189  0.63195812  0.07041324  1.0
  O  O287  1  0.15463772  0.08421841  0.21341104  1.0
  O  O288  1  0.99999561  0.64650636  0.00000513  1.0
  O  O289  1  0.35349770  0.35350660  0.64649632  1.0
  O  O290  1  0.64650715  0.00000060  0.00000419  1.0
  O  O291  1  0.00000119  0.99999717  0.35349002  1.0
