# generated using pymatgen
data_Al6H16C67O29F4
_symmetry_space_group_name_H-M   'P 1'
_cell_length_a   12.13768454
_cell_length_b   12.18671599
_cell_length_c   27.05242907
_cell_angle_alpha   82.32880154
_cell_angle_beta   82.28408731
_cell_angle_gamma   63.75878305
_symmetry_Int_Tables_number   1
_chemical_formula_structural   Al6H16C67O29F4
_chemical_formula_sum   'Al6 H16 C67 O29 F4'
_cell_volume   3544.27082485
_cell_formula_units_Z   1
loop_
 _symmetry_equiv_pos_site_id
 _symmetry_equiv_pos_as_xyz
  1  'x, y, z'
loop_
 _atom_site_type_symbol
 _atom_site_label
 _atom_site_symmetry_multiplicity
 _atom_site_fract_x
 _atom_site_fract_y
 _atom_site_fract_z
 _atom_site_occupancy
  Al  Al0  1  0.40241316  0.40258709  0.51160134  1.0
  Al  Al1  1  0.65982235  0.42291645  0.49573407  1.0
  Al  Al2  1  0.42535187  0.65774851  0.49713379  1.0
  Al  Al3  1  0.92801423  0.93947200  0.97891212  1.0
  Al  Al4  1  0.91426559  0.67974115  0.99550069  1.0
  Al  Al5  1  0.67559814  0.90967629  0.99422918  1.0
  H  H6  1  0.11667731  0.88105713  0.20841886  1.0
  H  H7  1  0.21716861  0.46249116  0.28517820  1.0
  H  H8  1  0.44750047  0.22748364  0.22761224  1.0
  H  H9  1  0.58255526  0.04044631  0.30042877  1.0
  H  H10  1  0.53407918  0.38628772  0.26025623  1.0
  H  H11  1  0.97085089  0.07561512  0.22587024  1.0
  H  H12  1  0.74177403  0.29900054  0.18931194  1.0
  H  H13  1  0.78964997  0.95578161  0.22958776  1.0
  H  H14  1  0.67538817  0.84371160  0.69580055  1.0
  H  H15  1  0.67903344  0.47488504  0.79538614  1.0
  H  H16  1  0.85661181  0.47687950  0.71603784  1.0
  H  H17  1  0.86701435  0.67676096  0.75523703  1.0
  H  H18  1  0.33635411  0.72495388  0.25428621  1.0
  H  H19  1  0.35515424  0.52742654  0.20247340  1.0
  H  H20  1  0.30527688  0.28556289  0.55492681  1.0
  H  H21  1  0.04221255  0.03907030  0.99701462  1.0
  C  C22  1  0.61436171  0.28377919  0.43569362  1.0
  C  C23  1  0.14985227  0.67908114  0.19664297  1.0
  C  C24  1  0.19575029  0.55480836  0.26750702  1.0
  C  C25  1  0.61777960  0.61556894  0.41765411  1.0
  C  C26  1  0.18567922  0.66430183  0.29662727  1.0
  C  C27  1  0.27218556  0.59138158  0.22270033  1.0
  C  C28  1  0.26142458  0.70105055  0.25032668  1.0
  C  C29  1  0.12840675  0.68772914  0.14597235  1.0
  C  C30  1  0.20621908  0.65667350  0.34735356  1.0
  C  C31  1  0.61634857  0.09886742  0.27521519  1.0
  C  C32  1  0.54206702  0.20237075  0.23553446  1.0
  C  C33  1  0.66375712  0.66510177  0.26888529  1.0
  C  C34  1  0.67587420  0.10670942  0.10208058  1.0
  C  C35  1  0.64397225  0.23533657  0.38768862  1.0
  C  C36  1  0.73127335  0.05161471  0.23657125  1.0
  C  C37  1  0.27899300  0.61976979  0.43836606  1.0
  C  C38  1  0.65750743  0.15463788  0.19559187  1.0
  C  C39  1  0.77862130  0.13972403  0.25480188  1.0
  C  C40  1  0.66301017  0.18729206  0.29420579  1.0
  C  C41  1  0.70452451  0.24274504  0.21415955  1.0
  C  C42  1  0.58958118  0.29016700  0.25280687  1.0
  C  C43  1  0.66272686  0.13187249  0.14525791  1.0
  C  C44  1  0.65311098  0.65428277  0.31909216  1.0
  C  C45  1  0.65772533  0.20998153  0.34456252  1.0
  C  C46  1  0.67741647  0.76154288  0.71828996  1.0
  C  C47  1  0.57952566  0.75993619  0.76154596  1.0
  C  C48  1  0.70135379  0.68596420  0.88988400  1.0
  C  C49  1  0.61806790  0.27934799  0.57717709  1.0
  C  C50  1  0.64842050  0.63762973  0.60133275  1.0
  C  C51  1  0.78317792  0.66846246  0.75048061  1.0
  C  C52  1  0.68472474  0.66724272  0.79565457  1.0
  C  C53  1  0.77751318  0.55796026  0.72936873  1.0
  C  C54  1  0.67217633  0.65034796  0.69539828  1.0
  C  C55  1  0.64202310  0.64285758  0.36502268  1.0
  C  C56  1  0.67927316  0.55604643  0.77277338  1.0
  C  C57  1  0.57391260  0.64846023  0.74069878  1.0
  C  C58  1  0.69332980  0.67547009  0.84644026  1.0
  C  C59  1  0.66106285  0.64419212  0.64466610  1.0
  C  C60  1  0.10558510  0.69943261  0.86357868  1.0
  C  C61  1  0.62086498  0.61577342  0.55479417  1.0
  C  C62  1  0.13210558  0.68666893  0.81867942  1.0
  C  C63  1  0.15863082  0.67431316  0.76949457  1.0
  C  C64  1  0.18100318  0.66472153  0.72401611  1.0
  C  C65  1  0.20808497  0.65253378  0.67483402  1.0
  C  C66  1  0.06361034  0.75200210  0.27045094  1.0
  C  C67  1  0.23464512  0.64037234  0.62989338  1.0
  C  C68  1  0.69207381  0.10320212  0.86209540  1.0
  C  C69  1  0.68194327  0.12910903  0.81702897  1.0
  C  C70  1  0.67221208  0.15508546  0.76767028  1.0
  C  C71  1  0.66488469  0.17655386  0.72204827  1.0
  C  C72  1  0.65505831  0.20248169  0.67268592  1.0
  C  C73  1  0.28520089  0.61157406  0.57959737  1.0
  C  C74  1  0.64479508  0.22843551  0.62762393  1.0
  C  C75  1  0.05433941  0.72570422  0.05505747  1.0
  C  C76  1  0.72020475  0.71930818  0.07385311  1.0
  C  C77  1  0.13967048  0.78827202  0.22581567  1.0
  C  C78  1  0.70912415  0.05653069  0.05427458  1.0
  C  C79  1  0.05441995  0.72784431  0.91379217  1.0
  C  C80  1  0.72398957  0.71227420  0.93647491  1.0
  C  C81  1  0.71794791  0.05325158  0.91266543  1.0
  C  C82  1  0.69483465  0.69368080  0.12648992  1.0
  C  C83  1  0.68365787  0.68323450  0.17244969  1.0
  C  C84  1  0.67244739  0.67312825  0.22266770  1.0
  C  C85  1  0.90911955  0.10475689  0.26120825  1.0
  C  C86  1  0.10448813  0.69841920  0.10278493  1.0
  C  C87  1  0.22912723  0.64745989  0.39057282  1.0
  C  C88  1  0.07461681  0.64157792  0.24300687  1.0
  O  O89  1  0.29739339  0.51668831  0.46112658  1.0
  O  O90  1  0.64211200  0.81874299  0.05304734  1.0
  O  O91  1  0.62862198  0.03285692  0.03671434  1.0
  O  O92  1  0.50732559  0.30872053  0.45638524  1.0
  O  O93  1  0.81900566  0.03876976  0.92648296  1.0
  O  O94  1  0.02954121  0.83359340  0.92540683  1.0
  O  O95  1  0.03399718  0.64332867  0.94192906  1.0
  O  O96  1  0.82553686  0.63861030  0.95499185  1.0
  O  O97  1  0.64430160  0.81098589  0.95523455  1.0
  O  O98  1  0.63669727  0.02333975  0.93864396  1.0
  O  O99  1  0.83825369  0.84162499  0.98994228  1.0
  O  O100  1  0.69720630  0.51768927  0.53475782  1.0
  O  O101  1  0.69835804  0.30244549  0.45305890  1.0
  O  O102  1  0.69419031  0.51326842  0.43718504  1.0
  O  O103  1  0.51901457  0.69255112  0.43939707  1.0
  O  O104  1  0.30614575  0.70109665  0.45280133  1.0
  O  O105  1  0.30801247  0.50617264  0.56815233  1.0
  O  O106  1  0.51567165  0.29629652  0.56384605  1.0
  O  O107  1  0.69989220  0.30781112  0.55092689  1.0
  O  O108  1  0.95051486  0.10652459  0.29959514  1.0
  O  O109  1  0.51854433  0.69272186  0.53776437  1.0
  O  O110  1  0.30694999  0.69500836  0.55131528  1.0
  O  O111  1  0.49708657  0.49573542  0.50168399  1.0
  O  O112  1  0.81590376  0.03501602  0.03412782  1.0
  O  O113  1  0.03162574  0.83030961  0.03275430  1.0
  O  O114  1  0.03177330  0.64191898  0.04011201  1.0
  O  O115  1  0.82167573  0.64370890  0.05314499  1.0
  O  O116  1  0.31515149  0.31876612  0.52101861  1.0
  O  O117  1  0.00905559  0.02936445  0.96822280  1.0
  F  F118  1  0.48074001  0.86142807  0.77745473  1.0
  F  F119  1  0.46932772  0.63746591  0.73570725  1.0
  F  F120  1  0.95777916  0.83217247  0.29444067  1.0
  F  F121  1  0.97977765  0.61286270  0.23904622  1.0
