# generated using pymatgen
data_GaH3C4O5
_symmetry_space_group_name_H-M   'P 1'
_cell_length_a   6.83957090
_cell_length_b   8.99789708
_cell_length_c   8.99795262
_cell_angle_alpha   77.66264513
_cell_angle_beta   75.20058845
_cell_angle_gamma   75.20088124
_symmetry_Int_Tables_number   1
_chemical_formula_structural   GaH3C4O5
_chemical_formula_sum   'Ga2 H6 C8 O10'
_cell_volume   511.05311288
_cell_formula_units_Z   2
loop_
 _symmetry_equiv_pos_site_id
 _symmetry_equiv_pos_as_xyz
  1  'x, y, z'
loop_
 _atom_site_type_symbol
 _atom_site_label
 _atom_site_symmetry_multiplicity
 _atom_site_fract_x
 _atom_site_fract_y
 _atom_site_fract_z
 _atom_site_occupancy
  Ga  Ga0  1  0.50001573  0.49996586  0.49998083  1.0
  Ga  Ga1  1  0.00001513  0.49997858  0.49996518  1.0
  H  H2  1  0.74983500  0.66447166  0.33594306  1.0
  H  H3  1  0.24979579  0.33599718  0.66452712  1.0
  H  H4  1  0.22710677  0.01384470  0.47567485  1.0
  H  H5  1  0.27290985  0.52433784  0.98611556  1.0
  H  H6  1  0.77291032  0.98611068  0.52434263  1.0
  H  H7  1  0.72711174  0.47567056  0.01384591  1.0
  C  C8  1  0.14832070  0.78699892  0.49390526  1.0
  C  C9  1  0.35171292  0.50606592  0.21295689  1.0
  C  C10  1  0.85172747  0.21295360  0.50606454  1.0
  C  C11  1  0.64831543  0.49390304  0.78700010  1.0
  C  C12  1  0.09740581  0.95815211  0.49178592  1.0
  C  C13  1  0.40263716  0.50821462  0.04181715  1.0
  C  C14  1  0.90262591  0.04182085  0.50821962  1.0
  C  C15  1  0.59739334  0.49178906  0.95815021  1.0
  O  O16  1  0.34102272  0.72393338  0.47198722  1.0
  O  O17  1  0.15902509  0.52797963  0.27602690  1.0
  O  O18  1  0.65901170  0.27602493  0.52798407  1.0
  O  O19  1  0.84102562  0.47199043  0.72393442  1.0
  O  O20  1  0.99797268  0.71981601  0.51567748  1.0
  O  O21  1  0.50205507  0.48424898  0.28015578  1.0
  O  O22  1  0.00204228  0.28015225  0.48424445  1.0
  O  O23  1  0.49797423  0.51567443  0.71981910  1.0
  O  O24  1  0.75001536  0.57832209  0.42159990  1.0
  O  O25  1  0.25002242  0.42158243  0.57831045  1.0
