# generated using pymatgen
data_AlH9C19N2O5F4
_symmetry_space_group_name_H-M   'P 1'
_cell_length_a   6.63953724
_cell_length_b   25.35754492
_cell_length_c   28.89943457
_cell_angle_alpha   90.54734156
_cell_angle_beta   90.67417502
_cell_angle_gamma   91.40783937
_symmetry_Int_Tables_number   1
_chemical_formula_structural   AlH9C19N2O5F4
_chemical_formula_sum   'Al4 H36 C76 N8 O20 F16'
_cell_volume   4863.53592433
_cell_formula_units_Z   4
loop_
 _symmetry_equiv_pos_site_id
 _symmetry_equiv_pos_as_xyz
  1  'x, y, z'
loop_
 _atom_site_type_symbol
 _atom_site_label
 _atom_site_symmetry_multiplicity
 _atom_site_fract_x
 _atom_site_fract_y
 _atom_site_fract_z
 _atom_site_occupancy
  Al  Al0  1  0.78787276  0.25113843  0.25326488  1.0
  Al  Al1  1  0.21521051  0.74713133  0.74684675  1.0
  Al  Al2  1  0.29149708  0.25287626  0.25275231  1.0
  Al  Al3  1  0.71249183  0.74595637  0.74750692  1.0
  H  H4  1  0.73324217  0.33968625  0.36463454  1.0
  H  H5  1  0.27635813  0.65799895  0.63493989  1.0
  H  H6  1  0.70910007  0.40390240  0.43046497  1.0
  H  H7  1  0.29687426  0.59418744  0.56879632  1.0
  H  H8  1  0.34351342  0.44150964  0.41779805  1.0
  H  H9  1  0.66180504  0.55805147  0.58214166  1.0
  H  H10  1  0.72602972  0.33905360  0.13630215  1.0
  H  H11  1  0.27012626  0.65997848  0.86377084  1.0
  H  H12  1  0.71228473  0.39949014  0.06950482  1.0
  H  H13  1  0.28449501  0.59953648  0.93058367  1.0
  H  H14  1  0.34092369  0.44115574  0.09348572  1.0
  H  H15  1  0.65615292  0.55728626  0.90670269  1.0
  H  H16  1  0.28694319  0.51213754  0.94754822  1.0
  H  H17  1  0.70931529  0.48679568  0.05260940  1.0
  H  H18  1  0.17863229  0.89902315  0.56366081  1.0
  H  H19  1  0.82565417  0.10140233  0.43863329  1.0
  H  H20  1  0.17930015  0.83257061  0.62650577  1.0
  H  H21  1  0.82927484  0.16679547  0.37507604  1.0
  H  H22  1  0.21018500  0.05761412  0.48699484  1.0
  H  H23  1  0.79245401  0.94322338  0.51509585  1.0
  H  H24  1  0.77531473  0.94904435  0.89874824  1.0
  H  H25  1  0.21917528  0.10561549  0.05798536  1.0
  H  H26  1  0.17646221  0.83169039  0.87094223  1.0
  H  H27  1  0.81981938  0.12673209  0.16074213  1.0
  H  H28  1  0.96065769  0.89607395  0.65453716  1.0
  H  H29  1  0.85890793  0.84239018  0.68420269  1.0
  H  H30  1  0.04603709  0.10461819  0.34708352  1.0
  H  H31  1  0.15545992  0.15566963  0.31437649  1.0
  H  H32  1  0.79916839  0.86734975  0.79673162  1.0
  H  H33  1  0.90581453  0.91938689  0.82825814  1.0
  H  H34  1  0.05417024  0.16846012  0.10250123  1.0
  H  H35  1  0.16709981  0.20002991  0.15081618  1.0
  H  H36  1  0.54781045  0.31938903  0.23786329  1.0
  H  H37  1  0.45550452  0.68102865  0.76621219  1.0
  H  H38  1  0.03215718  0.18586797  0.23385392  1.0
  H  H39  1  0.97627783  0.80455289  0.77582397  1.0
  C  C40  1  0.54064294  0.18850175  0.31479277  1.0
  C  C41  1  0.47577085  0.80915437  0.68467060  1.0
  C  C42  1  0.52515281  0.18946765  0.18739507  1.0
  C  C43  1  0.46431038  0.81359213  0.80952850  1.0
  C  C44  1  0.03603487  0.31650061  0.19108000  1.0
  C  C45  1  0.95473381  0.68315118  0.80999459  1.0
  C  C46  1  0.05471846  0.31426394  0.31594699  1.0
  C  C47  1  0.96074420  0.68342353  0.68482221  1.0
  C  C48  1  0.86598519  0.36172336  0.37719426  1.0
  C  C49  1  0.14294700  0.63609271  0.62264324  1.0
  C  C50  1  0.85209977  0.39756262  0.41352494  1.0
  C  C51  1  0.15474195  0.60053023  0.58610684  1.0
  C  C52  1  0.02433080  0.42658807  0.42849989  1.0
  C  C53  1  0.98126734  0.57200433  0.57120729  1.0
  C  C54  1  0.20953890  0.41886958  0.40686534  1.0
  C  C55  1  0.79730143  0.57992695  0.59327276  1.0
  C  C56  1  0.21927861  0.38243736  0.37095966  1.0
  C  C57  1  0.78983606  0.61584438  0.62967187  1.0
  C  C58  1  0.04994350  0.35298718  0.35509806  1.0
  C  C59  1  0.96057942  0.64483579  0.64549586  1.0
  C  C60  1  0.99175352  0.53368139  0.53290131  1.0
  C  C61  1  0.01193626  0.46558303  0.46621999  1.0
  C  C62  1  0.85972800  0.36165650  0.12622845  1.0
  C  C63  1  0.13648160  0.63740121  0.87392260  1.0
  C  C64  1  0.85218282  0.39597551  0.08920731  1.0
  C  C65  1  0.14436513  0.60303736  0.91095906  1.0
  C  C66  1  0.02472972  0.42534122  0.07620123  1.0
  C  C67  1  0.97192461  0.57366942  0.92404690  1.0
  C  C68  1  0.20402170  0.41879620  0.10145154  1.0
  C  C69  1  0.79226129  0.58002324  0.89887534  1.0
  C  C70  1  0.20825095  0.38406094  0.13824179  1.0
  C  C71  1  0.78743861  0.61503748  0.86234878  1.0
  C  C72  1  0.03803155  0.35445391  0.15192305  1.0
  C  C73  1  0.95717317  0.64478043  0.84876265  1.0
  C  C74  1  0.17172890  0.47275170  0.00685166  1.0
  C  C75  1  0.82469490  0.52622432  0.99336038  1.0
  C  C76  1  0.15899997  0.50770468  0.97052685  1.0
  C  C77  1  0.83737566  0.49123248  0.02966068  1.0
  C  C78  1  0.98291519  0.53607297  0.96253579  1.0
  C  C79  1  0.01363761  0.46291406  0.03768752  1.0
  C  C80  1  0.66428226  0.87905237  0.64008115  1.0
  C  C81  1  0.34381259  0.12099974  0.36094784  1.0
  C  C82  1  0.65465570  0.91693128  0.60469381  1.0
  C  C83  1  0.35060978  0.08391813  0.39717270  1.0
  C  C84  1  0.48704941  0.92533922  0.57668508  1.0
  C  C85  1  0.51689631  0.07545158  0.42542019  1.0
  C  C86  1  0.31202500  0.89411629  0.58524237  1.0
  C  C87  1  0.69309877  0.10631602  0.41679658  1.0
  C  C88  1  0.31264527  0.85723215  0.62020792  1.0
  C  C89  1  0.69499069  0.14253038  0.38140505  1.0
  C  C90  1  0.48456627  0.84886755  0.64783315  1.0
  C  C91  1  0.52536261  0.15049796  0.35274068  1.0
  C  C92  1  0.33567262  0.99731474  0.52846223  1.0
  C  C93  1  0.66719646  0.00357647  0.47371069  1.0
  C  C94  1  0.33955228  0.03282321  0.49236767  1.0
  C  C95  1  0.66325606  0.96808834  0.50980115  1.0
  C  C96  1  0.50795459  0.03716000  0.46351729  1.0
  C  C97  1  0.49500728  0.96378321  0.53868649  1.0
  C  C98  1  0.64701939  0.88727848  0.85484531  1.0
  C  C99  1  0.34602681  0.14816788  0.11698645  1.0
  C  C100  1  0.64401678  0.92318565  0.89235565  1.0
  C  C101  1  0.35177083  0.11096613  0.08032420  1.0
  C  C102  1  0.48115713  0.92619730  0.92198951  1.0
  C  C103  1  0.51787652  0.08005766  0.07248836  1.0
  C  C104  1  0.31369696  0.89250022  0.91350717  1.0
  C  C105  1  0.68674449  0.08703890  0.10181985  1.0
  C  C106  1  0.30913353  0.85697957  0.87710688  1.0
  C  C107  1  0.68834448  0.12277333  0.13800483  1.0
  C  C108  1  0.47547885  0.85314913  0.84752054  1.0
  C  C109  1  0.51892447  0.15360964  0.14676139  1.0
  C  C110  1  0.49493904  0.01912601  0.95206967  1.0
  C  C111  1  0.50622648  0.98642587  0.04297267  1.0
  C  C112  1  0.50614454  0.05608604  0.98802254  1.0
  C  C113  1  0.49150810  0.94943750  0.00701112  1.0
  C  C114  1  0.51254739  0.04062583  0.03431112  1.0
  C  C115  1  0.48700328  0.96492962  0.96067143  1.0
  N  N116  1  0.18148189  0.49383179  0.47773529  1.0
  N  N117  1  0.82137158  0.50611548  0.52086429  1.0
  N  N118  1  0.17135343  0.52847048  0.51170134  1.0
  N  N119  1  0.83151770  0.47142119  0.48688929  1.0
  N  N120  1  0.83768007  0.87567448  0.66560003  1.0
  N  N121  1  0.16970419  0.12480035  0.33620831  1.0
  N  N122  1  0.81488272  0.88674049  0.82745378  1.0
  N  N123  1  0.17858304  0.17774188  0.12166360  1.0
  O  O124  1  0.35822229  0.20995789  0.19949510  1.0
  O  O125  1  0.62924888  0.80192200  0.78953462  1.0
  O  O126  1  0.71342039  0.20799266  0.30440038  1.0
  O  O127  1  0.30572432  0.79773921  0.70261986  1.0
  O  O128  1  0.88626710  0.30341686  0.29622218  1.0
  O  O129  1  0.13181701  0.70355063  0.69630226  1.0
  O  O130  1  0.69318825  0.19764799  0.20871346  1.0
  O  O131  1  0.29180898  0.79342251  0.79852331  1.0
  O  O132  1  0.86485397  0.29658734  0.20176140  1.0
  O  O133  1  0.12346611  0.69403480  0.79134188  1.0
  O  O134  1  0.37740745  0.19962429  0.29307234  1.0
  O  O135  1  0.64258055  0.78882990  0.69708858  1.0
  O  O136  1  0.54401884  0.28491671  0.25206846  1.0
  O  O137  1  0.45983207  0.71387452  0.74928592  1.0
  O  O138  1  0.20323255  0.30649314  0.21077621  1.0
  O  O139  1  0.78555837  0.70235136  0.79889652  1.0
  O  O140  1  0.22260250  0.29500051  0.30498790  1.0
  O  O141  1  0.79541806  0.69357639  0.70427784  1.0
  O  O142  1  0.03732164  0.21873822  0.25128852  1.0
  O  O143  1  0.96678618  0.78032378  0.74955874  1.0
  F  F144  1  0.82741983  0.94689211  0.59904126  1.0
  F  F145  1  0.17596187  0.05483286  0.40308252  1.0
  F  F146  1  0.16860980  0.99636595  0.55563460  1.0
  F  F147  1  0.83397645  0.00438115  0.44647383  1.0
  F  F148  1  0.15001354  0.89603460  0.94163320  1.0
  F  F149  1  0.85374416  0.05767800  0.09385547  1.0
  F  F150  1  0.48916102  0.03660084  0.90788392  1.0
  F  F151  1  0.51099882  0.96935458  0.08711723  1.0
  F  F152  1  0.51267757  0.10806929  0.97746042  1.0
  F  F153  1  0.48500617  0.89758502  0.01736921  1.0
  F  F154  1  0.40037446  0.37723530  0.35028683  1.0
  F  F155  1  0.60852916  0.62160149  0.65005818  1.0
  F  F156  1  0.38740839  0.38068173  0.16122814  1.0
  F  F157  1  0.60930820  0.61813592  0.83880989  1.0
  F  F158  1  0.34663108  0.44563328  0.01131133  1.0
  F  F159  1  0.64980579  0.55333331  0.98890240  1.0
