# generated using pymatgen
data_AlH9C15O5F
_symmetry_space_group_name_H-M   'P 1'
_cell_length_a   6.69346568
_cell_length_b   11.01885655
_cell_length_c   17.57964335
_cell_angle_alpha   91.82692954
_cell_angle_beta   96.50823963
_cell_angle_gamma   106.52180400
_symmetry_Int_Tables_number   1
_chemical_formula_structural   AlH9C15O5F
_chemical_formula_sum   'Al2 H18 C30 O10 F2'
_cell_volume   1232.22991570
_cell_formula_units_Z   2
loop_
 _symmetry_equiv_pos_site_id
 _symmetry_equiv_pos_as_xyz
  1  'x, y, z'
loop_
 _atom_site_type_symbol
 _atom_site_label
 _atom_site_symmetry_multiplicity
 _atom_site_fract_x
 _atom_site_fract_y
 _atom_site_fract_z
 _atom_site_occupancy
  Al  Al0  1  0.00451292  0.49765698  0.50177491  1.0
  Al  Al1  1  0.50504530  0.49764699  0.50115379  1.0
  H  H2  1  0.34255419  0.64436700  0.55553542  1.0
  H  H3  1  0.66683681  0.34240954  0.46346970  1.0
  H  H4  1  0.85690680  0.49436639  0.28355193  1.0
  H  H5  1  0.76504362  0.49900996  0.14262345  1.0
  H  H6  1  0.39727157  0.49978084  0.11135950  1.0
  H  H7  1  0.61578792  0.51701221  0.89123189  1.0
  H  H8  1  0.14057061  0.48318300  0.71972693  1.0
  H  H9  1  0.22837619  0.47928065  0.86090457  1.0
  H  H10  1  0.54278894  0.76457432  0.39450574  1.0
  H  H11  1  0.80726885  0.23349517  0.39853330  1.0
  H  H12  1  0.35054981  0.11182674  0.55059547  1.0
  H  H13  1  0.22743537  0.87479148  0.54227832  1.0
  H  H14  1  0.14447581  0.89282221  0.32765974  1.0
  H  H15  1  0.24208062  0.76113009  0.31244570  1.0
  H  H16  1  0.27903464  0.88415722  0.24775855  1.0
  H  H17  1  0.41156745  0.11457064  0.24996947  1.0
  H  H18  1  0.51332395  0.24541351  0.31925529  1.0
  H  H19  1  0.27584681  0.12638081  0.32904071  1.0
  C  C20  1  0.86114865  0.72288439  0.48669369  1.0
  C  C21  1  0.79450363  0.50443866  0.64003452  1.0
  C  C22  1  0.14157918  0.27026855  0.50129562  1.0
  C  C23  1  0.21449294  0.49142576  0.36253469  1.0
  C  C24  1  0.17418066  0.49525086  0.27748037  1.0
  C  C25  1  0.97282363  0.49591143  0.24466763  1.0
  C  C26  1  0.92213071  0.49848543  0.16629045  1.0
  C  C27  1  0.07376522  0.49947822  0.11644686  1.0
  C  C28  1  0.27663056  0.49924190  0.14809867  1.0
  C  C29  1  0.32257921  0.49747382  0.22687574  1.0
  C  C30  1  0.02324953  0.49949117  0.03618977  1.0
  C  C31  1  0.97820425  0.49827374  0.96685616  1.0
  C  C32  1  0.92891569  0.49764585  0.88646952  1.0
  C  C33  1  0.73247016  0.50846262  0.85460815  1.0
  C  C34  1  0.68851625  0.50989602  0.77569672  1.0
  C  C35  1  0.83249932  0.50080141  0.72524824  1.0
  C  C36  1  0.02739788  0.48961559  0.75830914  1.0
  C  C37  1  0.07613444  0.48769727  0.83686292  1.0
  C  C38  1  0.92760216  0.86293002  0.48025749  1.0
  C  C39  1  0.79505665  0.92958166  0.44174333  1.0
  C  C40  1  0.12716572  0.92824486  0.51574045  1.0
  C  C41  1  0.59973271  0.86770236  0.39704646  1.0
  C  C42  1  0.48098752  0.93361474  0.35588381  1.0
  C  C43  1  0.06810329  0.12953373  0.48776254  1.0
  C  C44  1  0.19689112  0.06113687  0.52009700  1.0
  C  C45  1  0.86908820  0.06581253  0.44454166  1.0
  C  C46  1  0.74644142  0.13100577  0.40052552  1.0
  C  C47  1  0.55694656  0.06900371  0.35726639  1.0
  C  C48  1  0.27647204  0.86395207  0.30867521  1.0
  C  C49  1  0.43393464  0.14310384  0.31167489  1.0
  O  O50  1  0.00238492  0.66670989  0.48316828  1.0
  O  O51  1  0.60903045  0.49270707  0.60830578  1.0
  O  O52  1  0.33579461  0.32469456  0.49826234  1.0
  O  O53  1  0.05225557  0.47371540  0.39720727  1.0
  O  O54  1  0.00662295  0.32629511  0.51589099  1.0
  O  O55  1  0.40098032  0.50485921  0.39373675  1.0
  O  O56  1  0.67258789  0.66977566  0.49855000  1.0
  O  O57  1  0.95755564  0.51990571  0.60591156  1.0
  O  O58  1  0.29320718  0.55814752  0.53289251  1.0
  O  O59  1  0.71540826  0.43444291  0.47009461  1.0
  F  F60  1  0.52034186  0.49635349  0.25368746  1.0
  F  F61  1  0.49838451  0.52344701  0.74870245  1.0
