# generated using pymatgen
data_MgH8C14O3
_symmetry_space_group_name_H-M   'P 1'
_cell_length_a   6.76740771
_cell_length_b   32.04467808
_cell_length_c   32.04107510
_cell_angle_alpha   119.50801113
_cell_angle_beta   94.03171684
_cell_angle_gamma   94.03273880
_symmetry_Int_Tables_number   1
_chemical_formula_structural   MgH8C14O3
_chemical_formula_sum   'Mg6 H48 C84 O18'
_cell_volume   5987.89634702
_cell_formula_units_Z   6
loop_
 _symmetry_equiv_pos_site_id
 _symmetry_equiv_pos_as_xyz
  1  'x, y, z'
loop_
 _atom_site_type_symbol
 _atom_site_label
 _atom_site_symmetry_multiplicity
 _atom_site_fract_x
 _atom_site_fract_y
 _atom_site_fract_z
 _atom_site_occupancy
  Mg  Mg0  1  0.00496181  0.67743833  0.30691398  1.0
  Mg  Mg1  1  0.69804679  0.69304560  0.37049341  1.0
  Mg  Mg2  1  0.32754303  0.62947644  0.32254979  1.0
  Mg  Mg3  1  0.66628495  0.32285613  0.69332376  1.0
  Mg  Mg4  1  0.97295558  0.30661734  0.62949046  1.0
  Mg  Mg5  1  0.34349224  0.37045028  0.67708794  1.0
  H  H6  1  0.18910386  0.17459288  0.54133029  1.0
  H  H7  1  0.64804344  0.45870027  0.63325134  1.0
  H  H8  1  0.01426194  0.36672929  0.82537507  1.0
  H  H9  1  0.21459228  0.11871367  0.45183073  1.0
  H  H10  1  0.76260715  0.54817927  0.66688023  1.0
  H  H11  1  0.09554755  0.33312588  0.88138464  1.0
  H  H12  1  0.12755634  0.05332632  0.42698229  1.0
  H  H13  1  0.70051949  0.57298507  0.62629264  1.0
  H  H14  1  0.07430182  0.37370227  0.94678929  1.0
  H  H15  1  0.55236009  0.93983547  0.45235029  1.0
  H  H16  1  0.10061339  0.54761793  0.48746711  1.0
  H  H17  1  0.61250744  0.51251289  0.06017089  1.0
  H  H18  1  0.54248827  0.01424590  0.44653401  1.0
  H  H19  1  0.09645365  0.55345644  0.56771800  1.0
  H  H20  1  0.52808757  0.43225245  0.98576040  1.0
  H  H21  1  0.56933116  0.94760191  0.56800837  1.0
  H  H22  1  0.00152588  0.43194822  0.37953244  1.0
  H  H23  1  0.62161125  0.62048381  0.05241382  1.0
  H  H24  1  0.49319579  0.88188135  0.54380223  1.0
  H  H25  1  0.94908371  0.45610679  0.33798571  1.0
  H  H26  1  0.61067007  0.66197719  0.11813056  1.0
  H  H27  1  0.48580204  0.82611978  0.45720413  1.0
  H  H28  1  0.02860666  0.54276307  0.36883905  1.0
  H  H29  1  0.65949949  0.63111961  0.17383658  1.0
  H  H30  1  0.77076691  0.81851416  0.40543752  1.0
  H  H31  1  0.36540064  0.59456326  0.41310116  1.0
  H  H32  1  0.95225389  0.58690467  0.18153224  1.0
  H  H33  1  0.96013927  0.89702828  0.46652619  1.0
  H  H34  1  0.49376482  0.53344913  0.43048959  1.0
  H  H35  1  0.06289411  0.56950715  0.10299736  1.0
  H  H36  1  0.08680303  0.95204047  0.56255479  1.0
  H  H37  1  0.52461262  0.43759595  0.38953864  1.0
  H  H38  1  0.13465657  0.61051031  0.04798448  1.0
  H  H39  1  0.85977339  0.01168681  0.60840894  1.0
  H  H40  1  0.25149622  0.39183170  0.40335696  1.0
  H  H41  1  0.84780838  0.59667185  0.98838993  1.0
  H  H42  1  0.85086540  0.08661754  0.60289742  1.0
  H  H43  1  0.24818162  0.39727178  0.48376765  1.0
  H  H44  1  0.76412004  0.51625998  0.91344618  1.0
  H  H45  1  0.06880257  0.10150011  0.55157234  1.0
  H  H46  1  0.51754575  0.44848295  0.54995638  1.0
  H  H47  1  0.96732603  0.45007196  0.89849904  1.0
  H  H48  1  0.70957233  0.10283626  0.53462646  1.0
  H  H49  1  0.17566248  0.46545388  0.56834452  1.0
  H  H50  1  0.60645707  0.43170268  0.89715861  1.0
  H  H51  1  0.89902082  0.18132981  0.59656661  1.0
  H  H52  1  0.30280896  0.40343453  0.58483249  1.0
  H  H53  1  0.71752562  0.41518753  0.81866646  1.0
  C  C54  1  0.65339235  0.22261120  0.60501241  1.0
  C  C55  1  0.04849418  0.39495604  0.61758606  1.0
  C  C56  1  0.43067094  0.38237149  0.77736775  1.0
  C  C57  1  0.44730333  0.21965578  0.58907073  1.0
  C  C58  1  0.85838622  0.41090995  0.63057319  1.0
  C  C59  1  0.22755025  0.36938017  0.78030493  1.0
  C  C60  1  0.34542673  0.17521911  0.55269573  1.0
  C  C61  1  0.79304091  0.44732124  0.62253163  1.0
  C  C62  1  0.16999420  0.37745439  0.82475314  1.0
  C  C63  1  0.43550259  0.13297336  0.53206791  1.0
  C  C64  1  0.90380723  0.46797705  0.60095549  1.0
  C  C65  1  0.30219695  0.39906525  0.86701819  1.0
  C  C66  1  0.32260530  0.08742820  0.49264066  1.0
  C  C67  1  0.83035214  0.50739138  0.59482195  1.0
  C  C68  1  0.23494218  0.40519662  0.91258417  1.0
  C  C69  1  0.21569377  0.08642924  0.45512818  1.0
  C  C70  1  0.76061627  0.54487114  0.63129554  1.0
  C  C71  1  0.12907439  0.36871501  0.91364279  1.0
  C  C72  1  0.32753052  0.04294876  0.49638133  1.0
  C  C73  1  0.83162074  0.50365559  0.54659578  1.0
  C  C74  1  0.28450159  0.45341925  0.95706149  1.0
  C  C75  1  0.20436298  0.03538162  0.52714798  1.0
  C  C76  1  0.67762468  0.47293001  0.50827290  1.0
  C  C77  1  0.16904866  0.49176245  0.96462573  1.0
  C  C78  1  0.20909976  0.99218792  0.53028433  1.0
  C  C79  1  0.67926989  0.46979642  0.46193506  1.0
  C  C80  1  0.21696771  0.53809438  0.00782265  1.0
  C  C81  1  0.33838242  0.95776949  0.50289934  1.0
  C  C82  1  0.83602573  0.49711784  0.45487976  1.0
  C  C83  1  0.38068512  0.54512334  0.04220510  1.0
  C  C84  1  0.45397374  0.96621419  0.47325792  1.0
  C  C85  1  0.98129655  0.52673243  0.49295329  1.0
  C  C86  1  0.48778593  0.50703240  0.03377672  1.0
  C  C87  1  0.44871649  0.00844667  0.46999364  1.0
  C  C88  1  0.97924417  0.53001230  0.53845632  1.0
  C  C89  1  0.44021761  0.46153202  0.99156294  1.0
  C  C90  1  0.35436390  0.91304494  0.50591110  1.0
  C  C91  1  0.84876163  0.49407579  0.40711481  1.0
  C  C92  1  0.44122108  0.59286248  0.08693288  1.0
  C  C93  1  0.47909781  0.91419526  0.54111170  1.0
  C  C94  1  0.93806277  0.45883969  0.37302258  1.0
  C  C95  1  0.56457497  0.62696044  0.08580312  1.0
  C  C96  1  0.23788870  0.86743990  0.46773442  1.0
  C  C97  1  0.77024023  0.53224214  0.39967713  1.0
  C  C98  1  0.37027408  0.60027987  0.13253637  1.0
  C  C99  1  0.32818874  0.82517933  0.44667042  1.0
  C  C100  1  0.88152300  0.55328951  0.37844703  1.0
  C  C101  1  0.50286123  0.62149952  0.17478777  1.0
  C  C102  1  0.22526267  0.78054690  0.41096814  1.0
  C  C103  1  0.81425686  0.58899462  0.36953222  1.0
  C  C104  1  0.44463433  0.63042589  0.21943237  1.0
  C  C105  1  0.01825835  0.77744774  0.39571715  1.0
  C  C106  1  0.62246454  0.60425436  0.38170899  1.0
  C  C107  1  0.24076198  0.61826431  0.22255028  1.0
  C  C108  1  0.92844839  0.82068569  0.41698833  1.0
  C  C109  1  0.51149296  0.58299568  0.40369298  1.0
  C  C110  1  0.10770270  0.59629005  0.17932528  1.0
  C  C111  1  0.03529837  0.86448514  0.45131954  1.0
  C  C112  1  0.58408420  0.54865160  0.41314382  1.0
  C  C113  1  0.17069210  0.58682179  0.13551542  1.0
  C  C114  1  0.34067527  0.73902031  0.39095511  1.0
  C  C115  1  0.94968641  0.60901427  0.34803683  1.0
  C  C116  1  0.60167360  0.65190629  0.26093780  1.0
  C  C117  1  0.08246992  0.98478084  0.56019663  1.0
  C  C118  1  0.52256925  0.43994291  0.42463169  1.0
  C  C119  1  0.09757928  0.57540490  0.01525694  1.0
  C  C120  1  0.95634834  0.01807227  0.58574775  1.0
  C  C121  1  0.37078556  0.41443766  0.43238225  1.0
  C  C122  1  0.93808434  0.56764977  0.98199296  1.0
  C  C123  1  0.95157740  0.06053428  0.58272210  1.0
  C  C124  1  0.36907227  0.41743072  0.47785868  1.0
  C  C125  1  0.89094116  0.52217210  0.93951213  1.0
  C  C126  1  0.07298357  0.06888040  0.55411248  1.0
  C  C127  1  0.51916422  0.44597958  0.51480269  1.0
  C  C128  1  0.00410175  0.48523165  0.93113207  1.0
  C  C129  1  0.63597969  0.13559368  0.54949691  1.0
  C  C130  1  0.08695887  0.45055303  0.58618211  1.0
  C  C131  1  0.50011760  0.41384437  0.86439351  1.0
  C  C132  1  0.74232374  0.17924747  0.58428430  1.0
  C  C133  1  0.15838221  0.41572707  0.59500759  1.0
  C  C134  1  0.56289461  0.40498731  0.82074039  1.0
  C  C135  1  0.33115415  0.26098769  0.60915812  1.0
  C  C136  1  0.72206846  0.39080650  0.65179766  1.0
  C  C137  1  0.07017206  0.34812013  0.73894350  1.0
  O  O138  1  0.52115387  0.74309632  0.40795637  1.0
  O  O139  1  0.11320105  0.59201939  0.33513387  1.0
  O  O140  1  0.77807980  0.66479001  0.25682173  1.0
  O  O141  1  0.25589472  0.69830651  0.35503427  1.0
  O  O142  1  0.90089581  0.64494999  0.34325548  1.0
  O  O143  1  0.55764678  0.65668113  0.30165368  1.0
  O  O144  1  0.90781745  0.73613433  0.36247913  1.0
  O  O145  1  0.54531026  0.63751307  0.37365861  1.0
  O  O146  1  0.17168995  0.62632023  0.26387051  1.0
  O  O147  1  0.15040572  0.25670217  0.59220474  1.0
  O  O148  1  0.55825467  0.40775597  0.66447123  1.0
  O  O149  1  0.89372245  0.33540716  0.74319729  1.0
  O  O150  1  0.41520531  0.30169283  0.64521603  1.0
  O  O151  1  0.77003535  0.35473064  0.65642738  1.0
  O  O152  1  0.11360644  0.34351398  0.69825403  1.0
  O  O153  1  0.76383110  0.26387286  0.63830415  1.0
  O  O154  1  0.12558865  0.36162725  0.62551426  1.0
  O  O155  1  0.49999416  0.37442105  0.73610668  1.0
