# generated using pymatgen
data_Al2H19C31N3(ClO5)2
_symmetry_space_group_name_H-M   'P 1'
_cell_length_a   6.63586623
_cell_length_b   20.94271074
_cell_length_c   21.52093087
_cell_angle_alpha   90.00148178
_cell_angle_beta   90.00635877
_cell_angle_gamma   98.40565953
_symmetry_Int_Tables_number   1
_chemical_formula_structural   Al2H19C31N3(ClO5)2
_chemical_formula_sum   'Al4 H38 C62 N6 Cl4 O20'
_cell_volume   2958.70109731
_cell_formula_units_Z   2
loop_
 _symmetry_equiv_pos_site_id
 _symmetry_equiv_pos_as_xyz
  1  'x, y, z'
loop_
 _atom_site_type_symbol
 _atom_site_label
 _atom_site_symmetry_multiplicity
 _atom_site_fract_x
 _atom_site_fract_y
 _atom_site_fract_z
 _atom_site_occupancy
  Al  Al0  1  0.95372816  0.68545870  0.49871236  1.0
  Al  Al1  1  0.04637630  0.31456843  0.99874948  1.0
  Al  Al2  1  0.45322318  0.68830627  0.49941525  1.0
  Al  Al3  1  0.54694276  0.31170835  0.99941596  1.0
  H  H4  1  0.12034423  0.50071486  0.07324666  1.0
  H  H5  1  0.87947894  0.49943626  0.57329938  1.0
  H  H6  1  0.05628654  0.65130421  0.23526908  1.0
  H  H7  1  0.94276050  0.34891101  0.73545161  1.0
  H  H8  1  0.15454496  0.59885221  0.14136134  1.0
  H  H9  1  0.84480192  0.40134444  0.64148039  1.0
  H  H10  1  0.44597743  0.48179756  0.44788754  1.0
  H  H11  1  0.55447214  0.51820402  0.94794022  1.0
  H  H12  1  0.58921205  0.39210929  0.27655427  1.0
  H  H13  1  0.41041736  0.60798531  0.77670931  1.0
  H  H14  1  0.43821705  0.38309178  0.38155840  1.0
  H  H15  1  0.56195340  0.61695550  0.88167101  1.0
  H  H16  1  0.86930209  0.64846089  0.33388248  1.0
  H  H17  1  0.12990096  0.35167564  0.83402996  1.0
  H  H18  1  0.47232057  0.80331980  0.34686465  1.0
  H  H19  1  0.52774248  0.19671570  0.84691469  1.0
  H  H20  1  0.41542390  0.09251080  0.22574438  1.0
  H  H21  1  0.58505130  0.90767212  0.72560586  1.0
  H  H22  1  0.43934134  0.18306444  0.14766317  1.0
  H  H23  1  0.56116643  0.81714663  0.64749726  1.0
  H  H24  1  0.00219880  0.05043943  0.16790993  1.0
  H  H25  1  0.99788326  0.94956859  0.66791742  1.0
  H  H26  1  0.09588594  0.96345456  0.33091914  1.0
  H  H27  1  0.90425942  0.03654591  0.83090852  1.0
  H  H28  1  0.02989971  0.14227813  0.09173524  1.0
  H  H29  1  0.97024932  0.85775670  0.59171580  1.0
  H  H30  1  0.51495930  0.38794614  0.12962606  1.0
  H  H31  1  0.21996379  0.41532008  0.16138020  1.0
  H  H32  1  0.34823352  0.48274172  0.20291129  1.0
  H  H33  1  0.30080867  0.40621916  0.23953510  1.0
  H  H34  1  0.48480561  0.61210206  0.62979614  1.0
  H  H35  1  0.77967406  0.58473633  0.66160663  1.0
  H  H36  1  0.65135284  0.51733980  0.70314444  1.0
  H  H37  1  0.69885505  0.59386947  0.73974609  1.0
  H  H38  1  0.19197722  0.65529714  0.42451013  1.0
  H  H39  1  0.80815963  0.34473287  0.92453480  1.0
  H  H40  1  0.72540727  0.72125059  0.57203275  1.0
  H  H41  1  0.27478465  0.27876815  0.07205847  1.0
  C  C42  1  0.15859217  0.60163773  0.57664969  1.0
  C  C43  1  0.84147356  0.39842256  0.07662282  1.0
  C  C44  1  0.24746817  0.77759422  0.57044096  1.0
  C  C45  1  0.75276286  0.22248069  0.07048869  1.0
  C  C46  1  0.75065227  0.77412561  0.42407985  1.0
  C  C47  1  0.24938079  0.22588750  0.92410453  1.0
  C  C48  1  0.65369048  0.59751735  0.42761401  1.0
  C  C49  1  0.34635928  0.40252928  0.92768251  1.0
  C  C50  1  0.04006314  0.55707979  0.15069364  1.0
  C  C51  1  0.95933837  0.44309745  0.65082340  1.0
  C  C52  1  0.85698024  0.45265223  0.12070538  1.0
  C  C53  1  0.14283953  0.54747411  0.62082261  1.0
  C  C54  1  0.51784435  0.48474030  0.40222370  1.0
  C  C55  1  0.48224380  0.51529135  0.90231991  1.0
  C  C56  1  0.51031754  0.42991169  0.36442101  1.0
  C  C57  1  0.48967835  0.57014042  0.86454640  1.0
  C  C58  1  0.59324987  0.43508238  0.30526284  1.0
  C  C59  1  0.40645860  0.56500796  0.80542763  1.0
  C  C60  1  0.68831724  0.49498887  0.28127593  1.0
  C  C61  1  0.31119598  0.50510712  0.78143892  1.0
  C  C62  1  0.72096034  0.54898637  0.32294677  1.0
  C  C63  1  0.27852823  0.45110490  0.82309440  1.0
  C  C64  1  0.76966650  0.50179201  0.21870715  1.0
  C  C65  1  0.22974965  0.49833332  0.71887835  1.0
  C  C66  1  0.92015199  0.55593414  0.20517567  1.0
  C  C67  1  0.07912086  0.44421824  0.70533572  1.0
  C  C68  1  0.94950436  0.60861692  0.24804628  1.0
  C  C69  1  0.04966846  0.39156088  0.74822860  1.0
  C  C70  1  0.84718885  0.60676434  0.30317042  1.0
  C  C71  1  0.15208645  0.39336898  0.80332972  1.0
  C  C72  1  0.71298067  0.45550849  0.16971302  1.0
  C  C73  1  0.28666373  0.54460790  0.66988834  1.0
  C  C74  1  0.01822834  0.50381717  0.11244639  1.0
  C  C75  1  0.98144415  0.49635223  0.61254887  1.0
  C  C76  1  0.62815999  0.54282495  0.38271045  1.0
  C  C77  1  0.37169156  0.45723162  0.88280511  1.0
  C  C78  1  0.73652577  0.16805852  0.11566110  1.0
  C  C79  1  0.26376665  0.83203565  0.61559039  1.0
  C  C80  1  0.89656655  0.13117261  0.12159186  1.0
  C  C81  1  0.10364018  0.86888746  0.62154665  1.0
  C  C82  1  0.88196972  0.08050485  0.16365433  1.0
  C  C83  1  0.11821998  0.91954487  0.66362460  1.0
  C  C84  1  0.70738147  0.06715665  0.20135893  1.0
  C  C85  1  0.29286751  0.93292107  0.70130986  1.0
  C  C86  1  0.54807263  0.10411904  0.19573345  1.0
  C  C87  1  0.45233135  0.89602501  0.69562450  1.0
  C  C88  1  0.56194919  0.15404002  0.15268588  1.0
  C  C89  1  0.43848053  0.84612070  0.65255683  1.0
  C  C90  1  0.61396674  0.88972643  0.30133841  1.0
  C  C91  1  0.38612983  0.11030942  0.80136541  1.0
  C  C92  1  0.60874890  0.83899793  0.34326839  1.0
  C  C93  1  0.39132145  0.16103703  0.84329751  1.0
  C  C94  1  0.79188414  0.93603585  0.29732434  1.0
  C  C95  1  0.20824828  0.06399074  0.79732825  1.0
  C  C96  1  0.77373672  0.83181235  0.38213361  1.0
  C  C97  1  0.22630361  0.16820377  0.88215941  1.0
  C  C98  1  0.95069510  0.87818498  0.37803359  1.0
  C  C99  1  0.04937646  0.12182182  0.87803906  1.0
  C  C100  1  0.95846570  0.92830730  0.33526486  1.0
  C  C101  1  0.04166410  0.07170370  0.83526688  1.0
  C  C102  1  0.34128844  0.43067419  0.19504648  1.0
  C  C103  1  0.65834771  0.56940483  0.69526550  1.0
  N  N104  1  0.67370603  0.01666715  0.24549671  1.0
  N  N105  1  0.32650529  0.98340098  0.74546334  1.0
  N  N106  1  0.82692761  0.98876320  0.25619018  1.0
  N  N107  1  0.17324342  0.01127267  0.75618019  1.0
  N  N108  1  0.53096537  0.41560346  0.16899508  1.0
  N  N109  1  0.46873855  0.58450273  0.66919741  1.0
  Cl  Cl110  1  0.40532597  0.89088102  0.25370607  1.0
  Cl  Cl111  1  0.59480467  0.10918629  0.75374443  1.0
  Cl  Cl112  1  0.16240574  0.87799853  0.42473758  1.0
  Cl  Cl113  1  0.83770994  0.12198798  0.92473670  1.0
  O  O114  1  0.41239675  0.76220740  0.54880680  1.0
  O  O115  1  0.58777435  0.23779894  0.04880641  1.0
  O  O116  1  0.99429484  0.61487234  0.55206363  1.0
  O  O117  1  0.00580886  0.38520275  0.05206556  1.0
  O  O118  1  0.83459289  0.62439513  0.43925320  1.0
  O  O119  1  0.16550845  0.37561151  0.93930765  1.0
  O  O120  1  0.06873321  0.74968131  0.55746770  1.0
  O  O121  1  0.93149464  0.25038529  0.05752952  1.0
  O  O122  1  0.91207949  0.75521473  0.44369991  1.0
  O  O123  1  0.08796160  0.24478499  0.94374857  1.0
  O  O124  1  0.33590604  0.63407222  0.56612452  1.0
  O  O125  1  0.66430179  0.36590809  0.06609965  1.0
  O  O126  1  0.20336364  0.68421269  0.46000251  1.0
  O  O127  1  0.79675784  0.31580622  0.96001426  1.0
  O  O128  1  0.56909333  0.74732991  0.43539089  1.0
  O  O129  1  0.43095089  0.25270211  0.93539381  1.0
  O  O130  1  0.49338374  0.61348357  0.45204961  1.0
  O  O131  1  0.50671205  0.38655188  0.95209703  1.0
  O  O132  1  0.70505774  0.69011604  0.53840508  1.0
  O  O133  1  0.29509812  0.30990833  0.03843486  1.0
