# generated using pymatgen
data_Zn4H26C29S2O15
_symmetry_space_group_name_H-M   'P 1'
_cell_length_a   17.84678287
_cell_length_b   18.64326935
_cell_length_c   19.30479403
_cell_angle_alpha   61.15811912
_cell_angle_beta   64.07203036
_cell_angle_gamma   89.93043332
_symmetry_Int_Tables_number   1
_chemical_formula_structural   Zn4H26C29S2O15
_chemical_formula_sum   'Zn8 H52 C58 S4 O30'
_cell_volume   4877.47109670
_cell_formula_units_Z   2
loop_
 _symmetry_equiv_pos_site_id
 _symmetry_equiv_pos_as_xyz
  1  'x, y, z'
loop_
 _atom_site_type_symbol
 _atom_site_label
 _atom_site_symmetry_multiplicity
 _atom_site_fract_x
 _atom_site_fract_y
 _atom_site_fract_z
 _atom_site_occupancy
  Zn  Zn0  1  0.13141319  0.54259420  0.92095344  1.0
  Zn  Zn1  1  0.96530708  0.55242961  0.06653587  1.0
  Zn  Zn2  1  0.96962562  0.38109113  0.06337811  1.0
  Zn  Zn3  1  0.95230315  0.54327888  0.91000837  1.0
  Zn  Zn4  1  0.37762811  0.97014879  0.06646395  1.0
  Zn  Zn5  1  0.54179460  0.12891323  0.91312062  1.0
  Zn  Zn6  1  0.53634847  0.95784293  0.91408392  1.0
  Zn  Zn7  1  0.56067945  0.96522931  0.06612941  1.0
  H  H8  1  0.20994001  0.82710826  0.36028047  1.0
  H  H9  1  0.68057271  0.30670969  0.61091679  1.0
  H  H10  1  0.21616429  0.31932920  0.87788629  1.0
  H  H11  1  0.13039449  0.23394167  0.98184509  1.0
  H  H12  1  0.21963853  0.14275655  0.97805538  1.0
  H  H13  1  0.30524863  0.22879693  0.87457602  1.0
  H  H14  1  0.19874579  0.10935843  0.12837293  1.0
  H  H15  1  0.27032288  0.16915554  0.13372265  1.0
  H  H16  1  0.11084656  0.20219701  0.13300001  1.0
  H  H17  1  0.18470768  0.26305827  0.13474733  1.0
  H  H18  1  0.32021400  0.40857640  0.88102820  1.0
  H  H19  1  0.30695812  0.38649955  0.98579692  1.0
  H  H20  1  0.39484478  0.29382133  0.98498047  1.0
  H  H21  1  0.40916383  0.31705304  0.87958920  1.0
  H  H22  1  0.90657129  0.81462590  0.87279605  1.0
  H  H23  1  0.88776191  0.78753278  0.98157615  1.0
  H  H24  1  0.79940131  0.87996490  0.98221666  1.0
  H  H25  1  0.81838201  0.90614796  0.87364773  1.0
  H  H26  1  0.67573572  0.75808950  0.12485650  1.0
  H  H27  1  0.60496397  0.69776602  0.11907839  1.0
  H  H28  1  0.76270176  0.66419925  0.12442979  1.0
  H  H29  1  0.69251662  0.60571989  0.11645601  1.0
  H  H30  1  0.80758589  0.72951775  0.86084428  1.0
  H  H31  1  0.72061896  0.64342384  0.95998447  1.0
  H  H32  1  0.63110193  0.73440576  0.96316378  1.0
  H  H33  1  0.71746517  0.82009339  0.86317773  1.0
  H  H34  1  0.17539652  0.80636814  0.91393612  1.0
  H  H35  1  0.26707496  0.77724253  0.85874556  1.0
  H  H36  1  0.35451259  0.87328247  0.85541296  1.0
  H  H37  1  0.26215576  0.90091386  0.91190248  1.0
  H  H38  1  0.40186149  0.75242126  0.94627467  1.0
  H  H39  1  0.34447570  0.69549596  0.06669573  1.0
  H  H40  1  0.31297729  0.65604774  0.95089976  1.0
  H  H41  1  0.25545161  0.60052729  0.07121664  1.0
  H  H42  1  0.09139117  0.72594874  0.08729417  1.0
  H  H43  1  0.12349237  0.64140303  0.15171332  1.0
  H  H44  1  0.21273179  0.73585859  0.14843972  1.0
  H  H45  1  0.17967029  0.82019168  0.08509270  1.0
  H  H46  1  0.91109005  0.28122193  0.90254994  1.0
  H  H47  1  0.87490648  0.36477443  0.84094060  1.0
  H  H48  1  0.78733882  0.26766745  0.84578285  1.0
  H  H49  1  0.82223248  0.18423697  0.90940323  1.0
  H  H50  1  0.65707296  0.30842280  0.92743791  1.0
  H  H51  1  0.59977003  0.25277079  0.04771721  1.0
  H  H52  1  0.74612536  0.40416341  0.92335970  1.0
  H  H53  1  0.68846165  0.34772207  0.04363033  1.0
  H  H54  1  0.82895528  0.19831342  0.07584516  1.0
  H  H55  1  0.73876519  0.22545600  0.13438024  1.0
  H  H56  1  0.64818293  0.13123250  0.13874893  1.0
  H  H57  1  0.73838913  0.10262842  0.08216986  1.0
  H  H58  1  0.37897106  0.78432277  0.57571082  1.0
  H  H59  1  0.71330848  0.13160122  0.41974170  1.0
  C  C60  1  0.14203851  0.63715421  0.00342479  1.0
  C  C61  1  0.88098644  0.38064008  0.23338441  1.0
  C  C62  1  0.14674958  0.36599304  0.99918319  1.0
  C  C63  1  0.86414923  0.37033411  0.98281718  1.0
  C  C64  1  0.12783142  0.62650639  0.74726429  1.0
  C  C65  1  0.86154809  0.64349406  0.98588327  1.0
  C  C66  1  0.36262193  0.14469576  0.99371825  1.0
  C  C67  1  0.61978147  0.12779869  0.74418928  1.0
  C  C68  1  0.35733027  0.86527526  0.99669804  1.0
  C  C69  1  0.64513573  0.86562680  0.98866955  1.0
  C  C70  1  0.39033634  0.88232002  0.23553543  1.0
  C  C71  1  0.64723871  0.14217133  0.99051944  1.0
  C  C72  1  0.26991378  0.69467804  0.59373864  1.0
  C  C73  1  0.25189753  0.80798474  0.38953743  1.0
  C  C74  1  0.18044879  0.67308681  0.64689806  1.0
  C  C75  1  0.34081585  0.83054666  0.33609950  1.0
  C  C76  1  0.22602433  0.75881552  0.48309525  1.0
  C  C77  1  0.29601995  0.74458436  0.49954400  1.0
  C  C78  1  0.80856730  0.24180503  0.39195344  1.0
  C  C79  1  0.69735571  0.26432439  0.58614687  1.0
  C  C80  1  0.83329865  0.32962624  0.33385075  1.0
  C  C81  1  0.67155264  0.17697021  0.64404366  1.0
  C  C82  1  0.74657226  0.28809673  0.49432435  1.0
  C  C83  1  0.75782553  0.21807298  0.48411725  1.0
  C  C84  1  0.19832546  0.26811460  0.94757334  1.0
  C  C85  1  0.25759912  0.20748418  0.94539144  1.0
  C  C86  1  0.30564616  0.20521115  0.99630648  1.0
  C  C87  1  0.23728690  0.17375527  0.09572737  1.0
  C  C88  1  0.17921507  0.23542934  0.09752232  1.0
  C  C89  1  0.20651516  0.30781505  0.99923318  1.0
  C  C90  1  0.30117358  0.35662426  0.95063170  1.0
  C  C91  1  0.35975015  0.29560103  0.94969139  1.0
  C  C92  1  0.85564555  0.79165427  0.94300754  1.0
  C  C93  1  0.79680909  0.85289666  0.94359278  1.0
  C  C94  1  0.70218249  0.80475068  0.98749207  1.0
  C  C95  1  0.67292876  0.73137920  0.08602399  1.0
  C  C96  1  0.73118289  0.66986620  0.08500461  1.0
  C  C97  1  0.80134179  0.70159562  0.98608797  1.0
  C  C98  1  0.75775680  0.70734802  0.93106527  1.0
  C  C99  1  0.69843086  0.76779748  0.93265964  1.0
  C  C100  1  0.23142149  0.78389239  0.91739930  1.0
  C  C101  1  0.28958364  0.84715562  0.91550437  1.0
  C  C102  1  0.29754188  0.80186258  0.00256619  1.0
  C  C103  1  0.33686528  0.72713305  0.00600871  1.0
  C  C104  1  0.27788922  0.66373205  0.00878368  1.0
  C  C105  1  0.19872915  0.69542367  0.00632350  1.0
  C  C106  1  0.14825270  0.70434814  0.08854257  1.0
  C  C107  1  0.20704311  0.76703217  0.08663382  1.0
  C  C108  1  0.85310166  0.30169860  0.90325205  1.0
  C  C109  1  0.79418830  0.23744993  0.90682488  1.0
  C  C110  1  0.70334066  0.20203422  0.99234102  1.0
  C  C111  1  0.66484662  0.27743977  0.98783735  1.0
  C  C112  1  0.72394319  0.34073800  0.98512953  1.0
  C  C113  1  0.80300709  0.30894593  0.98747080  1.0
  C  C114  1  0.77232001  0.22025152  0.07442644  1.0
  C  C115  1  0.71256679  0.15718819  0.07781659  1.0
  C  C116  1  0.33152095  0.66572909  0.62869693  1.0
  C  C117  1  0.83526275  0.17916796  0.36449457  1.0
  S  S118  1  0.12862477  0.71123694  0.58342741  1.0
  S  S119  1  0.39372474  0.79167545  0.39872654  1.0
  S  S120  1  0.79752295  0.38274311  0.39034656  1.0
  S  S121  1  0.70742697  0.12294480  0.58824624  1.0
  O  O122  1  0.00428746  0.50588872  0.98875717  1.0
  O  O123  1  0.18054465  0.61147880  0.94978209  1.0
  O  O124  1  0.90518951  0.46077787  0.19687122  1.0
  O  O125  1  0.06585502  0.32988611  0.05228769  1.0
  O  O126  1  0.06043526  0.62061560  0.05233396  1.0
  O  O127  1  0.18123837  0.44580252  0.94495033  1.0
  O  O128  1  0.89210982  0.34089648  0.19300467  1.0
  O  O129  1  0.90198604  0.33699779  0.02882835  1.0
  O  O130  1  0.04612839  0.60341970  0.78097840  1.0
  O  O131  1  0.87476880  0.44998268  0.93221776  1.0
  O  O132  1  0.16885193  0.61520776  0.78995531  1.0
  O  O133  1  0.88747567  0.62263896  0.04343847  1.0
  O  O134  1  0.88262118  0.62125903  0.92833374  1.0
  O  O135  1  0.50416544  0.00464788  0.99157720  1.0
  O  O136  1  0.32480729  0.06522824  0.04379655  1.0
  O  O137  1  0.59708536  0.17000684  0.78239183  1.0
  O  O138  1  0.43642625  0.89084900  0.93422589  1.0
  O  O139  1  0.44388424  0.17764617  0.94102689  1.0
  O  O140  1  0.32463899  0.88881731  0.05312810  1.0
  O  O141  1  0.60275202  0.04698420  0.78323280  1.0
  O  O142  1  0.61110788  0.88382737  0.93841131  1.0
  O  O143  1  0.47255534  0.89601724  0.19778342  1.0
  O  O144  1  0.63593925  0.89404489  0.03961283  1.0
  O  O145  1  0.34557833  0.90842977  0.19617683  1.0
  O  O146  1  0.62618125  0.17689308  0.92868807  1.0
  O  O147  1  0.62658486  0.06272014  0.04890721  1.0
  O  O148  1  0.39156920  0.73024730  0.60616622  1.0
  O  O149  1  0.33348394  0.59261722  0.66902250  1.0
  O  O150  1  0.76762668  0.11856668  0.39204789  1.0
  O  O151  1  0.90911521  0.17693814  0.32605466  1.0
