# generated using pymatgen
data_TbH8C13NO5
_symmetry_space_group_name_H-M   'P 1'
_cell_length_a   8.21187827
_cell_length_b   21.81102533
_cell_length_c   21.81248896
_cell_angle_alpha   87.95910715
_cell_angle_beta   79.14698492
_cell_angle_gamma   79.17014680
_symmetry_Int_Tables_number   1
_chemical_formula_structural   TbH8C13NO5
_chemical_formula_sum   'Tb8 H64 C104 N8 O40'
_cell_volume   3768.60599983
_cell_formula_units_Z   8
loop_
 _symmetry_equiv_pos_site_id
 _symmetry_equiv_pos_as_xyz
  1  'x, y, z'
loop_
 _atom_site_type_symbol
 _atom_site_label
 _atom_site_symmetry_multiplicity
 _atom_site_fract_x
 _atom_site_fract_y
 _atom_site_fract_z
 _atom_site_occupancy
  Tb  Tb0  1  0.23168923  0.83294922  0.78023375  1.0
  Tb  Tb1  1  0.34476938  0.66701794  0.71978866  1.0
  Tb  Tb2  1  0.01199092  0.21979598  0.33293717  1.0
  Tb  Tb3  1  0.06467977  0.28022673  0.16703467  1.0
  Tb  Tb4  1  0.76830937  0.16705071  0.21976636  1.0
  Tb  Tb5  1  0.65522650  0.33298246  0.28021071  1.0
  Tb  Tb6  1  0.98801334  0.78020256  0.66706120  1.0
  Tb  Tb7  1  0.93531761  0.71977320  0.83296643  1.0
  H  H8  1  0.28733620  0.71854988  0.84203609  1.0
  H  H9  1  0.34773673  0.78144145  0.65796097  1.0
  H  H10  1  0.12919987  0.15795888  0.21862252  1.0
  H  H11  1  0.00597934  0.34207679  0.28137276  1.0
  H  H12  1  0.71266388  0.28144959  0.15796346  1.0
  H  H13  1  0.65226163  0.21855895  0.34203822  1.0
  H  H14  1  0.87080347  0.84204153  0.78137723  1.0
  H  H15  1  0.99402098  0.65792222  0.71862817  1.0
  H  H16  1  0.77019525  0.95282834  0.76800466  1.0
  H  H17  1  0.99068767  0.54715381  0.73211065  1.0
  H  H18  1  0.53811817  0.23221624  0.45287589  1.0
  H  H19  1  0.72307615  0.26778040  0.04707596  1.0
  H  H20  1  0.22980461  0.04717160  0.23199718  1.0
  H  H21  1  0.00930645  0.45284519  0.26789072  1.0
  H  H22  1  0.46188617  0.76778463  0.54712331  1.0
  H  H23  1  0.27692161  0.73221627  0.95292294  1.0
  H  H24  1  0.66047697  0.02412140  0.86093719  1.0
  H  H25  1  0.04553947  0.47588927  0.63912548  1.0
  H  H26  1  0.52149623  0.13917592  0.52410109  1.0
  H  H27  1  0.68496221  0.36085123  0.97591579  1.0
  H  H28  1  0.33951916  0.97587854  0.13906217  1.0
  H  H29  1  0.95445318  0.52411019  0.36087506  1.0
  H  H30  1  0.47850486  0.86082402  0.47589929  1.0
  H  H31  1  0.31504153  0.63914590  0.02408542  1.0
  H  H32  1  0.18924115  0.95828053  0.87879537  1.0
  H  H33  1  0.52628101  0.54147554  0.62126011  1.0
  H  H34  1  0.06821968  0.12120403  0.45827885  1.0
  H  H35  1  0.14788180  0.37877567  0.04166626  1.0
  H  H36  1  0.81075792  0.04171847  0.12120382  1.0
  H  H37  1  0.47371263  0.45852440  0.37873943  1.0
  H  H38  1  0.93177771  0.87879590  0.54172271  1.0
  H  H39  1  0.85212214  0.62122847  0.95833239  1.0
  H  H40  1  0.43725072  0.11792547  0.90022496  1.0
  H  H41  1  0.95482704  0.38191997  0.59985946  1.0
  H  H42  1  0.33716775  0.09981819  0.61787409  1.0
  H  H43  1  0.55531439  0.40041324  0.88211420  1.0
  H  H44  1  0.56274945  0.88207633  0.09977634  1.0
  H  H45  1  0.04517266  0.61808277  0.40014046  1.0
  H  H46  1  0.66283830  0.90018175  0.38212502  1.0
  H  H47  1  0.44469391  0.59958716  0.11788611  1.0
  H  H48  1  0.27922541  0.18359425  0.99164726  1.0
  H  H49  1  0.95375348  0.31626856  0.50842053  1.0
  H  H50  1  0.27058209  0.00836975  0.68357590  1.0
  H  H51  1  0.46253436  0.49173292  0.81640588  1.0
  H  H52  1  0.72078042  0.81640615  0.00835598  1.0
  H  H53  1  0.04625559  0.68373277  0.49157923  1.0
  H  H54  1  0.72942217  0.99162879  0.31642247  1.0
  H  H55  1  0.53746796  0.50826702  0.18359304  1.0
  H  H56  1  0.06743890  0.02743904  0.07254572  1.0
  H  H57  1  0.66744728  0.47251313  0.42750116  1.0
  H  H58  1  0.14056589  0.92736644  0.52734816  1.0
  H  H59  1  0.09471988  0.57244553  0.97258809  1.0
  H  H60  1  0.93256003  0.97256277  0.92745612  1.0
  H  H61  1  0.33254435  0.52748587  0.57249902  1.0
  H  H62  1  0.85943473  0.07263443  0.47265177  1.0
  H  H63  1  0.90528291  0.42755347  0.02740991  1.0
  H  H64  1  0.22274214  0.96131150  0.98199272  1.0
  H  H65  1  0.66626124  0.53861493  0.51807150  1.0
  H  H66  1  0.20555631  0.01793173  0.46117273  1.0
  H  H67  1  0.18429647  0.48196020  0.03873163  1.0
  H  H68  1  0.77725880  0.03869124  0.01800987  1.0
  H  H69  1  0.33372295  0.46138407  0.48192921  1.0
  H  H70  1  0.79450806  0.98206961  0.53882527  1.0
  H  H71  1  0.81571160  0.51804067  0.96126776  1.0
  C  C72  1  0.60023195  0.86934394  0.72648667  1.0
  C  C73  1  0.69590984  0.63058711  0.77356118  1.0
  C  C74  1  0.32678217  0.27363752  0.36931015  1.0
  C  C75  1  0.46956769  0.22636681  0.13066846  1.0
  C  C76  1  0.39977225  0.13065227  0.27351500  1.0
  C  C77  1  0.30408271  0.36941750  0.22643643  1.0
  C  C78  1  0.67321017  0.72636009  0.63069048  1.0
  C  C79  1  0.53042178  0.77363406  0.86933409  1.0
  C  C80  1  0.53733243  0.91878761  0.77656085  1.0
  C  C81  1  0.73248354  0.58114206  0.72348496  1.0
  C  C82  1  0.31402592  0.22353015  0.41873867  1.0
  C  C83  1  0.45620936  0.27648450  0.08123565  1.0
  C  C84  1  0.46267231  0.08120999  0.22344165  1.0
  C  C85  1  0.26751234  0.41885834  0.27651257  1.0
  C  C86  1  0.68597665  0.77646932  0.58126254  1.0
  C  C87  1  0.54378701  0.72351497  0.91876462  1.0
  C  C88  1  0.64148303  0.95642232  0.79383387  1.0
  C  C89  1  0.89153971  0.54352946  0.70623029  1.0
  C  C90  1  0.43536949  0.20629499  0.45641212  1.0
  C  C91  1  0.59800648  0.29371749  0.04357240  1.0
  C  C92  1  0.35851745  0.04357388  0.20616669  1.0
  C  C93  1  0.10845131  0.45647328  0.29377071  1.0
  C  C94  1  0.56462888  0.79370542  0.54358615  1.0
  C  C95  1  0.40199034  0.70628105  0.95642742  1.0
  C  C96  1  0.57977733  0.99593077  0.84513429  1.0
  C  C97  1  0.92078048  0.50403321  0.65492003  1.0
  C  C98  1  0.42507075  0.15495066  0.49587671  1.0
  C  C99  1  0.57600841  0.34507776  0.00411057  1.0
  C  C100  1  0.42022153  0.00406870  0.15486810  1.0
  C  C101  1  0.07921069  0.49596672  0.34508014  1.0
  C  C102  1  0.57493800  0.84504881  0.50412085  1.0
  C  C103  1  0.42399609  0.65492031  0.99588918  1.0
  C  C104  1  0.41520758  0.99709653  0.87817216  1.0
  C  C105  1  0.79042642  0.50280579  0.62188485  1.0
  C  C106  1  0.29363928  0.12184101  0.49702049  1.0
  C  C107  1  0.41266467  0.37819811  0.00295395  1.0
  C  C108  1  0.58478831  0.00290387  0.12182766  1.0
  C  C109  1  0.20956180  0.49719508  0.37811642  1.0
  C  C110  1  0.70636505  0.87815986  0.50297733  1.0
  C  C111  1  0.58733720  0.62180276  0.99704634  1.0
  C  C112  1  0.31888021  0.95896005  0.85581367  1.0
  C  C113  1  0.63361551  0.54088445  0.64423851  1.0
  C  C114  1  0.17492792  0.14419734  0.45891916  1.0
  C  C115  1  0.27818118  0.35580777  0.04104540  1.0
  C  C116  1  0.68112205  0.04103756  0.14418717  1.0
  C  C117  1  0.36638241  0.45911688  0.35576296  1.0
  C  C118  1  0.82507441  0.85580259  0.54107975  1.0
  C  C119  1  0.72182168  0.64419357  0.95895435  1.0
  C  C120  1  0.33829881  0.03538387  0.93412772  1.0
  C  C121  1  0.80768957  0.46449061  0.56594323  1.0
  C  C122  1  0.27268344  0.06585125  0.53529929  1.0
  C  C123  1  0.37397687  0.43418143  0.96466869  1.0
  C  C124  1  0.66169568  0.96461933  0.06587256  1.0
  C  C125  1  0.19230036  0.53550932  0.43405841  1.0
  C  C126  1  0.72732090  0.93414962  0.46469899  1.0
  C  C127  1  0.62603095  0.56581991  0.03533071  1.0
  C  C128  1  0.35741201  0.09773857  0.93834609  1.0
  C  C129  1  0.89301386  0.40212406  0.56174106  1.0
  C  C130  1  0.29569197  0.06166901  0.59768950  1.0
  C  C131  1  0.45525853  0.43846805  0.90230471  1.0
  C  C132  1  0.64259008  0.90226183  0.06165283  1.0
  C  C133  1  0.10698281  0.59787728  0.43825913  1.0
  C  C134  1  0.70431407  0.93833093  0.40230915  1.0
  C  C135  1  0.54475024  0.56153142  0.09769560  1.0
  C  C136  1  0.26878489  0.13468986  0.98903740  1.0
  C  C137  1  0.89191268  0.36517258  0.51103924  1.0
  C  C138  1  0.25769252  0.01096343  0.63465738  1.0
  C  C139  1  0.40320451  0.48909172  0.86531218  1.0
  C  C140  1  0.73122001  0.86531241  0.01096492  1.0
  C  C141  1  0.10808841  0.63482736  0.48896160  1.0
  C  C142  1  0.74231305  0.98903744  0.36534082  1.0
  C  C143  1  0.59680130  0.51090869  0.13468693  1.0
  C  C144  1  0.16054504  0.10993509  0.03701768  1.0
  C  C145  1  0.80703667  0.38997683  0.46306015  1.0
  C  C146  1  0.19765606  0.96295037  0.60987412  1.0
  C  C147  1  0.27006143  0.53698659  0.89005697  1.0
  C  C148  1  0.83946079  0.89006531  0.96298510  1.0
  C  C149  1  0.19296117  0.61002217  0.53694004  1.0
  C  C150  1  0.80234580  0.03705050  0.39012434  1.0
  C  C151  1  0.72994509  0.46301241  0.10994260  1.0
  C  C152  1  0.14812737  0.04692251  0.03438581  1.0
  C  C153  1  0.72923120  0.45300412  0.46569667  1.0
  C  C154  1  0.18286816  0.96556522  0.54684054  1.0
  C  C155  1  0.19486470  0.53431365  0.95308762  1.0
  C  C156  1  0.85187504  0.95307976  0.96561623  1.0
  C  C157  1  0.27076788  0.54699489  0.53430389  1.0
  C  C158  1  0.81713052  0.03443705  0.45315809  1.0
  C  C159  1  0.80514009  0.46568629  0.04691021  1.0
  C  C160  1  0.23495160  0.01014948  0.98365405  1.0
  C  C161  1  0.72867866  0.48977015  0.51641388  1.0
  C  C162  1  0.21904110  0.01630393  0.51004383  1.0
  C  C163  1  0.24517932  0.48362686  0.98988686  1.0
  C  C164  1  0.76504484  0.98985232  0.01634660  1.0
  C  C165  1  0.27131072  0.51022838  0.48358464  1.0
  C  C166  1  0.78095758  0.98369834  0.48995526  1.0
  C  C167  1  0.75482525  0.51637355  0.01011326  1.0
  C  C168  1  0.05533849  0.15003882  0.08994846  1.0
  C  C169  1  0.79511175  0.34997137  0.41001794  1.0
  C  C170  1  0.14544433  0.90998602  0.64997077  1.0
  C  C171  1  0.20495159  0.58995442  0.84999425  1.0
  C  C172  1  0.94466586  0.84996205  0.91005349  1.0
  C  C173  1  0.20488609  0.65002763  0.58998225  1.0
  C  C174  1  0.85456015  0.09001205  0.35002531  1.0
  C  C175  1  0.79505074  0.41004552  0.15000650  1.0
  N  N176  1  0.37732110  0.92107335  0.80679528  1.0
  N  N177  1  0.60501585  0.57881151  0.69323572  1.0
  N  N178  1  0.18430012  0.19324241  0.42103276  1.0
  N  N179  1  0.29854907  0.30677738  0.07894124  1.0
  N  N180  1  0.62268582  0.07892239  0.19320759  1.0
  N  N181  1  0.39497787  0.42119076  0.30676465  1.0
  N  N182  1  0.81569500  0.80675706  0.57896715  1.0
  N  N183  1  0.70144837  0.69322489  0.92105794  1.0
  O  O184  1  0.49684400  0.83582312  0.71677641  1.0
  O  O185  1  0.54933258  0.66409421  0.78325716  1.0
  O  O186  1  0.21367248  0.28332544  0.33580556  1.0
  O  O187  1  0.33258078  0.21663762  0.16415173  1.0
  O  O188  1  0.50315997  0.16417355  0.28322618  1.0
  O  O189  1  0.45066315  0.33590900  0.21673936  1.0
  O  O190  1  0.78632653  0.71667123  0.66419692  1.0
  O  O191  1  0.66741069  0.78336418  0.83584882  1.0
  O  O192  1  0.75252956  0.86384573  0.69918637  1.0
  O  O193  1  0.81536021  0.63610709  0.80087620  1.0
  O  O194  1  0.45169681  0.30099827  0.36380723  1.0
  O  O195  1  0.61627734  0.19906190  0.13618593  1.0
  O  O196  1  0.24747813  0.13615094  0.30081457  1.0
  O  O197  1  0.18463481  0.36389752  0.19912124  1.0
  O  O198  1  0.54830475  0.69900073  0.63619177  1.0
  O  O199  1  0.38371291  0.80093991  0.86381929  1.0
  O  O200  1  0.06309445  0.20782353  0.08910589  1.0
  O  O201  1  0.86001687  0.29222769  0.41073225  1.0
  O  O202  1  0.15268019  0.91076111  0.70772088  1.0
  O  O203  1  0.27058513  0.58921663  0.79223178  1.0
  O  O204  1  0.93690967  0.79217781  0.91089560  1.0
  O  O205  1  0.13998780  0.70776758  0.58926850  1.0
  O  O206  1  0.84733128  0.08923790  0.29227788  1.0
  O  O207  1  0.72942463  0.41078331  0.20776523  1.0
  O  O208  1  0.96332064  0.12307537  0.13221250  1.0
  O  O209  1  0.71843431  0.37700193  0.36778116  1.0
  O  O210  1  0.09543040  0.86777508  0.62304882  1.0
  O  O211  1  0.08595852  0.63216314  0.87697616  1.0
  O  O212  1  0.03668099  0.87692596  0.86778780  1.0
  O  O213  1  0.28157036  0.62299334  0.63221913  1.0
  O  O214  1  0.90457890  0.13222579  0.37695094  1.0
  O  O215  1  0.91404395  0.36783399  0.12302102  1.0
  O  O216  1  0.22305320  0.72907166  0.80877442  1.0
  O  O217  1  0.26082387  0.77089303  0.69125568  1.0
  O  O218  1  0.03172919  0.19124293  0.22909137  1.0
  O  O219  1  0.95225551  0.30877377  0.27089887  1.0
  O  O220  1  0.77694393  0.27092875  0.19122486  1.0
  O  O221  1  0.73917598  0.22910690  0.30874479  1.0
  O  O222  1  0.96827384  0.80875560  0.77090892  1.0
  O  O223  1  0.04774357  0.69122523  0.72910169  1.0
