# generated using pymatgen
data_MnHC3N3Cl
_symmetry_space_group_name_H-M   'P 1'
_cell_length_a   8.31307430
_cell_length_b   14.91761751
_cell_length_c   14.91760243
_cell_angle_alpha   116.62976837
_cell_angle_beta   100.71066251
_cell_angle_gamma   100.71050706
_symmetry_Int_Tables_number   1
_chemical_formula_structural   MnHC3N3Cl
_chemical_formula_sum   'Mn6 H6 C18 N18 Cl6'
_cell_volume   1546.73325561
_cell_formula_units_Z   6
loop_
 _symmetry_equiv_pos_site_id
 _symmetry_equiv_pos_as_xyz
  1  'x, y, z'
loop_
 _atom_site_type_symbol
 _atom_site_label
 _atom_site_symmetry_multiplicity
 _atom_site_fract_x
 _atom_site_fract_y
 _atom_site_fract_z
 _atom_site_occupancy
  Mn  Mn0  1  0.28823704  0.57650808  0.28823151  1.0
  Mn  Mn1  1  0.00000282  0.71174611  0.28824991  1.0
  Mn  Mn2  1  0.71177360  0.71177156  0.42349336  1.0
  Mn  Mn3  1  0.71176405  0.42349349  0.71176977  1.0
  Mn  Mn4  1  0.99999709  0.28825310  0.71174952  1.0
  Mn  Mn5  1  0.28822671  0.28822844  0.57650646  1.0
  H  H6  1  0.19840721  0.41997638  0.99997088  1.0
  H  H7  1  0.19840501  0.99996401  0.41997317  1.0
  H  H8  1  0.77843759  0.57994631  0.57994207  1.0
  H  H9  1  0.80159221  0.58002676  0.00003295  1.0
  H  H10  1  0.22156474  0.42005526  0.42005665  1.0
  H  H11  1  0.80159293  0.00003126  0.58002496  1.0
  C  C12  1  0.46193874  0.52296113  0.09211388  1.0
  C  C13  1  0.36982044  0.90787135  0.43086217  1.0
  C  C14  1  0.93895198  0.56911849  0.47698704  1.0
  C  C15  1  0.63018016  0.56913826  0.09212498  1.0
  C  C16  1  0.06105186  0.52301279  0.43088265  1.0
  C  C17  1  0.53806344  0.90788870  0.47704133  1.0
  C  C18  1  0.53806152  0.47704122  0.90788834  1.0
  C  C19  1  0.63018073  0.09212549  0.56913968  1.0
  C  C20  1  0.06104828  0.43088387  0.52301384  1.0
  C  C21  1  0.36981844  0.43086567  0.90787777  1.0
  C  C22  1  0.93895169  0.47698878  0.56911688  1.0
  C  C23  1  0.46193485  0.09210972  0.52295824  1.0
  C  C24  1  0.32670999  0.45267104  0.99997888  1.0
  C  C25  1  0.32670551  0.99997594  0.45266692  1.0
  C  C26  1  0.87398072  0.54722889  0.54722556  1.0
  C  C27  1  0.67328861  0.54733289  0.00002454  1.0
  C  C28  1  0.12602161  0.45277268  0.45277317  1.0
  C  C29  1  0.67329117  0.00002169  0.54733214  1.0
  N  N30  1  0.46835747  0.56187411  0.19597570  1.0
  N  N31  1  0.27238230  0.80399585  0.36588411  1.0
  N  N32  1  0.90647688  0.63408692  0.43809454  1.0
  N  N33  1  0.72761696  0.63411401  0.19600086  1.0
  N  N34  1  0.09353042  0.56190388  0.36591317  1.0
  N  N35  1  0.53164861  0.80402542  0.43812643  1.0
  N  N36  1  0.53164117  0.43812746  0.80402667  1.0
  N  N37  1  0.72761643  0.19600099  0.63411548  1.0
  N  N38  1  0.09352343  0.36591308  0.56190395  1.0
  N  N39  1  0.27238251  0.36588677  0.80400124  1.0
  N  N40  1  0.90647191  0.43809769  0.63408623  1.0
  N  N41  1  0.46835135  0.19597142  0.56187262  1.0
  N  N42  1  0.62675587  0.62677405  0.25352775  1.0
  N  N43  1  0.37325014  0.74647138  0.37322556  1.0
  N  N44  1  0.00000319  0.62676456  0.37323340  1.0
  N  N45  1  0.37324482  0.37322673  0.74647447  1.0
  N  N46  1  0.62674981  0.25352546  0.62677281  1.0
  N  N47  1  0.99999629  0.37323622  0.62676535  1.0
  Cl  Cl48  1  0.50000471  0.57446057  0.42554313  1.0
  Cl  Cl49  1  0.07440564  0.57442676  0.14886090  1.0
  Cl  Cl50  1  0.92559866  0.85113876  0.42556741  1.0
  Cl  Cl51  1  0.49999559  0.42553942  0.57445736  1.0
  Cl  Cl52  1  0.92559305  0.42557245  0.85113773  1.0
  Cl  Cl53  1  0.07440287  0.14886123  0.57443120  1.0
