# generated using pymatgen
data_ZnH22C24BrNO6
_symmetry_space_group_name_H-M   'P 1'
_cell_length_a   11.03012501
_cell_length_b   14.11500228
_cell_length_c   15.22802938
_cell_angle_alpha   87.93783753
_cell_angle_beta   89.32630154
_cell_angle_gamma   88.91591065
_symmetry_Int_Tables_number   1
_chemical_formula_structural   ZnH22C24BrNO6
_chemical_formula_sum   'Zn2 H44 C48 Br2 N2 O12'
_cell_volume   2368.75043955
_cell_formula_units_Z   2
loop_
 _symmetry_equiv_pos_site_id
 _symmetry_equiv_pos_as_xyz
  1  'x, y, z'
loop_
 _atom_site_type_symbol
 _atom_site_label
 _atom_site_symmetry_multiplicity
 _atom_site_fract_x
 _atom_site_fract_y
 _atom_site_fract_z
 _atom_site_occupancy
  Zn  Zn0  1  0.49674865  0.60359536  0.49584091  1.0
  Zn  Zn1  1  0.50021017  0.39841257  0.49513702  1.0
  H  H2  1  0.62049493  0.94140117  0.39522781  1.0
  H  H3  1  0.58142743  0.62725875  0.20798672  1.0
  H  H4  1  0.50633819  0.35897966  0.94981292  1.0
  H  H5  1  0.32131913  0.39711401  0.06403779  1.0
  H  H6  1  0.30550570  0.07447601  0.54032380  1.0
  H  H7  1  0.68713466  0.06530169  0.47239359  1.0
  H  H8  1  0.31789886  0.25208506  0.53560669  1.0
  H  H9  1  0.68192542  0.24342314  0.46951209  1.0
  H  H10  1  0.72608187  0.73389909  0.27826537  1.0
  H  H11  1  0.73013016  0.85056924  0.31728372  1.0
  H  H12  1  0.50169257  0.76082817  0.24517277  1.0
  H  H13  1  0.36286096  0.93101700  0.61136854  1.0
  H  H14  1  0.51613409  0.88132987  0.26910879  1.0
  H  H15  1  0.67306112  0.90117614  0.14694775  1.0
  H  H16  1  0.53443296  0.85914249  0.10675195  1.0
  H  H17  1  0.65903080  0.77962001  0.12315288  1.0
  H  H18  1  0.19833319  0.73124082  0.53717571  1.0
  H  H19  1  0.19586951  0.83103554  0.60750080  1.0
  H  H20  1  0.19553400  0.62236959  0.67012412  1.0
  H  H21  1  0.18178226  0.72070810  0.73865001  1.0
  H  H22  1  0.98267394  0.76850216  0.66594001  1.0
  H  H23  1  0.97679835  0.65024336  0.70935633  1.0
  H  H24  1  0.23262733  0.56119054  0.35020827  1.0
  H  H25  1  0.99884633  0.67152859  0.59518677  1.0
  H  H26  1  0.40105899  0.27344484  0.73614138  1.0
  H  H27  1  0.43713871  0.23969588  0.84756857  1.0
  H  H28  1  0.58172311  0.18736641  0.68225663  1.0
  H  H29  1  0.63266795  0.16407495  0.79036870  1.0
  H  H30  1  0.45440544  0.05998401  0.82366679  1.0
  H  H31  1  0.53291449  0.02015290  0.72915962  1.0
  H  H32  1  0.39522391  0.08623636  0.71755071  1.0
  H  H33  1  0.44025042  0.28319548  0.26724909  1.0
  H  H34  1  0.34983253  0.26260233  0.17287612  1.0
  H  H35  1  0.78189195  0.54820185  0.33380011  1.0
  H  H36  1  0.25875009  0.26601114  0.36390412  1.0
  H  H37  1  0.16599460  0.24971532  0.27218880  1.0
  H  H38  1  0.28191580  0.09957826  0.23690767  1.0
  H  H39  1  0.22394666  0.09152454  0.34596693  1.0
  H  H40  1  0.37936494  0.11566988  0.32690050  1.0
  H  H41  1  0.12887257  0.60799197  0.21278663  1.0
  H  H42  1  0.90308174  0.60017185  0.20394512  1.0
  H  H43  1  0.40506397  0.65459338  0.91981221  1.0
  H  H44  1  0.57045250  0.62867829  0.04429704  1.0
  H  H45  1  0.43400065  0.64447420  0.75704906  1.0
  C  C46  1  0.49898015  0.49705117  0.66418593  1.0
  C  C47  1  0.44743356  0.51162429  0.04279845  1.0
  C  C48  1  0.39142814  0.10856565  0.52524556  1.0
  C  C49  1  0.60255588  0.10356647  0.48552710  1.0
  C  C50  1  0.39681583  0.20685369  0.52231775  1.0
  C  C51  1  0.60108700  0.20202769  0.48397716  1.0
  C  C52  1  0.49556769  0.05460931  0.50545057  1.0
  C  C53  1  0.56462938  0.90237598  0.44274719  1.0
  C  C54  1  0.41823540  0.89747437  0.56129303  1.0
  C  C55  1  0.56144269  0.80344100  0.44260100  1.0
  C  C56  1  0.42023650  0.79865945  0.55700341  1.0
  C  C57  1  0.47698675  0.50776016  0.32551522  1.0
  C  C58  1  0.49252137  0.95020254  0.50363171  1.0
  C  C59  1  0.26199923  0.49182839  0.50180482  1.0
  C  C60  1  0.73408545  0.49012362  0.48965086  1.0
  C  C61  1  0.13421264  0.55780468  0.34694717  1.0
  C  C62  1  0.88033730  0.55072267  0.33767914  1.0
  C  C63  1  0.07589703  0.58459647  0.27022336  1.0
  C  C64  1  0.94817597  0.58039344  0.26548441  1.0
  C  C65  1  0.93755642  0.52281395  0.41797784  1.0
  C  C66  1  0.06703909  0.52543027  0.42201204  1.0
  C  C67  1  0.12558161  0.49323964  0.50080729  1.0
  C  C68  1  0.48451888  0.49730586  0.76209725  1.0
  C  C69  1  0.87047686  0.49092778  0.49382534  1.0
  C  C70  1  0.05858014  0.46159705  0.57282148  1.0
  C  C71  1  0.92988005  0.46160028  0.57002434  1.0
  C  C72  1  0.43262595  0.58778316  0.89100869  1.0
  C  C73  1  0.51744468  0.57865364  0.08434194  1.0
  C  C74  1  0.44864229  0.58248169  0.80066787  1.0
  C  C75  1  0.52372105  0.57779329  0.17549902  1.0
  C  C76  1  0.66970531  0.79108653  0.30527640  1.0
  C  C77  1  0.56597010  0.81949393  0.24396219  1.0
  C  C78  1  0.61083804  0.84115038  0.15022418  1.0
  C  C79  1  0.46055173  0.51121786  0.22779249  1.0
  C  C80  1  0.22138004  0.75538184  0.60280842  1.0
  C  C81  1  0.15926096  0.69517039  0.67343332  1.0
  C  C82  1  0.02196016  0.69670533  0.66029647  1.0
  C  C83  1  0.47622690  0.25535121  0.78146260  1.0
  C  C84  1  0.55065167  0.17134433  0.74998681  1.0
  C  C85  1  0.47948152  0.07946071  0.75536044  1.0
  C  C86  1  0.34798847  0.28988690  0.24009682  1.0
  C  C87  1  0.25776552  0.23636935  0.29805577  1.0
  C  C88  1  0.28728377  0.13010034  0.30219016  1.0
  C  C89  1  0.50453631  0.41650454  0.81728700  1.0
  C  C90  1  0.38591465  0.44704536  0.18647668  1.0
  C  C91  1  0.48566897  0.42142135  0.90795770  1.0
  C  C92  1  0.38056908  0.44699764  0.09482861  1.0
  C  C93  1  0.45150566  0.50686268  0.94598180  1.0
  Br  Br94  1  0.14243389  0.41858871  0.67587074  1.0
  Br  Br95  1  0.83801620  0.42436093  0.67139966  1.0
  N  N96  1  0.49955276  0.25258610  0.50110614  1.0
  N  N97  1  0.49118495  0.75231525  0.49930622  1.0
  O  O98  1  0.52258833  0.57649326  0.62631718  1.0
  O  O99  1  0.35254627  0.74382611  0.61209128  1.0
  O  O100  1  0.55520863  0.33495562  0.78442553  1.0
  O  O101  1  0.31234412  0.38866510  0.23702250  1.0
  O  O102  1  0.46616786  0.58644391  0.36377748  1.0
  O  O103  1  0.48312098  0.41941729  0.62615782  1.0
  O  O104  1  0.50324919  0.42749918  0.36133408  1.0
  O  O105  1  0.31248741  0.57002013  0.51404397  1.0
  O  O106  1  0.68101801  0.57007138  0.48079996  1.0
  O  O107  1  0.31300839  0.41257587  0.48721671  1.0
  O  O108  1  0.68543952  0.40912577  0.49376989  1.0
  O  O109  1  0.62601936  0.74976900  0.38765017  1.0
