# generated using pymatgen
data_AlH8C14N2O7
_symmetry_space_group_name_H-M   'P 1'
_cell_length_a   6.66043752
_cell_length_b   11.13114504
_cell_length_c   17.68911607
_cell_angle_alpha   85.56686670
_cell_angle_beta   80.92104228
_cell_angle_gamma   72.73982864
_symmetry_Int_Tables_number   1
_chemical_formula_structural   AlH8C14N2O7
_chemical_formula_sum   'Al2 H16 C28 N4 O14'
_cell_volume   1236.04710364
_cell_formula_units_Z   2
loop_
 _symmetry_equiv_pos_site_id
 _symmetry_equiv_pos_as_xyz
  1  'x, y, z'
loop_
 _atom_site_type_symbol
 _atom_site_label
 _atom_site_symmetry_multiplicity
 _atom_site_fract_x
 _atom_site_fract_y
 _atom_site_fract_z
 _atom_site_occupancy
  Al  Al0  1  0.49095333  0.50788749  0.50415971  1.0
  Al  Al1  1  0.99438785  0.50450036  0.50305309  1.0
  H  H2  1  0.29737988  0.35693394  0.55028831  1.0
  H  H3  1  0.69111072  0.65628725  0.46167875  1.0
  H  H4  1  0.61278930  0.56278231  0.27683778  1.0
  H  H5  1  0.70879530  0.55717635  0.13407055  1.0
  H  H6  1  0.15439969  0.43986282  0.12069524  1.0
  H  H7  1  0.90916889  0.44377227  0.88475275  1.0
  H  H8  1  0.31972912  0.56683509  0.72832846  1.0
  H  H9  1  0.23699800  0.56038544  0.87125572  1.0
  H  H10  1  0.18550735  0.23837778  0.38895717  1.0
  H  H11  1  0.50116232  0.11969898  0.30568089  1.0
  H  H12  1  0.40295293  0.76925599  0.39827481  1.0
  H  H13  1  0.60940116  0.88422218  0.30943659  1.0
  H  H14  1  0.96956580  0.45391262  0.32371066  1.0
  H  H15  1  0.92323661  0.42355252  0.23343490  1.0
  H  H16  1  0.07146360  0.46190780  0.68001749  1.0
  H  H17  1  0.15327173  0.41961706  0.77000159  1.0
  C  C18  1  0.85184414  0.28084686  0.49223860  1.0
  C  C19  1  0.69090557  0.50661425  0.64174686  1.0
  C  C20  1  0.13260067  0.73209804  0.51031823  1.0
  C  C21  1  0.29533399  0.50660379  0.36386475  1.0
  C  C22  1  0.33658045  0.50169693  0.27986867  1.0
  C  C23  1  0.51673304  0.53366681  0.24148047  1.0
  C  C24  1  0.57044724  0.53056609  0.16285581  1.0
  C  C25  1  0.43758902  0.49587981  0.11838906  1.0
  C  C26  1  0.25634607  0.46571583  0.15515794  1.0
  C  C27  1  0.20093677  0.46749539  0.23557326  1.0
  C  C28  1  0.48584294  0.49426931  0.03752890  1.0
  C  C29  1  0.52668205  0.49527496  0.96776949  1.0
  C  C30  1  0.57030857  0.49896357  0.88670829  1.0
  C  C31  1  0.77993582  0.47035486  0.85022375  1.0
  C  C32  1  0.82959134  0.47478954  0.76953235  1.0
  C  C33  1  0.65680624  0.50771763  0.72569645  1.0
  C  C34  1  0.44686489  0.53806637  0.76365171  1.0
  C  C35  1  0.40023263  0.53436739  0.84254137  1.0
  C  C36  1  0.92069360  0.13958043  0.49188486  1.0
  C  C37  1  0.11069849  0.07293585  0.44497740  1.0
  C  C38  1  0.80464338  0.07299185  0.54039540  1.0
  C  C39  1  0.23240734  0.13613661  0.39228068  1.0
  C  C40  1  0.40976089  0.06917664  0.34550118  1.0
  C  C41  1  0.06257375  0.87347931  0.50450869  1.0
  C  C42  1  0.88076331  0.94107385  0.54945094  1.0
  C  C43  1  0.17746987  0.93754428  0.44918319  1.0
  C  C44  1  0.35699488  0.87163101  0.39803730  1.0
  C  C45  1  0.47144953  0.93623370  0.34788382  1.0
  N  N46  1  0.02447444  0.43424816  0.26774307  1.0
  N  N47  1  0.03586887  0.44398212  0.73690822  1.0
  N  N48  1  0.77111606  0.87434526  0.61001005  1.0
  N  N49  1  0.60739186  0.14306547  0.58914730  1.0
  O  O50  1  0.65986946  0.33659432  0.48470458  1.0
  O  O51  1  0.87180455  0.51386285  0.60674649  1.0
  O  O52  1  0.99669729  0.67806292  0.49944581  1.0
  O  O53  1  0.43326330  0.52950291  0.39903552  1.0
  O  O54  1  0.32243676  0.67954441  0.52103582  1.0
  O  O55  1  0.12001787  0.48910265  0.39792271  1.0
  O  O56  1  0.99153983  0.33236169  0.50152629  1.0
  O  O57  1  0.54177602  0.49544410  0.60765409  1.0
  O  O58  1  0.25962979  0.44630484  0.53545606  1.0
  O  O59  1  0.72768557  0.56550995  0.46954869  1.0
  O  O60  1  0.88455598  0.79206303  0.64842703  1.0
  O  O61  1  0.57461308  0.90648203  0.61786471  1.0
  O  O62  1  0.44015378  0.16896183  0.56133609  1.0
  O  O63  1  0.62838293  0.17246700  0.65260673  1.0
