# generated using pymatgen
data_CdH17C25N7O4
_symmetry_space_group_name_H-M   'P 1'
_cell_length_a   20.00390213
_cell_length_b   20.00391519
_cell_length_c   21.20124154
_cell_angle_alpha   78.71667081
_cell_angle_beta   78.71613617
_cell_angle_gamma   83.60908642
_symmetry_Int_Tables_number   1
_chemical_formula_structural   CdH17C25N7O4
_chemical_formula_sum   'Cd6 H102 C150 N42 O24'
_cell_volume   8135.45340795
_cell_formula_units_Z   6
loop_
 _symmetry_equiv_pos_site_id
 _symmetry_equiv_pos_as_xyz
  1  'x, y, z'
loop_
 _atom_site_type_symbol
 _atom_site_label
 _atom_site_symmetry_multiplicity
 _atom_site_fract_x
 _atom_site_fract_y
 _atom_site_fract_z
 _atom_site_occupancy
  Cd  Cd0  1  0.77947487  0.02332449  0.44519597  1.0
  Cd  Cd1  1  0.97667416  0.22052651  0.05480315  1.0
  Cd  Cd2  1  0.22052362  0.97667457  0.55480202  1.0
  Cd  Cd3  1  0.02331830  0.77947873  0.94519765  1.0
  Cd  Cd4  1  0.50529973  0.49470482  0.74999920  1.0
  Cd  Cd5  1  0.49470464  0.50529782  0.24999884  1.0
  H  H6  1  0.05952076  0.85736868  0.71513743  1.0
  H  H7  1  0.14263538  0.94047787  0.78486050  1.0
  H  H8  1  0.94047479  0.14263602  0.28486146  1.0
  H  H9  1  0.85736377  0.05952576  0.21513459  1.0
  H  H10  1  0.03040482  0.91675811  0.60684639  1.0
  H  H11  1  0.08324370  0.96959577  0.89315103  1.0
  H  H12  1  0.96958841  0.08324353  0.39315354  1.0
  H  H13  1  0.91675128  0.03040887  0.10684279  1.0
  H  H14  1  0.84562457  0.00996982  0.70715538  1.0
  H  H15  1  0.99003371  0.15437498  0.79284301  1.0
  H  H16  1  0.15436775  0.99003029  0.29284503  1.0
  H  H17  1  0.00997058  0.84563530  0.20715073  1.0
  H  H18  1  0.87310063  0.94507805  0.81491434  1.0
  H  H19  1  0.05492619  0.12689781  0.68508377  1.0
  H  H20  1  0.12689219  0.05492205  0.18508503  1.0
  H  H21  1  0.94507594  0.87310684  0.31491007  1.0
  H  H22  1  0.00833860  0.13910885  0.52743642  1.0
  H  H23  1  0.86089907  0.99165295  0.97256258  1.0
  H  H24  1  0.99165209  0.86089281  0.47256542  1.0
  H  H25  1  0.13911052  0.00834098  0.02743567  1.0
  H  H26  1  0.04435768  0.06495709  0.57482108  1.0
  H  H27  1  0.93505248  0.95563936  0.92517605  1.0
  H  H28  1  0.95563550  0.93504506  0.42517876  1.0
  H  H29  1  0.06495879  0.04435969  0.07482182  1.0
  H  H30  1  0.97671002  0.11597345  0.61287026  1.0
  H  H31  1  0.88403335  0.02328447  0.88712884  1.0
  H  H32  1  0.02328285  0.88402615  0.38713061  1.0
  H  H33  1  0.11597230  0.97670742  0.11286916  1.0
  H  H34  1  0.49745901  0.72257108  0.65472036  1.0
  H  H35  1  0.27743617  0.50254032  0.84528378  1.0
  H  H36  1  0.50254524  0.27743419  0.34528380  1.0
  H  H37  1  0.72256464  0.49745572  0.15471907  1.0
  H  H38  1  0.52872471  0.83517105  0.58350832  1.0
  H  H39  1  0.16483348  0.47127940  0.91649483  1.0
  H  H40  1  0.47127931  0.16482955  0.41649113  1.0
  H  H41  1  0.83516759  0.52872023  0.08350869  1.0
  H  H42  1  0.71130716  0.73433163  0.48809791  1.0
  H  H43  1  0.26566391  0.28869250  0.01190549  1.0
  H  H44  1  0.28869316  0.26566387  0.51190278  1.0
  H  H45  1  0.73433616  0.71130715  0.98809963  1.0
  H  H46  1  0.67991768  0.62249412  0.56180282  1.0
  H  H47  1  0.37750449  0.32007645  0.93820375  1.0
  H  H48  1  0.32008401  0.37750452  0.43820407  1.0
  H  H49  1  0.62249668  0.67992217  0.06180136  1.0
  H  H50  1  0.57332371  0.81240799  0.40378300  1.0
  H  H51  1  0.18758469  0.42668425  0.09621885  1.0
  H  H52  1  0.42668324  0.18758696  0.59621368  1.0
  H  H53  1  0.81240559  0.57332359  0.90378610  1.0
  H  H54  1  0.55024037  0.89926217  0.37045796  1.0
  H  H55  1  0.10072955  0.44976584  0.12954253  1.0
  H  H56  1  0.44976515  0.10073122  0.62953788  1.0
  H  H57  1  0.89925995  0.55023785  0.87045725  1.0
  H  H58  1  0.51104241  0.86167591  0.45065488  1.0
  H  H59  1  0.13831611  0.48896149  0.04934507  1.0
  H  H60  1  0.48895948  0.13831798  0.54933921  1.0
  H  H61  1  0.86167472  0.51104528  0.95065575  1.0
  H  H62  1  0.86472809  0.86955901  0.66419382  1.0
  H  H63  1  0.13044474  0.13527644  0.83580103  1.0
  H  H64  1  0.13527394  0.13044055  0.33580339  1.0
  H  H65  1  0.86955916  0.86473176  0.16419036  1.0
  H  H66  1  0.77697741  0.78468167  0.68802230  1.0
  H  H67  1  0.21532350  0.22302475  0.81197888  1.0
  H  H68  1  0.22302252  0.21531895  0.31197747  1.0
  H  H69  1  0.78468390  0.77697895  0.18802261  1.0
  H  H70  1  0.69167410  0.79354057  0.61526063  1.0
  H  H71  1  0.20646238  0.30832534  0.88474333  1.0
  H  H72  1  0.30832445  0.20645855  0.38474300  1.0
  H  H73  1  0.79354503  0.69167175  0.11526227  1.0
  H  H74  1  0.70662828  0.24925144  0.45957825  1.0
  H  H75  1  0.75075010  0.29336970  0.04042084  1.0
  H  H76  1  0.29337093  0.75074508  0.54042199  1.0
  H  H77  1  0.24924927  0.70663086  0.95957386  1.0
  H  H78  1  0.64425172  0.35321123  0.50102255  1.0
  H  H79  1  0.64678941  0.35575121  0.99898185  1.0
  H  H80  1  0.35575671  0.64678586  0.49898333  1.0
  H  H81  1  0.35321038  0.64425035  0.00101069  1.0
  H  H82  1  0.53534979  0.22221796  0.66606195  1.0
  H  H83  1  0.77778323  0.46465144  0.83394022  1.0
  H  H84  1  0.46465266  0.77777599  0.33393768  1.0
  H  H85  1  0.22222236  0.53535583  0.16605904  1.0
  H  H86  1  0.60160916  0.11902453  0.62548178  1.0
  H  H87  1  0.88097737  0.39838733  0.87451573  1.0
  H  H88  1  0.39838289  0.88097089  0.37451110  1.0
  H  H89  1  0.11902486  0.60161687  0.12548384  1.0
  H  H90  1  0.41802199  0.39387250  0.52653378  1.0
  H  H91  1  0.60612034  0.58197289  0.97347532  1.0
  H  H92  1  0.58197994  0.60612254  0.47347140  1.0
  H  H93  1  0.39387157  0.41802623  0.02652819  1.0
  H  H94  1  0.47804893  0.32105904  0.52123446  1.0
  H  H95  1  0.67893317  0.52194745  0.97877296  1.0
  H  H96  1  0.52195454  0.67893545  0.47876817  1.0
  H  H97  1  0.32105726  0.47805118  0.02123235  1.0
  H  H98  1  0.50084236  0.40308779  0.47846183  1.0
  H  H99  1  0.59690633  0.49915340  0.02154539  1.0
  H  H100  1  0.49916000  0.59690825  0.52154213  1.0
  H  H101  1  0.40308605  0.50084622  0.97845746  1.0
  H  H102  1  0.66524079  0.27838815  0.66622256  1.0
  H  H103  1  0.72161376  0.33475826  0.83377863  1.0
  H  H104  1  0.33475982  0.72160436  0.33378573  1.0
  H  H105  1  0.27838686  0.66524750  0.16622331  1.0
  H  H106  1  0.74008071  0.25990754  0.75000514  1.0
  H  H107  1  0.25991271  0.74008657  0.25000943  1.0
  C  C108  1  0.98190631  0.85848100  0.83565273  1.0
  C  C109  1  0.14152404  0.01809326  0.66434511  1.0
  C  C110  1  0.01808734  0.14152221  0.16434964  1.0
  C  C111  1  0.85847494  0.98191240  0.33564773  1.0
  C  C112  1  0.96734262  0.89738300  0.77090635  1.0
  C  C113  1  0.10262316  0.03265660  0.72909299  1.0
  C  C114  1  0.03265034  0.10262223  0.22909341  1.0
  C  C115  1  0.89737690  0.96734857  0.27090162  1.0
  C  C116  1  0.01242122  0.89005052  0.71275267  1.0
  C  C117  1  0.10995601  0.98757848  0.78724538  1.0
  C  C118  1  0.98757331  0.10995419  0.28724735  1.0
  C  C119  1  0.89004357  0.01242617  0.21274849  1.0
  C  C120  1  0.99688046  0.92382120  0.65270966  1.0
  C  C121  1  0.07618252  0.00312001  0.84728990  1.0
  C  C122  1  0.00311320  0.07618147  0.34729046  1.0
  C  C123  1  0.92381503  0.99688465  0.15270483  1.0
  C  C124  1  0.93659104  0.96624122  0.65188745  1.0
  C  C125  1  0.03376193  0.06340856  0.84810953  1.0
  C  C126  1  0.06340069  0.03375992  0.34811287  1.0
  C  C127  1  0.96623717  0.93659558  0.15188453  1.0
  C  C128  1  0.89215552  0.97622499  0.70954473  1.0
  C  C129  1  0.02377487  0.10784266  0.79045481  1.0
  C  C130  1  0.10783803  0.02377258  0.29045782  1.0
  C  C131  1  0.97622464  0.89216302  0.20953981  1.0
  C  C132  1  0.90743299  0.94075355  0.76895268  1.0
  C  C133  1  0.05924811  0.09256594  0.73104567  1.0
  C  C134  1  0.09255932  0.05924655  0.23104725  1.0
  C  C135  1  0.94075247  0.90743923  0.26894884  1.0
  C  C136  1  0.99667217  0.09600232  0.56748484  1.0
  C  C137  1  0.90400637  0.00332491  0.93251321  1.0
  C  C138  1  0.00332154  0.90399985  0.43251631  1.0
  C  C139  1  0.09600169  0.99667565  0.06748216  1.0
  C  C140  1  0.94512680  0.05754204  0.55158564  1.0
  C  C141  1  0.94246259  0.05487151  0.94841302  1.0
  C  C142  1  0.05486805  0.94245806  0.44841333  1.0
  C  C143  1  0.05754225  0.94513109  0.05158163  1.0
  C  C144  1  0.87109818  0.98205193  0.55854149  1.0
  C  C145  1  0.01794935  0.12890308  0.94145446  1.0
  C  C146  1  0.12889937  0.01794557  0.44145416  1.0
  C  C147  1  0.98205235  0.87110053  0.05853919  1.0
  C  C148  1  0.56983322  0.59992546  0.65667836  1.0
  C  C149  1  0.40007694  0.43016709  0.84332570  1.0
  C  C150  1  0.43016733  0.40007415  0.34332337  1.0
  C  C151  1  0.59992669  0.56983364  0.15668512  1.0
  C  C152  1  0.58734760  0.66679409  0.61224487  1.0
  C  C153  1  0.33320814  0.41265190  0.88775912  1.0
  C  C154  1  0.41265548  0.33320605  0.38775863  1.0
  C  C155  1  0.66679300  0.58734671  0.11224411  1.0
  C  C156  1  0.54404708  0.72616706  0.61807955  1.0
  C  C157  1  0.27383489  0.45595268  0.88192442  1.0
  C  C158  1  0.45595596  0.27383359  0.38192386  1.0
  C  C159  1  0.72616421  0.54404593  0.11807921  1.0
  C  C160  1  0.56122833  0.78830506  0.57846329  1.0
  C  C161  1  0.21169577  0.43877339  0.92154071  1.0
  C  C162  1  0.43877375  0.21169456  0.42153909  1.0
  C  C163  1  0.78830580  0.56122623  0.07846130  1.0
  C  C164  1  0.62172563  0.79028456  0.53245879  1.0
  C  C165  1  0.20971513  0.37827543  0.96754577  1.0
  C  C166  1  0.37827389  0.20971505  0.46754314  1.0
  C  C167  1  0.79028604  0.62172320  0.03246027  1.0
  C  C168  1  0.66455811  0.73116274  0.52467895  1.0
  C  C169  1  0.26883536  0.33544082  0.97532355  1.0
  C  C170  1  0.33544141  0.26883686  0.47532204  1.0
  C  C171  1  0.73116282  0.66455679  0.02468234  1.0
  C  C172  1  0.64736141  0.66957552  0.56526047  1.0
  C  C173  1  0.33042575  0.35263655  0.93474376  1.0
  C  C174  1  0.35264060  0.33042512  0.43474220  1.0
  C  C175  1  0.66957347  0.64736053  0.06526061  1.0
  C  C176  1  0.55908048  0.86405787  0.41504887  1.0
  C  C177  1  0.13593563  0.44092352  0.08495530  1.0
  C  C178  1  0.44092272  0.13593966  0.58494945  1.0
  C  C179  1  0.86405558  0.55907870  0.91505058  1.0
  C  C180  1  0.61413736  0.88881473  0.44018936  1.0
  C  C181  1  0.11118109  0.38586676  0.05981420  1.0
  C  C182  1  0.38586627  0.11118380  0.55980774  1.0
  C  C183  1  0.88881417  0.61413543  0.94018901  1.0
  C  C184  1  0.69074511  0.89394351  0.50005838  1.0
  C  C185  1  0.10605314  0.30925778  0.99994327  1.0
  C  C186  1  0.30925768  0.10605247  0.49993891  1.0
  C  C187  1  0.89394644  0.69074135  0.00006064  1.0
  C  C188  1  0.82638611  0.92540568  0.57791058  1.0
  C  C189  1  0.07459573  0.17361742  0.92208532  1.0
  C  C190  1  0.17361396  0.07459233  0.42208495  1.0
  C  C191  1  0.92540753  0.82638623  0.07791132  1.0
  C  C192  1  0.82741286  0.87292162  0.63249216  1.0
  C  C193  1  0.12708214  0.17259259  0.86750221  1.0
  C  C194  1  0.17258919  0.12707742  0.36750373  1.0
  C  C195  1  0.87292202  0.82741257  0.13249255  1.0
  C  C196  1  0.77832504  0.82541143  0.64541572  1.0
  C  C197  1  0.17459013  0.22167840  0.85458231  1.0
  C  C198  1  0.22167406  0.17458662  0.35458424  1.0
  C  C199  1  0.82541477  0.77832425  0.14541705  1.0
  C  C200  1  0.73072908  0.82980320  0.60448767  1.0
  C  C201  1  0.17019838  0.26927375  0.89551211  1.0
  C  C202  1  0.26927113  0.17019385  0.39551368  1.0
  C  C203  1  0.82980881  0.73072587  0.10449069  1.0
  C  C204  1  0.73516932  0.88211182  0.54927303  1.0
  C  C205  1  0.11788676  0.26483266  0.95072818  1.0
  C  C206  1  0.26483228  0.11788672  0.45072493  1.0
  C  C207  1  0.88211590  0.73516593  0.04927429  1.0
  C  C208  1  0.69558037  0.11632173  0.51657120  1.0
  C  C209  1  0.88367620  0.30441181  0.98342798  1.0
  C  C210  1  0.30441536  0.88367268  0.48342399  1.0
  C  C211  1  0.11631827  0.69558015  0.01657595  1.0
  C  C212  1  0.65743189  0.17871699  0.54046489  1.0
  C  C213  1  0.82128405  0.34256442  0.95953473  1.0
  C  C214  1  0.34256468  0.82128000  0.45953106  1.0
  C  C215  1  0.17871385  0.65743621  0.04046637  1.0
  C  C216  1  0.66953457  0.24436095  0.50498586  1.0
  C  C217  1  0.75563806  0.33046575  0.99501644  1.0
  C  C218  1  0.33046786  0.75563353  0.49501462  1.0
  C  C219  1  0.24436073  0.66953638  0.00498138  1.0
  C  C220  1  0.63479679  0.30177539  0.52778676  1.0
  C  C221  1  0.69822569  0.36520377  0.97221831  1.0
  C  C222  1  0.36520919  0.69822016  0.47221895  1.0
  C  C223  1  0.30177456  0.63479884  0.02777676  1.0
  C  C224  1  0.58693071  0.29285605  0.58575175  1.0
  C  C225  1  0.70714477  0.41307203  0.91425028  1.0
  C  C226  1  0.41307428  0.70713899  0.41425331  1.0
  C  C227  1  0.29285777  0.58693416  0.08574412  1.0
  C  C228  1  0.57342202  0.22762803  0.62123185  1.0
  C  C229  1  0.77237288  0.42657888  0.87877078  1.0
  C  C230  1  0.42657878  0.77236799  0.37877006  1.0
  C  C231  1  0.22763133  0.57342634  0.12122915  1.0
  C  C232  1  0.60961056  0.17074993  0.59877606  1.0
  C  C233  1  0.82925007  0.39038838  0.90122436  1.0
  C  C234  1  0.39038518  0.82924449  0.40121960  1.0
  C  C235  1  0.17075162  0.60961633  0.09877569  1.0
  C  C236  1  0.47200156  0.37567919  0.52403274  1.0
  C  C237  1  0.62431457  0.52799777  0.97597312  1.0
  C  C238  1  0.52800308  0.62431327  0.47597053  1.0
  C  C239  1  0.37567889  0.47200136  0.02403103  1.0
  C  C240  1  0.49581678  0.38868629  0.58221482  1.0
  C  C241  1  0.61130933  0.50417988  0.91779399  1.0
  C  C242  1  0.50418766  0.61130925  0.41778978  1.0
  C  C243  1  0.38868777  0.49581821  0.08220966  1.0
  C  C244  1  0.55498374  0.38044691  0.66088484  1.0
  C  C245  1  0.61955816  0.44502004  0.83911526  1.0
  C  C246  1  0.44502230  0.61955422  0.33911553  1.0
  C  C247  1  0.38044793  0.55498667  0.16088024  1.0
  C  C248  1  0.60473395  0.36335217  0.70523086  1.0
  C  C249  1  0.63665463  0.39527414  0.79476731  1.0
  C  C250  1  0.39527361  0.63664895  0.29476827  1.0
  C  C251  1  0.36335334  0.60473515  0.20522968  1.0
  C  C252  1  0.65739631  0.31076946  0.70303060  1.0
  C  C253  1  0.68923184  0.34260734  0.79696669  1.0
  C  C254  1  0.34260713  0.68922556  0.29697288  1.0
  C  C255  1  0.31076873  0.65739892  0.20303422  1.0
  C  C256  1  0.69921881  0.30078043  0.74999940  1.0
  C  C257  1  0.30078138  0.69921715  0.25000421  1.0
  N  N258  1  0.91863324  0.99938371  0.59033910  1.0
  N  N259  1  0.00061727  0.08136827  0.90965814  1.0
  N  N260  1  0.08136270  0.00061534  0.40965892  1.0
  N  N261  1  0.99938439  0.91863587  0.09033589  1.0
  N  N262  1  0.91559901  0.07451697  0.49920221  1.0
  N  N263  1  0.92548513  0.08439954  0.00079595  1.0
  N  N264  1  0.08439833  0.92548360  0.50079383  1.0
  N  N265  1  0.07451776  0.91560205  0.99919975  1.0
  N  N266  1  0.86980677  0.02747309  0.50382196  1.0
  N  N267  1  0.97252942  0.13019277  0.99617660  1.0
  N  N268  1  0.13019376  0.97252542  0.49617245  1.0
  N  N269  1  0.02747449  0.86980883  0.00381937  1.0
  N  N270  1  0.64118322  0.85450516  0.49369001  1.0
  N  N271  1  0.14549557  0.35881822  0.00631285  1.0
  N  N272  1  0.35881830  0.14549440  0.50630777  1.0
  N  N273  1  0.85450729  0.64117838  0.99369468  1.0
  N  N274  1  0.64539429  0.94564612  0.41518321  1.0
  N  N275  1  0.05435216  0.35460848  0.08481741  1.0
  N  N276  1  0.35461148  0.05435087  0.58481330  1.0
  N  N277  1  0.94564622  0.64539211  0.91518078  1.0
  N  N278  1  0.69272288  0.94850409  0.45266526  1.0
  N  N279  1  0.05149231  0.30728058  0.04733210  1.0
  N  N280  1  0.30728030  0.05149340  0.54733024  1.0
  N  N281  1  0.94850325  0.69272359  0.95266453  1.0
  N  N282  1  0.78191806  0.92811825  0.53749982  1.0
  N  N283  1  0.07188337  0.21808272  0.96249820  1.0
  N  N284  1  0.21808067  0.07187775  0.46249967  1.0
  N  N285  1  0.92812330  0.78191633  0.03749962  1.0
  N  N286  1  0.54949429  0.35150626  0.60844238  1.0
  N  N287  1  0.64849478  0.45050424  0.89155896  1.0
  N  N288  1  0.45050890  0.64849234  0.39156092  1.0
  N  N289  1  0.35150784  0.54950093  0.10843610  1.0
  N  N290  1  0.46977227  0.43695339  0.61688192  1.0
  N  N291  1  0.56304103  0.53022449  0.88312694  1.0
  N  N292  1  0.53023558  0.56304362  0.38311701  1.0
  N  N293  1  0.43695164  0.46977159  0.11687937  1.0
  N  N294  1  0.50675141  0.43150604  0.66539581  1.0
  N  N295  1  0.56849415  0.49324734  0.83460900  1.0
  N  N296  1  0.49325321  0.56849355  0.33460513  1.0
  N  N297  1  0.43150430  0.50675278  0.16539210  1.0
  N  N298  1  0.59597895  0.40402650  0.74999864  1.0
  N  N299  1  0.40402573  0.59597868  0.24999791  1.0
  O  O300  1  0.04045628  0.82535267  0.83631172  1.0
  O  O301  1  0.17465545  0.95954587  0.66368185  1.0
  O  O302  1  0.95953991  0.17464997  0.16368556  1.0
  O  O303  1  0.82534573  0.04045829  0.33631463  1.0
  O  O304  1  0.93597424  0.86010951  0.88599759  1.0
  O  O305  1  0.13989189  0.06402332  0.61400156  1.0
  O  O306  1  0.06401748  0.13989216  0.11400452  1.0
  O  O307  1  0.86010610  0.93598237  0.38599336  1.0
  O  O308  1  0.51043492  0.60099723  0.69358555  1.0
  O  O309  1  0.39901024  0.48956288  0.80641733  1.0
  O  O310  1  0.48956466  0.39900133  0.30641422  1.0
  O  O311  1  0.60099583  0.51043056  0.19358311  1.0
  O  O312  1  0.61264291  0.54906927  0.65534839  1.0
  O  O313  1  0.45093130  0.38735369  0.84465682  1.0
  O  O314  1  0.38736395  0.45093550  0.34465678  1.0
  O  O315  1  0.54907244  0.61264714  0.15536339  1.0
  O  O316  1  0.73052258  0.12715886  0.45819981  1.0
  O  O317  1  0.87283866  0.26947666  0.04180249  1.0
  O  O318  1  0.26947885  0.87284170  0.54179591  1.0
  O  O319  1  0.12714929  0.73051377  0.95820207  1.0
  O  O320  1  0.69119449  0.05928585  0.55401842  1.0
  O  O321  1  0.94071250  0.30878731  0.94597917  1.0
  O  O322  1  0.30879520  0.94070647  0.44597175  1.0
  O  O323  1  0.05928477  0.69119441  0.05402621  1.0
