# generated using pymatgen
data_Zn4H4C24S4N2Cl2O17
_symmetry_space_group_name_H-M   'P 1'
_cell_length_a   19.63712053
_cell_length_b   19.69710758
_cell_length_c   33.28522754
_cell_angle_alpha   79.17965584
_cell_angle_beta   79.35583245
_cell_angle_gamma   64.04917485
_symmetry_Int_Tables_number   1
_chemical_formula_structural   Zn4H4C24S4N2Cl2O17
_chemical_formula_sum   'Zn16 H16 C96 S16 N8 Cl8 O68'
_cell_volume   11293.65605310
_cell_formula_units_Z   4
loop_
 _symmetry_equiv_pos_site_id
 _symmetry_equiv_pos_as_xyz
  1  'x, y, z'
loop_
 _atom_site_type_symbol
 _atom_site_label
 _atom_site_symmetry_multiplicity
 _atom_site_fract_x
 _atom_site_fract_y
 _atom_site_fract_z
 _atom_site_occupancy
  Zn  Zn0  1  0.05819967  0.40010023  0.47808885  1.0
  Zn  Zn1  1  0.98368158  0.48351346  0.56002593  1.0
  Zn  Zn2  1  0.05943287  0.56074060  0.48192745  1.0
  Zn  Zn3  1  0.89956990  0.55399939  0.48005797  1.0
  Zn  Zn4  1  0.69399109  0.35106728  0.27003641  1.0
  Zn  Zn5  1  0.68998502  0.18924280  0.26742279  1.0
  Zn  Zn6  1  0.76780166  0.26792890  0.18960029  1.0
  Zn  Zn7  1  0.84680770  0.19285051  0.27304072  1.0
  Zn  Zn8  1  0.26640601  0.76832924  0.68943647  1.0
  Zn  Zn9  1  0.34923419  0.69507451  0.77159824  1.0
  Zn  Zn10  1  0.19285595  0.84923855  0.77091251  1.0
  Zn  Zn11  1  0.19333920  0.68640299  0.76768893  1.0
  Zn  Zn12  1  0.56198189  0.05899547  0.98241680  1.0
  Zn  Zn13  1  0.39966553  0.05590106  0.97908238  1.0
  Zn  Zn14  1  0.55735802  0.90243331  0.97777219  1.0
  Zn  Zn15  1  0.48052156  0.98382400  0.06027631  1.0
  H  H16  1  0.74852021  0.45246528  0.35017620  1.0
  H  H17  1  0.00168368  0.29694013  0.39980664  1.0
  H  H18  1  0.20126173  0.70059194  0.59858269  1.0
  H  H19  1  0.04952140  0.54979617  0.65090666  1.0
  H  H20  1  0.46408232  0.24023788  0.34046755  1.0
  H  H21  1  0.47905886  0.70334505  0.60089578  1.0
  H  H22  1  0.20288949  0.98013973  0.60067660  1.0
  H  H23  1  0.94725385  0.96964060  0.34970672  1.0
  H  H24  1  0.65140300  0.15119195  0.04921682  1.0
  H  H25  1  0.59906570  0.09826319  0.20070544  1.0
  H  H26  1  0.54986819  0.77215744  0.14807671  1.0
  H  H27  1  0.15985291  0.14073452  0.04082691  1.0
  H  H28  1  0.29673230  0.00178553  0.89982434  1.0
  H  H29  1  0.45168782  0.74959515  0.85047298  1.0
  H  H30  1  0.30081208  0.27975210  0.90182299  1.0
  H  H31  1  0.79098504  0.00866826  0.90921311  1.0
  C  C32  1  0.06283105  0.31687120  0.56162332  1.0
  C  C33  1  0.06923940  0.56907784  0.56875061  1.0
  C  C34  1  0.18451986  0.43936871  0.43780950  1.0
  C  C35  1  0.93619023  0.68270297  0.43920833  1.0
  C  C36  1  0.93164465  0.42867455  0.43192533  1.0
  C  C37  1  0.81632004  0.56038686  0.56286189  1.0
  C  C38  1  0.56673156  0.31131718  0.31117148  1.0
  C  C39  1  0.68002491  0.18150451  0.18137611  1.0
  C  C40  1  0.68944497  0.43519868  0.18719636  1.0
  C  C41  1  0.93340116  0.18830295  0.19031803  1.0
  C  C42  1  0.81720726  0.31938482  0.31944295  1.0
  C  C43  1  0.81093857  0.06424062  0.31198448  1.0
  C  C44  1  0.43308869  0.69039246  0.68803518  1.0
  C  C45  1  0.31932613  0.81962663  0.81843173  1.0
  C  C46  1  0.18757925  0.93435780  0.68762764  1.0
  C  C47  1  0.06760127  0.80853985  0.81075640  1.0
  C  C48  1  0.18328311  0.67968102  0.68070489  1.0
  C  C49  1  0.31478275  0.56510502  0.81213641  1.0
  C  C50  1  0.43832983  0.18288506  0.93849260  1.0
  C  C51  1  0.43021476  0.93290811  0.93068290  1.0
  C  C52  1  0.68656127  0.93911437  0.93841046  1.0
  C  C53  1  0.56002080  0.81789051  0.06100235  1.0
  C  C54  1  0.56836053  0.07007422  0.06852545  1.0
  C  C55  1  0.31336594  0.06205650  0.06148644  1.0
  C  C56  1  0.90226680  0.40281039  0.40186271  1.0
  C  C57  1  0.84890706  0.34758569  0.34716711  1.0
  C  C58  1  0.83131602  0.44604385  0.38703606  1.0
  C  C59  1  0.92061109  0.30507944  0.36125036  1.0
  C  C60  1  0.80439188  0.41881893  0.36075913  1.0
  C  C61  1  0.94651723  0.33129871  0.38853008  1.0
  C  C62  1  0.09730219  0.59996803  0.59694276  1.0
  C  C63  1  0.15131381  0.65263367  0.65255428  1.0
  C  C64  1  0.13953203  0.64339707  0.58290105  1.0
  C  C65  1  0.10760067  0.61065154  0.66659267  1.0
  C  C66  1  0.16720676  0.66824736  0.60997371  1.0
  C  C67  1  0.08210330  0.58362316  0.63951427  1.0
  C  C68  1  0.30575718  0.45481309  0.40067376  1.0
  C  C69  1  0.44718816  0.29679889  0.34861157  1.0
  C  C70  1  0.25955598  0.41562417  0.41337039  1.0
  C  C71  1  0.49216120  0.33667998  0.33629872  1.0
  C  C72  1  0.37922232  0.33961006  0.37230878  1.0
  C  C73  1  0.37411051  0.41125295  0.37729802  1.0
  C  C74  1  0.72533337  0.57605245  0.63086893  1.0
  C  C75  1  0.52365141  0.67464542  0.62112088  1.0
  C  C76  1  0.74221644  0.58533781  0.58819306  1.0
  C  C77  1  0.50821729  0.66504725  0.66357547  1.0
  C  C78  1  0.60299004  0.64261555  0.60905243  1.0
  C  C79  1  0.64583441  0.60902377  0.64275926  1.0
  C  C80  1  0.07602564  0.22603414  0.62973637  1.0
  C  C81  1  0.17346259  0.02471737  0.62067697  1.0
  C  C82  1  0.08606670  0.24283069  0.58704069  1.0
  C  C83  1  0.16267279  0.00946231  0.66311182  1.0
  C  C84  1  0.14141394  0.10383785  0.60835236  1.0
  C  C85  1  0.10743507  0.14668352  0.64186988  1.0
  C  C86  1  0.84200487  0.79903619  0.39692543  1.0
  C  C87  1  0.90320039  0.94881136  0.35371709  1.0
  C  C88  1  0.91008385  0.75732363  0.41438154  1.0
  C  C89  1  0.83500461  0.98951113  0.33690536  1.0
  C  C90  1  0.90577159  0.87938651  0.37591303  1.0
  C  C91  1  0.83951614  0.86883677  0.37514369  1.0
  C  C92  1  0.65394761  0.15135459  0.15178959  1.0
  C  C93  1  0.59858895  0.09602018  0.09813441  1.0
  C  C94  1  0.66885069  0.16468570  0.10887651  1.0
  C  C95  1  0.58536992  0.08102265  0.14105697  1.0
  C  C96  1  0.64080315  0.13884596  0.08246962  1.0
  C  C97  1  0.61119734  0.10906511  0.16745439  1.0
  C  C98  1  0.67233950  0.52596650  0.11894141  1.0
  C  C99  1  0.57705721  0.72749786  0.12802464  1.0
  C  C100  1  0.66450609  0.50924061  0.16172733  1.0
  C  C101  1  0.58520953  0.74273742  0.08549561  1.0
  C  C102  1  0.60858774  0.64834139  0.14032444  1.0
  C  C103  1  0.64025858  0.60536371  0.10677109  1.0
  C  C104  1  0.08097883  0.12506170  0.17906372  1.0
  C  C105  1  0.16773395  0.12473516  0.07328121  1.0
  C  C106  1  0.00854509  0.16283420  0.16598844  1.0
  C  C107  1  0.23910444  0.08677117  0.08687858  1.0
  C  C108  1  0.10977434  0.13843165  0.10685026  1.0
  C  C109  1  0.13868759  0.11092310  0.14524308  1.0
  C  C110  1  0.34559372  0.84888868  0.84834085  1.0
  C  C111  1  0.40176731  0.90150853  0.90295155  1.0
  C  C112  1  0.30250559  0.91952880  0.86313121  1.0
  C  C113  1  0.44403199  0.83002203  0.88900200  1.0
  C  C114  1  0.33024531  0.94610475  0.88931610  1.0
  C  C115  1  0.41741927  0.80454501  0.86170744  1.0
  C  C116  1  0.40932288  0.44728164  0.85352629  1.0
  C  C117  1  0.34559488  0.29964492  0.89752192  1.0
  C  C118  1  0.34051733  0.49053803  0.83703250  1.0
  C  C119  1  0.41423153  0.25776916  0.91373525  1.0
  C  C120  1  0.34344620  0.36911514  0.87562563  1.0
  C  C121  1  0.41084748  0.37807800  0.87565002  1.0
  C  C122  1  0.94594334  0.79418787  0.84824809  1.0
  C  C123  1  0.80710259  0.95221001  0.90115334  1.0
  C  C124  1  0.99314572  0.83233854  0.83573891  1.0
  C  C125  1  0.76130314  0.91318791  0.91349423  1.0
  C  C126  1  0.87484230  0.90872250  0.87752474  1.0
  C  C127  1  0.87854221  0.83774833  0.87226770  1.0
  S  S128  1  0.30012197  0.32587065  0.39678930  1.0
  S  S129  1  0.45264604  0.42596144  0.35325101  1.0
  S  S130  1  0.66086653  0.63414612  0.56289468  1.0
  S  S131  1  0.58923232  0.61729011  0.68913792  1.0
  S  S132  1  0.13362449  0.16150042  0.56204809  1.0
  S  S133  1  0.11403003  0.09027637  0.68836606  1.0
  S  S134  1  0.97047296  0.80370089  0.40399144  1.0
  S  S135  1  0.77382156  0.94413153  0.34769221  1.0
  S  S136  1  0.61776801  0.59072743  0.18669291  1.0
  S  S137  1  0.63090871  0.66174902  0.06018203  1.0
  S  S138  1  0.01156344  0.18076069  0.11252963  1.0
  S  S139  1  0.23658836  0.06765742  0.14024435  1.0
  S  S140  1  0.27823009  0.44631505  0.84867083  1.0
  S  S141  1  0.47646667  0.30194821  0.90265919  1.0
  S  S142  1  0.95480865  0.92111226  0.85336925  1.0
  S  S143  1  0.79965253  0.82394386  0.89654185  1.0
  N  N144  1  0.78152810  0.52422629  0.39728408  1.0
  N  N145  1  0.97434160  0.23086788  0.34702481  1.0
  N  N146  1  0.15520613  0.66773832  0.53855603  1.0
  N  N147  1  0.08353140  0.59458985  0.71092873  1.0
  N  N148  1  0.71714552  0.20501435  0.08889333  1.0
  N  N149  1  0.54523870  0.03261507  0.16107084  1.0
  N  N150  1  0.22402926  0.96939142  0.85289506  1.0
  N  N151  1  0.51838254  0.77613711  0.90337885  1.0
  Cl  Cl152  1  0.28674902  0.54315469  0.41122266  1.0
  Cl  Cl153  1  0.78905012  0.53161033  0.66614534  1.0
  Cl  Cl154  1  0.03160678  0.28963038  0.66479507  1.0
  Cl  Cl155  1  0.76895745  0.77289191  0.40013955  1.0
  Cl  Cl156  1  0.71362479  0.46208186  0.08396945  1.0
  Cl  Cl157  1  0.10148047  0.09794620  0.22869449  1.0
  Cl  Cl158  1  0.48437803  0.47099320  0.84904393  1.0
  Cl  Cl159  1  0.96343795  0.70665363  0.83712293  1.0
  O  O160  1  0.00071783  0.49878116  0.49967990  1.0
  O  O161  1  0.07405235  0.31523405  0.52251180  1.0
  O  O162  1  0.02337343  0.53945422  0.58573086  1.0
  O  O163  1  0.15299860  0.50713800  0.44715830  1.0
  O  O164  1  0.03411134  0.37588041  0.58035697  1.0
  O  O165  1  0.15721631  0.38917575  0.44745690  1.0
  O  O166  1  0.09439373  0.57448458  0.53085366  1.0
  O  O167  1  0.00046201  0.65990377  0.45310815  1.0
  O  O168  1  0.88410044  0.48701593  0.44868978  1.0
  O  O169  1  0.89379839  0.64704208  0.44479409  1.0
  O  O170  1  0.00098868  0.38910125  0.43813401  1.0
  O  O171  1  0.87563556  0.52112969  0.58123252  1.0
  O  O172  1  0.81439958  0.58059212  0.52399948  1.0
  O  O173  1  0.74891626  0.25071076  0.25010365  1.0
  O  O174  1  0.59950745  0.35673015  0.30457503  1.0
  O  O175  1  0.66987453  0.15774437  0.21931133  1.0
  O  O176  1  0.72847056  0.37608026  0.16893531  1.0
  O  O177  1  0.59186197  0.24655593  0.29820996  1.0
  O  O178  1  0.66964410  0.43677302  0.22614843  1.0
  O  O179  1  0.70884673  0.22839413  0.16584030  1.0
  O  O180  1  0.87593245  0.21838374  0.16959213  1.0
  O  O181  1  0.85292102  0.24952193  0.31438624  1.0
  O  O182  1  0.93134181  0.17880949  0.22942858  1.0
  O  O183  1  0.75704433  0.36782638  0.30414485  1.0
  O  O184  1  0.74349415  0.09324427  0.30127410  1.0
  O  O185  1  0.85912489  0.09364321  0.30315611  1.0
  O  O186  1  0.25039612  0.75005976  0.74973398  1.0
  O  O187  1  0.37474890  0.72130100  0.66827897  1.0
  O  O188  1  0.36041009  0.75107735  0.81159502  1.0
  O  O189  1  0.16801593  0.93386447  0.72650409  1.0
  O  O190  1  0.43329889  0.67894908  0.72719605  1.0
  O  O191  1  0.22630231  0.87660468  0.66807527  1.0
  O  O192  1  0.25937428  0.86602137  0.80243278  1.0
  O  O193  1  0.09953379  0.85469350  0.80570333  1.0
  O  O194  1  0.17951828  0.65294031  0.71843187  1.0
  O  O195  1  0.09403420  0.74517174  0.79624923  1.0
  O  O196  1  0.21215202  0.72622148  0.66385387  1.0
  O  O197  1  0.36165897  0.59588725  0.80181134  1.0
  O  O198  1  0.24639512  0.59267667  0.80286064  1.0
  O  O199  1  0.49964767  0.00080498  0.99981236  1.0
  O  O200  1  0.50352403  0.15687334  0.95164013  1.0
  O  O201  1  0.38188032  0.99355611  0.94530589  1.0
  O  O202  1  0.65631859  0.89147962  0.94768151  1.0
  O  O203  1  0.39257359  0.15071762  0.94461841  1.0
  O  O204  1  0.65822159  0.00640246  0.94862801  1.0
  O  O205  1  0.49994956  0.89669849  0.93645730  1.0
  O  O206  1  0.57219281  0.81820310  0.02181033  1.0
  O  O207  1  0.52043647  0.04238996  0.08391418  1.0
  O  O208  1  0.52851243  0.87584213  0.08080533  1.0
  O  O209  1  0.59306403  0.07920254  0.03067696  1.0
  O  O210  1  0.31318835  0.08058432  0.02255448  1.0
  O  O211  1  0.37198186  0.02385361  0.08082939  1.0
  O  O212  1  0.80095992  0.57498914  0.37953910  1.0
  O  O213  1  0.72280593  0.53244672  0.42092492  1.0
  O  O214  1  0.00754204  0.23291227  0.31181901  1.0
  O  O215  1  0.98441180  0.17378101  0.37234800  1.0
  O  O216  1  0.10163160  0.72039223  0.52221051  1.0
  O  O217  1  0.22136182  0.63617715  0.52238774  1.0
  O  O218  1  0.03212038  0.64826456  0.72757076  1.0
  O  O219  1  0.11403279  0.52806691  0.72679603  1.0
  O  O220  1  0.78666307  0.16820507  0.08898813  1.0
  O  O221  1  0.68411292  0.27024942  0.07195208  1.0
  O  O222  1  0.58147740  0.96341714  0.16016779  1.0
  O  O223  1  0.48062621  0.06523918  0.17883792  1.0
  O  O224  1  0.17306694  0.95056788  0.87114965  1.0
  O  O225  1  0.21584722  0.02752468  0.82875722  1.0
  O  O226  1  0.51627864  0.74321584  0.93869733  1.0
  O  O227  1  0.57549470  0.76586603  0.87809713  1.0
