# generated using pymatgen
data_Zn8H37C70Br5O33
_symmetry_space_group_name_H-M   'P 1'
_cell_length_a   18.33447784
_cell_length_b   18.36011022
_cell_length_c   18.44963307
_cell_angle_alpha   60.22955589
_cell_angle_beta   89.48052749
_cell_angle_gamma   119.38245746
_symmetry_Int_Tables_number   1
_chemical_formula_structural   Zn8H37C70Br5O33
_chemical_formula_sum   'Zn8 H37 C70 Br5 O33'
_cell_volume   4427.56436670
_cell_formula_units_Z   1
loop_
 _symmetry_equiv_pos_site_id
 _symmetry_equiv_pos_as_xyz
  1  'x, y, z'
loop_
 _atom_site_type_symbol
 _atom_site_label
 _atom_site_symmetry_multiplicity
 _atom_site_fract_x
 _atom_site_fract_y
 _atom_site_fract_z
 _atom_site_occupancy
  Zn  Zn0  1  0.46046946  0.91350885  0.12839327  1.0
  Zn  Zn1  1  0.45622495  0.90955919  0.95777283  1.0
  Zn  Zn2  1  0.63074396  0.08859955  0.95626913  1.0
  Zn  Zn3  1  0.45842093  0.08809471  0.95481735  1.0
  Zn  Zn4  1  0.04592159  0.09096891  0.36753470  1.0
  Zn  Zn5  1  0.87334115  0.91421161  0.54028083  1.0
  Zn  Zn6  1  0.04877236  0.08697068  0.54247650  1.0
  Zn  Zn7  1  0.04623918  0.91344284  0.54113357  1.0
  H  H8  1  0.54306703  0.90364011  0.42783552  1.0
  H  H9  1  0.81767388  0.40341139  0.79439298  1.0
  H  H10  1  0.38013390  0.77415523  0.50797323  1.0
  H  H11  1  0.91467444  0.59332686  0.69742939  1.0
  H  H12  1  0.63205126  0.59550788  0.75880998  1.0
  H  H13  1  0.53048927  0.40398008  0.84538390  1.0
  H  H14  1  0.53445146  0.41360247  0.74408506  1.0
  H  H15  1  0.29803126  0.88108507  0.80039845  1.0
  H  H16  1  0.19960213  0.87685840  0.70855083  1.0
  H  H17  1  0.15613862  0.11872990  0.75623996  1.0
  H  H18  1  0.35576159  0.22794777  0.73041568  1.0
  H  H19  1  0.17553354  0.27529418  0.97434908  1.0
  H  H20  1  0.27321733  0.80582392  0.44049274  1.0
  H  H21  1  0.26862388  0.14056859  0.83447557  1.0
  H  H22  1  0.80845184  0.15224658  0.75484461  1.0
  H  H23  1  0.58235793  0.75334568  0.90846196  1.0
  H  H24  1  0.49090537  0.09451241  0.21198424  1.0
  H  H25  1  0.09305906  0.38958641  0.18014476  1.0
  H  H26  1  0.18099926  0.58178769  0.08633607  1.0
  H  H27  1  0.59796605  0.06300667  0.27916058  1.0
  H  H28  1  0.25244551  0.95290920  0.39926682  1.0
  H  H29  1  0.25558261  0.05302879  0.09614324  1.0
  H  H30  1  0.25826803  0.21301273  0.06296885  1.0
  H  H31  1  0.92875541  0.99043096  0.17124201  1.0
  H  H32  1  0.63777693  0.60551013  0.60094904  1.0
  H  H33  1  0.30318215  0.26570366  0.59714934  1.0
  H  H34  1  0.95518242  0.16709663  0.61505092  1.0
  H  H35  1  0.56376172  0.75201271  0.73296750  1.0
  H  H36  1  0.39797109  0.67828767  0.27100165  1.0
  H  H37  1  0.22742961  0.32880916  0.45289049  1.0
  H  H38  1  0.30736282  0.57251216  0.00970188  1.0
  H  H39  1  0.81178826  0.15314344  0.09438580  1.0
  H  H40  1  0.90683572  0.15300310  0.18917770  1.0
  H  H41  1  0.66989044  0.75415778  0.42783516  1.0
  H  H42  1  0.62585046  0.79675930  0.47193336  1.0
  H  H43  1  0.57356795  0.75338744  0.33207657  1.0
  H  H44  1  0.52938814  0.79772141  0.37401404  1.0
  C  C45  1  0.36584736  0.00228450  0.85897922  1.0
  C  C46  1  0.31147453  0.97375804  0.28334188  1.0
  C  C47  1  0.04902108  0.00655048  0.19616142  1.0
  C  C48  1  0.64138707  0.00178919  0.13632217  1.0
  C  C49  1  0.00096756  0.03959017  0.14745254  1.0
  C  C50  1  0.04745798  0.13621202  0.06745813  1.0
  C  C51  1  0.13998958  0.19967401  0.03652382  1.0
  C  C52  1  0.18588515  0.16414902  0.08652538  1.0
  C  C53  1  0.14230251  0.06716823  0.16728962  1.0
  C  C54  1  0.66744157  0.91661128  0.28015429  1.0
  C  C55  1  0.69781393  0.00096073  0.19342284  1.0
  C  C56  1  0.46669657  0.02373831  0.27655874  1.0
  C  C57  1  0.78565175  0.08626915  0.16208598  1.0
  C  C58  1  0.83897919  0.08627123  0.21541516  1.0
  C  C59  1  0.80743645  0.00107914  0.30346880  1.0
  C  C60  1  0.36906355  0.72171052  0.13787233  1.0
  C  C61  1  0.72072655  0.91677266  0.33379523  1.0
  C  C62  1  0.65082357  0.80740090  0.41076741  1.0
  C  C63  1  0.59049249  0.80725989  0.34994411  1.0
  C  C64  1  0.65989793  0.45010229  0.77310679  1.0
  C  C65  1  0.69484420  0.39195290  0.80231868  1.0
  C  C66  1  0.78829667  0.44659586  0.77328012  1.0
  C  C67  1  0.52677966  0.00640529  0.31455036  1.0
  C  C68  1  0.84268846  0.55302378  0.71886458  1.0
  C  C69  1  0.80693345  0.61133246  0.69063178  1.0
  C  C70  1  0.71437826  0.55682517  0.71937791  1.0
  C  C71  1  0.63526040  0.56503260  0.72139253  1.0
  C  C72  1  0.63806732  0.27842025  0.85993900  1.0
  C  C73  1  0.57429215  0.44365619  0.77869202  1.0
  C  C74  1  0.28152921  0.06817145  0.77164040  1.0
  C  C75  1  0.30822324  0.00180428  0.80275464  1.0
  C  C76  1  0.27756680  0.93313962  0.77806763  1.0
  C  C77  1  0.22228592  0.93066206  0.72663937  1.0
  C  C78  1  0.49594559  0.91684169  0.39801591  1.0
  C  C79  1  0.19363298  0.99603060  0.69751220  1.0
  C  C80  1  0.22500017  0.06444041  0.72139463  1.0
  C  C81  1  0.22134660  0.14790176  0.71726275  1.0
  C  C82  1  0.28976383  0.15525011  0.77006562  1.0
  C  C83  1  0.66865368  0.91839631  0.79774459  1.0
  C  C84  1  0.63931345  0.99776197  0.86466093  1.0
  C  C85  1  0.69687000  0.00046922  0.80432684  1.0
  C  C86  1  0.78339626  0.08678280  0.75171891  1.0
  C  C87  1  0.84089319  0.09222553  0.69477621  1.0
  C  C88  1  0.81193919  0.00897662  0.68799505  1.0
  C  C89  1  0.25274599  0.97333023  0.33278123  1.0
  C  C90  1  0.72488092  0.92404856  0.74115568  1.0
  C  C91  1  0.65785744  0.81589426  0.76998009  1.0
  C  C92  1  0.59645666  0.80821844  0.83848730  1.0
  C  C93  1  0.26392139  0.54944781  0.16612669  1.0
  C  C94  1  0.31820719  0.60943360  0.19451539  1.0
  C  C95  1  0.32019000  0.55631486  0.28159098  1.0
  C  C96  1  0.36516358  0.99886794  0.13939448  1.0
  C  C97  1  0.26629773  0.44640209  0.33864913  1.0
  C  C98  1  0.20966536  0.38865579  0.30924370  1.0
  C  C99  1  0.21208032  0.44402278  0.22130343  1.0
  C  C100  1  0.19702995  0.00312359  0.29868679  1.0
  C  C101  1  0.16552608  0.43119327  0.15813747  1.0
  C  C102  1  0.22292628  0.55327693  0.09337669  1.0
  C  C103  1  0.86561477  0.72489602  0.63422937  1.0
  C  C104  1  0.14946426  0.27675821  0.36748774  1.0
  C  C105  1  0.86493160  0.00265763  0.35958247  1.0
  C  C106  1  0.13359734  0.99180841  0.64381683  1.0
  C  C107  1  0.86931616  0.01154065  0.62920252  1.0
  C  C108  1  0.40468052  0.84464727  0.44311271  1.0
  C  C109  1  0.14252169  0.00639529  0.35637833  1.0
  C  C110  1  0.34449520  0.86236179  0.40538126  1.0
  C  C111  1  0.19749805  0.03342040  0.21173325  1.0
  C  C112  1  0.37482768  0.95194382  0.32154381  1.0
  C  C113  1  0.25499143  0.03207642  0.16282308  1.0
  C  C114  1  0.31081336  0.00240448  0.19696614  1.0
  Br  Br115  1  0.98355946  0.18130990  0.99826291  1.0
  Br  Br116  1  0.69841756  0.72283486  0.83855636  1.0
  Br  Br117  1  0.47854883  0.76968137  0.82619972  1.0
  Br  Br118  1  0.18889838  0.36664518  0.10967851  1.0
  Br  Br119  1  0.98208562  0.87211469  0.30355835  1.0
  O  O120  1  0.50060169  0.99914683  0.99887949  1.0
  O  O121  1  0.09868535  0.04016019  0.63451906  1.0
  O  O122  1  0.83385555  0.93880476  0.62044629  1.0
  O  O123  1  0.38086580  0.05796585  0.88691243  1.0
  O  O124  1  0.11853580  0.94178394  0.43956152  1.0
  O  O125  1  0.95232039  0.08855881  0.59067278  1.0
  O  O126  1  0.12703310  0.07476858  0.31786550  1.0
  O  O127  1  0.94859189  0.06729522  0.31959396  1.0
  O  O128  1  0.12221451  0.94116658  0.61145045  1.0
  O  O129  1  0.82613135  0.76962114  0.61155672  1.0
  O  O130  1  0.14681493  0.23128920  0.44940921  1.0
  O  O131  1  0.40918920  0.76887302  0.17382238  1.0
  O  O132  1  0.55770360  0.93726299  0.17656916  1.0
  O  O133  1  0.37041950  0.76567918  0.05823221  1.0
  O  O134  1  0.67777403  0.23394801  0.88610012  1.0
  O  O135  1  0.55768456  0.92261195  0.90109186  1.0
  O  O136  1  0.39380044  0.06747142  0.05636454  1.0
  O  O137  1  0.67684894  0.07038778  0.87434693  1.0
  O  O138  1  0.37627060  0.92680422  0.17725311  1.0
  O  O139  1  0.62227722  0.61908961  0.64133936  1.0
  O  O140  1  0.24533858  0.23683629  0.63427676  1.0
  O  O141  1  0.92310419  0.17877719  0.64772927  1.0
  O  O142  1  0.55412943  0.23475262  0.87836608  1.0
  O  O143  1  0.62850439  0.80251778  0.70724468  1.0
  O  O144  1  0.37031331  0.60372561  0.31655225  1.0
  O  O145  1  0.27245099  0.40409497  0.42009660  1.0
  O  O146  1  0.27569202  0.60333682  0.00706748  1.0
  O  O147  1  0.39499856  0.94730859  0.87470558  1.0
  O  O148  1  0.68054739  0.06628353  0.05257634  1.0
  O  O149  1  0.00403029  0.00231813  0.49786351  1.0
  O  O150  1  0.94949313  0.76757528  0.61355028  1.0
  O  O151  1  0.10259151  0.23142051  0.33457285  1.0
  O  O152  1  0.82515350  0.93893144  0.44327486  1.0
