# generated using pymatgen
data_AlH24C45(ClO2)3
_symmetry_space_group_name_H-M   'P 1'
_cell_length_a   3.95450570
_cell_length_b   23.51615495
_cell_length_c   23.52763922
_cell_angle_alpha   60.04776195
_cell_angle_beta   87.01553745
_cell_angle_gamma   86.73529622
_symmetry_Int_Tables_number   1
_chemical_formula_structural   AlH24C45(ClO2)3
_chemical_formula_sum   'Al1 H24 C45 Cl3 O6'
_cell_volume   1891.94629229
_cell_formula_units_Z   1
loop_
 _symmetry_equiv_pos_site_id
 _symmetry_equiv_pos_as_xyz
  1  'x, y, z'
loop_
 _atom_site_type_symbol
 _atom_site_label
 _atom_site_symmetry_multiplicity
 _atom_site_fract_x
 _atom_site_fract_y
 _atom_site_fract_z
 _atom_site_occupancy
  Al  Al0  1  0.99008440  0.49971790  0.50045059  1.0
  H  H1  1  0.51240882  0.32089759  0.68086392  1.0
  H  H2  1  0.51090516  0.25789314  0.80243490  1.0
  H  H3  1  0.82329094  0.22584818  0.89182403  1.0
  H  H4  1  0.83666102  0.16520536  0.01220789  1.0
  H  H5  1  0.47730228  0.80458375  0.25494837  1.0
  H  H6  1  0.22713724  0.89833769  0.22470886  1.0
  H  H7  1  0.24102973  0.01812420  0.16502969  1.0
  H  H8  1  0.52661650  0.10584171  0.10523955  1.0
  H  H9  1  0.54391837  0.67942481  0.49710871  1.0
  H  H10  1  0.53989539  0.80086850  0.43950526  1.0
  H  H11  1  0.80264443  0.89146877  0.37883425  1.0
  H  H12  1  0.81587289  0.01134549  0.31909280  1.0
  H  H13  1  0.55418037  0.25499895  0.43915219  1.0
  H  H14  1  0.26067724  0.22796164  0.38029129  1.0
  H  H15  1  0.25837775  0.16754140  0.32048360  1.0
  H  H16  1  0.54888778  0.10531918  0.28805514  1.0
  H  H17  1  0.59167899  0.49779029  0.32145189  1.0
  H  H18  1  0.58492518  0.44006861  0.25763089  1.0
  H  H19  1  0.85831996  0.37666884  0.22350611  1.0
  H  H20  1  0.85558991  0.31615207  0.16367027  1.0
  H  H21  1  0.50721447  0.44015699  0.80506456  1.0
  H  H22  1  0.20654983  0.37963635  0.89833061  1.0
  H  H23  1  0.22070848  0.31901817  0.01870636  1.0
  H  H24  1  0.54964594  0.28806456  0.10562029  1.0
  C  C25  1  0.47987220  0.45032802  0.60136911  1.0
  C  C26  1  0.52510660  0.44827478  0.45064771  1.0
  C  C27  1  0.47697751  0.60061729  0.44870677  1.0
  C  C28  1  0.50637101  0.34649522  0.70884980  1.0
  C  C29  1  0.50974932  0.31137654  0.77695147  1.0
  C  C30  1  0.68398092  0.24598127  0.91939583  1.0
  C  C31  1  0.69128805  0.21162669  0.98753280  1.0
  C  C32  1  0.46234039  0.71017823  0.34144088  1.0
  C  C33  1  0.47905304  0.77836334  0.30835760  1.0
  C  C34  1  0.36535835  0.92255830  0.24507881  1.0
  C  C35  1  0.37278312  0.99064933  0.21119784  1.0
  C  C36  1  0.48813868  0.41533325  0.67453304  1.0
  C  C37  1  0.50642537  0.34411710  0.81326422  1.0
  C  C38  1  0.51454676  0.30760023  0.88557094  1.0
  C  C39  1  0.52988110  0.23737932  0.02487304  1.0
  C  C40  1  0.53777386  0.20102661  0.09721510  1.0
  C  C41  1  0.53426303  0.13228160  0.13221869  1.0
  C  C42  1  0.52298495  0.70781324  0.44392508  1.0
  C  C43  1  0.52551098  0.77588159  0.41127417  1.0
  C  C44  1  0.67128216  0.91887431  0.33263559  1.0
  C  C45  1  0.67835038  0.98700678  0.29873510  1.0
  C  C46  1  0.54063872  0.34144022  0.44772394  1.0
  C  C47  1  0.55080622  0.30847186  0.41224424  1.0
  C  C48  1  0.39947911  0.24690081  0.33346241  1.0
  C  C49  1  0.39842260  0.21258468  0.29959870  1.0
  C  C50  1  0.48595947  0.67362537  0.41002886  1.0
  C  C51  1  0.50590402  0.81262975  0.34249214  1.0
  C  C52  1  0.51473186  0.88496134  0.30661394  1.0
  C  C53  1  0.52970066  0.02456736  0.23715013  1.0
  C  C54  1  0.53758675  0.09696126  0.20099449  1.0
  C  C55  1  0.54661534  0.13206535  0.23459860  1.0
  C  C56  1  0.57914208  0.44444116  0.34663553  1.0
  C  C57  1  0.57895262  0.41178512  0.31108657  1.0
  C  C58  1  0.71880709  0.33157277  0.24449110  1.0
  C  C59  1  0.71748109  0.29722878  0.21059874  1.0
  C  C60  1  0.48287465  0.44815973  0.71061636  1.0
  C  C61  1  0.49669544  0.41303613  0.77885530  1.0
  C  C62  1  0.35240324  0.33328839  0.92293944  1.0
  C  C63  1  0.36009995  0.29894981  0.99105420  1.0
  C  C64  1  0.55193788  0.41019360  0.41536364  1.0
  C  C65  1  0.56307705  0.34298941  0.34333981  1.0
  C  C66  1  0.56031323  0.30712895  0.30679467  1.0
  C  C67  1  0.55724282  0.23697185  0.23733060  1.0
  C  C68  1  0.55155882  0.20081537  0.20108305  1.0
  C  C69  1  0.54691131  0.23457368  0.13234708  1.0
  Cl  Cl70  1  0.53378372  0.29498319  0.53251910  1.0
  Cl  Cl71  1  0.48009236  0.53304316  0.67154326  1.0
  Cl  Cl72  1  0.43365860  0.67245229  0.29489739  1.0
  O  O73  1  0.24612510  0.57248529  0.43723473  1.0
  O  O74  1  0.23181608  0.49006697  0.57360671  1.0
  O  O75  1  0.27660641  0.43674471  0.49105806  1.0
  O  O76  1  0.70084844  0.57119744  0.49226858  1.0
  O  O77  1  0.74674019  0.49097141  0.43663675  1.0
  O  O78  1  0.72203630  0.43641143  0.57190442  1.0
