# generated using pymatgen
data_AlH9C24N3(ClO2)3
_symmetry_space_group_name_H-M   'P 1'
_cell_length_a   3.96184507
_cell_length_b   15.67052986
_cell_length_c   15.85289528
_cell_angle_alpha   117.54420489
_cell_angle_beta   96.99121098
_cell_angle_gamma   96.98194325
_symmetry_Int_Tables_number   1
_chemical_formula_structural   AlH9C24N3(ClO2)3
_chemical_formula_sum   'Al1 H9 C24 N3 Cl3 O6'
_cell_volume   848.29983364
_cell_formula_units_Z   1
loop_
 _symmetry_equiv_pos_site_id
 _symmetry_equiv_pos_as_xyz
  1  'x, y, z'
loop_
 _atom_site_type_symbol
 _atom_site_label
 _atom_site_symmetry_multiplicity
 _atom_site_fract_x
 _atom_site_fract_y
 _atom_site_fract_z
 _atom_site_occupancy
  Al  Al0  1  0.49118529  0.50125862  0.50254340  1.0
  H  H1  1  0.84726149  0.50458978  0.23551552  1.0
  H  H2  1  0.94793653  0.59152649  0.13908599  1.0
  H  H3  1  0.27930962  0.86593383  0.40481960  1.0
  H  H4  1  0.06262775  0.58842153  0.95329487  1.0
  H  H5  1  0.28574783  0.76655629  0.76893489  1.0
  H  H6  1  0.36151865  0.85992727  0.95006704  1.0
  H  H7  1  0.62571124  0.04427652  0.13794504  1.0
  H  H8  1  0.62141658  0.23537039  0.48920419  1.0
  H  H9  1  0.42154332  0.05227233  0.40149405  1.0
  C  C10  1  0.87185202  0.35071559  0.42416695  1.0
  C  C11  1  0.99577614  0.57914296  0.42772396  1.0
  C  C12  1  0.09341218  0.57343958  0.65173039  1.0
  C  C13  1  0.25161614  0.78445873  0.06922703  1.0
  C  C14  1  0.19961350  0.78644835  0.21149145  1.0
  C  C15  1  0.38958805  0.92915244  0.21095102  1.0
  C  C16  1  0.94266777  0.58387632  0.27172108  1.0
  C  C17  1  0.99832478  0.63185349  0.21810109  1.0
  C  C18  1  0.12447397  0.73378377  0.26615629  1.0
  C  C19  1  0.18759809  0.78669108  0.36787843  1.0
  C  C20  1  0.13775067  0.73805021  0.42113643  1.0
  C  C21  1  0.01884381  0.63555543  0.37360117  1.0
  C  C22  1  0.11702903  0.62715798  0.91298305  1.0
  C  C23  1  0.08443409  0.57538365  0.81258607  1.0
  C  C24  1  0.14531010  0.62539175  0.76012166  1.0
  C  C25  1  0.24287646  0.72819774  0.81038458  1.0
  C  C26  1  0.28354080  0.78019505  0.91072993  1.0
  C  C27  1  0.21807778  0.72984446  0.96268560  1.0
  C  C28  1  0.63170564  0.08598518  0.21545103  1.0
  C  C29  1  0.75461302  0.18738347  0.26523555  1.0
  C  C30  1  0.75324850  0.24208938  0.36494001  1.0
  C  C31  1  0.62684943  0.19199702  0.41245378  1.0
  C  C32  1  0.51437748  0.09079175  0.36397351  1.0
  C  C33  1  0.51441658  0.03696992  0.26441126  1.0
  N  N34  1  0.16373180  0.73319400  0.11464139  1.0
  N  N35  1  0.30607571  0.88474427  0.26268331  1.0
  N  N36  1  0.37011611  0.88228017  0.11439107  1.0
  Cl  Cl37  1  0.21335802  0.80717244  0.54626984  1.0
  Cl  Cl38  1  0.95146053  0.44896885  0.75320355  1.0
  Cl  Cl39  1  0.88815789  0.24233274  0.19897827  1.0
  O  O40  1  0.85420807  0.59461200  0.60770656  1.0
  O  O41  1  0.70250868  0.39499904  0.48997933  1.0
  O  O42  1  0.71738694  0.51756485  0.40730639  1.0
  O  O43  1  0.28975851  0.51463568  0.61167480  1.0
  O  O44  1  0.26666288  0.59529033  0.48938360  1.0
  O  O45  1  0.13273552  0.39262552  0.40833640  1.0
