# generated using pymatgen
data_CuH7C9NO3
_symmetry_space_group_name_H-M   'P 1'
_cell_length_a   6.87689267
_cell_length_b   15.77258654
_cell_length_c   15.77646333
_cell_angle_alpha   117.93252167
_cell_angle_beta   98.37246967
_cell_angle_gamma   98.31350943
_symmetry_Int_Tables_number   1
_chemical_formula_structural   CuH7C9NO3
_chemical_formula_sum   'Cu6 H42 C54 N6 O18'
_cell_volume   1450.74404489
_cell_formula_units_Z   6
loop_
 _symmetry_equiv_pos_site_id
 _symmetry_equiv_pos_as_xyz
  1  'x, y, z'
loop_
 _atom_site_type_symbol
 _atom_site_label
 _atom_site_symmetry_multiplicity
 _atom_site_fract_x
 _atom_site_fract_y
 _atom_site_fract_z
 _atom_site_occupancy
  Cu  Cu0  1  0.04816873  0.42890075  0.90248635  1.0
  Cu  Cu1  1  0.61921792  0.47351839  0.57104690  1.0
  Cu  Cu2  1  0.14563495  0.09761413  0.52662898  1.0
  Cu  Cu3  1  0.95183704  0.57110390  0.09751665  1.0
  Cu  Cu4  1  0.38077927  0.52648137  0.42895268  1.0
  Cu  Cu5  1  0.85436553  0.90238707  0.47337278  1.0
  H  H6  1  0.23826560  0.75556031  0.13750774  1.0
  H  H7  1  0.48378955  0.38228778  0.24450711  1.0
  H  H8  1  0.10106393  0.86230460  0.61789691  1.0
  H  H9  1  0.76174335  0.24444418  0.86250175  1.0
  H  H10  1  0.51618997  0.61770938  0.75549209  1.0
  H  H11  1  0.89893654  0.13769548  0.38210595  1.0
  H  H12  1  0.53861760  0.87834315  0.16168415  1.0
  H  H13  1  0.66159930  0.28363136  0.12177281  1.0
  H  H14  1  0.37729552  0.83808729  0.71655534  1.0
  H  H15  1  0.46140839  0.12166109  0.83832732  1.0
  H  H16  1  0.33837238  0.71636092  0.87822151  1.0
  H  H17  1  0.62270421  0.16191389  0.28344788  1.0
  H  H18  1  0.80163484  0.82488601  0.06648492  1.0
  H  H19  1  0.97787324  0.24164035  0.17518442  1.0
  H  H20  1  0.73546728  0.93323005  0.75838660  1.0
  H  H21  1  0.19840608  0.17512140  0.93352676  1.0
  H  H22  1  0.02209810  0.75834498  0.82480738  1.0
  H  H23  1  0.26453797  0.06677039  0.24161662  1.0
  H  H24  1  0.74522446  0.64610319  0.94046623  1.0
  H  H25  1  0.09993116  0.29438679  0.35398725  1.0
  H  H26  1  0.80492351  0.05920705  0.70559846  1.0
  H  H27  1  0.25479909  0.35389974  0.05953875  1.0
  H  H28  1  0.90005840  0.70560426  0.64600584  1.0
  H  H29  1  0.19508732  0.94079275  0.29440191  1.0
  H  H30  1  0.57504371  0.49096398  0.85591549  1.0
  H  H31  1  0.08446266  0.36495784  0.50913289  1.0
  H  H32  1  0.71924708  0.14378405  0.63498294  1.0
  H  H33  1  0.42495539  0.50903805  0.14408562  1.0
  H  H34  1  0.91553051  0.63503825  0.49086820  1.0
  H  H35  1  0.28076047  0.85621394  0.36501562  1.0
  H  H36  1  0.40710762  0.30109756  0.79203828  1.0
  H  H37  1  0.10571656  0.49078735  0.69885334  1.0
  H  H38  1  0.61501709  0.20762664  0.50903088  1.0
  H  H39  1  0.59289043  0.69890780  0.20796912  1.0
  H  H40  1  0.89428137  0.50921501  0.30114218  1.0
  H  H41  1  0.38499355  0.79237515  0.49097295  1.0
  H  H42  1  0.30964243  0.33866130  0.70775246  1.0
  H  H43  1  0.97081204  0.36897680  0.66131106  1.0
  H  H44  1  0.60189705  0.29207963  0.63078459  1.0
  H  H45  1  0.69035150  0.66134805  0.29225153  1.0
  H  H46  1  0.02918354  0.63101919  0.33868031  1.0
  H  H47  1  0.39809464  0.70791791  0.36921795  1.0
  C  C48  1  0.46126958  0.60057157  0.96696794  1.0
  C  C49  1  0.86124724  0.36639550  0.39943599  1.0
  C  C50  1  0.49443948  0.03280728  0.63358221  1.0
  C  C51  1  0.53874507  0.39943240  0.03303585  1.0
  C  C52  1  0.13874782  0.63359665  0.60055524  1.0
  C  C53  1  0.50556438  0.96719547  0.36641888  1.0
  C  C54  1  0.31573479  0.63013040  0.02497184  1.0
  C  C55  1  0.68628882  0.39500714  0.36992888  1.0
  C  C56  1  0.29091683  0.97487706  0.60511569  1.0
  C  C57  1  0.68427912  0.36987578  0.97503121  1.0
  C  C58  1  0.31370106  0.60499010  0.63006744  1.0
  C  C59  1  0.70908217  0.02512448  0.39488863  1.0
  C  C60  1  0.34822189  0.73202939  0.09358196  1.0
  C  C61  1  0.61723235  0.36183616  0.26806137  1.0
  C  C62  1  0.25491395  0.90621092  0.63832585  1.0
  C  C63  1  0.65179860  0.26797745  0.90642767  1.0
  C  C64  1  0.38274323  0.63816003  0.73193390  1.0
  C  C65  1  0.74508854  0.09378859  0.36167866  1.0
  C  C66  1  0.51930608  0.80055035  0.10744884  1.0
  C  C67  1  0.71993134  0.30713775  0.19954795  1.0
  C  C68  1  0.41217928  0.89230439  0.69299410  1.0
  C  C69  1  0.48071662  0.19945504  0.89255785  1.0
  C  C70  1  0.28004298  0.69285458  0.80044864  1.0
  C  C71  1  0.58782278  0.10769473  0.30700410  1.0
  C  C72  1  0.66655686  0.77100548  0.05410788  1.0
  C  C73  1  0.89665291  0.28322188  0.22906632  1.0
  C  C74  1  0.61275531  0.94557906  0.71680360  1.0
  C  C75  1  0.33346319  0.22900243  0.94589394  1.0
  C  C76  1  0.10331695  0.71676639  0.77092547  1.0
  C  C77  1  0.38724537  0.05442052  0.28319433  1.0
  C  C78  1  0.63582761  0.67197485  0.98461529  1.0
  C  C79  1  0.96469732  0.31269150  0.32807310  1.0
  C  C80  1  0.65142173  0.01507627  0.68729983  1.0
  C  C81  1  0.36418631  0.32802874  0.01539034  1.0
  C  C82  1  0.03528980  0.68729676  0.67191498  1.0
  C  C83  1  0.34858298  0.98492402  0.31269955  1.0
  C  C84  1  0.44378832  0.50185632  0.88874614  1.0
  C  C85  1  0.94222947  0.38685383  0.49815562  1.0
  C  C86  1  0.55514704  0.11103036  0.61310119  1.0
  C  C87  1  0.55621544  0.49814631  0.11125779  1.0
  C  C88  1  0.05775977  0.61314241  0.50184044  1.0
  C  C89  1  0.44485872  0.88897540  0.38690069  1.0
  C  C90  1  0.28613215  0.33208435  0.77218251  1.0
  C  C91  1  0.95385057  0.43998571  0.66785611  1.0
  C  C92  1  0.51390754  0.22759685  0.55983460  1.0
  C  C93  1  0.71386346  0.66791860  0.22781952  1.0
  C  C94  1  0.04614681  0.56001354  0.33213853  1.0
  C  C95  1  0.48609092  0.77240418  0.44016625  1.0
  C  C96  1  0.08274033  0.25999684  0.74284171  1.0
  C  C97  1  0.82248154  0.48278052  0.73993713  1.0
  C  C98  1  0.33988323  0.25693937  0.51698188  1.0
  C  C99  1  0.91726524  0.74001165  0.25716290  1.0
  C  C100  1  0.17751236  0.51721780  0.26006028  1.0
  C  C101  1  0.66011279  0.74305591  0.48301692  1.0
  N  N102  1  0.28840932  0.42797143  0.85424248  1.0
  N  N103  1  0.86044895  0.42617218  0.57196249  1.0
  N  N104  1  0.43422141  0.14562077  0.57377206  1.0
  N  N105  1  0.71159816  0.57203785  0.14576514  1.0
  N  N106  1  0.13954293  0.57381976  0.42802262  1.0
  N  N107  1  0.56578265  0.85437814  0.42622741  1.0
  O  O108  1  0.15646219  0.56459779  0.01641754  1.0
  O  O109  1  0.59238248  0.45200324  0.43546719  1.0
  O  O110  1  0.14012121  0.98352450  0.54817004  1.0
  O  O111  1  0.84354927  0.43540597  0.98358013  1.0
  O  O112  1  0.40761417  0.54799267  0.56453224  1.0
  O  O113  1  0.85987451  0.01647524  0.45183248  1.0
  O  O114  1  0.95244714  0.29303638  0.79392182  1.0
  O  O115  1  0.65887842  0.50063665  0.70682627  1.0
  O  O116  1  0.15840216  0.20615599  0.49929119  1.0
  O  O117  1  0.04756435  0.70697508  0.20608576  1.0
  O  O118  1  0.34110278  0.49935558  0.29316948  1.0
  O  O119  1  0.84159396  0.79383941  0.50070477  1.0
  O  O120  1  0.04475567  0.17361036  0.67201062  1.0
  O  O121  1  0.87118458  0.49855268  0.82639179  1.0
  O  O122  1  0.37292284  0.32747177  0.50102364  1.0
  O  O123  1  0.95523825  0.82639787  0.32799447  1.0
  O  O124  1  0.12881069  0.50144702  0.17360403  1.0
  O  O125  1  0.62707371  0.67252884  0.49897383  1.0
