# generated using pymatgen
data_AlC27N7(Cl2O)6
_symmetry_space_group_name_H-M   'P 1'
_cell_length_a   4.13882934
_cell_length_b   18.13205007
_cell_length_c   18.23436767
_cell_angle_alpha   119.76914430
_cell_angle_beta   91.31123530
_cell_angle_gamma   90.07281011
_symmetry_Int_Tables_number   1
_chemical_formula_structural   AlC27N7(Cl2O)6
_chemical_formula_sum   'Al1 C27 N7 Cl12 O6'
_cell_volume   1187.38510624
_cell_formula_units_Z   1
loop_
 _symmetry_equiv_pos_site_id
 _symmetry_equiv_pos_as_xyz
  1  'x, y, z'
loop_
 _atom_site_type_symbol
 _atom_site_label
 _atom_site_symmetry_multiplicity
 _atom_site_fract_x
 _atom_site_fract_y
 _atom_site_fract_z
 _atom_site_occupancy
  Al  Al0  1  0.01147413  0.00083782  0.50007092  1.0
  C  C1  1  0.50616947  0.06504501  0.43478363  1.0
  C  C2  1  0.52477691  0.06469560  0.62867228  1.0
  C  C3  1  0.50371047  0.87146982  0.43585322  1.0
  C  C4  1  0.36813792  0.23731358  0.37554736  1.0
  C  C5  1  0.50885110  0.20140271  0.29468141  1.0
  C  C6  1  0.37973280  0.12028238  0.85638278  1.0
  C  C7  1  0.52331987  0.20268316  0.90322910  1.0
  C  C8  1  0.51120780  0.59552280  0.29526815  1.0
  C  C9  1  0.35825324  0.64206161  0.26079177  1.0
  C  C10  1  0.67046740  0.23842462  0.85807799  1.0
  C  C11  1  0.66191459  0.19399762  0.76911745  1.0
  C  C12  1  0.52901384  0.11203825  0.72416288  1.0
  C  C13  1  0.39542296  0.07457328  0.76768737  1.0
  C  C14  1  0.36503964  0.73148462  0.30603592  1.0
  C  C15  1  0.50208642  0.77548674  0.38755840  1.0
  C  C16  1  0.64273091  0.73055684  0.42364763  1.0
  C  C17  1  0.65978788  0.64136499  0.37711924  1.0
  C  C18  1  0.64699978  0.11943730  0.26055376  1.0
  C  C19  1  0.63214314  0.07433756  0.30485119  1.0
  C  C20  1  0.50564974  0.11205914  0.38571962  1.0
  C  C21  1  0.37956552  0.19375984  0.42144151  1.0
  C  C22  1  0.51356887  0.37742936  0.25261445  1.0
  C  C23  1  0.51678442  0.24402822  0.11962206  1.0
  C  C24  1  0.51203767  0.24866351  0.24731657  1.0
  C  C25  1  0.51241811  0.50095403  0.24748466  1.0
  C  C26  1  0.51559983  0.37825936  0.11960315  1.0
  C  C27  1  0.52107704  0.25000153  0.99724205  1.0
  N  N28  1  0.51514395  0.33325780  0.16391995  1.0
  N  N29  1  0.48957891  0.20260948  0.16258603  1.0
  N  N30  1  0.53733116  0.33372934  0.29347111  1.0
  N  N31  1  0.48836973  0.46175239  0.29325353  1.0
  N  N32  1  0.53691012  0.46290125  0.16313423  1.0
  N  N33  1  0.54518535  0.20354155  0.03595739  1.0
  N  N34  1  0.49479619  0.33489459  0.03539950  1.0
  Cl  Cl35  1  0.77035355  0.97232141  0.26107154  1.0
  Cl  Cl36  1  0.85147167  0.07278602  0.16795802  1.0
  Cl  Cl37  1  0.23723575  0.23947082  0.52216235  1.0
  Cl  Cl38  1  0.16456016  0.33122719  0.41988614  1.0
  Cl  Cl39  1  0.87958864  0.59304000  0.42172172  1.0
  Cl  Cl40  1  0.79524469  0.78635733  0.52539654  1.0
  Cl  Cl41  1  0.14564617  0.59394503  0.16653551  1.0
  Cl  Cl42  1  0.20464160  0.78873752  0.26246811  1.0
  Cl  Cl43  1  0.16718130  0.07392501  0.90272332  1.0
  Cl  Cl44  1  0.24960133  0.97216757  0.71073100  1.0
  Cl  Cl45  1  0.87808719  0.33328657  0.90722185  1.0
  Cl  Cl46  1  0.81541770  0.23904629  0.71356601  1.0
  O  O47  1  0.27124920  0.90708243  0.48465640  1.0
  O  O48  1  0.26626826  0.01632919  0.42220685  1.0
  O  O49  1  0.28576475  0.07814775  0.59238660  1.0
  O  O50  1  0.73879494  0.90805985  0.42296164  1.0
  O  O51  1  0.75922124  0.01595634  0.59319052  1.0
  O  O52  1  0.74664941  0.07861990  0.48439437  1.0
