# generated using pymatgen
data_ZnH9C15O4F
_symmetry_space_group_name_H-M   'P 1'
_cell_length_a   6.37901121
_cell_length_b   10.78934140
_cell_length_c   32.05757442
_cell_angle_alpha   90.56657301
_cell_angle_beta   95.04510243
_cell_angle_gamma   90.17919662
_symmetry_Int_Tables_number   1
_chemical_formula_structural   ZnH9C15O4F
_chemical_formula_sum   'Zn4 H36 C60 O16 F4'
_cell_volume   2197.70000850
_cell_formula_units_Z   4
loop_
 _symmetry_equiv_pos_site_id
 _symmetry_equiv_pos_as_xyz
  1  'x, y, z'
loop_
 _atom_site_type_symbol
 _atom_site_label
 _atom_site_symmetry_multiplicity
 _atom_site_fract_x
 _atom_site_fract_y
 _atom_site_fract_z
 _atom_site_occupancy
  Zn  Zn0  1  0.84901206  0.99842971  0.52178744  1.0
  Zn  Zn1  1  0.40283187  0.99406144  0.49590964  1.0
  Zn  Zn2  1  0.05980483  0.98365986  0.97843330  1.0
  Zn  Zn3  1  0.50540291  0.98352815  0.00406042  1.0
  H  H4  1  0.02544964  0.06593775  0.90576220  1.0
  H  H5  1  0.13635335  0.08277831  0.83506316  1.0
  H  H6  1  0.53596643  0.94107937  0.78354210  1.0
  H  H7  1  0.42305599  0.92119319  0.85543399  1.0
  H  H8  1  0.38379197  0.04644873  0.71598168  1.0
  H  H9  1  0.78031512  0.90428282  0.66638663  1.0
  H  H10  1  0.88695389  0.91840457  0.59511912  1.0
  H  H11  1  0.49233309  0.06317427  0.64364549  1.0
  H  H12  1  0.37244993  0.86809318  0.13938615  1.0
  H  H13  1  0.21427775  0.87044387  0.20763339  1.0
  H  H14  1  0.78953023  0.15845197  0.16236036  1.0
  H  H15  1  0.92899161  0.14426335  0.09323864  1.0
  H  H16  1  0.10646798  0.16366232  0.33830104  1.0
  H  H17  1  0.68898165  0.86890365  0.29166993  1.0
  H  H18  1  0.53122273  0.86578598  0.35974298  1.0
  H  H19  1  0.96905134  0.14779844  0.40730738  1.0
  H  H20  1  0.29405831  0.72656674  0.56189538  1.0
  H  H21  1  0.30098252  0.26410807  0.56221644  1.0
  H  H22  1  0.90918114  0.38078938  0.49182561  1.0
  H  H23  1  0.90726001  0.61220799  0.49188905  1.0
  H  H24  1  0.60485665  0.71695193  0.93686334  1.0
  H  H25  1  0.62238234  0.25456558  0.93844384  1.0
  H  H26  1  0.00630361  0.36552345  0.00790076  1.0
  H  H27  1  0.00082936  0.59689312  0.00810359  1.0
  H  H28  1  0.84734932  0.16297618  0.70884773  1.0
  H  H29  1  0.88742457  0.23404280  0.75944524  1.0
  H  H30  1  0.64622675  0.16048025  0.74428900  1.0
  H  H31  1  0.27468135  0.82803013  0.75597788  1.0
  H  H32  1  0.03290566  0.75409632  0.74164653  1.0
  H  H33  1  0.07640239  0.82635638  0.79201005  1.0
  H  H34  1  0.58975675  0.92862962  0.21844872  1.0
  H  H35  1  0.59703495  0.08154333  0.20080549  1.0
  H  H36  1  0.59839366  0.05328920  0.25521684  1.0
  H  H37  1  0.31904460  0.95113453  0.28144522  1.0
  H  H38  1  0.29238564  0.10561462  0.29733218  1.0
  H  H39  1  0.29241611  0.06990625  0.24329783  1.0
  C  C40  1  0.62014280  0.76404021  0.51884389  1.0
  C  C41  1  0.28390712  0.99699763  0.57258500  1.0
  C  C42  1  0.62503607  0.22741094  0.51933760  1.0
  C  C43  1  0.66886819  0.99906898  0.43069196  1.0
  C  C44  1  0.28460308  0.75177361  0.98117101  1.0
  C  C45  1  0.62757115  0.98490372  0.92726323  1.0
  C  C46  1  0.29426472  0.21525334  0.98081136  1.0
  C  C47  1  0.23150869  0.99613986  0.06916464  1.0
  C  C48  1  0.71537164  0.99025083  0.88580789  1.0
  C  C49  1  0.91732441  0.03421859  0.87965167  1.0
  C  C50  1  0.98033718  0.04575093  0.83925706  1.0
  C  C51  1  0.84441685  0.01339232  0.80403579  1.0
  C  C52  1  0.64351999  0.96739049  0.81051031  1.0
  C  C53  1  0.57965278  0.95583666  0.85059759  1.0
  C  C54  1  0.90187414  0.03467198  0.76048805  1.0
  C  C55  1  0.01849170  0.95361775  0.74016117  1.0
  C  C56  1  0.27452273  0.01937076  0.68935542  1.0
  C  C57  1  0.07403170  0.97401800  0.69643784  1.0
  C  C58  1  0.93602076  0.94071201  0.66160310  1.0
  C  C59  1  0.99661076  0.95049831  0.62096534  1.0
  C  C60  1  0.19824154  0.99369771  0.61423827  1.0
  C  C61  1  0.33600197  0.02920463  0.64902836  1.0
  C  C62  1  0.16115327  0.00631981  0.11210704  1.0
  C  C63  1  0.24415861  0.93119423  0.14474911  1.0
  C  C64  1  0.15685358  0.93410483  0.18309317  1.0
  C  C65  1  0.99253292  0.01586407  0.19062267  1.0
  C  C66  1  0.91541622  0.09314718  0.15764439  1.0
  C  C67  1  0.99531612  0.08701153  0.11886019  1.0
  C  C68  1  0.89304218  0.01818726  0.23067090  1.0
  C  C69  1  0.00455703  0.02294064  0.26891063  1.0
  C  C70  1  0.98227991  0.09667217  0.34254710  1.0
  C  C71  1  0.90655074  0.01841674  0.30906928  1.0
  C  C72  1  0.74478992  0.93417483  0.31636833  1.0
  C  C73  1  0.65785777  0.93065666  0.35474267  1.0
  C  C74  1  0.73919102  0.00733869  0.38776063  1.0
  C  C75  1  0.90341858  0.08972667  0.38136181  1.0
  C  C76  1  0.62248312  0.62624560  0.52232967  1.0
  C  C77  1  0.45980386  0.56243527  0.54146451  1.0
  C  C78  1  0.78237321  0.56136778  0.50548000  1.0
  C  C79  1  0.30271906  0.62597951  0.56203514  1.0
  C  C80  1  0.15881167  0.56053599  0.58239744  1.0
  C  C81  1  0.62452100  0.36575706  0.52237237  1.0
  C  C82  1  0.78332456  0.43101527  0.50545094  1.0
  C  C83  1  0.46119652  0.42921332  0.54150457  1.0
  C  C84  1  0.30607744  0.36484221  0.56215351  1.0
  C  C85  1  0.16051623  0.42958602  0.58251998  1.0
  C  C86  1  0.28474177  0.61368200  0.97744007  1.0
  C  C87  1  0.44902136  0.55119725  0.95820027  1.0
  C  C88  1  0.12716354  0.54740978  0.99438109  1.0
  C  C89  1  0.60219411  0.61624461  0.93724199  1.0
  C  C90  1  0.74923355  0.55216562  0.91708128  1.0
  C  C91  1  0.29208951  0.35328233  0.97767581  1.0
  C  C92  1  0.13064809  0.41710287  0.99439730  1.0
  C  C93  1  0.45343035  0.41799846  0.95850499  1.0
  C  C94  1  0.61181477  0.35512005  0.93810127  1.0
  C  C95  1  0.75426815  0.42121816  0.91756001  1.0
  C  C96  1  0.81690430  0.15383571  0.74180758  1.0
  C  C97  1  0.10436797  0.83471599  0.75889772  1.0
  C  C98  1  0.65785899  0.02072985  0.22625736  1.0
  C  C99  1  0.23862674  0.03839195  0.27275780  1.0
  O  O100  1  0.79146172  0.82204282  0.53022980  1.0
  O  O101  1  0.44877465  0.81261741  0.50409073  1.0
  O  O102  1  0.16005433  0.99447666  0.53723095  1.0
  O  O103  1  0.47897882  0.00097998  0.57057169  1.0
  O  O104  1  0.46020722  0.17630332  0.50152471  1.0
  O  O105  1  0.79201092  0.17233611  0.53405895  1.0
  O  O106  1  0.81835859  0.00867897  0.45998320  1.0
  O  O107  1  0.47409371  0.98457142  0.43567955  1.0
  O  O108  1  0.11353824  0.80785460  0.96937657  1.0
  O  O109  1  0.45474863  0.80196327  0.99672241  1.0
  O  O110  1  0.75004765  0.98792991  0.96278548  1.0
  O  O111  1  0.43245100  0.97895565  0.92898871  1.0
  O  O112  1  0.46097246  0.16604430  0.99781013  1.0
  O  O113  1  0.12653250  0.15792385  0.96687859  1.0
  O  O114  1  0.08155625  0.00286907  0.03994176  1.0
  O  O115  1  0.42613119  0.98197278  0.06410593  1.0
  F  F116  1  0.01058311  0.61982921  0.60284732  1.0
  F  F117  1  0.01458935  0.36987746  0.60319243  1.0
  F  F118  1  0.89365318  0.61273524  0.89624137  1.0
  F  F119  1  0.90389111  0.36279043  0.89726997  1.0
