# generated using pymatgen
data_ZnH7(C7N2)2
_symmetry_space_group_name_H-M   'P 1'
_cell_length_a   20.48673602
_cell_length_b   23.04567338
_cell_length_c   23.11080714
_cell_angle_alpha   89.89463919
_cell_angle_beta   89.81691461
_cell_angle_gamma   85.24895253
_symmetry_Int_Tables_number   1
_chemical_formula_structural   ZnH7(C7N2)2
_chemical_formula_sum   'Zn8 H56 C112 N32'
_cell_volume   10873.75936065
_cell_formula_units_Z   8
loop_
 _symmetry_equiv_pos_site_id
 _symmetry_equiv_pos_as_xyz
  1  'x, y, z'
loop_
 _atom_site_type_symbol
 _atom_site_label
 _atom_site_symmetry_multiplicity
 _atom_site_fract_x
 _atom_site_fract_y
 _atom_site_fract_z
 _atom_site_occupancy
  Zn  Zn0  1  0.38351119  0.01578052  0.51704029  1.0
  Zn  Zn1  1  0.61647666  0.98426475  0.48298009  1.0
  Zn  Zn2  1  0.88312998  0.51417800  0.98388406  1.0
  Zn  Zn3  1  0.11686718  0.48595282  0.01606559  1.0
  Zn  Zn4  1  0.51654226  0.02181849  0.40478717  1.0
  Zn  Zn5  1  0.48343150  0.97820134  0.59523414  1.0
  Zn  Zn6  1  0.98407774  0.47863689  0.90479275  1.0
  Zn  Zn7  1  0.01589159  0.52148331  0.09514442  1.0
  H  H8  1  0.37265147  0.88178141  0.50698596  1.0
  H  H9  1  0.58007434  0.11829551  0.31804518  1.0
  H  H10  1  0.48449011  0.10997031  0.62975467  1.0
  H  H11  1  0.51546593  0.89001172  0.37025291  1.0
  H  H12  1  0.01666546  0.38916646  0.13008565  1.0
  H  H13  1  0.98314217  0.61099352  0.87006975  1.0
  H  H14  1  0.07747808  0.61951874  0.18054855  1.0
  H  H15  1  0.92259157  0.38038523  0.81960614  1.0
  H  H16  1  0.27457953  0.83931922  0.84802388  1.0
  H  H17  1  0.72558207  0.16040215  0.15195798  1.0
  H  H18  1  0.55471486  0.28828218  0.71173038  1.0
  H  H19  1  0.62718164  0.11827487  0.49292817  1.0
  H  H20  1  0.44521713  0.71183539  0.28826007  1.0
  H  H21  1  0.94857754  0.20762570  0.21066957  1.0
  H  H22  1  0.05141724  0.79245658  0.78944375  1.0
  H  H23  1  0.22022277  0.66657514  0.34433574  1.0
  H  H24  1  0.77995696  0.33296990  0.65584939  1.0
  H  H25  1  0.20926541  0.78064440  0.91300914  1.0
  H  H26  1  0.79079637  0.21922951  0.08703745  1.0
  H  H27  1  0.61940888  0.34616356  0.77748713  1.0
  H  H28  1  0.38061392  0.65384797  0.22252678  1.0
  H  H29  1  0.88337332  0.14867318  0.27551723  1.0
  H  H30  1  0.75254593  0.04302953  0.40727992  1.0
  H  H31  1  0.11672129  0.85124956  0.72452532  1.0
  H  H32  1  0.28488294  0.72441423  0.41015537  1.0
  H  H33  1  0.71520766  0.27526008  0.59000583  1.0
  H  H34  1  0.34261669  0.29359895  0.25922056  1.0
  H  H35  1  0.65740418  0.70630487  0.74061314  1.0
  H  H36  1  0.74496507  0.83257024  0.13973324  1.0
  H  H37  1  0.25510686  0.16764027  0.86033037  1.0
  H  H38  1  0.75301508  0.66698043  0.64205281  1.0
  H  H39  1  0.24696405  0.33303205  0.35771452  1.0
  H  H40  1  0.15841764  0.20577208  0.76260284  1.0
  H  H41  1  0.24746972  0.95689170  0.59278091  1.0
  H  H42  1  0.84159720  0.79423306  0.23744095  1.0
  H  H43  1  0.70029768  0.87039236  0.52740642  1.0
  H  H44  1  0.29975276  0.12972642  0.47263924  1.0
  H  H45  1  0.28813800  0.11942705  0.58419528  1.0
  H  H46  1  0.71177500  0.88053993  0.41591537  1.0
  H  H47  1  0.21253034  0.38219888  0.08198207  1.0
  H  H48  1  0.78739475  0.61774561  0.91773096  1.0
  H  H49  1  0.79791191  0.62757854  0.02812801  1.0
  H  H50  1  0.20222825  0.37276805  0.97161631  1.0
  H  H51  1  0.60040450  0.95874494  0.27245487  1.0
  H  H52  1  0.74853175  0.45255211  0.90933702  1.0
  H  H53  1  0.39961012  0.04121560  0.72760070  1.0
  H  H54  1  0.46722472  0.14557022  0.36127176  1.0
  H  H55  1  0.53271947  0.85442488  0.63861552  1.0
  H  H56  1  0.03335066  0.35389835  0.86381312  1.0
  H  H57  1  0.96663685  0.64623784  0.13619668  1.0
  H  H58  1  0.89916270  0.54184312  0.77305252  1.0
  H  H59  1  0.10099305  0.45810271  0.22679344  1.0
  H  H60  1  0.25146355  0.54741821  0.09065841  1.0
  H  H61  1  0.12517262  0.62047376  0.00644903  1.0
  H  H62  1  0.87459195  0.37968293  0.99372851  1.0
  H  H63  1  0.42002604  0.88163613  0.68190084  1.0
  C  C64  1  0.40992991  0.89367193  0.47702070  1.0
  C  C65  1  0.24143764  0.87321633  0.73957084  1.0
  C  C66  1  0.63134080  0.27584142  0.64716644  1.0
  C  C67  1  0.12683670  0.78030976  0.85476626  1.0
  C  C68  1  0.87318204  0.21966668  0.14531307  1.0
  C  C69  1  0.70513056  0.34181082  0.72233293  1.0
  C  C70  1  0.29496297  0.65798817  0.27776353  1.0
  C  C71  1  0.77445437  0.17078496  0.16470037  1.0
  C  C72  1  0.22567466  0.82900565  0.83530648  1.0
  C  C73  1  0.39603302  0.70164358  0.30051257  1.0
  C  C74  1  0.60395519  0.29834574  0.69952091  1.0
  C  C75  1  0.10022994  0.80292734  0.80222932  1.0
  C  C76  1  0.39997492  0.76569129  0.38534247  1.0
  C  C77  1  0.89980863  0.19706467  0.19784908  1.0
  C  C78  1  0.73058243  0.32316163  0.66793564  1.0
  C  C79  1  0.26953545  0.67652764  0.33220428  1.0
  C  C80  1  0.59995014  0.23428133  0.61468853  1.0
  C  C81  1  0.09573978  0.73777812  0.88650761  1.0
  C  C82  1  0.90418848  0.26228691  0.11361969  1.0
  C  C83  1  0.74454990  0.36780987  0.76340083  1.0
  C  C84  1  0.25555048  0.63200686  0.23668476  1.0
  C  C85  1  0.27621216  0.89060094  0.70125487  1.0
  C  C86  1  0.72389795  0.10924889  0.29875189  1.0
  C  C87  1  0.57921902  0.19203850  0.59124880  1.0
  C  C88  1  0.58992144  0.10637583  0.52290901  1.0
  C  C89  1  0.42067927  0.80797293  0.40873587  1.0
  C  C90  1  0.92399362  0.30550756  0.09100404  1.0
  C  C91  1  0.07581115  0.69463396  0.90917434  1.0
  C  C92  1  0.22120547  0.61396536  0.19867000  1.0
  C  C93  1  0.77887225  0.38589165  0.80141122  1.0
  C  C94  1  0.34530457  0.21710081  0.38955252  1.0
  C  C95  1  0.65465253  0.78292099  0.61034160  1.0
  C  C96  1  0.72247847  0.88150152  0.28790704  1.0
  C  C97  1  0.27751184  0.11847173  0.71220349  1.0
  C  C98  1  0.77653505  0.61831427  0.78986090  1.0
  C  C99  1  0.70339943  0.05781947  0.39334142  1.0
  C  C100  1  0.22354173  0.38158932  0.20986454  1.0
  C  C101  1  0.15611290  0.28350592  0.89152424  1.0
  C  C102  1  0.84395128  0.71673398  0.10841384  1.0
  C  C103  1  0.28782716  0.30787197  0.33649438  1.0
  C  C104  1  0.71215629  0.69211226  0.66330761  1.0
  C  C105  1  0.79963895  0.81893959  0.21741883  1.0
  C  C106  1  0.20038697  0.18111580  0.78265599  1.0
  C  C107  1  0.69902717  0.68131670  0.72023052  1.0
  C  C108  1  0.30099127  0.31861937  0.27956374  1.0
  C  C109  1  0.21388006  0.19235113  0.83930287  1.0
  C  C110  1  0.29663154  0.94211497  0.60668951  1.0
  C  C111  1  0.78616492  0.80781424  0.16074530  1.0
  C  C112  1  0.67918915  0.73811234  0.63264323  1.0
  C  C113  1  0.32075929  0.26188421  0.36720813  1.0
  C  C114  1  0.23982157  0.14424829  0.74655134  1.0
  C  C115  1  0.76020189  0.85575719  0.25356340  1.0
  C  C116  1  0.26151964  0.35561454  0.24371949  1.0
  C  C117  1  0.73854011  0.64430944  0.75603492  1.0
  C  C118  1  0.81922739  0.76172418  0.13021794  1.0
  C  C119  1  0.18081645  0.23847830  0.86978299  1.0
  C  C120  1  0.65504160  0.87648712  0.55203258  1.0
  C  C121  1  0.79795436  0.43878130  0.89514540  1.0
  C  C122  1  0.34498922  0.12360777  0.44798590  1.0
  C  C123  1  0.32348738  0.09581827  0.61231892  1.0
  C  C124  1  0.67643743  0.90414476  0.38777788  1.0
  C  C125  1  0.17713724  0.40531067  0.11054218  1.0
  C  C126  1  0.82283652  0.59463822  0.88921404  1.0
  C  C127  1  0.84351735  0.62214265  0.05207469  1.0
  C  C128  1  0.15658430  0.37815668  0.94772172  1.0
  C  C129  1  0.61935736  0.94439229  0.31436517  1.0
  C  C130  1  0.38062444  0.05557233  0.68570169  1.0
  C  C131  1  0.43034622  0.13151734  0.39078881  1.0
  C  C132  1  0.20205536  0.56119741  0.10488028  1.0
  C  C133  1  0.56962328  0.86850973  0.60914207  1.0
  C  C134  1  0.07053041  0.36871810  0.89230374  1.0
  C  C135  1  0.92948149  0.63147577  0.10764489  1.0
  C  C136  1  0.88012675  0.55558582  0.81517152  1.0
  C  C137  1  0.11996803  0.44436306  0.18465289  1.0
  C  C138  1  0.38490903  0.90326665  0.65218869  1.0
  C  C139  1  0.61515971  0.09667088  0.34778809  1.0
  C  C140  1  0.51675865  0.10207918  0.59298746  1.0
  C  C141  1  0.48315654  0.89793023  0.40698810  1.0
  C  C142  1  0.98427151  0.39686712  0.09352211  1.0
  C  C143  1  0.08830532  0.60816559  0.97653219  1.0
  C  C144  1  0.01552163  0.60328098  0.90664069  1.0
  C  C145  1  0.11302033  0.59845224  0.15074164  1.0
  C  C146  1  0.88702571  0.40149240  0.84936670  1.0
  C  C147  1  0.43855759  0.86125022  0.43078455  1.0
  C  C148  1  0.56133172  0.13877705  0.56917413  1.0
  C  C149  1  0.68395123  0.08959299  0.34295287  1.0
  C  C150  1  0.31612173  0.91031015  0.65704778  1.0
  C  C151  1  0.81819450  0.40682625  0.84508307  1.0
  C  C152  1  0.18185502  0.59309008  0.15499028  1.0
  C  C153  1  0.05911679  0.64061207  0.93059957  1.0
  C  C154  1  0.91147583  0.39197726  0.02363627  1.0
  C  C155  1  0.94067134  0.35953322  0.06957494  1.0
  C  C156  1  0.62811371  0.83751408  0.59068001  1.0
  C  C157  1  0.37186893  0.16253096  0.40925600  1.0
  C  C158  1  0.32291202  0.09159040  0.67321583  1.0
  C  C159  1  0.67705342  0.90836491  0.32688223  1.0
  C  C160  1  0.17786060  0.40878337  0.17146513  1.0
  C  C161  1  0.82219811  0.59114101  0.82829405  1.0
  C  C162  1  0.87062444  0.66191407  0.08945434  1.0
  C  C163  1  0.12943174  0.33832771  0.91044178  1.0
  C  C164  1  0.18914092  0.79627180  0.87169372  1.0
  C  C165  1  0.75870473  0.12659793  0.26044244  1.0
  C  C166  1  0.81093629  0.20359654  0.12834507  1.0
  C  C167  1  0.64011560  0.33062561  0.73629671  1.0
  C  C168  1  0.35992287  0.66930736  0.26375023  1.0
  C  C169  1  0.86335000  0.16417738  0.23412836  1.0
  C  C170  1  0.13674004  0.83573252  0.76590946  1.0
  C  C171  1  0.30569889  0.70875649  0.36904422  1.0
  C  C172  1  0.69436729  0.29099956  0.63108092  1.0
  C  C173  1  0.79881979  0.15242488  0.21947133  1.0
  C  C174  1  0.20131322  0.84738992  0.78053937  1.0
  C  C175  1  0.36864826  0.72406705  0.35289793  1.0
  N  N176  1  0.43510011  0.94599501  0.47988644  1.0
  N  N177  1  0.38372361  0.07358265  0.45140709  1.0
  N  N178  1  0.37711972  0.06531178  0.59111321  1.0
  N  N179  1  0.62280383  0.93466780  0.40895499  1.0
  N  N180  1  0.12327990  0.43582608  0.08996380  1.0
  N  N181  1  0.87668062  0.56416477  0.90985855  1.0
  N  N182  1  0.88248633  0.57221307  0.04913596  1.0
  N  N183  1  0.11758932  0.42806916  0.95067567  1.0
  N  N184  1  0.58779825  0.95963846  0.36346077  1.0
  N  N185  1  0.41216027  0.04034281  0.63658921  1.0
  N  N186  1  0.43700841  0.07864604  0.41572955  1.0
  N  N187  1  0.56476108  0.05404524  0.52004457  1.0
  N  N188  1  0.56299225  0.92141279  0.58427088  1.0
  N  N189  1  0.06385316  0.42205865  0.91610163  1.0
  N  N190  1  0.93616494  0.57815815  0.08379675  1.0
  N  N191  1  0.91181867  0.53994760  0.86398238  1.0
  N  N192  1  0.08821711  0.46003897  0.13588315  1.0
  N  N193  1  0.40423838  0.92861632  0.60316303  1.0
  N  N194  1  0.59579031  0.07136000  0.39682065  1.0
  N  N195  1  0.51941374  0.05151071  0.56346984  1.0
  N  N196  1  0.48048382  0.94850987  0.43648927  1.0
  N  N197  1  0.98048784  0.44776896  0.06435076  1.0
  N  N198  1  0.65070090  0.04726268  0.42486059  1.0
  N  N199  1  0.01931541  0.55236637  0.93578912  1.0
  N  N200  1  0.09430593  0.57210720  0.10227328  1.0
  N  N201  1  0.90570232  0.42792045  0.89780249  1.0
  N  N202  1  0.34930580  0.95271330  0.57515731  1.0
  N  N203  1  0.85030088  0.45103233  0.92597116  1.0
  N  N204  1  0.14968319  0.54901542  0.07405311  1.0
  N  N205  1  0.06440769  0.55527327  0.97908272  1.0
  N  N206  1  0.93539086  0.44485708  0.02106454  1.0
  N  N207  1  0.61631275  0.92651771  0.54864468  1.0
