# generated using pymatgen
data_AlH9C14NO7
_symmetry_space_group_name_H-M   'P 1'
_cell_length_a   6.66124219
_cell_length_b   15.18794949
_cell_length_c   16.86674056
_cell_angle_alpha   89.79143405
_cell_angle_beta   83.42718725
_cell_angle_gamma   78.65427972
_symmetry_Int_Tables_number   1
_chemical_formula_structural   AlH9C14NO7
_chemical_formula_sum   'Al2 H18 C28 N2 O14'
_cell_volume   1661.76257643
_cell_formula_units_Z   2
loop_
 _symmetry_equiv_pos_site_id
 _symmetry_equiv_pos_as_xyz
  1  'x, y, z'
loop_
 _atom_site_type_symbol
 _atom_site_label
 _atom_site_symmetry_multiplicity
 _atom_site_fract_x
 _atom_site_fract_y
 _atom_site_fract_z
 _atom_site_occupancy
  Al  Al0  1  0.99999671  0.50000134  0.49999746  1.0
  Al  Al1  1  0.49998991  0.50000440  0.50000000  1.0
  H  H2  1  0.18631244  0.59762384  0.56495340  1.0
  H  H3  1  0.81365046  0.40238004  0.43505428  1.0
  H  H4  1  0.65202064  0.45744403  0.26305642  1.0
  H  H5  1  0.71616645  0.46159165  0.11444052  1.0
  H  H6  1  0.06224141  0.54428486  0.10402380  1.0
  H  H7  1  0.93779487  0.45569447  0.89596621  1.0
  H  H8  1  0.28386713  0.53839374  0.88555788  1.0
  H  H9  1  0.34799349  0.54255675  0.73694403  1.0
  H  H10  1  0.77157514  0.06555037  0.53759671  1.0
  H  H11  1  0.22839318  0.93446164  0.46242132  1.0
  H  H12  1  0.92577647  0.77325176  0.50891200  1.0
  H  H13  1  0.84465617  0.93672881  0.52188489  1.0
  H  H14  1  0.07421451  0.22675630  0.49108894  1.0
  H  H15  1  0.15533313  0.06327923  0.47810901  1.0
  H  H16  1  0.96081529  0.53540966  0.31513190  1.0
  H  H17  1  0.03918582  0.46458632  0.68486032  1.0
  H  H18  1  0.66245483  0.29931030  0.55219427  1.0
  H  H19  1  0.33752449  0.70069772  0.44782384  1.0
  C  C20  1  0.67433202  0.66151234  0.48250798  1.0
  C  C21  1  0.70899832  0.50705560  0.64488437  1.0
  C  C22  1  0.32565166  0.33849233  0.51749926  1.0
  C  C23  1  0.29100049  0.49294845  0.35511028  1.0
  C  C24  1  0.32221240  0.49598962  0.26776529  1.0
  C  C25  1  0.52417164  0.47508419  0.22745322  1.0
  C  C26  1  0.56084645  0.47774723  0.14547416  1.0
  C  C27  1  0.39156677  0.50293013  0.10117456  1.0
  C  C28  1  0.19035193  0.52435307  0.13929402  1.0
  C  C29  1  0.15272910  0.52087910  0.22261691  1.0
  C  C30  1  0.80967555  0.47563228  0.86070172  1.0
  C  C31  1  0.60846651  0.49705256  0.89882091  1.0
  C  C32  1  0.43918556  0.52224152  0.85452608  1.0
  C  C33  1  0.47584408  0.52491322  0.77254598  1.0
  C  C34  1  0.67780251  0.50401250  0.73223155  1.0
  C  C35  1  0.84728767  0.47911899  0.77737690  1.0
  C  C36  1  0.37464457  0.24014313  0.51791863  1.0
  C  C37  1  0.62533858  0.75986289  0.48209337  1.0
  C  C38  1  0.57212235  0.19220018  0.53245521  1.0
  C  C39  1  0.61766823  0.09836885  0.52574395  1.0
  C  C40  1  0.42785557  0.80781052  0.46755821  1.0
  C  C41  1  0.38231031  0.90164051  0.47426886  1.0
  C  C42  1  0.77205642  0.80946269  0.50045205  1.0
  C  C43  1  0.72536370  0.90201535  0.50711139  1.0
  C  C44  1  0.22792944  0.19054669  0.49955091  1.0
  C  C45  1  0.27461579  0.09799467  0.49289128  1.0
  C  C46  1  0.47308651  0.04962706  0.50469661  1.0
  C  C47  1  0.52688225  0.95038358  0.49531251  1.0
  N  N48  1  0.40836109  0.50901027  0.01699145  1.0
  N  N49  1  0.59168068  0.49097044  0.98300243  1.0
  O  O50  1  0.85147121  0.62150682  0.49839384  1.0
  O  O51  1  0.55305683  0.52459209  0.60607402  1.0
  O  O52  1  0.47031846  0.38069448  0.53121341  1.0
  O  O53  1  0.10229886  0.50825820  0.38924206  1.0
  O  O54  1  0.14851743  0.37849651  0.50160428  1.0
  O  O55  1  0.44693218  0.47541999  0.39392521  1.0
  O  O56  1  0.52966324  0.61931421  0.46879154  1.0
  O  O57  1  0.89770337  0.49174183  0.61075185  1.0
  O  O58  1  0.22092191  0.54423010  0.53107217  1.0
  O  O59  1  0.77905719  0.45578059  0.46892755  1.0
  O  O60  1  0.95530877  0.54208679  0.25635580  1.0
  O  O61  1  0.04470771  0.45790859  0.74363448  1.0
  O  O62  1  0.72208722  0.23355855  0.55217213  1.0
  O  O63  1  0.27789836  0.76644883  0.44784212  1.0
