# generated using pymatgen
data_ZnH10C15SNO7
_symmetry_space_group_name_H-M   'P 1'
_cell_length_a   11.06836695
_cell_length_b   13.94868611
_cell_length_c   15.26543859
_cell_angle_alpha   90.00045015
_cell_angle_beta   89.92800735
_cell_angle_gamma   89.99864988
_symmetry_Int_Tables_number   1
_chemical_formula_structural   ZnH10C15SNO7
_chemical_formula_sum   'Zn2 H20 C30 S2 N2 O14'
_cell_volume   2356.81662910
_cell_formula_units_Z   2
loop_
 _symmetry_equiv_pos_site_id
 _symmetry_equiv_pos_as_xyz
  1  'x, y, z'
loop_
 _atom_site_type_symbol
 _atom_site_label
 _atom_site_symmetry_multiplicity
 _atom_site_fract_x
 _atom_site_fract_y
 _atom_site_fract_z
 _atom_site_occupancy
  Zn  Zn0  1  0.49999657  0.40076403  0.50000023  1.0
  Zn  Zn1  1  0.49999606  0.59636525  0.49999620  1.0
  H  H2  1  0.11287675  0.63495097  0.49469595  1.0
  H  H3  1  0.51977156  0.35985888  0.22628612  1.0
  H  H4  1  0.58070464  0.65684392  0.78187332  1.0
  H  H5  1  0.41925531  0.65683847  0.21812337  1.0
  H  H6  1  0.56518243  0.65542043  0.94409505  1.0
  H  H7  1  0.43475226  0.65541652  0.05590885  1.0
  H  H8  1  0.62668741  0.75104057  0.59975689  1.0
  H  H9  1  0.37330554  0.75106960  0.40022720  1.0
  H  H10  1  0.36180521  0.06750389  0.60028573  1.0
  H  H11  1  0.63821575  0.06749687  0.39972398  1.0
  H  H12  1  0.73678308  0.07332087  0.57174545  1.0
  H  H13  1  0.88709637  0.63493589  0.50531501  1.0
  H  H14  1  0.26322691  0.07333977  0.42822762  1.0
  H  H15  1  0.36503152  0.24817173  0.59356867  1.0
  H  H16  1  0.63496616  0.24816844  0.40644535  1.0
  H  H17  1  0.09004628  0.42020506  0.53813785  1.0
  H  H18  1  0.90995184  0.42022200  0.46182735  1.0
  H  H19  1  0.45581117  0.35886824  0.93554024  1.0
  H  H20  1  0.54417575  0.35886770  0.06446000  1.0
  H  H21  1  0.48023431  0.35985789  0.77371018  1.0
  C  C22  1  0.53349866  0.50983646  0.66977230  1.0
  C  C23  1  0.42198259  0.10474304  0.55523164  1.0
  C  C24  1  0.57800587  0.10473283  0.44476193  1.0
  C  C25  1  0.42438000  0.20445491  0.55282470  1.0
  C  C26  1  0.57561240  0.20445696  0.44717532  1.0
  C  C27  1  0.50000522  0.05369980  0.49999532  1.0
  C  C28  1  0.73414478  0.49020841  0.47500979  1.0
  C  C29  1  0.26584896  0.49020818  0.52497350  1.0
  C  C30  1  0.06523509  0.56708064  0.50427819  1.0
  C  C31  1  0.93473875  0.56708017  0.49569767  1.0
  C  C32  1  0.13223677  0.48934221  0.52443007  1.0
  C  C33  1  0.46650454  0.50982898  0.33023008  1.0
  C  C34  1  0.86778320  0.48934160  0.47552895  1.0
  C  C35  1  0.48587151  0.42396991  0.90250103  1.0
  C  C36  1  0.51411205  0.42397470  0.09750481  1.0
  C  C37  1  0.49816885  0.42427399  0.81190033  1.0
  C  C38  1  0.50182735  0.42427139  0.18810747  1.0
  C  C39  1  0.53065298  0.50846699  0.76760193  1.0
  C  C40  1  0.46930688  0.50845770  0.23240375  1.0
  C  C41  1  0.55412407  0.59165833  0.81622467  1.0
  C  C42  1  0.44581574  0.59164762  0.18378280  1.0
  C  C43  1  0.54386039  0.59076851  0.90703807  1.0
  C  C44  1  0.50759411  0.50737564  0.95193737  1.0
  C  C45  1  0.45608397  0.59076164  0.09296415  1.0
  C  C46  1  0.49236398  0.50737393  0.04805586  1.0
  C  C47  1  0.57375927  0.89384076  0.55718399  1.0
  C  C48  1  0.42627546  0.89384540  0.44279301  1.0
  C  C49  1  0.57143728  0.79380699  0.55543376  1.0
  C  C50  1  0.42859260  0.79381016  0.44453613  1.0
  C  C51  1  0.50001628  0.94699038  0.49998341  1.0
  S  S52  1  0.66970370  0.94877934  0.63754885  1.0
  S  S53  1  0.33034237  0.94879604  0.36243238  1.0
  N  N54  1  0.50000332  0.74571838  0.49999006  1.0
  N  N55  1  0.49999292  0.25277374  0.49998803  1.0
  O  O56  1  0.52870933  0.42915846  0.63051701  1.0
  O  O57  1  0.73718930  0.87373302  0.67836208  1.0
  O  O58  1  0.76498670  0.00691290  0.57761737  1.0
  O  O59  1  0.40064427  0.01697031  0.31337996  1.0
  O  O60  1  0.26284590  0.87376586  0.32161808  1.0
  O  O61  1  0.23502758  0.00693738  0.42233109  1.0
  O  O62  1  0.47128405  0.42914770  0.36948624  1.0
  O  O63  1  0.53752480  0.59154427  0.63213681  1.0
  O  O64  1  0.46247375  0.59154588  0.36785686  1.0
  O  O65  1  0.68316077  0.40782057  0.47510571  1.0
  O  O66  1  0.31682680  0.40782566  0.52488956  1.0
  O  O67  1  0.67965384  0.57080084  0.47636389  1.0
  O  O68  1  0.32032985  0.57079221  0.52363164  1.0
  O  O69  1  0.59945198  0.01696287  0.68661894  1.0
