# generated using pymatgen
data_AlH9C21(ClO2)3
_symmetry_space_group_name_H-M   'P 1'
_cell_length_a   3.97866590
_cell_length_b   24.68985855
_cell_length_c   24.68986157
_cell_angle_alpha   119.99990806
_cell_angle_beta   90.00032794
_cell_angle_gamma   89.99999094
_symmetry_Int_Tables_number   1
_chemical_formula_structural   AlH9C21(ClO2)3
_chemical_formula_sum   'Al2 H18 C42 Cl6 O12'
_cell_volume   2100.41815053
_cell_formula_units_Z   2
loop_
 _symmetry_equiv_pos_site_id
 _symmetry_equiv_pos_as_xyz
  1  'x, y, z'
loop_
 _atom_site_type_symbol
 _atom_site_label
 _atom_site_symmetry_multiplicity
 _atom_site_fract_x
 _atom_site_fract_y
 _atom_site_fract_z
 _atom_site_occupancy
  Al  Al0  1  0.00769397  0.99999785  0.49999808  1.0
  Al  Al1  1  0.00769360  0.33333117  0.16666441  1.0
  H  H2  1  0.50156924  0.71071872  0.26748159  1.0
  H  H3  1  0.50154138  0.62261106  0.39918580  1.0
  H  H4  1  0.48201333  0.50568332  0.16770686  1.0
  H  H5  1  0.49626272  0.62035326  0.22277118  1.0
  H  H6  1  0.48200127  0.82764551  0.49896004  1.0
  H  H7  1  0.49625390  0.71297605  0.44389516  1.0
  H  H8  1  0.50153932  0.23252014  0.44324131  1.0
  H  H9  1  0.50154567  0.10081411  0.22342965  1.0
  H  H10  1  0.48201836  0.33229175  0.33797509  1.0
  H  H11  1  0.49626037  0.27722917  0.39758285  1.0
  H  H12  1  0.48199575  0.00104108  0.32868947  1.0
  H  H13  1  0.49625073  0.05610555  0.26908510  1.0
  H  H14  1  0.50155038  0.05675606  0.78927678  1.0
  H  H15  1  0.50155430  0.27656974  0.87738301  1.0
  H  H16  1  0.48200207  0.16201890  0.99431196  1.0
  H  H17  1  0.49625616  0.10241295  0.87964222  1.0
  H  H18  1  0.48200408  0.17130877  0.67234955  1.0
  H  H19  1  0.49625451  0.23091285  0.78701918  1.0
  C  C20  1  0.50503567  0.04747697  0.59593185  1.0
  C  C21  1  0.50503075  0.90406339  0.45154472  1.0
  C  C22  1  0.50503572  0.04845457  0.45252069  1.0
  C  C23  1  0.50502944  0.42926593  0.21512123  1.0
  C  C24  1  0.50503955  0.28487521  0.21414306  1.0
  C  C25  1  0.50503206  0.28585187  0.07072981  1.0
  C  C26  1  0.49875168  0.83434234  0.41553924  1.0
  C  C27  1  0.49875656  0.49898791  0.25112717  1.0
  C  C28  1  0.50549655  0.79987612  0.35000860  1.0
  C  C29  1  0.50344259  0.73476173  0.31831699  1.0
  C  C30  1  0.50549360  0.53345367  0.31665880  1.0
  C  C31  1  0.50343060  0.59856618  0.34834947  1.0
  C  C32  1  0.48981078  0.53205772  0.21868972  1.0
  C  C33  1  0.49670305  0.59698504  0.25026066  1.0
  C  C34  1  0.48980202  0.80127111  0.44797800  1.0
  C  C35  1  0.49669578  0.73634380  0.41640626  1.0
  C  C36  1  0.50202560  0.70133974  0.35058118  1.0
  C  C37  1  0.50202504  0.63199003  0.31608580  1.0
  C  C38  1  0.49875161  0.08446190  0.41880593  1.0
  C  C39  1  0.49875663  0.24887069  0.24785962  1.0
  C  C40  1  0.50549055  0.14999206  0.44987108  1.0
  C  C41  1  0.50342646  0.18168314  0.41644860  1.0
  C  C42  1  0.50549407  0.18333893  0.21679623  1.0
  C  C43  1  0.50342864  0.15164831  0.25021934  1.0
  C  C44  1  0.48981203  0.28130884  0.31336825  1.0
  C  C45  1  0.49669684  0.24973935  0.34672597  1.0
  C  C46  1  0.48980027  0.05202354  0.35329690  1.0
  C  C47  1  0.49669395  0.08359444  0.31994192  1.0
  C  C48  1  0.50201784  0.14942017  0.35076319  1.0
  C  C49  1  0.50201722  0.18391456  0.31590598  1.0
  C  C50  1  0.49875082  0.08119349  0.66565429  1.0
  C  C51  1  0.49875490  0.25213488  0.00100754  1.0
  C  C52  1  0.50548987  0.05012675  0.70012001  1.0
  C  C53  1  0.50342747  0.08354771  0.76523130  1.0
  C  C54  1  0.50549936  0.28319999  0.96654187  1.0
  C  C55  1  0.50343726  0.24977576  0.90142691  1.0
  C  C56  1  0.48980573  0.18662601  0.96793728  1.0
  C  C57  1  0.49669890  0.15327146  0.90301067  1.0
  C  C58  1  0.48980112  0.14670027  0.69872314  1.0
  C  C59  1  0.49669147  0.18005528  0.76365120  1.0
  C  C60  1  0.50201799  0.14923547  0.79865513  1.0
  C  C61  1  0.50202419  0.18409080  0.86800570  1.0
  Cl  Cl62  1  0.49849343  0.83682443  0.30612191  1.0
  Cl  Cl63  1  0.49848951  0.49650347  0.36054414  1.0
  Cl  Cl64  1  0.49848454  0.19387737  0.53070629  1.0
  Cl  Cl65  1  0.49849588  0.13945100  0.13596120  1.0
  Cl  Cl66  1  0.49849196  0.96929125  0.66316892  1.0
  Cl  Cl67  1  0.49849601  0.36403479  0.00349012  1.0
  O  O68  1  0.27330709  0.00812443  0.43960021  1.0
  O  O69  1  0.27330676  0.06039664  0.56852138  1.0
  O  O70  1  0.27329797  0.93147364  0.49187360  1.0
  O  O71  1  0.74454128  0.05962565  0.49081328  1.0
  O  O72  1  0.74453042  0.93118481  0.44037189  1.0
  O  O73  1  0.74454264  0.00918375  0.56881085  1.0
  O  O74  1  0.27329908  0.27293299  0.09813964  1.0
  O  O75  1  0.27330536  0.40185646  0.17479252  1.0
  O  O76  1  0.27330881  0.32520474  0.22706220  1.0
  O  O77  1  0.74452987  0.32414571  0.09785175  1.0
  O  O78  1  0.74453877  0.27370381  0.17585013  1.0
  O  O79  1  0.74454209  0.40214371  0.22629267  1.0
