# generated using pymatgen
data_AlH9C15N2O5
_symmetry_space_group_name_H-M   'P 1'
_cell_length_a   6.66979949
_cell_length_b   22.82216324
_cell_length_c   25.41077399
_cell_angle_alpha   103.60327869
_cell_angle_beta   89.99982448
_cell_angle_gamma   89.99982668
_symmetry_Int_Tables_number   1
_chemical_formula_structural   AlH9C15N2O5
_chemical_formula_sum   'Al4 H36 C60 N8 O20'
_cell_volume   3759.50187218
_cell_formula_units_Z   4
loop_
 _symmetry_equiv_pos_site_id
 _symmetry_equiv_pos_as_xyz
  1  'x, y, z'
loop_
 _atom_site_type_symbol
 _atom_site_label
 _atom_site_symmetry_multiplicity
 _atom_site_fract_x
 _atom_site_fract_y
 _atom_site_fract_z
 _atom_site_occupancy
  Al  Al0  1  0.03226535  0.49926441  0.49942311  1.0
  Al  Al1  1  0.46570065  0.00133861  0.00021137  1.0
  Al  Al2  1  0.53226388  0.50073600  0.50057567  1.0
  Al  Al3  1  0.96570172  0.99866205  0.99978817  1.0
  H  H4  1  0.94315692  0.73164340  0.70415468  1.0
  H  H5  1  0.55100195  0.80519697  0.76793828  1.0
  H  H6  1  0.44316014  0.26835835  0.29584732  1.0
  H  H7  1  0.05100667  0.19480252  0.23206210  1.0
  H  H8  1  0.95835169  0.64617515  0.62331470  1.0
  H  H9  1  0.53477417  0.88699276  0.85171130  1.0
  H  H10  1  0.45836658  0.35382792  0.37668565  1.0
  H  H11  1  0.03477771  0.11300731  0.14828788  1.0
  H  H12  1  0.58620402  0.62411017  0.65074309  1.0
  H  H13  1  0.91811711  0.84374189  0.87369221  1.0
  H  H14  1  0.08621602  0.37588787  0.34925523  1.0
  H  H15  1  0.41811748  0.15625903  0.12630819  1.0
  H  H16  1  0.54411014  0.89848813  0.10855984  1.0
  H  H17  1  0.95675355  0.60152499  0.39114055  1.0
  H  H18  1  0.04410946  0.10151856  0.89144621  1.0
  H  H19  1  0.45673974  0.39847120  0.60885699  1.0
  H  H20  1  0.55638032  0.83189296  0.17451825  1.0
  H  H21  1  0.94537245  0.66812255  0.32522102  1.0
  H  H22  1  0.05637525  0.16811328  0.82548779  1.0
  H  H23  1  0.44536453  0.33187431  0.67477734  1.0
  H  H24  1  0.91269544  0.82250564  0.17315265  1.0
  H  H25  1  0.58902735  0.67749966  0.32712179  1.0
  H  H26  1  0.41268875  0.17748864  0.82684251  1.0
  H  H27  1  0.08902254  0.32250667  0.67288138  1.0
  H  H28  1  0.57006769  0.70641981  0.73420882  1.0
  H  H29  1  0.93713808  0.75849448  0.79277766  1.0
  H  H30  1  0.07007251  0.29357782  0.26578952  1.0
  H  H31  1  0.43713963  0.24150630  0.20722394  1.0
  H  H32  1  0.90159171  0.88927622  0.10729760  1.0
  H  H33  1  0.59933195  0.61074151  0.39298573  1.0
  H  H34  1  0.40158792  0.11071894  0.89269919  1.0
  H  H35  1  0.09931676  0.38926295  0.60701702  1.0
  H  H36  1  0.78504912  0.57958948  0.51202242  1.0
  H  H37  1  0.70995388  0.92036922  0.98531416  1.0
  H  H38  1  0.28505453  0.42041138  0.48797732  1.0
  H  H39  1  0.20994735  0.07963272  0.01468605  1.0
  C  C40  1  0.78193400  0.43573735  0.56377765  1.0
  C  C41  1  0.71730803  0.06418823  0.93615003  1.0
  C  C42  1  0.28193858  0.56426352  0.43622208  1.0
  C  C43  1  0.21731179  0.93581152  0.06384856  1.0
  C  C44  1  0.78043566  0.41903847  0.41854307  1.0
  C  C45  1  0.71864440  0.08077425  0.08153324  1.0
  C  C46  1  0.28041884  0.58096087  0.58145586  1.0
  C  C47  1  0.21863817  0.91922658  0.91846778  1.0
  C  C48  1  0.08370848  0.70733514  0.69353057  1.0
  C  C49  1  0.41322702  0.81232893  0.79171469  1.0
  C  C50  1  0.58371740  0.29266509  0.30646937  1.0
  C  C51  1  0.91323067  0.18767091  0.20828491  1.0
  C  C52  1  0.09178869  0.66008663  0.64776698  1.0
  C  C53  1  0.40437167  0.85868868  0.83821736  1.0
  C  C54  1  0.59179660  0.33991369  0.35223336  1.0
  C  C55  1  0.90437634  0.14130975  0.16178184  1.0
  C  C56  1  0.27329214  0.63020945  0.63167971  1.0
  C  C57  1  0.22577536  0.87033976  0.86802607  1.0
  C  C58  1  0.77330256  0.36979044  0.36831963  1.0
  C  C59  1  0.72577001  0.12966062  0.13197494  1.0
  C  C60  1  0.44582629  0.64788449  0.66291508  1.0
  C  C61  1  0.05655466  0.83469580  0.85042411  1.0
  C  C62  1  0.94583875  0.35211509  0.33708367  1.0
  C  C63  1  0.55655474  0.16530521  0.14957707  1.0
  C  C64  1  0.43624378  0.69445450  0.70932132  1.0
  C  C65  1  0.06740857  0.78749009  0.80459197  1.0
  C  C66  1  0.93625577  0.30554520  0.29067785  1.0
  C  C67  1  0.56740913  0.21251125  0.19540880  1.0
  C  C68  1  0.25551996  0.72542656  0.72538330  1.0
  C  C69  1  0.24554760  0.77539691  0.77421619  1.0
  C  C70  1  0.75552794  0.27457412  0.27461727  1.0
  C  C71  1  0.74555667  0.22460301  0.22578480  1.0
  C  C72  1  0.40721398  0.88141801  0.12299607  1.0
  C  C73  1  0.09387003  0.61858983  0.37684015  1.0
  C  C74  1  0.90721186  0.11858673  0.87700879  1.0
  C  C75  1  0.59385781  0.38141038  0.62315978  1.0
  C  C76  1  0.41406422  0.84472162  0.15948302  1.0
  C  C77  1  0.08745608  0.65528947  0.34037710  1.0
  C  C78  1  0.91406068  0.15528104  0.84052063  1.0
  C  C79  1  0.58744529  0.34470977  0.65962405  1.0
  C  C80  1  0.23533921  0.82328180  0.17760801  1.0
  C  C81  1  0.26646746  0.67674587  0.32240439  1.0
  C  C82  1  0.73533567  0.17671901  0.82239299  1.0
  C  C83  1  0.76646566  0.32325666  0.67759657  1.0
  C  C84  1  0.04984791  0.83946765  0.15876820  1.0
  C  C85  1  0.45168889  0.66052320  0.34139012  1.0
  C  C86  1  0.54984280  0.16052968  0.84122895  1.0
  C  C87  1  0.95167666  0.33948030  0.65861187  1.0
  C  C88  1  0.04394671  0.87630883  0.12230851  1.0
  C  C89  1  0.45714179  0.62369632  0.37787570  1.0
  C  C90  1  0.54394304  0.12368851  0.87768864  1.0
  C  C91  1  0.95712963  0.37630805  0.62212627  1.0
  C  C92  1  0.22235688  0.89735249  0.10397933  1.0
  C  C93  1  0.27845876  0.60269621  0.39606626  1.0
  C  C94  1  0.72235620  0.10264856  0.89602088  1.0
  C  C95  1  0.77844210  0.39730444  0.60393429  1.0
  C  C96  1  0.25869214  0.71580432  0.28394025  1.0
  C  C97  1  0.24348485  0.78427566  0.21611094  1.0
  C  C98  1  0.75868579  0.28419690  0.71606073  1.0
  C  C99  1  0.74348587  0.21572569  0.78388883  1.0
  N  N100  1  0.06798033  0.76433423  0.23239294  1.0
  N  N101  1  0.43417868  0.73577907  0.26770477  1.0
  N  N102  1  0.56797534  0.23566384  0.76760540  1.0
  N  N103  1  0.93417382  0.26422368  0.73229764  1.0
  N  N104  1  0.07579612  0.72953859  0.26687647  1.0
  N  N105  1  0.42637187  0.77058866  0.23321432  1.0
  N  N106  1  0.57578970  0.27045947  0.73312186  1.0
  N  N107  1  0.92636846  0.22941356  0.76678769  1.0
  O  O108  1  0.61235092  0.43832233  0.43952379  1.0
  O  O109  1  0.88679660  0.06008348  0.06167708  1.0
  O  O110  1  0.11235254  0.56167589  0.56047694  1.0
  O  O111  1  0.38679442  0.93991617  0.93832336  1.0
  O  O112  1  0.95253137  0.44912621  0.54724629  1.0
  O  O113  1  0.54575561  0.05100903  0.95220294  1.0
  O  O114  1  0.45255087  0.55087348  0.45275286  1.0
  O  O115  1  0.04576544  0.94899124  0.04779704  1.0
  O  O116  1  0.95240164  0.43756332  0.43728693  1.0
  O  O117  1  0.54691231  0.06386977  0.06149263  1.0
  O  O118  1  0.45240623  0.56243714  0.56271020  1.0
  O  O119  1  0.04691466  0.93613050  0.93850735  1.0
  O  O120  1  0.11237575  0.54851790  0.45139256  1.0
  O  O121  1  0.38597805  0.95172245  0.04821918  1.0
  O  O122  1  0.61235920  0.45148306  0.54860695  1.0
  O  O123  1  0.88596826  0.04827644  0.95178005  1.0
  O  O124  1  0.78292939  0.53602835  0.50434150  1.0
  O  O125  1  0.71419961  0.96393781  0.99561529  1.0
  O  O126  1  0.28292676  0.46397241  0.49565783  1.0
  O  O127  1  0.21420113  0.03606414  0.00438330  1.0
