# generated using pymatgen
data_ZnH19C26N7O6
_symmetry_space_group_name_H-M   'P 1'
_cell_length_a   14.18818963
_cell_length_b   15.25661134
_cell_length_c   23.60361325
_cell_angle_alpha   90.77401475
_cell_angle_beta   89.81466720
_cell_angle_gamma   89.74445912
_symmetry_Int_Tables_number   1
_chemical_formula_structural   ZnH19C26N7O6
_chemical_formula_sum   'Zn2 H38 C52 N14 O12'
_cell_volume   5108.78057662
_cell_formula_units_Z   2
loop_
 _symmetry_equiv_pos_site_id
 _symmetry_equiv_pos_as_xyz
  1  'x, y, z'
loop_
 _atom_site_type_symbol
 _atom_site_label
 _atom_site_symmetry_multiplicity
 _atom_site_fract_x
 _atom_site_fract_y
 _atom_site_fract_z
 _atom_site_occupancy
  Zn  Zn0  1  0.61049488  0.50013271  0.50014775  1.0
  Zn  Zn1  1  0.40297765  0.50051262  0.49987632  1.0
  H  H2  1  0.44203209  0.71908278  0.96044018  1.0
  H  H3  1  0.34330472  0.06371257  0.54516708  1.0
  H  H4  1  0.60980804  0.05408528  0.45801096  1.0
  H  H5  1  0.34450819  0.93864046  0.45262874  1.0
  H  H6  1  0.07248076  0.52719128  0.40951332  1.0
  H  H7  1  0.94218139  0.38146612  0.54805978  1.0
  H  H8  1  0.07113096  0.47199745  0.58821439  1.0
  H  H9  1  0.94125505  0.61802552  0.44997245  1.0
  H  H10  1  0.32715676  0.50781125  0.39986399  1.0
  H  H11  1  0.22248901  0.53145874  0.36585646  1.0
  H  H12  1  0.68749562  0.36165373  0.54254163  1.0
  H  H13  1  0.56182811  0.28008939  0.04013129  1.0
  H  H14  1  0.79291386  0.31843516  0.56496335  1.0
  H  H15  1  0.32520362  0.49045748  0.59881746  1.0
  H  H16  1  0.21997595  0.46696905  0.63227937  1.0
  H  H17  1  0.79159952  0.68210503  0.43476992  1.0
  H  H18  1  0.68646528  0.63917803  0.45763785  1.0
  H  H19  1  0.41814687  0.78021089  0.05402429  1.0
  H  H20  1  0.43311139  0.71566315  0.11570238  1.0
  H  H21  1  0.56175604  0.28110619  0.88492577  1.0
  H  H22  1  0.57915743  0.21743434  0.94675212  1.0
  H  H23  1  0.64673820  0.53427018  0.32042406  1.0
  H  H24  1  0.64174601  0.53855409  0.21402051  1.0
  H  H25  1  0.36816142  0.58053594  0.67873759  1.0
  H  H26  1  0.63915878  0.71249203  0.54516074  1.0
  H  H27  1  0.67231968  0.81453804  0.57165163  1.0
  H  H28  1  0.28082267  0.19980247  0.57138227  1.0
  H  H29  1  0.33786606  0.29950597  0.55875511  1.0
  H  H30  1  0.64166795  0.28698713  0.45570065  1.0
  H  H31  1  0.67575806  0.18479450  0.42916920  1.0
  H  H32  1  0.33850452  0.70257125  0.44020831  1.0
  H  H33  1  0.28192071  0.80256455  0.42674897  1.0
  H  H34  1  0.36357299  0.57579373  0.78453182  1.0
  H  H35  1  0.38246023  0.39871210  0.32207003  1.0
  H  H36  1  0.65616764  0.49368775  0.67970104  1.0
  H  H37  1  0.37812150  0.40101916  0.21581588  1.0
  H  H38  1  0.65303055  0.49090840  0.78579756  1.0
  H  H39  1  0.60795370  0.94550748  0.54208265  1.0
  C  C40  1  0.49558588  0.67021434  0.48633529  1.0
  C  C41  1  0.59269504  0.51190145  0.70318742  1.0
  C  C42  1  0.43621990  0.43079509  0.23908440  1.0
  C  C43  1  0.59080823  0.51029706  0.76205599  1.0
  C  C44  1  0.50895590  0.47124115  0.20955259  1.0
  C  C45  1  0.50746231  0.53112747  0.79092961  1.0
  C  C46  1  0.55310056  0.90795867  0.52063025  1.0
  C  C47  1  0.40349714  0.09732071  0.52665461  1.0
  C  C48  1  0.55422250  0.09224248  0.47889496  1.0
  C  C49  1  0.40404502  0.90441698  0.47155979  1.0
  C  C50  1  0.56125919  0.81645806  0.51724599  1.0
  C  C51  1  0.49656521  0.33045071  0.51344626  1.0
  C  C52  1  0.40966655  0.18920927  0.53236022  1.0
  C  C53  1  0.56264340  0.18365063  0.48255724  1.0
  C  C54  1  0.40985367  0.81239214  0.46633454  1.0
  C  C55  1  0.48949713  0.76616878  0.48922782  1.0
  C  C56  1  0.49024641  0.23461900  0.51018139  1.0
  C  C57  1  0.47577970  0.95190658  0.49784028  1.0
  C  C58  1  0.47590367  0.04911409  0.50088038  1.0
  C  C59  1  0.51498150  0.47264320  0.39075084  1.0
  C  C60  1  0.51303690  0.52906554  0.60940515  1.0
  C  C61  1  0.10910139  0.51649969  0.44931256  1.0
  C  C62  1  0.58553738  0.50772070  0.23809860  1.0
  C  C63  1  0.90512430  0.43456877  0.52713178  1.0
  C  C64  1  0.10834411  0.48277353  0.54850230  1.0
  C  C65  1  0.90454543  0.56505501  0.47109612  1.0
  C  C66  1  0.20811764  0.51500235  0.45048553  1.0
  C  C67  1  0.80604153  0.43560335  0.52620742  1.0
  C  C68  1  0.20729681  0.48418204  0.54766518  1.0
  C  C69  1  0.80546006  0.56450518  0.47279879  1.0
  C  C70  1  0.05888784  0.49969363  0.49884260  1.0
  C  C71  1  0.95456269  0.49971472  0.49893691  1.0
  C  C72  1  0.52220377  0.43847974  0.87372036  1.0
  C  C73  1  0.42731154  0.55738513  0.76139321  1.0
  C  C74  1  0.47923935  0.56021375  0.12685246  1.0
  C  C75  1  0.48239560  0.59815560  0.88451666  1.0
  C  C76  1  0.52692745  0.40240696  0.11618676  1.0
  C  C77  1  0.48028557  0.58573693  0.94662412  1.0
  C  C78  1  0.52392686  0.41350792  0.05394752  1.0
  C  C79  1  0.50170459  0.50284147  0.97032854  1.0
  C  C80  1  0.50107551  0.49614199  0.03026705  1.0
  C  C81  1  0.52277938  0.42945411  0.93506383  1.0
  C  C82  1  0.47853274  0.56922293  0.06549003  1.0
  C  C83  1  0.45800942  0.65696732  0.98080477  1.0
  C  C84  1  0.58821534  0.50566875  0.29695534  1.0
  C  C85  1  0.54470539  0.34194693  0.01976157  1.0
  C  C86  1  0.45579932  0.65115798  0.04078069  1.0
  C  C87  1  0.54407961  0.34709538  0.95973846  1.0
  C  C88  1  0.42992986  0.55971724  0.70243586  1.0
  C  C89  1  0.51401415  0.46804042  0.32733825  1.0
  C  C90  1  0.51177167  0.53500775  0.67283264  1.0
  C  C91  1  0.43873343  0.42957809  0.29806268  1.0
  N  N92  1  0.50427738  0.52291322  0.85168505  1.0
  N  N93  1  0.56401384  0.27486395  0.92795018  1.0
  N  N94  1  0.63983516  0.77871650  0.54112463  1.0
  N  N95  1  0.33993665  0.23296296  0.56138992  1.0
  N  N96  1  0.64207227  0.22070923  0.45944073  1.0
  N  N97  1  0.34082080  0.76903469  0.43708056  1.0
  N  N98  1  0.50465695  0.47765432  0.14862853  1.0
  N  N99  1  0.25672036  0.49975028  0.49919741  1.0
  N  N100  1  0.75669421  0.50016847  0.49970260  1.0
  N  N101  1  0.25898455  0.53083758  0.40260095  1.0
  N  N102  1  0.75646545  0.37226471  0.55315268  1.0
  N  N103  1  0.25725534  0.46774817  0.59569166  1.0
  N  N104  1  0.75536793  0.62828267  0.44640302  1.0
  N  N105  1  0.43290233  0.72256827  0.07267212  1.0
  O  O106  1  0.57456144  0.63255322  0.49893282  1.0
  O  O107  1  0.45921814  0.62082543  0.16069129  1.0
  O  O108  1  0.46679842  0.66917459  0.86217111  1.0
  O  O109  1  0.54785289  0.33295670  0.13901840  1.0
  O  O110  1  0.42384936  0.37616572  0.52781820  1.0
  O  O111  1  0.57570677  0.36769556  0.50103402  1.0
  O  O112  1  0.42300848  0.62492121  0.47211838  1.0
  O  O113  1  0.59209132  0.49400054  0.41400149  1.0
  O  O114  1  0.43568131  0.54386976  0.58327080  1.0
  O  O115  1  0.59082799  0.50815067  0.58615380  1.0
  O  O116  1  0.43787138  0.45613753  0.41683515  1.0
  O  O117  1  0.53660805  0.37614075  0.84020605  1.0
