# generated using pymatgen
data_AlH7C9NO6
_symmetry_space_group_name_H-M   'P 1'
_cell_length_a   6.67430263
_cell_length_b   8.88254325
_cell_length_c   15.23051348
_cell_angle_alpha   106.80621646
_cell_angle_beta   93.18391365
_cell_angle_gamma   105.09856842
_symmetry_Int_Tables_number   1
_chemical_formula_structural   AlH7C9NO6
_chemical_formula_sum   'Al2 H14 C18 N2 O12'
_cell_volume   826.12611002
_cell_formula_units_Z   2
loop_
 _symmetry_equiv_pos_site_id
 _symmetry_equiv_pos_as_xyz
  1  'x, y, z'
loop_
 _atom_site_type_symbol
 _atom_site_label
 _atom_site_symmetry_multiplicity
 _atom_site_fract_x
 _atom_site_fract_y
 _atom_site_fract_z
 _atom_site_occupancy
  Al  Al0  1  0.50416576  0.00409346  0.50162783  1.0
  Al  Al1  1  0.00253114  0.99913695  0.50147696  1.0
  H  H2  1  0.26294743  0.06629195  0.40055682  1.0
  H  H3  1  0.71160229  0.87820892  0.57484998  1.0
  H  H4  1  0.14158712  0.39193229  0.95340726  1.0
  H  H5  1  0.81388928  0.50643246  0.06400519  1.0
  H  H6  1  0.34812153  0.81890530  0.21953274  1.0
  H  H7  1  0.25117995  0.65712007  0.05254983  1.0
  H  H8  1  0.69876421  0.34686509  0.75428251  1.0
  H  H9  1  0.79424383  0.52720976  0.91825283  1.0
  H  H10  1  0.22609729  0.37973051  0.51692944  1.0
  H  H11  1  0.79205660  0.61905880  0.48228362  1.0
  H  H12  1  0.95823800  0.14212660  0.71543259  1.0
  H  H13  1  0.89116969  0.22807061  0.82437891  1.0
  H  H14  1  0.00514204  0.74920931  0.30248861  1.0
  H  H15  1  0.04817943  0.61057384  0.20297230  1.0
  C  C16  1  0.67563918  0.85444681  0.33554091  1.0
  C  C17  1  0.85113495  0.27923476  0.49355934  1.0
  C  C18  1  0.33143107  0.15616942  0.66451677  1.0
  C  C19  1  0.16103353  0.72133334  0.50948310  1.0
  C  C20  1  0.11026781  0.54870736  0.50798346  1.0
  C  C21  1  0.90464130  0.45130569  0.49382666  1.0
  C  C22  1  0.37057237  0.26504206  0.76071783  1.0
  C  C23  1  0.63313738  0.75672503  0.23676740  1.0
  C  C24  1  0.20714748  0.28222394  0.81635249  1.0
  C  C25  1  0.26546414  0.38385594  0.90987720  1.0
  C  C26  1  0.77106881  0.66979136  0.19228669  1.0
  C  C27  1  0.71157034  0.57658463  0.09755594  1.0
  C  C28  1  0.44723198  0.74748442  0.18448847  1.0
  C  C29  1  0.39223155  0.65611905  0.09171667  1.0
  C  C30  1  0.57901706  0.35565167  0.79977425  1.0
  C  C31  1  0.63214568  0.45492903  0.89104836  1.0
  C  C32  1  0.47299852  0.46785739  0.94811262  1.0
  C  C33  1  0.52631078  0.56801359  0.04693986  1.0
  N  N34  1  0.00137028  0.20185891  0.78440002  1.0
  N  N35  1  0.95055132  0.66758574  0.23823826  1.0
  O  O36  1  0.52169654  0.88642195  0.37571050  1.0
  O  O37  1  0.00409328  0.21823228  0.50294568  1.0
  O  O38  1  0.13964150  0.08941777  0.62514426  1.0
  O  O39  1  0.35232328  0.80223598  0.51999326  1.0
  O  O40  1  0.48807395  0.13023531  0.62453493  1.0
  O  O41  1  0.00481325  0.77952290  0.49982725  1.0
  O  O42  1  0.86666111  0.90367112  0.37608942  1.0
  O  O43  1  0.65903352  0.20231640  0.48403816  1.0
  O  O44  1  0.25681972  0.03285054  0.45568944  1.0
  O  O45  1  0.74667300  0.96540429  0.54696583  1.0
  O  O46  1  0.28000207  0.49725338  0.52070142  1.0
  O  O47  1  0.73529184  0.50242843  0.48013311  1.0
