# generated using pymatgen
data_CdH8(C7O2)2
_symmetry_space_group_name_H-M   'P 1'
_cell_length_a   8.74632090
_cell_length_b   24.62374974
_cell_length_c   46.56855972
_cell_angle_alpha   90.00015823
_cell_angle_beta   90.00026086
_cell_angle_gamma   89.99983336
_symmetry_Int_Tables_number   1
_chemical_formula_structural   CdH8(C7O2)2
_chemical_formula_sum   'Cd12 H96 C168 O48'
_cell_volume   10029.34110582
_cell_formula_units_Z   12
loop_
 _symmetry_equiv_pos_site_id
 _symmetry_equiv_pos_as_xyz
  1  'x, y, z'
loop_
 _atom_site_type_symbol
 _atom_site_label
 _atom_site_symmetry_multiplicity
 _atom_site_fract_x
 _atom_site_fract_y
 _atom_site_fract_z
 _atom_site_occupancy
  Cd  Cd0  1  0.08757418  0.53773033  0.15087947  1.0
  Cd  Cd1  1  0.58758164  0.96226950  0.34911933  1.0
  Cd  Cd2  1  0.41242308  0.46226440  0.15088063  1.0
  Cd  Cd3  1  0.91243059  0.03773306  0.34911750  1.0
  Cd  Cd4  1  0.91241431  0.46226881  0.84911932  1.0
  Cd  Cd5  1  0.41240571  0.03773329  0.65088290  1.0
  Cd  Cd6  1  0.58757913  0.53773433  0.84911859  1.0
  Cd  Cd7  1  0.08758190  0.96226080  0.65088258  1.0
  Cd  Cd8  1  0.74998695  0.49999983  0.18249054  1.0
  Cd  Cd9  1  0.25000945  0.99999862  0.31750690  1.0
  Cd  Cd10  1  0.25000039  0.49999931  0.81750847  1.0
  Cd  Cd11  1  0.74999894  0.99999850  0.68248984  1.0
  H  H12  1  0.00595395  0.45327761  0.24830369  1.0
  H  H13  1  0.03163520  0.37788259  0.28350873  1.0
  H  H14  1  0.22829236  0.27744513  0.21727972  1.0
  H  H15  1  0.21258903  0.35427454  0.18304251  1.0
  H  H16  1  0.94114841  0.29569199  0.29756082  1.0
  H  H17  1  0.94125887  0.20978720  0.32567951  1.0
  H  H18  1  0.34141318  0.15627767  0.28059944  1.0
  H  H19  1  0.34779004  0.24261457  0.25331028  1.0
  H  H20  1  0.54568598  0.54845981  0.08704219  1.0
  H  H21  1  0.54377139  0.54821804  0.03372617  1.0
  H  H22  1  0.83633397  0.41802860  0.99419782  1.0
  H  H23  1  0.84063112  0.41909978  0.94070165  1.0
  H  H24  1  0.50595218  0.04672311  0.25169667  1.0
  H  H25  1  0.53163996  0.12211486  0.21649015  1.0
  H  H26  1  0.72829447  0.22255576  0.28271911  1.0
  H  H27  1  0.71258573  0.14572597  0.31695717  1.0
  H  H28  1  0.44115684  0.20430584  0.20243777  1.0
  H  H29  1  0.44126476  0.29021104  0.17431972  1.0
  H  H30  1  0.84141162  0.34372149  0.21940142  1.0
  H  H31  1  0.84778756  0.25738499  0.24669080  1.0
  H  H32  1  0.04568260  0.95154007  0.41295808  1.0
  H  H33  1  0.04377501  0.95178144  0.46627410  1.0
  H  H34  1  0.33633179  0.08196870  0.50580304  1.0
  H  H35  1  0.34062567  0.08089629  0.55929858  1.0
  H  H36  1  0.49404108  0.54672210  0.24830418  1.0
  H  H37  1  0.46836183  0.62211730  0.28350953  1.0
  H  H38  1  0.27170650  0.72255522  0.21727942  1.0
  H  H39  1  0.28741129  0.64572239  0.18304233  1.0
  H  H40  1  0.55884885  0.70430786  0.29755966  1.0
  H  H41  1  0.55874136  0.79021402  0.32567741  1.0
  H  H42  1  0.15859406  0.84372465  0.28059665  1.0
  H  H43  1  0.15220855  0.75738639  0.25330864  1.0
  H  H44  1  0.95432563  0.45153854  0.08704143  1.0
  H  H45  1  0.95622979  0.45178247  0.03372521  1.0
  H  H46  1  0.66367670  0.58197204  0.99419744  1.0
  H  H47  1  0.65939083  0.58090017  0.94070104  1.0
  H  H48  1  0.99403597  0.95327732  0.25169325  1.0
  H  H49  1  0.96836335  0.87788092  0.21648917  1.0
  H  H50  1  0.77170244  0.77744686  0.28271911  1.0
  H  H51  1  0.78739599  0.85428089  0.31695493  1.0
  H  H52  1  0.05884852  0.79569078  0.20243718  1.0
  H  H53  1  0.05873191  0.70978706  0.17431815  1.0
  H  H54  1  0.65858718  0.65627877  0.21940007  1.0
  H  H55  1  0.65221648  0.74261460  0.24668936  1.0
  H  H56  1  0.45431870  0.04846050  0.41295824  1.0
  H  H57  1  0.45623329  0.04821454  0.46627426  1.0
  H  H58  1  0.16367176  0.91802707  0.50580208  1.0
  H  H59  1  0.15938374  0.91909651  0.55929826  1.0
  H  H60  1  0.99406426  0.54672600  0.75169467  1.0
  H  H61  1  0.96837387  0.62212061  0.71649028  1.0
  H  H62  1  0.77170756  0.72255360  0.78272122  1.0
  H  H63  1  0.78742576  0.64572135  0.81695779  1.0
  H  H64  1  0.05884808  0.70430674  0.70243948  1.0
  H  H65  1  0.05874220  0.79021194  0.67432122  1.0
  H  H66  1  0.65858674  0.84372147  0.71940128  1.0
  H  H67  1  0.65220531  0.75738295  0.74668959  1.0
  H  H68  1  0.45431851  0.45153851  0.91295811  1.0
  H  H69  1  0.45622967  0.45178394  0.96627369  1.0
  H  H70  1  0.16367281  0.58197419  0.00580097  1.0
  H  H71  1  0.15938938  0.58090626  0.05929693  1.0
  H  H72  1  0.49405803  0.95327521  0.74830298  1.0
  H  H73  1  0.46836224  0.87788591  0.78351079  1.0
  H  H74  1  0.27170545  0.77744378  0.71728247  1.0
  H  H75  1  0.28742676  0.85427114  0.68304313  1.0
  H  H76  1  0.55884651  0.79569411  0.79756317  1.0
  H  H77  1  0.55873744  0.70978769  0.82568079  1.0
  H  H78  1  0.15857686  0.65628171  0.78060145  1.0
  H  H79  1  0.15219864  0.74261983  0.75331314  1.0
  H  H80  1  0.95432532  0.04846151  0.58704329  1.0
  H  H81  1  0.95623062  0.04821933  0.53372685  1.0
  H  H82  1  0.66366470  0.91803125  0.49419854  1.0
  H  H83  1  0.65937997  0.91910244  0.44070236  1.0
  H  H84  1  0.50595084  0.45327582  0.75169547  1.0
  H  H85  1  0.53163581  0.37788062  0.71649056  1.0
  H  H86  1  0.72829571  0.27744554  0.78272109  1.0
  H  H87  1  0.71259092  0.35427756  0.81695776  1.0
  H  H88  1  0.44115907  0.29569493  0.70243784  1.0
  H  H89  1  0.44126199  0.20978958  0.67431988  1.0
  H  H90  1  0.84140471  0.15627571  0.71940258  1.0
  H  H91  1  0.84778451  0.24261275  0.74669144  1.0
  H  H92  1  0.04568115  0.54846100  0.91295715  1.0
  H  H93  1  0.04377242  0.54821870  0.96627316  1.0
  H  H94  1  0.33633466  0.41803075  0.00580200  1.0
  H  H95  1  0.34063196  0.41910587  0.05929839  1.0
  H  H96  1  0.00594337  0.04672426  0.74830597  1.0
  H  H97  1  0.03162628  0.12211984  0.78351026  1.0
  H  H98  1  0.22829291  0.22255147  0.71727990  1.0
  H  H99  1  0.21259135  0.14571865  0.68304386  1.0
  H  H100  1  0.94115369  0.20430470  0.79756354  1.0
  H  H101  1  0.94125429  0.29021045  0.82568086  1.0
  H  H102  1  0.34139216  0.34372565  0.78059915  1.0
  H  H103  1  0.34777544  0.25738900  0.75330965  1.0
  H  H104  1  0.54568465  0.95153904  0.58704335  1.0
  H  H105  1  0.54377463  0.95178338  0.53372669  1.0
  H  H106  1  0.83633159  0.08197207  0.49419951  1.0
  H  H107  1  0.84062647  0.08090263  0.44070354  1.0
  C  C108  1  0.09190370  0.45314949  0.19241495  1.0
  C  C109  1  0.10794403  0.40848128  0.21353969  1.0
  C  C110  1  0.05617858  0.41464291  0.24188133  1.0
  C  C111  1  0.06957777  0.37211491  0.26140821  1.0
  C  C112  1  0.13268784  0.32193403  0.25302100  1.0
  C  C113  1  0.18318303  0.31634218  0.22445861  1.0
  C  C114  1  0.17297147  0.35898673  0.20507410  1.0
  C  C115  1  0.14142222  0.27475564  0.27254208  1.0
  C  C116  1  0.03095436  0.26566535  0.29401681  1.0
  C  C117  1  0.02961247  0.21749482  0.30969194  1.0
  C  C118  1  0.13868472  0.17707645  0.30429154  1.0
  C  C119  1  0.25470121  0.18721818  0.28422720  1.0
  C  C120  1  0.25642841  0.23539236  0.26875392  1.0
  C  C121  1  0.12721971  0.12215066  0.31798871  1.0
  C  C122  1  0.63498061  0.52745765  0.07508178  1.0
  C  C123  1  0.63569827  0.52770246  0.04525887  1.0
  C  C124  1  0.79976745  0.45423063  0.98259043  1.0
  C  C125  1  0.80090128  0.45434589  0.95272221  1.0
  C  C126  1  0.59190214  0.04685317  0.30758570  1.0
  C  C127  1  0.60794273  0.09151893  0.28646012  1.0
  C  C128  1  0.55617893  0.08535694  0.25811822  1.0
  C  C129  1  0.56958187  0.12788412  0.23859028  1.0
  C  C130  1  0.63269516  0.17806656  0.24697776  1.0
  C  C131  1  0.68318529  0.18365836  0.27554019  1.0
  C  C132  1  0.67297340  0.14101544  0.29492598  1.0
  C  C133  1  0.64142526  0.22524453  0.22745647  1.0
  C  C134  1  0.53096252  0.23433251  0.20598207  1.0
  C  C135  1  0.52961757  0.28250425  0.19030629  1.0
  C  C136  1  0.63869076  0.32292251  0.19570873  1.0
  C  C137  1  0.75470096  0.31278310  0.21577231  1.0
  C  C138  1  0.75643465  0.26460648  0.23124687  1.0
  C  C139  1  0.62722040  0.37784790  0.18201175  1.0
  C  C140  1  0.13497849  0.97253970  0.42491749  1.0
  C  C141  1  0.13570144  0.97229489  0.45474083  1.0
  C  C142  1  0.29976584  0.04576711  0.51740976  1.0
  C  C143  1  0.30089811  0.04565023  0.54727841  1.0
  C  C144  1  0.40809227  0.54684830  0.19241537  1.0
  C  C145  1  0.39205245  0.59151703  0.21354102  1.0
  C  C146  1  0.44381630  0.58535473  0.24188269  1.0
  C  C147  1  0.43041530  0.62788568  0.26140963  1.0
  C  C148  1  0.36729931  0.67806651  0.25302114  1.0
  C  C149  1  0.31681485  0.68365538  0.22445851  1.0
  C  C150  1  0.32702252  0.64101234  0.20507437  1.0
  C  C151  1  0.35857568  0.72524622  0.27254164  1.0
  C  C152  1  0.46903949  0.73433460  0.29401562  1.0
  C  C153  1  0.47038862  0.78250602  0.30969126  1.0
  C  C154  1  0.36131167  0.82292558  0.30428931  1.0
  C  C155  1  0.24530155  0.81278578  0.28422593  1.0
  C  C156  1  0.24356712  0.76460786  0.26875172  1.0
  C  C157  1  0.37278729  0.87785063  0.31798594  1.0
  C  C158  1  0.86502728  0.47253982  0.07508227  1.0
  C  C159  1  0.86430662  0.47229567  0.04525893  1.0
  C  C160  1  0.70024294  0.54576833  0.98259046  1.0
  C  C161  1  0.69911182  0.54565373  0.95272202  1.0
  C  C162  1  0.90809880  0.95315364  0.30758178  1.0
  C  C163  1  0.89204512  0.90848331  0.28645847  1.0
  C  C164  1  0.94381852  0.91464596  0.25811534  1.0
  C  C165  1  0.93042083  0.87211340  0.23858990  1.0
  C  C166  1  0.86731117  0.82193344  0.24697683  1.0
  C  C167  1  0.81681259  0.81634422  0.27554006  1.0
  C  C168  1  0.82701808  0.85899049  0.29492249  1.0
  C  C169  1  0.85858174  0.77475496  0.22745654  1.0
  C  C170  1  0.96904054  0.76566444  0.20598136  1.0
  C  C171  1  0.97038168  0.71749464  0.19030551  1.0
  C  C172  1  0.86130862  0.67707682  0.19570715  1.0
  C  C173  1  0.74529776  0.68721714  0.21577150  1.0
  C  C174  1  0.74357245  0.73539262  0.23124571  1.0
  C  C175  1  0.87277064  0.62215013  0.18200924  1.0
  C  C176  1  0.36502310  0.02745850  0.42491733  1.0
  C  C177  1  0.36431116  0.02770021  0.45474110  1.0
  C  C178  1  0.20023684  0.95422913  0.51740909  1.0
  C  C179  1  0.19910529  0.95434251  0.54727774  1.0
  C  C180  1  0.90810651  0.54684680  0.80758277  1.0
  C  C181  1  0.89206161  0.59151826  0.78645932  1.0
  C  C182  1  0.94383277  0.58535541  0.75811682  1.0
  C  C183  1  0.93042558  0.62788748  0.73859058  1.0
  C  C184  1  0.86730751  0.67806551  0.74697844  1.0
  C  C185  1  0.81681460  0.68365534  0.77554147  1.0
  C  C186  1  0.82703645  0.64101159  0.79492448  1.0
  C  C187  1  0.85857770  0.72524512  0.72745801  1.0
  C  C188  1  0.96904213  0.73433420  0.70598306  1.0
  C  C189  1  0.97038402  0.78250554  0.69030857  1.0
  C  C190  1  0.86131292  0.82292228  0.69570983  1.0
  C  C191  1  0.74529528  0.81278177  0.71577310  1.0
  C  C192  1  0.74356579  0.76460556  0.73124702  1.0
  C  C193  1  0.87278021  0.87784970  0.68201394  1.0
  C  C194  1  0.36501816  0.47253986  0.92491701  1.0
  C  C195  1  0.36430851  0.47229708  0.95474121  1.0
  C  C196  1  0.20023705  0.54577175  0.01740815  1.0
  C  C197  1  0.19911008  0.54565893  0.04727658  1.0
  C  C198  1  0.40810235  0.95314759  0.69241524  1.0
  C  C199  1  0.39205833  0.90847980  0.71354061  1.0
  C  C200  1  0.44382556  0.91464382  0.74188229  1.0
  C  C201  1  0.43041690  0.87211502  0.76141088  1.0
  C  C202  1  0.36730247  0.82193583  0.75302361  1.0
  C  C203  1  0.31681349  0.81634362  0.72446140  1.0
  C  C204  1  0.32703223  0.85898329  0.70507582  1.0
  C  C205  1  0.35857466  0.77475907  0.77254533  1.0
  C  C206  1  0.46903283  0.76566623  0.79401909  1.0
  C  C207  1  0.47038350  0.71749732  0.80969400  1.0
  C  C208  1  0.36130573  0.67707785  0.80429200  1.0
  C  C209  1  0.24528753  0.68722213  0.78422992  1.0
  C  C210  1  0.24355498  0.73539794  0.76875643  1.0
  C  C211  1  0.37277723  0.62215123  0.81798897  1.0
  C  C212  1  0.86502143  0.02745944  0.57508323  1.0
  C  C213  1  0.86430763  0.02770384  0.54526032  1.0
  C  C214  1  0.70023636  0.95423284  0.48259140  1.0
  C  C215  1  0.69910638  0.95434850  0.45272318  1.0
  C  C216  1  0.59189393  0.45315206  0.80758364  1.0
  C  C217  1  0.60794290  0.40848170  0.78645971  1.0
  C  C218  1  0.55617562  0.41464278  0.75811761  1.0
  C  C219  1  0.56958005  0.37211265  0.73859110  1.0
  C  C220  1  0.63269375  0.32193263  0.74697915  1.0
  C  C221  1  0.68318278  0.31634417  0.77554179  1.0
  C  C222  1  0.67297169  0.35898720  0.79492571  1.0
  C  C223  1  0.64142195  0.27475332  0.72745801  1.0
  C  C224  1  0.53096043  0.26566779  0.70598296  1.0
  C  C225  1  0.52961473  0.21749515  0.69030711  1.0
  C  C226  1  0.63868482  0.17707640  0.69570970  1.0
  C  C227  1  0.75469723  0.18721458  0.71577350  1.0
  C  C228  1  0.75642937  0.23539209  0.73124814  1.0
  C  C229  1  0.62721034  0.12215013  0.68201372  1.0
  C  C230  1  0.13497950  0.52745931  0.92491717  1.0
  C  C231  1  0.13569444  0.52770428  0.95474051  1.0
  C  C232  1  0.29976384  0.45423447  0.01740898  1.0
  C  C233  1  0.30090182  0.45434947  0.04727742  1.0
  C  C234  1  0.09189426  0.04684468  0.69241852  1.0
  C  C235  1  0.10794566  0.09151543  0.71354161  1.0
  C  C236  1  0.05617454  0.08535481  0.74188452  1.0
  C  C237  1  0.06958138  0.12788737  0.76141018  1.0
  C  C238  1  0.13268875  0.17806529  0.75302240  1.0
  C  C239  1  0.18318504  0.18365370  0.72445937  1.0
  C  C240  1  0.17297498  0.14100824  0.70507673  1.0
  C  C241  1  0.14141589  0.22524662  0.77254269  1.0
  C  C242  1  0.03095367  0.23433227  0.79401829  1.0
  C  C243  1  0.02960681  0.28250328  0.80969371  1.0
  C  C244  1  0.13867644  0.32292313  0.80429165  1.0
  C  C245  1  0.25468730  0.31278565  0.78422751  1.0
  C  C246  1  0.25641833  0.26460854  0.76875330  1.0
  C  C247  1  0.12720412  0.37784819  0.81798869  1.0
  C  C248  1  0.63498597  0.97254105  0.57508254  1.0
  C  C249  1  0.63569905  0.97229852  0.54526027  1.0
  C  C250  1  0.79976766  0.04577164  0.48259228  1.0
  C  C251  1  0.80090149  0.04565622  0.45272384  1.0
  C  C252  1  0.75000108  0.49999886  0.12199114  1.0
  C  C253  1  0.75000413  0.49999918  0.09023280  1.0
  C  C254  1  0.75000226  0.50000025  0.02981780  1.0
  C  C255  1  0.75000252  0.50000033  0.99812775  1.0
  C  C256  1  0.75000179  0.49999896  0.93749049  1.0
  C  C257  1  0.75000712  0.49999968  0.90532479  1.0
  C  C258  1  0.25000057  0.00000120  0.37800750  1.0
  C  C259  1  0.25000256  0.99999967  0.40976657  1.0
  C  C260  1  0.25000557  0.99999658  0.47018244  1.0
  C  C261  1  0.25000367  0.99999747  0.50187227  1.0
  C  C262  1  0.24999983  0.99999723  0.56250953  1.0
  C  C263  1  0.25000594  0.99999609  0.59467501  1.0
  C  C264  1  0.24999998  0.49999987  0.87800765  1.0
  C  C265  1  0.24999922  0.49999955  0.90976620  1.0
  C  C266  1  0.25000109  0.50000214  0.97018164  1.0
  C  C267  1  0.25000311  0.50000124  0.00187341  1.0
  C  C268  1  0.25000499  0.50000506  0.06250874  1.0
  C  C269  1  0.25000881  0.50000311  0.09467400  1.0
  C  C270  1  0.75000507  0.99999834  0.62199280  1.0
  C  C271  1  0.75000422  0.00000028  0.59023223  1.0
  C  C272  1  0.75000235  0.00000134  0.52981894  1.0
  C  C273  1  0.75000311  0.00000126  0.49812824  1.0
  C  C274  1  0.75000466  0.00000232  0.43749141  1.0
  C  C275  1  0.75001113  0.00000223  0.40532571  1.0
  O  O276  1  0.00912251  0.49465501  0.19832494  1.0
  O  O277  1  0.16127316  0.44960201  0.16818618  1.0
  O  O278  1  0.01799461  0.11463729  0.33577169  1.0
  O  O279  1  0.22673818  0.08743126  0.31007567  1.0
  O  O280  1  0.87317995  0.48877918  0.13570087  1.0
  O  O281  1  0.81463659  0.45984367  0.89291449  1.0
  O  O282  1  0.50912686  0.00534652  0.30167478  1.0
  O  O283  1  0.66126644  0.05040140  0.33181496  1.0
  O  O284  1  0.51800166  0.38536261  0.16422804  1.0
  O  O285  1  0.72673534  0.41256882  0.18992703  1.0
  O  O286  1  0.37318472  0.01122035  0.36429960  1.0
  O  O287  1  0.31462234  0.04015325  0.60708572  1.0
  O  O288  1  0.49087246  0.50534403  0.19832644  1.0
  O  O289  1  0.33872336  0.55039525  0.16818784  1.0
  O  O290  1  0.48200368  0.88536450  0.33577074  1.0
  O  O291  1  0.27327550  0.91257242  0.31007092  1.0
  O  O292  1  0.62681569  0.51121780  0.13570035  1.0
  O  O293  1  0.68538077  0.54015523  0.89291406  1.0
  O  O294  1  0.99088651  0.99465498  0.30167120  1.0
  O  O295  1  0.83872708  0.94960879  0.33181032  1.0
  O  O296  1  0.98198438  0.61463452  0.16422475  1.0
  O  O297  1  0.77325589  0.58743210  0.18992525  1.0
  O  O298  1  0.12682226  0.98878077  0.36429785  1.0
  O  O299  1  0.18538822  0.95983818  0.60708633  1.0
  O  O300  1  0.99088427  0.50534535  0.80167257  1.0
  O  O301  1  0.83873019  0.55039429  0.83181132  1.0
  O  O302  1  0.98199845  0.88536145  0.66422968  1.0
  O  O303  1  0.77327318  0.91257072  0.68992935  1.0
  O  O304  1  0.12681769  0.51122037  0.86429793  1.0
  O  O305  1  0.18538848  0.54016115  0.10708538  1.0
  O  O306  1  0.49087649  0.99465383  0.69832551  1.0
  O  O307  1  0.33873805  0.94959733  0.66818641  1.0
  O  O308  1  0.48199026  0.61463693  0.83577226  1.0
  O  O309  1  0.27326230  0.58743153  0.81007327  1.0
  O  O310  1  0.62682320  0.98878366  0.63570156  1.0
  O  O311  1  0.68538444  0.95984630  0.39291458  1.0
  O  O312  1  0.50911374  0.49465510  0.80167214  1.0
  O  O313  1  0.66126055  0.44960591  0.83181246  1.0
  O  O314  1  0.51798137  0.11463667  0.66423064  1.0
  O  O315  1  0.72672099  0.08742956  0.68992744  1.0
  O  O316  1  0.37318194  0.48878052  0.86429888  1.0
  O  O317  1  0.31462258  0.45984513  0.10708452  1.0
  O  O318  1  0.00911113  0.00534335  0.69832974  1.0
  O  O319  1  0.16126370  0.05038872  0.66818869  1.0
  O  O320  1  0.01796638  0.38536340  0.83576974  1.0
  O  O321  1  0.22672345  0.41256867  0.81007741  1.0
  O  O322  1  0.87318795  0.01121430  0.63570116  1.0
  O  O323  1  0.81463685  0.04015771  0.39291504  1.0
