# generated using pymatgen
data_Zn2H28C57N4(O5F4)3
_symmetry_space_group_name_H-M   'P 1'
_cell_length_a   9.54318426
_cell_length_b   10.78986036
_cell_length_c   28.04297558
_cell_angle_alpha   90.72705681
_cell_angle_beta   90.29757636
_cell_angle_gamma   90.50339036
_symmetry_Int_Tables_number   1
_chemical_formula_structural   Zn2H28C57N4(O5F4)3
_chemical_formula_sum   'Zn2 H28 C57 N4 O15 F12'
_cell_volume   2887.19013611
_cell_formula_units_Z   1
loop_
 _symmetry_equiv_pos_site_id
 _symmetry_equiv_pos_as_xyz
  1  'x, y, z'
loop_
 _atom_site_type_symbol
 _atom_site_label
 _atom_site_symmetry_multiplicity
 _atom_site_fract_x
 _atom_site_fract_y
 _atom_site_fract_z
 _atom_site_occupancy
  Zn  Zn0  1  0.64828941  0.50534070  0.50026839  1.0
  Zn  Zn1  1  0.35608748  0.49679370  0.49999522  1.0
  H  H2  1  0.71248624  0.53378033  0.65191741  1.0
  H  H3  1  0.49271925  0.19712506  0.87120959  1.0
  H  H4  1  0.25433812  0.42178563  0.26187638  1.0
  H  H5  1  0.50219458  0.18365665  0.95795813  1.0
  H  H6  1  0.26567247  0.51029491  0.74083000  1.0
  H  H7  1  0.70478254  0.51866456  0.34472178  1.0
  H  H8  1  0.50193372  0.81364803  0.97205861  1.0
  H  H9  1  0.71582397  0.11919718  0.53459179  1.0
  H  H10  1  0.33020986  0.09281589  0.45542895  1.0
  H  H11  1  0.73107221  0.88532216  0.48880952  1.0
  H  H12  1  0.54765577  0.90913702  0.42531214  1.0
  H  H13  1  0.68387430  0.90664382  0.54896390  1.0
  H  H14  1  0.36784865  0.88046936  0.43790963  1.0
  H  H15  1  0.48961071  0.09537454  0.57514905  1.0
  H  H16  1  0.32980477  0.12200561  0.54421838  1.0
  H  H17  1  0.13701963  0.41527854  0.56915351  1.0
  H  H18  1  0.89618101  0.47042556  0.57469959  1.0
  H  H19  1  0.10566496  0.31366231  0.51985731  1.0
  H  H20  1  0.86311336  0.33556388  0.53929846  1.0
  H  H21  1  0.11205074  0.54465683  0.42899688  1.0
  H  H22  1  0.86622353  0.50106652  0.42620750  1.0
  H  H23  1  0.13237216  0.38545344  0.43945084  1.0
  H  H24  1  0.88658350  0.35523825  0.45309591  1.0
  H  H25  1  0.14418137  0.69305831  0.49408399  1.0
  H  H26  1  0.89901433  0.68190190  0.47577312  1.0
  H  H27  1  0.61034370  0.85889475  0.85008637  1.0
  H  H28  1  0.84633005  0.54241194  0.71928942  1.0
  H  H29  1  0.69145900  0.15405672  0.14467463  1.0
  C  C30  1  0.50972777  0.26328850  0.49881881  1.0
  C  C31  1  0.49607036  0.50746244  0.59249094  1.0
  C  C32  1  0.50571011  0.73817723  0.49914404  1.0
  C  C33  1  0.49400870  0.48956791  0.40703474  1.0
  C  C34  1  0.49396948  0.39910998  0.81772996  1.0
  C  C35  1  0.49188592  0.63096665  0.82267538  1.0
  C  C36  1  0.36489424  0.51528182  0.72189292  1.0
  C  C37  1  0.36566723  0.51221829  0.67219959  1.0
  C  C38  1  0.61499184  0.52782760  0.67199047  1.0
  C  C39  1  0.61894241  0.53066117  0.72183545  1.0
  C  C40  1  0.49081903  0.52277266  0.74646791  1.0
  C  C41  1  0.49670921  0.50719322  0.89787486  1.0
  C  C42  1  0.49471614  0.39596462  0.87029597  1.0
  C  C43  1  0.49477721  0.28207574  0.89269041  1.0
  C  C44  1  0.50220556  0.62397179  0.87513419  1.0
  C  C45  1  0.49022904  0.51662931  0.64585195  1.0
  C  C46  1  0.48521917  0.47730508  0.35373470  1.0
  C  C47  1  0.51325005  0.37943261  0.02340874  1.0
  C  C48  1  0.46039941  0.60455115  0.02719178  1.0
  C  C49  1  0.48333534  0.48912960  0.05074542  1.0
  C  C50  1  0.54995869  0.27384876  0.04926021  1.0
  C  C51  1  0.55089207  0.26766792  0.09907029  1.0
  C  C52  1  0.51134907  0.37267383  0.12498249  1.0
  C  C53  1  0.47642080  0.48403911  0.10162464  1.0
  C  C54  1  0.43436383  0.58901707  0.12925861  1.0
  C  C55  1  0.42846308  0.58488815  0.18182698  1.0
  C  C56  1  0.50740701  0.36369436  0.17727458  1.0
  C  C57  1  0.35332668  0.44356957  0.27966506  1.0
  C  C58  1  0.36055748  0.44877958  0.32910163  1.0
  C  C59  1  0.60600027  0.49794920  0.32662697  1.0
  C  C60  1  0.59895923  0.49396057  0.27736000  1.0
  C  C61  1  0.47337269  0.46791082  0.25338395  1.0
  C  C62  1  0.50330737  0.38232656  0.97130054  1.0
  C  C63  1  0.49496971  0.50055291  0.94882233  1.0
  C  C64  1  0.48405316  0.61317010  0.97590985  1.0
  C  C65  1  0.50059794  0.27517248  0.94240110  1.0
  C  C66  1  0.51281641  0.73270809  0.90274326  1.0
  C  C67  1  0.41482719  0.70370104  0.05535686  1.0
  C  C68  1  0.39973635  0.69647231  0.10516500  1.0
  C  C69  1  0.49883950  0.72610353  0.95247429  1.0
  C  C70  1  0.66312233  0.07070945  0.50474098  1.0
  C  C71  1  0.44169788  0.06850332  0.45376207  1.0
  C  C72  1  0.65515426  0.93057992  0.51226660  1.0
  C  C73  1  0.46304968  0.92806002  0.45072726  1.0
  C  C74  1  0.43110250  0.07517988  0.54206327  1.0
  C  C75  1  0.51508754  0.12214021  0.49862009  1.0
  C  C76  1  0.50757487  0.87963375  0.50025947  1.0
  C  C77  1  0.40704498  0.93516880  0.53744045  1.0
  C  C78  1  0.08061639  0.40476018  0.53525797  1.0
  C  C79  1  0.92166652  0.42332465  0.54103878  1.0
  C  C80  1  0.08799295  0.62366587  0.51520126  1.0
  C  C81  1  0.92657660  0.62931009  0.50779308  1.0
  C  C82  1  0.08047492  0.46924496  0.45265021  1.0
  C  C83  1  0.91987935  0.45278958  0.45512159  1.0
  C  C84  1  0.54566325  0.85789531  0.88272554  1.0
  C  C85  1  0.75766491  0.54029252  0.74524795  1.0
  C  C86  1  0.59420007  0.14829315  0.12278177  1.0
  N  N87  1  0.48862861  0.51799584  0.79765102  1.0
  N  N88  1  0.46887541  0.47068668  0.20229216  1.0
  N  N89  1  0.13733051  0.49827526  0.50126276  1.0
  N  N90  1  0.86824754  0.50294363  0.50175128  1.0
  O  O91  1  0.62151950  0.32124935  0.51028893  1.0
  O  O92  1  0.39207942  0.31042354  0.48884096  1.0
  O  O93  1  0.61168589  0.53619231  0.57302130  1.0
  O  O94  1  0.38596611  0.46945340  0.57100431  1.0
  O  O95  1  0.61931041  0.68654265  0.48671194  1.0
  O  O96  1  0.39216782  0.68360101  0.50936458  1.0
  O  O97  1  0.61248211  0.47128724  0.42647595  1.0
  O  O98  1  0.38197285  0.52019638  0.42839026  1.0
  O  O99  1  0.49550660  0.30631209  0.79186674  1.0
  O  O100  1  0.53664233  0.26754252  0.19841894  1.0
  O  O101  1  0.48308370  0.72936299  0.80095612  1.0
  O  O102  1  0.39289451  0.67107745  0.20775327  1.0
  O  O103  1  0.51008917  0.95423472  0.90276670  1.0
  O  O104  1  0.78081773  0.54600083  0.78826284  1.0
  O  O105  1  0.53151748  0.05097720  0.11546311  1.0
  F  F106  1  0.38007581  0.81326534  0.03611833  1.0
  F  F107  1  0.35249447  0.79761631  0.12742336  1.0
  F  F108  1  0.71607479  0.51706532  0.25137626  1.0
  F  F109  1  0.74590629  0.09580979  0.46394120  1.0
  F  F110  1  0.49361772  0.12466999  0.41214259  1.0
  F  F111  1  0.42530032  0.87997511  0.58145358  1.0
  F  F112  1  0.26716498  0.91314744  0.52458967  1.0
  F  F113  1  0.12145995  0.64386226  0.56262850  1.0
  F  F114  1  0.86570429  0.68671562  0.54675176  1.0
  F  F115  1  0.24022090  0.42309316  0.35299926  1.0
  F  F116  1  0.59240498  0.17036300  0.02563207  1.0
  F  F117  1  0.23899489  0.50486865  0.65050530  1.0
