# generated using pymatgen
data_Zn4H18C30S2O19
_symmetry_space_group_name_H-M   'P 1'
_cell_length_a   18.00693870
_cell_length_b   18.18764571
_cell_length_c   18.27035792
_cell_angle_alpha   60.83884395
_cell_angle_beta   60.92401106
_cell_angle_gamma   60.39211560
_symmetry_Int_Tables_number   1
_chemical_formula_structural   Zn4H18C30S2O19
_chemical_formula_sum   'Zn8 H36 C60 S4 O38'
_cell_volume   4299.43241586
_cell_formula_units_Z   2
loop_
 _symmetry_equiv_pos_site_id
 _symmetry_equiv_pos_as_xyz
  1  'x, y, z'
loop_
 _atom_site_type_symbol
 _atom_site_label
 _atom_site_symmetry_multiplicity
 _atom_site_fract_x
 _atom_site_fract_y
 _atom_site_fract_z
 _atom_site_occupancy
  Zn  Zn0  1  0.38284792  0.20413504  0.20517499  1.0
  Zn  Zn1  1  0.61835669  0.79392479  0.79503249  1.0
  Zn  Zn2  1  0.20769124  0.19998978  0.20980499  1.0
  Zn  Zn3  1  0.79522935  0.79596522  0.79138040  1.0
  Zn  Zn4  1  0.20914518  0.38089909  0.20707714  1.0
  Zn  Zn5  1  0.79120773  0.61674597  0.79426289  1.0
  Zn  Zn6  1  0.20584015  0.20848109  0.38116721  1.0
  Zn  Zn7  1  0.79479855  0.79122879  0.61974819  1.0
  H  H8  1  0.59725886  0.07342900  0.47415051  1.0
  H  H9  1  0.53138858  0.14124228  0.92576290  1.0
  H  H10  1  0.34262774  0.03261974  0.02272457  1.0
  H  H11  1  0.65958254  0.96790351  0.97460386  1.0
  H  H12  1  0.47571209  0.07419980  0.85553445  1.0
  H  H13  1  0.52649804  0.92603572  0.14216394  1.0
  H  H14  1  0.40476156  0.14158156  0.52925321  1.0
  H  H15  1  0.59575334  0.85643852  0.47154085  1.0
  H  H16  1  0.40222715  0.97022469  0.65589468  1.0
  H  H17  1  0.59819779  0.02809498  0.34500547  1.0
  H  H18  1  0.60098394  0.47000139  0.07438304  1.0
  H  H19  1  0.40307658  0.92458728  0.52696784  1.0
  H  H20  1  0.39893691  0.52838225  0.93042269  1.0
  H  H21  1  0.60043891  0.34240364  0.02733896  1.0
  H  H22  1  0.39947903  0.65607746  0.97700823  1.0
  H  H23  1  0.59145641  0.47340951  0.85948523  1.0
  H  H24  1  0.40846474  0.52532053  0.14509301  1.0
  H  H25  1  0.97268829  0.39996107  0.65425983  1.0
  H  H26  1  0.02656481  0.60038113  0.34527241  1.0
  H  H27  1  0.14566948  0.92377168  0.52733531  1.0
  H  H28  1  0.85456050  0.07627223  0.47473077  1.0
  H  H29  1  0.91313915  0.35238680  0.99790930  1.0
  H  H30  1  0.07550325  0.85957794  0.46814222  1.0
  H  H31  1  0.97842933  0.69133330  0.07781344  1.0
  H  H32  1  0.88684199  0.33532312  0.17553552  1.0
  H  H33  1  0.12621284  0.65616133  0.81817566  1.0
  H  H34  1  0.85451503  0.59526276  0.47335981  1.0
  H  H35  1  0.14470495  0.40494755  0.52651382  1.0
  H  H36  1  0.92466054  0.40469757  0.52458825  1.0
  H  H37  1  0.07475197  0.59577646  0.47468276  1.0
  H  H38  1  0.92457118  0.14034041  0.53445875  1.0
  H  H39  1  0.97419156  0.96632213  0.65759379  1.0
  H  H40  1  0.02637816  0.03338779  0.34466894  1.0
  H  H41  1  0.07882285  0.46455470  0.85852347  1.0
  H  H42  1  0.92980504  0.52780503  0.13770150  1.0
  H  H43  1  0.47053335  0.85905394  0.07186795  1.0
  C  C44  1  0.10939686  0.11022694  0.39115087  1.0
  C  C45  1  0.45111180  0.44329792  0.05442434  1.0
  C  C46  1  0.55013024  0.48396780  0.92370111  1.0
  C  C47  1  0.44979308  0.51456121  0.08097300  1.0
  C  C48  1  0.95724699  0.44772349  0.51441185  1.0
  C  C49  1  0.04215828  0.55265236  0.48509694  1.0
  C  C50  1  0.91976128  0.55240938  0.48417188  1.0
  C  C51  1  0.07963440  0.44788848  0.51541159  1.0
  C  C52  1  0.94738245  0.54829735  0.55641028  1.0
  C  C53  1  0.05241814  0.45201337  0.44312798  1.0
  C  C54  1  0.98510557  0.44395394  0.58543645  1.0
  C  C55  1  0.89117748  0.88936722  0.61090693  1.0
  C  C56  1  0.01424461  0.55636801  0.41411309  1.0
  C  C57  1  0.08034443  0.95691745  0.51641134  1.0
  C  C58  1  0.91978908  0.04310461  0.48584719  1.0
  C  C59  1  0.39344287  0.38644100  0.11142832  1.0
  C  C60  1  0.60685867  0.61180270  0.89243589  1.0
  C  C61  1  0.04274066  0.92260512  0.48205142  1.0
  C  C62  1  0.95740341  0.07746996  0.52026300  1.0
  C  C63  1  0.94805125  0.94713075  0.55475456  1.0
  C  C64  1  0.05168725  0.05330326  0.44756921  1.0
  C  C65  1  0.98610576  0.98189571  0.58779727  1.0
  C  C66  1  0.44514250  0.98336398  0.58660340  1.0
  C  C67  1  0.01408963  0.01808952  0.41449510  1.0
  C  C68  1  0.01841758  0.40980963  0.01441546  1.0
  C  C69  1  0.99029928  0.58318264  0.98140223  1.0
  C  C70  1  0.04519177  0.47869864  0.92085998  1.0
  C  C71  1  0.96313903  0.51434417  0.07497522  1.0
  C  C72  1  0.95117287  0.55262671  0.94442663  1.0
  C  C73  1  0.05734616  0.44050190  0.05120511  1.0
  C  C74  1  0.92375354  0.48352226  0.03946564  1.0
  C  C75  1  0.08489199  0.50958912  0.95611171  1.0
  C  C76  1  0.41322242  0.01756255  0.01190484  1.0
  C  C77  1  0.55533527  0.01466866  0.41431703  1.0
  C  C78  1  0.58898083  0.98265141  0.98574235  1.0
  C  C79  1  0.48322095  0.92241161  0.04012026  1.0
  C  C80  1  0.51893028  0.07775720  0.95758595  1.0
  C  C81  1  0.55745816  0.94630692  0.94784528  1.0
  C  C82  1  0.44482910  0.05351662  0.05013244  1.0
  C  C83  1  0.38771805  0.11021620  0.10787728  1.0
  C  C84  1  0.61468022  0.88843896  0.89124214  1.0
  C  C85  1  0.48616266  0.04203737  0.91990812  1.0
  C  C86  1  0.51610055  0.95806686  0.07777730  1.0
  C  C87  1  0.10979013  0.39478511  0.38570880  1.0
  C  C88  1  0.55633760  0.41227683  0.01595137  1.0
  C  C89  1  0.88986451  0.60533734  0.61402423  1.0
  C  C90  1  0.11220428  0.38353338  0.11280991  1.0
  C  C91  1  0.89391786  0.61029607  0.88492727  1.0
  C  C92  1  0.39167316  0.10940827  0.38825969  1.0
  C  C93  1  0.60894008  0.88873404  0.61255507  1.0
  C  C94  1  0.44784182  0.07757004  0.51724845  1.0
  C  C95  1  0.55265981  0.92040362  0.48365423  1.0
  C  C96  1  0.55355250  0.04105771  0.48507806  1.0
  C  C97  1  0.44687459  0.95694571  0.51586939  1.0
  C  C98  1  0.55046710  0.94612780  0.55570389  1.0
  C  C99  1  0.44364664  0.58623906  0.98864362  1.0
  C  C100  1  0.45004131  0.05157157  0.44519752  1.0
  C  C101  1  0.55549952  0.48222195  0.04314340  1.0
  C  C102  1  0.44451581  0.51629727  0.96147145  1.0
  C  C103  1  0.54889868  0.55524927  0.95054864  1.0
  S  S104  1  0.03066122  0.29932788  0.03371354  1.0
  S  S105  1  0.97239306  0.69533143  0.96222841  1.0
  S  S106  1  0.81996754  0.46251149  0.09838370  1.0
  S  S107  1  0.19177833  0.52513476  0.89318343  1.0
  O  O108  1  0.24971334  0.24991860  0.25058489  1.0
  O  O109  1  0.69210333  0.56987258  0.87394818  1.0
  O  O110  1  0.12356038  0.14206666  0.43019453  1.0
  O  O111  1  0.86625388  0.86857613  0.57090069  1.0
  O  O112  1  0.43233701  0.30204210  0.12801445  1.0
  O  O113  1  0.56802968  0.69629925  0.86499787  1.0
  O  O114  1  0.30226232  0.13568802  0.12737631  1.0
  O  O115  1  0.70016688  0.86882403  0.86595913  1.0
  O  O116  1  0.12534274  0.43365911  0.30212961  1.0
  O  O117  1  0.86363987  0.56583417  0.69758883  1.0
  O  O118  1  0.12513256  0.30061996  0.14250050  1.0
  O  O119  1  0.75163403  0.74769027  0.75049111  1.0
  O  O120  1  0.87483596  0.69373623  0.86139265  1.0
  O  O121  1  0.30656191  0.13017726  0.42873449  1.0
  O  O122  1  0.69371784  0.86032157  0.57232459  1.0
  O  O123  1  0.13695458  0.42671146  0.12912745  1.0
  O  O124  1  0.87240076  0.56735278  0.86489610  1.0
  O  O125  1  0.43100629  0.13339363  0.30461816  1.0
  O  O126  1  0.57011617  0.87290890  0.69598312  1.0
  O  O127  1  0.12268325  0.24920381  0.99875525  1.0
  O  O128  1  0.97886418  0.26522478  0.12615374  1.0
  O  O129  1  0.97924659  0.31999353  0.97236169  1.0
  O  O130  1  0.42935571  0.12790574  0.13417536  1.0
  O  O131  1  0.02568363  0.73025446  0.87204914  1.0
  O  O132  1  0.87822527  0.74178590  0.99730497  1.0
  O  O133  1  0.02376511  0.67932360  0.02298249  1.0
  O  O134  1  0.74824401  0.54103538  0.11659852  1.0
  O  O135  1  0.81453918  0.41920866  0.05290827  1.0
  O  O136  1  0.83749406  0.39191725  0.18846728  1.0
  O  O137  1  0.20972102  0.56186728  0.93435766  1.0
  O  O138  1  0.25409235  0.44515434  0.87117796  1.0
  O  O139  1  0.16937827  0.59923582  0.80487665  1.0
  O  O140  1  0.57308708  0.86351168  0.87212101  1.0
  O  O141  1  0.13855166  0.31083430  0.42555542  1.0
  O  O142  1  0.87163675  0.68956546  0.57428226  1.0
  O  O143  1  0.14041959  0.12206321  0.30817677  1.0
  O  O144  1  0.87205533  0.86533807  0.69459517  1.0
  O  O145  1  0.30860016  0.42786898  0.13939613  1.0
