# generated using pymatgen
data_AlH5C15O7F2
_symmetry_space_group_name_H-M   'P 1'
_cell_length_a   6.66296986
_cell_length_b   19.35978778
_cell_length_c   22.05763915
_cell_angle_alpha   99.05507519
_cell_angle_beta   89.63719839
_cell_angle_gamma   89.81820825
_symmetry_Int_Tables_number   1
_chemical_formula_structural   AlH5C15O7F2
_chemical_formula_sum   'Al4 H20 C60 O28 F8'
_cell_volume   2809.75525966
_cell_formula_units_Z   4
loop_
 _symmetry_equiv_pos_site_id
 _symmetry_equiv_pos_as_xyz
  1  'x, y, z'
loop_
 _atom_site_type_symbol
 _atom_site_label
 _atom_site_symmetry_multiplicity
 _atom_site_fract_x
 _atom_site_fract_y
 _atom_site_fract_z
 _atom_site_occupancy
  Al  Al0  1  0.89037802  0.50022733  0.50053679  1.0
  Al  Al1  1  0.39053497  0.49968199  0.49962662  1.0
  Al  Al2  1  0.31963863  0.99967612  0.00035332  1.0
  Al  Al3  1  0.81964793  0.00012802  0.99981827  1.0
  H  H4  1  0.85022595  0.33657661  0.74477695  1.0
  H  H5  1  0.35185042  0.66315873  0.25561454  1.0
  H  H6  1  0.40642364  0.23758846  0.67506869  1.0
  H  H7  1  0.90380869  0.76236300  0.32462719  1.0
  H  H8  1  0.17930011  0.73544602  0.54046985  1.0
  H  H9  1  0.74164920  0.26774609  0.45610288  1.0
  H  H10  1  0.17309182  0.85040532  0.61029936  1.0
  H  H11  1  0.74537388  0.15250240  0.38651911  1.0
  H  H12  1  0.05862754  0.63726248  0.79087902  1.0
  H  H13  1  0.56830518  0.36306672  0.20849403  1.0
  H  H14  1  0.11588569  0.92903035  0.82185071  1.0
  H  H15  1  0.64327034  0.07165236  0.17727427  1.0
  H  H16  1  0.99156559  0.53535324  0.89393765  1.0
  H  H17  1  0.51705906  0.46508755  0.10491641  1.0
  H  H18  1  0.69287284  0.11773803  0.72482070  1.0
  H  H19  1  0.18870539  0.88237020  0.27480223  1.0
  H  H20  1  0.63680034  0.51814199  0.58111458  1.0
  H  H21  1  0.14119874  0.48057964  0.41918375  1.0
  H  H22  1  0.56925578  0.01391882  0.92429014  1.0
  H  H23  1  0.06692557  0.98542540  0.07571443  1.0
  C  C24  1  0.64629951  0.39373246  0.42615525  1.0
  C  C25  1  0.13645355  0.60664468  0.57339114  1.0
  C  C26  1  0.63918198  0.57988291  0.42606012  1.0
  C  C27  1  0.14265138  0.42016619  0.57417245  1.0
  C  C28  1  0.96618536  0.25558159  0.79092475  1.0
  C  C29  1  0.46698776  0.74432694  0.20945276  1.0
  C  C30  1  0.11378240  0.20424782  0.79546527  1.0
  C  C31  1  0.61327412  0.79582116  0.20478925  1.0
  C  C32  1  0.27499008  0.19853063  0.75221987  1.0
  C  C33  1  0.77336971  0.80151772  0.24775134  1.0
  C  C34  1  0.28261635  0.24242473  0.70785014  1.0
  C  C35  1  0.78093138  0.75751664  0.29203351  1.0
  C  C36  1  0.13035610  0.29218531  0.70403058  1.0
  C  C37  1  0.62983641  0.70767706  0.29604022  1.0
  C  C38  1  0.97002232  0.29858626  0.74651518  1.0
  C  C39  1  0.47074282  0.70123290  0.25378380  1.0
  C  C40  1  0.09627997  0.16264297  0.84214153  1.0
  C  C41  1  0.59548456  0.83750526  0.15822372  1.0
  C  C42  1  0.13703956  0.33537941  0.65793197  1.0
  C  C43  1  0.63622527  0.66450611  0.34214972  1.0
  C  C44  1  0.14062744  0.37295441  0.61857735  1.0
  C  C45  1  0.63949564  0.62702601  0.38157486  1.0
  C  C46  1  0.07546854  0.12833686  0.88343817  1.0
  C  C47  1  0.57401830  0.87176689  0.11695889  1.0
  C  C48  1  0.15658268  0.80167323  0.62855050  1.0
  C  C49  1  0.70931499  0.20049613  0.36898011  1.0
  C  C50  1  0.13715334  0.67615416  0.61464072  1.0
  C  C51  1  0.65250757  0.32487274  0.38417483  1.0
  C  C52  1  0.04493950  0.76382674  0.91478313  1.0
  C  C53  1  0.53856398  0.23595128  0.08545752  1.0
  C  C54  1  0.04005629  0.69594091  0.88033532  1.0
  C  C55  1  0.54133189  0.30407288  0.11949829  1.0
  C  C56  1  0.06259244  0.68961450  0.81671480  1.0
  C  C57  1  0.56705535  0.31055802  0.18290965  1.0
  C  C58  1  0.08840259  0.74769509  0.78609511  1.0
  C  C59  1  0.59394201  0.25250936  0.21347338  1.0
  C  C60  1  0.09163483  0.81588282  0.82263358  1.0
  C  C61  1  0.59899116  0.18425803  0.17699862  1.0
  C  C62  1  0.11086002  0.74221665  0.71976052  1.0
  C  C63  1  0.62306760  0.25830457  0.27948618  1.0
  C  C64  1  0.13279613  0.80436296  0.69247585  1.0
  C  C65  1  0.66824070  0.19697457  0.30590686  1.0
  C  C66  1  0.13111141  0.87004429  0.73249125  1.0
  C  C67  1  0.67147704  0.13129045  0.26593105  1.0
  C  C68  1  0.11322918  0.87707718  0.79444793  1.0
  C  C69  1  0.63698474  0.12358125  0.20468502  1.0
  C  C70  1  0.11367725  0.67936416  0.67738451  1.0
  C  C71  1  0.61185558  0.32081596  0.32223942  1.0
  C  C72  1  0.15984039  0.73823726  0.58989578  1.0
  C  C73  1  0.70584173  0.26394627  0.40754869  1.0
  C  C74  1  0.07050596  0.82242218  0.88713877  1.0
  C  C75  1  0.56728127  0.17739875  0.11296501  1.0
  C  C76  1  0.56929879  0.91831595  0.07230779  1.0
  C  C77  1  0.07028345  0.08162662  0.92798119  1.0
  C  C78  1  0.56772358  0.10673453  0.07331520  1.0
  C  C79  1  0.07188373  0.89307430  0.92685723  1.0
  C  C80  1  0.01073417  0.63338183  0.91058165  1.0
  C  C81  1  0.52114312  0.36677781  0.08888618  1.0
  C  C82  1  0.43264096  0.14391068  0.75366549  1.0
  C  C83  1  0.92998834  0.85613538  0.24612711  1.0
  O  O84  1  0.46744281  0.56310144  0.44454891  1.0
  O  O85  1  0.97223222  0.44227702  0.55959258  1.0
  O  O86  1  0.81537630  0.41763258  0.44541749  1.0
  O  O87  1  0.30609244  0.57878849  0.55881585  1.0
  O  O88  1  0.80959317  0.55881355  0.44164500  1.0
  O  O89  1  0.31405418  0.43594647  0.55466758  1.0
  O  O90  1  0.96588714  0.58246584  0.55616344  1.0
  O  O91  1  0.47571128  0.42145954  0.43958153  1.0
  O  O92  1  0.63901823  0.50640213  0.53679027  1.0
  O  O93  1  0.14082095  0.49350170  0.46341556  1.0
  O  O94  1  0.73892770  0.08005496  0.05889458  1.0
  O  O95  1  0.24259277  0.91894510  0.94160456  1.0
  O  O96  1  0.39792743  0.93737399  0.05566900  1.0
  O  O97  1  0.89850041  0.06299713  0.94494903  1.0
  O  O98  1  0.39760316  0.08026406  0.05889664  1.0
  O  O99  1  0.90132705  0.92033342  0.94095117  1.0
  O  O100  1  0.23992327  0.06173479  0.94520182  1.0
  O  O101  1  0.73936801  0.93761720  0.05461924  1.0
  O  O102  1  0.56999936  0.99579392  0.96288506  1.0
  O  O103  1  0.06870431  0.00397281  0.03731507  1.0
  O  O104  1  0.98728467  0.63321923  0.96549799  1.0
  O  O105  1  0.01186218  0.57250896  0.86910685  1.0
  O  O106  1  0.50029432  0.36693207  0.03396312  1.0
  O  O107  1  0.52978043  0.42782041  0.12999088  1.0
  O  O108  1  0.41734355  0.09297499  0.77953930  1.0
  O  O109  1  0.60095223  0.15651536  0.72131029  1.0
  O  O110  1  0.91483637  0.90693691  0.22008008  1.0
  O  O111  1  0.09728019  0.84367252  0.27851106  1.0
  F  F112  1  0.81309404  0.26267737  0.83190760  1.0
  F  F113  1  0.31510563  0.73718559  0.16869323  1.0
  F  F114  1  0.14948999  0.92847505  0.70557945  1.0
  F  F115  1  0.71137271  0.07357912  0.29213910  1.0
  F  F116  1  0.09408928  0.61630810  0.69743008  1.0
  F  F117  1  0.56229311  0.38240461  0.30301617  1.0
  F  F118  1  0.02487921  0.77370322  0.97649294  1.0
  F  F119  1  0.51127759  0.22591654  0.02411132  1.0
