# generated using pymatgen
data_Zn4H5C24S4Br2ClO13
_symmetry_space_group_name_H-M   'P 1'
_cell_length_a   19.67734671
_cell_length_b   19.71277242
_cell_length_c   33.38773861
_cell_angle_alpha   79.05910168
_cell_angle_beta   79.16474443
_cell_angle_gamma   63.93819695
_symmetry_Int_Tables_number   1
_chemical_formula_structural   Zn4H5C24S4Br2ClO13
_chemical_formula_sum   'Zn16 H20 C96 S16 Br8 Cl4 O52'
_cell_volume   11342.01486555
_cell_formula_units_Z   4
loop_
 _symmetry_equiv_pos_site_id
 _symmetry_equiv_pos_as_xyz
  1  'x, y, z'
loop_
 _atom_site_type_symbol
 _atom_site_label
 _atom_site_symmetry_multiplicity
 _atom_site_fract_x
 _atom_site_fract_y
 _atom_site_fract_z
 _atom_site_occupancy
  Zn  Zn0  1  0.05580290  0.39934183  0.47787261  1.0
  Zn  Zn1  1  0.98589431  0.48420931  0.56048080  1.0
  Zn  Zn2  1  0.05764352  0.56135031  0.48229245  1.0
  Zn  Zn3  1  0.90070649  0.55425544  0.48016089  1.0
  Zn  Zn4  1  0.69403924  0.34958907  0.27147723  1.0
  Zn  Zn5  1  0.68848159  0.18952711  0.26628341  1.0
  Zn  Zn6  1  0.76978724  0.26522175  0.19067041  1.0
  Zn  Zn7  1  0.84726334  0.19474727  0.27307972  1.0
  Zn  Zn8  1  0.26699780  0.76683629  0.68967283  1.0
  Zn  Zn9  1  0.34930296  0.69729689  0.77197348  1.0
  Zn  Zn10  1  0.19245877  0.84800606  0.77139758  1.0
  Zn  Zn11  1  0.19213093  0.68722302  0.76664081  1.0
  Zn  Zn12  1  0.56050832  0.05988857  0.98319808  1.0
  Zn  Zn13  1  0.40142748  0.05504588  0.97829706  1.0
  Zn  Zn14  1  0.55534311  0.90106044  0.97829748  1.0
  Zn  Zn15  1  0.48366567  0.98271365  0.06044125  1.0
  H  H16  1  0.95478782  0.24879398  0.35162415  1.0
  H  H17  1  0.74738634  0.45325595  0.34980189  1.0
  H  H18  1  0.99932267  0.30021309  0.39972624  1.0
  H  H19  1  0.09721555  0.59696259  0.69970716  1.0
  H  H20  1  0.20218966  0.70156854  0.59825227  1.0
  H  H21  1  0.05069210  0.55128229  0.64971937  1.0
  H  H22  1  0.46316210  0.24009895  0.34105295  1.0
  H  H23  1  0.47948758  0.70269115  0.60127788  1.0
  H  H24  1  0.20304196  0.97913292  0.60147147  1.0
  H  H25  1  0.94808554  0.97019504  0.34795597  1.0
  H  H26  1  0.54999546  0.05008824  0.15346379  1.0
  H  H27  1  0.65120637  0.15172278  0.04862690  1.0
  H  H28  1  0.59998647  0.09985372  0.19959741  1.0
  H  H29  1  0.54749799  0.77023298  0.14843767  1.0
  H  H30  1  0.16277276  0.14142279  0.04056649  1.0
  H  H31  1  0.50125956  0.79522826  0.89844354  1.0
  H  H32  1  0.29707907  0.00294801  0.89994087  1.0
  H  H33  1  0.44932840  0.75134363  0.85034476  1.0
  H  H34  1  0.30096648  0.27983967  0.90212469  1.0
  H  H35  1  0.78696783  0.00969531  0.90885667  1.0
  C  C36  1  0.06171962  0.31632370  0.56172049  1.0
  C  C37  1  0.06906872  0.57024409  0.56919696  1.0
  C  C38  1  0.18324290  0.43955723  0.43855052  1.0
  C  C39  1  0.93685699  0.68389639  0.43879377  1.0
  C  C40  1  0.93118232  0.42984661  0.43098092  1.0
  C  C41  1  0.81701364  0.56120213  0.56238978  1.0
  C  C42  1  0.56548572  0.31133831  0.31129614  1.0
  C  C43  1  0.68093434  0.18011039  0.18101470  1.0
  C  C44  1  0.68983368  0.43308922  0.18838262  1.0
  C  C45  1  0.93516726  0.18771791  0.18985090  1.0
  C  C46  1  0.81953387  0.31912830  0.31943131  1.0
  C  C47  1  0.81084758  0.06577913  0.31160714  1.0
  C  C48  1  0.43379455  0.68954891  0.68819328  1.0
  C  C49  1  0.31904191  0.81961547  0.81928429  1.0
  C  C50  1  0.18858001  0.93355910  0.68827396  1.0
  C  C51  1  0.06597058  0.80957293  0.81107951  1.0
  C  C52  1  0.18121559  0.68019731  0.68069211  1.0
  C  C53  1  0.31295949  0.56602523  0.81132865  1.0
  C  C54  1  0.43825780  0.18388036  0.93864364  1.0
  C  C55  1  0.43118290  0.93017050  0.93071204  1.0
  C  C56  1  0.68420167  0.93885684  0.93868106  1.0
  C  C57  1  0.56143537  0.81574843  0.06160108  1.0
  C  C58  1  0.56919153  0.06885216  0.06966030  1.0
  C  C59  1  0.31591088  0.06139092  0.06119100  1.0
  C  C60  1  0.89935333  0.40489371  0.40196948  1.0
  C  C61  1  0.84817692  0.34817992  0.34789161  1.0
  C  C62  1  0.82749250  0.44836179  0.38747249  1.0
  C  C63  1  0.91964252  0.30447354  0.36182906  1.0
  C  C64  1  0.80277624  0.41965851  0.36073815  1.0
  C  C65  1  0.94411091  0.33303291  0.38840739  1.0
  C  C66  1  0.09978914  0.60018390  0.59619696  1.0
  C  C67  1  0.15251345  0.65208516  0.65180957  1.0
  C  C68  1  0.14317785  0.64307537  0.58171202  1.0
  C  C69  1  0.10971111  0.60955652  0.66666667  1.0
  C  C70  1  0.16890148  0.66854595  0.60954872  1.0
  C  C71  1  0.08409052  0.58439049  0.63900215  1.0
  C  C72  1  0.30464099  0.45471247  0.40106596  1.0
  C  C73  1  0.44606757  0.29675858  0.34903727  1.0
  C  C74  1  0.25835954  0.41595403  0.41397523  1.0
  C  C75  1  0.49086229  0.33667396  0.33649100  1.0
  C  C76  1  0.37800291  0.33969936  0.37267842  1.0
  C  C77  1  0.37276784  0.41142317  0.37753604  1.0
  C  C78  1  0.72592052  0.57567197  0.63040415  1.0
  C  C79  1  0.52421414  0.67358988  0.62127697  1.0
  C  C80  1  0.74295202  0.58505365  0.58792161  1.0
  C  C81  1  0.50896383  0.66368328  0.66364877  1.0
  C  C82  1  0.60350006  0.64142427  0.60899996  1.0
  C  C83  1  0.64654894  0.60775675  0.64249978  1.0
  C  C84  1  0.07617050  0.22541748  0.62992429  1.0
  C  C85  1  0.17400485  0.02387424  0.62133618  1.0
  C  C86  1  0.08566478  0.24229584  0.58739978  1.0
  C  C87  1  0.16368066  0.00872553  0.66370902  1.0
  C  C88  1  0.14203617  0.10303565  0.60888664  1.0
  C  C89  1  0.10818313  0.14616249  0.64224179  1.0
  C  C90  1  0.84220730  0.80090177  0.39705133  1.0
  C  C91  1  0.90382400  0.94968252  0.35252418  1.0
  C  C92  1  0.91062878  0.75833435  0.41365247  1.0
  C  C93  1  0.83517525  0.99085032  0.33641033  1.0
  C  C94  1  0.90665852  0.88014190  0.37468111  1.0
  C  C95  1  0.83981783  0.87028497  0.37483515  1.0
  C  C96  1  0.65351016  0.15345330  0.15063952  1.0
  C  C97  1  0.59785665  0.09788334  0.09816387  1.0
  C  C98  1  0.66776936  0.16808790  0.10745008  1.0
  C  C99  1  0.58300656  0.08306197  0.14087796  1.0
  C  C100  1  0.63997077  0.14025676  0.08180099  1.0
  C  C101  1  0.61069872  0.11069004  0.16632442  1.0
  C  C102  1  0.67405486  0.52385795  0.12009551  1.0
  C  C103  1  0.57641604  0.72546393  0.12858369  1.0
  C  C104  1  0.66503053  0.50703345  0.16264855  1.0
  C  C105  1  0.58648588  0.74057694  0.08620639  1.0
  C  C106  1  0.60830144  0.64630438  0.14107680  1.0
  C  C107  1  0.64185682  0.60310081  0.10774673  1.0
  C  C108  1  0.08282545  0.12333038  0.17834415  1.0
  C  C109  1  0.17032503  0.12484354  0.07294716  1.0
  C  C110  1  0.01058620  0.16224326  0.16559656  1.0
  C  C111  1  0.24146899  0.08604862  0.08653566  1.0
  C  C112  1  0.11215652  0.13858849  0.10642406  1.0
  C  C113  1  0.14074371  0.10977780  0.14473623  1.0
  C  C114  1  0.34458685  0.85141446  0.84800522  1.0
  C  C115  1  0.40203658  0.90195315  0.90206825  1.0
  C  C116  1  0.30148542  0.92323546  0.86234602  1.0
  C  C117  1  0.44550588  0.83060826  0.88819364  1.0
  C  C118  1  0.33053202  0.94762162  0.88907416  1.0
  C  C119  1  0.41662112  0.80647130  0.86159838  1.0
  C  C120  1  0.40756234  0.44856551  0.85301910  1.0
  C  C121  1  0.34538086  0.30014423  0.89757188  1.0
  C  C122  1  0.33923937  0.49133525  0.83632140  1.0
  C  C123  1  0.41395631  0.25877428  0.91373999  1.0
  C  C124  1  0.34285210  0.36952816  0.87531232  1.0
  C  C125  1  0.40977664  0.37919956  0.87519369  1.0
  C  C126  1  0.94487607  0.79448512  0.84922511  1.0
  C  C127  1  0.80390717  0.95296438  0.90101927  1.0
  C  C128  1  0.99121197  0.83309980  0.83599495  1.0
  C  C129  1  0.75897561  0.91321595  0.91369636  1.0
  C  C130  1  0.87191068  0.90975514  0.87741133  1.0
  C  C131  1  0.87692975  0.83798940  0.87278358  1.0
  S  S132  1  0.29881232  0.32626261  0.39724052  1.0
  S  S133  1  0.45107882  0.42616371  0.35318441  1.0
  S  S134  1  0.66135777  0.63312570  0.56285721  1.0
  S  S135  1  0.59007786  0.61545827  0.68887658  1.0
  S  S136  1  0.13392561  0.16067339  0.56262603  1.0
  S  S137  1  0.11543569  0.08982978  0.68872087  1.0
  S  S138  1  0.97199717  0.80359352  0.40189296  1.0
  S  S139  1  0.77377504  0.94591933  0.34787662  1.0
  S  S140  1  0.61670310  0.58875168  0.18738313  1.0
  S  S141  1  0.63438766  0.65937256  0.06122890  1.0
  S  S142  1  0.01398790  0.18216128  0.11224242  1.0
  S  S143  1  0.23855143  0.06595609  0.13974192  1.0
  S  S144  1  0.27776657  0.44615785  0.84796861  1.0
  S  S145  1  0.47564815  0.30342054  0.90219885  1.0
  S  S146  1  0.95108910  0.92294023  0.85258149  1.0
  S  S147  1  0.79854212  0.82354623  0.89724468  1.0
  Br  Br148  1  0.28479060  0.55217597  0.41189151  1.0
  Br  Br149  1  0.79524667  0.52724677  0.66946346  1.0
  Br  Br150  1  0.02777871  0.29470561  0.66885613  1.0
  Br  Br151  1  0.76000826  0.77457860  0.40164343  1.0
  Br  Br152  1  0.72169355  0.45447810  0.08121461  1.0
  Br  Br153  1  0.10671639  0.09039235  0.23256455  1.0
  Br  Br154  1  0.49008890  0.47440763  0.84842868  1.0
  Br  Br155  1  0.96467351  0.69682157  0.83877126  1.0
  Cl  Cl156  1  0.76492391  0.53770154  0.40043715  1.0
  Cl  Cl157  1  0.16843818  0.66736426  0.53041096  1.0
  Cl  Cl158  1  0.71849032  0.21984281  0.08258626  1.0
  Cl  Cl159  1  0.21231665  0.98613345  0.84901588  1.0
  O  O160  1  0.00099685  0.49782813  0.50011176  1.0
  O  O161  1  0.07790408  0.31423497  0.52280267  1.0
  O  O162  1  0.03249152  0.53082373  0.58735935  1.0
  O  O163  1  0.15398474  0.50570982  0.44991153  1.0
  O  O164  1  0.02740318  0.37537666  0.58029133  1.0
  O  O165  1  0.15409716  0.39101359  0.44617797  1.0
  O  O166  1  0.08116275  0.58608822  0.53060431  1.0
  O  O167  1  0.00398656  0.65826433  0.44934178  1.0
  O  O168  1  0.88980368  0.49394053  0.44378043  1.0
  O  O169  1  0.89145566  0.65157998  0.44796344  1.0
  O  O170  1  0.99763891  0.38439744  0.44069433  1.0
  O  O171  1  0.87661804  0.52697939  0.58065696  1.0
  O  O172  1  0.81434187  0.57761747  0.52348438  1.0
  O  O173  1  0.74901395  0.24982705  0.25086849  1.0
  O  O174  1  0.59650863  0.35823723  0.30337406  1.0
  O  O175  1  0.66162981  0.16340346  0.21909836  1.0
  O  O176  1  0.72629915  0.37379382  0.17012006  1.0
  O  O177  1  0.59226460  0.24539378  0.29966970  1.0
  O  O178  1  0.67233714  0.43532613  0.22725943  1.0
  O  O179  1  0.72122413  0.21690946  0.16687014  1.0
  O  O180  1  0.87813287  0.22298295  0.16913189  1.0
  O  O181  1  0.86304091  0.25299598  0.30915244  1.0
  O  O182  1  0.93269465  0.17292900  0.22877853  1.0
  O  O183  1  0.75425748  0.36267370  0.30789474  1.0
  O  O184  1  0.74475425  0.09318297  0.29964456  1.0
  O  O185  1  0.85782758  0.09648589  0.30432281  1.0
  O  O186  1  0.25050261  0.74936355  0.74988616  1.0
  O  O187  1  0.37574392  0.72455251  0.66849355  1.0
  O  O188  1  0.36574028  0.75426178  0.80871551  1.0
  O  O189  1  0.17184202  0.93333695  0.72723428  1.0
  O  O190  1  0.43379973  0.67450302  0.72721121  1.0
  O  O191  1  0.22435240  0.87566350  0.66866003  1.0
  O  O192  1  0.25354207  0.85929539  0.80760350  1.0
  O  O193  1  0.09471681  0.85847354  0.80342859  1.0
  O  O194  1  0.16559249  0.66270905  0.71899283  1.0
  O  O195  1  0.09552003  0.74369113  0.79935636  1.0
  O  O196  1  0.21891984  0.71925532  0.66452176  1.0
  O  O197  1  0.35752165  0.59927506  0.80323152  1.0
  O  O198  1  0.24653807  0.59082570  0.79994798  1.0
  O  O199  1  0.50017474  0.99966187  0.00010901  1.0
  O  O200  1  0.50476311  0.15633819  0.95012585  1.0
  O  O201  1  0.38779932  0.99574123  0.94181212  1.0
  O  O202  1  0.65299196  0.89212147  0.94656003  1.0
  O  O203  1  0.39118878  0.15323124  0.94652827  1.0
  O  O204  1  0.65729146  0.00491767  0.95019483  1.0
  O  O205  1  0.49688970  0.88637407  0.94162069  1.0
  O  O206  1  0.57715253  0.81588358  0.02260100  1.0
  O  O207  1  0.53097929  0.03045420  0.08618873  1.0
  O  O208  1  0.52649846  0.87375165  0.08119624  1.0
  O  O209  1  0.58542599  0.08490159  0.03124235  1.0
  O  O210  1  0.31548148  0.07754847  0.02231706  1.0
  O  O211  1  0.37442778  0.02582445  0.08067632  1.0
