# generated using pymatgen
data_Zr3H23C45N5O26
_symmetry_space_group_name_H-M   'P 1'
_cell_length_a   19.05460969
_cell_length_b   19.06851493
_cell_length_c   19.05564127
_cell_angle_alpha   60.07258781
_cell_angle_beta   89.50516806
_cell_angle_gamma   119.92661773
_symmetry_Int_Tables_number   1
_chemical_formula_structural   Zr3H23C45N5O26
_chemical_formula_sum   'Zr6 H46 C90 N10 O52'
_cell_volume   4885.19004772
_cell_formula_units_Z   2
loop_
 _symmetry_equiv_pos_site_id
 _symmetry_equiv_pos_as_xyz
  1  'x, y, z'
loop_
 _atom_site_type_symbol
 _atom_site_label
 _atom_site_symmetry_multiplicity
 _atom_site_fract_x
 _atom_site_fract_y
 _atom_site_fract_z
 _atom_site_occupancy
  Zr  Zr0  1  0.40801780  0.50048409  0.59399783  1.0
  Zr  Zr1  1  0.59368627  0.49919103  0.40838176  1.0
  Zr  Zr2  1  0.40645063  0.31395365  0.59537854  1.0
  Zr  Zr3  1  0.59508151  0.68574595  0.40676628  1.0
  Zr  Zr4  1  0.59319967  0.49984970  0.59355044  1.0
  Zr  Zr5  1  0.40839345  0.49986435  0.40871107  1.0
  H  H6  1  0.42591606  0.35416320  0.72124178  1.0
  H  H7  1  0.72093851  0.64551022  0.42629764  1.0
  H  H8  1  0.42698903  0.35247974  0.42930447  1.0
  H  H9  1  0.42901106  0.64728631  0.42727445  1.0
  H  H10  1  0.59201780  0.46970189  0.06003705  1.0
  H  H11  1  0.38996516  0.49988160  0.95690285  1.0
  H  H12  1  0.63539073  0.55234108  0.79223843  1.0
  H  H13  1  0.64550918  0.56721811  0.91462758  1.0
  H  H14  1  0.43557218  0.57330397  0.14791981  1.0
  H  H15  1  0.44394249  0.59188845  0.00903372  1.0
  H  H16  1  0.95672085  0.50002987  0.39035914  1.0
  H  H17  1  0.05930414  0.52912422  0.59308296  1.0
  H  H18  1  0.14775328  0.42684388  0.43559202  1.0
  H  H19  1  0.00884201  0.40823472  0.44397040  1.0
  H  H20  1  0.79164076  0.44687862  0.63603634  1.0
  H  H21  1  0.91408005  0.43206362  0.64614440  1.0
  H  H22  1  0.04856864  0.15579183  0.38964094  1.0
  H  H23  1  0.96786693  0.84773431  0.59516743  1.0
  H  H24  1  0.78147636  0.92107473  0.43583776  1.0
  H  H25  1  0.90183326  0.05097087  0.44452241  1.0
  H  H26  1  0.15200735  0.07265414  0.63835101  1.0
  H  H27  1  0.01408994  0.94046446  0.64852688  1.0
  H  H28  1  0.59483189  0.15192563  0.96821639  1.0
  H  H29  1  0.38916152  0.84403243  0.04914924  1.0
  H  H30  1  0.63823690  0.92703925  0.15209915  1.0
  H  H31  1  0.64836954  0.05915319  0.01414594  1.0
  H  H32  1  0.43569423  0.07874420  0.78167048  1.0
  H  H33  1  0.44425639  0.94876014  0.90210424  1.0
  H  H34  1  0.81704222  0.70807676  0.17211519  1.0
  H  H35  1  0.92694191  0.75702800  0.05626226  1.0
  H  H36  1  0.81081155  0.92946866  0.17301992  1.0
  H  H37  1  0.17158719  0.29141316  0.81720217  1.0
  H  H38  1  0.05552940  0.24238047  0.92698089  1.0
  H  H39  1  0.17255509  0.07006784  0.81095545  1.0
  H  H40  1  0.38229134  0.93447526  0.60426471  1.0
  H  H41  1  0.60422399  0.06534523  0.38267415  1.0
  H  H42  1  0.42382447  0.71201210  0.63621146  1.0
  H  H43  1  0.42855671  0.83902492  0.64594489  1.0
  H  H44  1  0.63591944  0.28775768  0.42424053  1.0
  H  H45  1  0.64573910  0.16079192  0.42897150  1.0
  H  H46  1  0.03540962  0.79671657  0.95527354  1.0
  H  H47  1  0.13548748  0.91605980  0.89941788  1.0
  H  H48  1  0.05571764  0.89469431  0.85066246  1.0
  H  H49  1  0.95324356  0.20299306  0.03379863  1.0
  H  H50  1  0.90217873  0.08583287  0.13539632  1.0
  H  H51  1  0.84855813  0.10091512  0.05948254  1.0
  C  C52  1  0.50523257  0.51057181  0.73098836  1.0
  C  C53  1  0.73058348  0.48897425  0.50574806  1.0
  C  C54  1  0.50481438  0.50555172  0.26326159  1.0
  C  C55  1  0.26285116  0.49405091  0.50522699  1.0
  C  C56  1  0.26025156  0.26517807  0.73318935  1.0
  C  C57  1  0.50727752  0.73698782  0.50312044  1.0
  C  C58  1  0.73293520  0.73435473  0.26066610  1.0
  C  C59  1  0.50276718  0.26275999  0.50754882  1.0
  C  C60  1  0.50408094  0.26456094  0.73313739  1.0
  C  C61  1  0.25951403  0.26452442  0.50713230  1.0
  C  C62  1  0.50685746  0.73523506  0.25985257  1.0
  C  C63  1  0.73282249  0.73519242  0.50435642  1.0
  C  C64  1  0.50885699  0.51241270  0.18175429  1.0
  C  C65  1  0.50917496  0.52005796  0.80413265  1.0
  C  C66  1  0.55337867  0.48514503  0.15444184  1.0
  C  C67  1  0.55907654  0.49499786  0.07704698  1.0
  C  C68  1  0.44198427  0.50797369  0.85080673  1.0
  C  C69  1  0.44545688  0.51426081  0.92029112  1.0
  C  C70  1  0.58251075  0.54194848  0.82865994  1.0
  C  C71  1  0.58730143  0.54914550  0.89772105  1.0
  C  C72  1  0.46978246  0.55111335  0.12760565  1.0
  C  C73  1  0.47437148  0.56078530  0.05011073  1.0
  C  C74  1  0.51825228  0.53184443  0.02401422  1.0
  C  C75  1  0.51816813  0.53369002  0.94565630  1.0
  C  C76  1  0.80372176  0.47945983  0.50970427  1.0
  C  C77  1  0.18131401  0.48712753  0.50935176  1.0
  C  C78  1  0.85049307  0.49170645  0.44245744  1.0
  C  C79  1  0.92001931  0.48549622  0.44590218  1.0
  C  C80  1  0.15385122  0.51403336  0.55416448  1.0
  C  C81  1  0.07645884  0.50417414  0.55985807  1.0
  C  C82  1  0.12730958  0.44876145  0.47001796  1.0
  C  C83  1  0.04980832  0.43908072  0.47460290  1.0
  C  C84  1  0.82817328  0.45745370  0.58309557  1.0
  C  C85  1  0.89723154  0.45024215  0.58790165  1.0
  C  C86  1  0.94525631  0.46586643  0.51869990  1.0
  C  C87  1  0.02358375  0.46766761  0.51878375  1.0
  C  C88  1  0.17703649  0.18760297  0.51054707  1.0
  C  C89  1  0.80637419  0.81211419  0.50982211  1.0
  C  C90  1  0.14504844  0.20884404  0.44221373  1.0
  C  C91  1  0.06886228  0.13631160  0.44582102  1.0
  C  C92  1  0.85916975  0.79346557  0.55566874  1.0
  C  C93  1  0.92673763  0.86477437  0.56145784  1.0
  C  C94  1  0.82311411  0.90624653  0.47036927  1.0
  C  C95  1  0.89081920  0.97875133  0.47519947  1.0
  C  C96  1  0.12783166  0.08941541  0.58476534  1.0
  C  C97  1  0.05135106  0.01585394  0.58958819  1.0
  C  C98  1  0.02128420  0.03785198  0.51954236  1.0
  C  C99  1  0.94452019  0.95966411  0.51976788  1.0
  C  C100  1  0.50954285  0.18763029  0.80668787  1.0
  C  C101  1  0.51023681  0.81216292  0.17741957  1.0
  C  C102  1  0.55536694  0.20625016  0.85950388  1.0
  C  C103  1  0.56117165  0.13492837  0.92704639  1.0
  C  C104  1  0.44180145  0.79097553  0.14556472  1.0
  C  C105  1  0.44539972  0.86347336  0.06935404  1.0
  C  C106  1  0.58456117  0.91027708  0.12804665  1.0
  C  C107  1  0.58936632  0.98380890  0.05154444  1.0
  C  C108  1  0.47015423  0.09352204  0.82336603  1.0
  C  C109  1  0.47492393  0.02097326  0.89110574  1.0
  C  C110  1  0.51945025  0.04002787  0.94484659  1.0
  C  C111  1  0.51921072  0.96185364  0.02163610  1.0
  C  C112  1  0.84422831  0.78632985  0.14131753  1.0
  C  C113  1  0.91653362  0.86025937  0.06567878  1.0
  C  C114  1  0.95592732  0.83573462  0.02590556  1.0
  C  C115  1  0.84163820  0.91272580  0.14138551  1.0
  C  C116  1  0.91428734  0.98909393  0.06621610  1.0
  C  C117  1  0.95234873  0.09299210  0.02767435  1.0
  C  C118  1  0.14081153  0.21314934  0.84442861  1.0
  C  C119  1  0.06519566  0.13919166  0.91674675  1.0
  C  C120  1  0.02531573  0.16369292  0.95607635  1.0
  C  C121  1  0.14092087  0.08675573  0.84184575  1.0
  C  C122  1  0.06584387  0.01033587  0.91459521  1.0
  C  C123  1  0.02741365  0.90640297  0.95283167  1.0
  C  C124  1  0.80762063  0.81276823  0.17884719  1.0
  C  C125  1  0.95257995  0.96247689  0.02788984  1.0
  C  C126  1  0.17836268  0.18671997  0.80782240  1.0
  C  C127  1  0.02751347  0.03697270  0.95288089  1.0
  C  C128  1  0.50572760  0.18400050  0.51202436  1.0
  C  C129  1  0.51178553  0.81576624  0.50609409  1.0
  C  C130  1  0.43612546  0.08333734  0.56352863  1.0
  C  C131  1  0.43939364  0.01108418  0.56601841  1.0
  C  C132  1  0.56340967  0.91646201  0.43653530  1.0
  C  C133  1  0.56590256  0.98873422  0.43977306  1.0
  C  C134  1  0.46341062  0.78992634  0.58135441  1.0
  C  C135  1  0.46583485  0.86147948  0.58598348  1.0
  C  C136  1  0.58105846  0.20985472  0.46375278  1.0
  C  C137  1  0.58573821  0.13831953  0.46619220  1.0
  C  C138  1  0.51455662  0.03790794  0.51627155  1.0
  C  C139  1  0.51600696  0.96190527  0.51484410  1.0
  C  C140  1  0.06556619  0.87689606  0.91270491  1.0
  C  C141  1  0.91223693  0.12231829  0.06609699  1.0
  N  N142  1  0.59140530  0.43662433  0.20939193  1.0
  N  N143  1  0.36062106  0.48307970  0.83214470  1.0
  N  N144  1  0.83191076  0.51672495  0.36104350  1.0
  N  N145  1  0.20862727  0.56227506  0.59246601  1.0
  N  N146  1  0.19211568  0.30896931  0.35949053  1.0
  N  N147  1  0.85031280  0.69867853  0.59576445  1.0
  N  N148  1  0.59543824  0.30097964  0.85073372  1.0
  N  N149  1  0.35895217  0.69096846  0.19278345  1.0
  N  N150  1  0.35269694  0.04765999  0.61583643  1.0
  N  N151  1  0.61585929  0.95221739  0.35314142  1.0
  O  O152  1  0.44387202  0.50673568  0.70266384  1.0
  O  O153  1  0.70228136  0.49282346  0.44437422  1.0
  O  O154  1  0.56313766  0.50323013  0.29455334  1.0
  O  O155  1  0.29419248  0.49643690  0.56350789  1.0
  O  O156  1  0.29340017  0.23659857  0.70392947  1.0
  O  O157  1  0.56539270  0.76607268  0.44135089  1.0
  O  O158  1  0.70362589  0.76295926  0.29373705  1.0
  O  O159  1  0.44099610  0.23365369  0.56567059  1.0
  O  O160  1  0.56224955  0.35479202  0.70365987  1.0
  O  O161  1  0.29254518  0.35489750  0.44565695  1.0
  O  O162  1  0.44539785  0.64487209  0.29282879  1.0
  O  O163  1  0.70327645  0.64494775  0.56257089  1.0
  O  O164  1  0.29025132  0.23412417  0.56539470  1.0
  O  O165  1  0.56514168  0.76562480  0.29056994  1.0
  O  O166  1  0.70548188  0.76581355  0.44277693  1.0
  O  O167  1  0.44257735  0.23395568  0.70570582  1.0
  O  O168  1  0.29333373  0.35580738  0.70346471  1.0
  O  O169  1  0.56192075  0.35241563  0.44641438  1.0
  O  O170  1  0.70317351  0.64371679  0.29374965  1.0
  O  O171  1  0.44609925  0.64733950  0.56223820  1.0
  O  O172  1  0.29395023  0.49579561  0.44448223  1.0
  O  O173  1  0.56320182  0.50689230  0.70263559  1.0
  O  O174  1  0.70224377  0.49271001  0.56367527  1.0
  O  O175  1  0.44409512  0.50386208  0.29433809  1.0
  O  O176  1  0.44964627  0.60568731  0.44785176  1.0
  O  O177  1  0.44755370  0.39405668  0.44995983  1.0
  O  O178  1  0.65843055  0.60397116  0.44860283  1.0
  O  O179  1  0.44824279  0.39569523  0.65873858  1.0
  O  O180  1  0.53845622  0.42230110  0.54023472  1.0
  O  O181  1  0.53988378  0.57739264  0.53877495  1.0
  O  O182  1  0.53972579  0.57629131  0.38565421  1.0
  O  O183  1  0.38533593  0.42342020  0.54003021  1.0
  O  O184  1  0.54065755  0.35246152  0.27656725  1.0
  O  O185  1  0.67040419  0.48163617  0.18140018  1.0
  O  O186  1  0.30471191  0.39466513  0.86378347  1.0
  O  O187  1  0.35322148  0.55222094  0.79090644  1.0
  O  O188  1  0.86356651  0.60515542  0.30518126  1.0
  O  O189  1  0.79071872  0.44764549  0.35355393  1.0
  O  O190  1  0.27564940  0.64663518  0.54186726  1.0
  O  O191  1  0.18061830  0.51688356  0.67151293  1.0
  O  O192  1  0.25137459  0.33165265  0.30702960  1.0
  O  O193  1  0.16453576  0.35908571  0.34771945  1.0
  O  O194  1  0.87272000  0.68376864  0.54642608  1.0
  O  O195  1  0.82579515  0.64464662  0.67534608  1.0
  O  O196  1  0.54610607  0.31589163  0.87314457  1.0
  O  O197  1  0.67502548  0.35495406  0.82629639  1.0
  O  O198  1  0.30673558  0.66851058  0.25209590  1.0
  O  O199  1  0.34682847  0.64071656  0.16526592  1.0
  O  O200  1  0.30245755  0.05729391  0.57805973  1.0
  O  O201  1  0.33790659  0.00571579  0.69437984  1.0
  O  O202  1  0.57820896  0.94283889  0.30274977  1.0
  O  O203  1  0.69438050  0.99400508  0.33851229  1.0
