# generated using pymatgen
data_AlH3C7SO8
_symmetry_space_group_name_H-M   'P 1'
_cell_length_a   6.68307661
_cell_length_b   14.52280041
_cell_length_c   16.75123417
_cell_angle_alpha   85.42983665
_cell_angle_beta   89.99957810
_cell_angle_gamma   89.99869090
_symmetry_Int_Tables_number   1
_chemical_formula_structural   AlH3C7SO8
_chemical_formula_sum   'Al4 H12 C28 S4 O32'
_cell_volume   1620.65503134
_cell_formula_units_Z   4
loop_
 _symmetry_equiv_pos_site_id
 _symmetry_equiv_pos_as_xyz
  1  'x, y, z'
loop_
 _atom_site_type_symbol
 _atom_site_label
 _atom_site_symmetry_multiplicity
 _atom_site_fract_x
 _atom_site_fract_y
 _atom_site_fract_z
 _atom_site_occupancy
  Al  Al0  1  0.25047775  0.75062672  0.74763653  1.0
  Al  Al1  1  0.74217310  0.25093583  0.24847495  1.0
  Al  Al2  1  0.75047500  0.74937864  0.75235854  1.0
  Al  Al3  1  0.24217585  0.24906756  0.25152637  1.0
  H  H4  1  0.77302679  0.49376668  0.88797804  1.0
  H  H5  1  0.24671341  0.50427048  0.11411273  1.0
  H  H6  1  0.27302375  0.00623998  0.61201940  1.0
  H  H7  1  0.74672088  0.99573135  0.38588617  1.0
  H  H8  1  0.76644429  0.22200267  0.07137470  1.0
  H  H9  1  0.59587801  0.63218836  0.96709659  1.0
  H  H10  1  0.26644219  0.27800605  0.42862597  1.0
  H  H11  1  0.09579054  0.86774960  0.53290729  1.0
  H  H12  1  0.50156883  0.63817142  0.72288927  1.0
  H  H13  1  0.48900882  0.36043405  0.20827997  1.0
  H  H14  1  0.00155931  0.86183435  0.77710634  1.0
  H  H15  1  0.98901995  0.13957103  0.29172082  1.0
  C  C16  1  0.49829099  0.85842566  0.85129024  1.0
  C  C17  1  0.48708171  0.14669620  0.14138742  1.0
  C  C18  1  0.99829875  0.64157500  0.64871388  1.0
  C  C19  1  0.98705363  0.35330397  0.35861458  1.0
  C  C20  1  0.50499949  0.86087470  0.63375451  1.0
  C  C21  1  0.49632265  0.13562854  0.36148308  1.0
  C  C22  1  0.00503415  0.63912665  0.86623632  1.0
  C  C23  1  0.99629370  0.36437566  0.13851889  1.0
  C  C24  1  0.87390640  0.49733369  0.93874746  1.0
  C  C25  1  0.14200767  0.50196952  0.06456688  1.0
  C  C26  1  0.37390601  0.00268114  0.56124735  1.0
  C  C27  1  0.64201707  0.99803197  0.43543224  1.0
  C  C28  1  0.86677517  0.42818342  0.00149484  1.0
  C  C29  1  0.14711640  0.57153739  0.00242879  1.0
  C  C30  1  0.36679133  0.07182981  0.49850560  1.0
  C  C31  1  0.64711622  0.92845860  0.49756973  1.0
  C  C32  1  0.00049383  0.43088152  0.06600601  1.0
  C  C33  1  0.01086040  0.57031167  0.93840406  1.0
  C  C34  1  0.50050438  0.06912343  0.43399763  1.0
  C  C35  1  0.51084302  0.92968775  0.56159214  1.0
  C  C36  1  0.98261939  0.41343187  0.42246647  1.0
  C  C37  1  0.99311771  0.57936294  0.58609696  1.0
  C  C38  1  0.48264729  0.08655890  0.07754093  1.0
  C  C39  1  0.49309358  0.92063152  0.91390778  1.0
  C  C40  1  0.98471684  0.46696235  0.47521099  1.0
  C  C41  1  0.98843013  0.52588307  0.53340986  1.0
  C  C42  1  0.48473503  0.03302543  0.02479880  1.0
  C  C43  1  0.48846210  0.97411675  0.96658949  1.0
  S  S44  1  0.68534416  0.33839991  0.98883442  1.0
  S  S45  1  0.31106823  0.66671664  0.01729962  1.0
  S  S46  1  0.18535151  0.16161355  0.51116620  1.0
  S  S47  1  0.81098346  0.83326239  0.48267761  1.0
  O  O48  1  0.67092785  0.83770451  0.66539861  1.0
  O  O49  1  0.32538896  0.16225796  0.33586881  1.0
  O  O50  1  0.17095893  0.66230732  0.83459483  1.0
  O  O51  1  0.82539082  0.33775049  0.16413592  1.0
  O  O52  1  0.33077616  0.83671741  0.82215640  1.0
  O  O53  1  0.66180719  0.17571338  0.16072697  1.0
  O  O54  1  0.83077028  0.66328922  0.67783850  1.0
  O  O55  1  0.16179992  0.32428923  0.33926914  1.0
  O  O56  1  0.33097224  0.83694525  0.65832683  1.0
  O  O57  1  0.66256617  0.15842551  0.32896602  1.0
  O  O58  1  0.83100216  0.66304550  0.84166090  1.0
  O  O59  1  0.16256420  0.34157582  0.17103668  1.0
  O  O60  1  0.17025409  0.66806012  0.67006491  1.0
  O  O61  1  0.82201815  0.33487949  0.32653587  1.0
  O  O62  1  0.67026057  0.83193691  0.82993993  1.0
  O  O63  1  0.32202372  0.16512284  0.17346827  1.0
  O  O64  1  0.50001245  0.69412744  0.75100783  1.0
  O  O65  1  0.49134859  0.30641323  0.24656902  1.0
  O  O66  1  0.99999937  0.80587718  0.74899030  1.0
  O  O67  1  0.99135766  0.19359055  0.25343056  1.0
  O  O68  1  0.51719082  0.34930424  0.04133167  1.0
  O  O69  1  0.65444903  0.33816714  0.90415152  1.0
  O  O70  1  0.80663672  0.24761001  0.01614690  1.0
  O  O71  1  0.19736811  0.74945683  0.99950448  1.0
  O  O72  1  0.40984140  0.64664110  0.09311507  1.0
  O  O73  1  0.47509615  0.66524907  0.94785028  1.0
  O  O74  1  0.01719471  0.15070795  0.45867372  1.0
  O  O75  1  0.15446372  0.16184726  0.59584976  1.0
  O  O76  1  0.30664387  0.25239657  0.48385008  1.0
  O  O77  1  0.69717407  0.75055576  0.50044699  1.0
  O  O78  1  0.90976901  0.85332635  0.40686496  1.0
  O  O79  1  0.97501351  0.83467488  0.55213662  1.0
