# generated using pymatgen
data_ZnH9C19I5NO4
_symmetry_space_group_name_H-M   'P 1'
_cell_length_a   10.85655248
_cell_length_b   16.54572174
_cell_length_c   17.82566263
_cell_angle_alpha   90.53240142
_cell_angle_beta   91.42700237
_cell_angle_gamma   90.71774934
_symmetry_Int_Tables_number   1
_chemical_formula_structural   ZnH9C19I5NO4
_chemical_formula_sum   'Zn2 H18 C38 I10 N2 O8'
_cell_volume   3200.62284842
_cell_formula_units_Z   2
loop_
 _symmetry_equiv_pos_site_id
 _symmetry_equiv_pos_as_xyz
  1  'x, y, z'
loop_
 _atom_site_type_symbol
 _atom_site_label
 _atom_site_symmetry_multiplicity
 _atom_site_fract_x
 _atom_site_fract_y
 _atom_site_fract_z
 _atom_site_occupancy
  Zn  Zn0  1  0.50161171  0.41305790  0.50600660  1.0
  Zn  Zn1  1  0.50030463  0.58558992  0.50719314  1.0
  H  H2  1  0.87888183  0.37576421  0.44864289  1.0
  H  H3  1  0.91033119  0.40019005  0.57682064  1.0
  H  H4  1  0.09226770  0.36708206  0.46815974  1.0
  H  H5  1  0.12077913  0.42835702  0.60249152  1.0
  H  H6  1  0.09093934  0.58182491  0.40846320  1.0
  H  H7  1  0.12159805  0.62483565  0.49833077  1.0
  H  H8  1  0.43489320  0.40487220  0.11341485  1.0
  H  H9  1  0.65539383  0.62177181  0.14203902  1.0
  H  H10  1  0.49875022  0.37599148  0.74582633  1.0
  H  H11  1  0.56548522  0.63168735  0.73936311  1.0
  H  H12  1  0.59566264  0.10755217  0.56574347  1.0
  H  H13  1  0.61074059  0.89308701  0.55255848  1.0
  H  H14  1  0.35530694  0.30509324  0.42170524  1.0
  H  H15  1  0.34401376  0.68928357  0.42614586  1.0
  H  H16  1  0.10914221  0.42941403  0.38947632  1.0
  H  H17  1  0.09748428  0.53374674  0.61088941  1.0
  H  H18  1  0.88260642  0.60637734  0.43301567  1.0
  H  H19  1  0.91230581  0.61989983  0.52980090  1.0
  C  C20  1  0.51058397  0.50324006  0.65160825  1.0
  C  C21  1  0.73799651  0.49430758  0.49869440  1.0
  C  C22  1  0.49511219  0.50511589  0.35975455  1.0
  C  C23  1  0.26162020  0.49418114  0.50082508  1.0
  C  C24  1  0.92615075  0.43351778  0.43962726  1.0
  C  C25  1  0.93476468  0.46436273  0.57181444  1.0
  C  C26  1  0.06783512  0.42630540  0.44493348  1.0
  C  C27  1  0.07437199  0.48009201  0.57640124  1.0
  C  C28  1  0.93191412  0.58074608  0.48152702  1.0
  C  C29  1  0.87925449  0.49642821  0.49694289  1.0
  C  C30  1  0.12090884  0.49419545  0.49602438  1.0
  C  C31  1  0.07144569  0.57589539  0.46847978  1.0
  C  C32  1  0.47696050  0.45086028  0.15018541  1.0
  C  C33  1  0.60050911  0.57347817  0.16606437  1.0
  C  C34  1  0.45757911  0.45056236  0.22692984  1.0
  C  C35  1  0.57851124  0.57255447  0.24274931  1.0
  C  C36  1  0.50954059  0.50989349  0.27595249  1.0
  C  C37  1  0.55040724  0.51211885  0.11890120  1.0
  C  C38  1  0.56670704  0.51226344  0.04048536  1.0
  C  C39  1  0.57079898  0.50977320  0.97213727  1.0
  C  C40  1  0.53682489  0.43406988  0.85340314  1.0
  C  C41  1  0.57543505  0.57840907  0.84976175  1.0
  C  C42  1  0.51904522  0.43227114  0.77594503  1.0
  C  C43  1  0.55718626  0.57701052  0.77241013  1.0
  C  C44  1  0.52785750  0.50400271  0.73535003  1.0
  C  C45  1  0.56337271  0.50732921  0.89322672  1.0
  C  C46  1  0.54116298  0.14960315  0.53263727  1.0
  C  C47  1  0.54981047  0.84963520  0.52371701  1.0
  C  C48  1  0.55600325  0.23262247  0.54355997  1.0
  C  C49  1  0.56565896  0.76710934  0.53393469  1.0
  C  C50  1  0.40625778  0.25878778  0.45200530  1.0
  C  C51  1  0.39995228  0.73692087  0.45309598  1.0
  C  C52  1  0.38433810  0.17692168  0.43817768  1.0
  C  C53  1  0.37763257  0.81828970  0.43967656  1.0
  C  C54  1  0.45405047  0.11974113  0.47895852  1.0
  C  C55  1  0.45403573  0.87718344  0.47610210  1.0
  C  C56  1  0.44141450  0.03522513  0.47004707  1.0
  C  C57  1  0.44075530  0.96148738  0.46886185  1.0
  I  I58  1  0.86331134  0.46090809  0.32469956  1.0
  I  I59  1  0.84964109  0.51325889  0.67273865  1.0
  I  I60  1  0.68165200  0.27180085  0.62804891  1.0
  I  I61  1  0.71043782  0.73051560  0.60508830  1.0
  I  I62  1  0.24902038  0.14152304  0.35894180  1.0
  I  I63  1  0.23361112  0.85057613  0.36688474  1.0
  I  I64  1  0.33460305  0.35935341  0.26311121  1.0
  I  I65  1  0.65777078  0.67134063  0.30396333  1.0
  I  I66  1  0.52419819  0.32488261  0.91247342  1.0
  I  I67  1  0.62004452  0.68941303  0.90278029  1.0
  N  N68  1  0.49061449  0.28627634  0.50337123  1.0
  N  N69  1  0.49159717  0.71172758  0.49953097  1.0
  O  O70  1  0.48865839  0.43543700  0.61940638  1.0
  O  O71  1  0.52055252  0.57130088  0.61952295  1.0
  O  O72  1  0.68830831  0.42545388  0.50935594  1.0
  O  O73  1  0.68218728  0.56058719  0.49047654  1.0
  O  O74  1  0.51584892  0.43750875  0.39002261  1.0
  O  O75  1  0.46543102  0.57002772  0.39299144  1.0
  O  O76  1  0.31483144  0.42681498  0.49073617  1.0
  O  O77  1  0.31495698  0.56099384  0.51727524  1.0
