# generated using pymatgen
data_AlH6C14NO5
_symmetry_space_group_name_H-M   'P 1'
_cell_length_a   6.67384580
_cell_length_b   20.06683829
_cell_length_c   23.31780562
_cell_angle_alpha   93.36331006
_cell_angle_beta   89.99952409
_cell_angle_gamma   89.99951432
_symmetry_Int_Tables_number   1
_chemical_formula_structural   AlH6C14NO5
_chemical_formula_sum   'Al4 H24 C56 N4 O20'
_cell_volume   3117.41142748
_cell_formula_units_Z   4
loop_
 _symmetry_equiv_pos_site_id
 _symmetry_equiv_pos_as_xyz
  1  'x, y, z'
loop_
 _atom_site_type_symbol
 _atom_site_label
 _atom_site_symmetry_multiplicity
 _atom_site_fract_x
 _atom_site_fract_y
 _atom_site_fract_z
 _atom_site_occupancy
  Al  Al0  1  0.76358968  0.25031116  0.75004987  1.0
  Al  Al1  1  0.23647052  0.74956005  0.24965373  1.0
  Al  Al2  1  0.26353768  0.24955549  0.74965488  1.0
  Al  Al3  1  0.73641313  0.75031124  0.25004871  1.0
  H  H4  1  0.68822682  0.01312947  0.54700351  1.0
  H  H5  1  0.30518486  0.94390304  0.48548101  1.0
  H  H6  1  0.19479904  0.44390323  0.98548274  1.0
  H  H7  1  0.81177596  0.51313116  0.04699276  1.0
  H  H8  1  0.69749803  0.09819239  0.62874676  1.0
  H  H9  1  0.30146219  0.86305764  0.40073524  1.0
  H  H10  1  0.19852785  0.36305448  0.90073909  1.0
  H  H11  1  0.80251363  0.59819411  0.12873603  1.0
  H  H12  1  0.32387709  0.13064681  0.59904567  1.0
  H  H13  1  0.68102605  0.90693973  0.37183147  1.0
  H  H14  1  0.81895582  0.40694001  0.87182565  1.0
  H  H15  1  0.17611940  0.63064716  0.09905322  1.0
  H  H16  1  0.31421182  0.04930178  0.51463487  1.0
  H  H17  1  0.68620216  0.99179608  0.45375585  1.0
  H  H18  1  0.81377359  0.49180066  0.95374705  1.0
  H  H19  1  0.18577432  0.54929961  0.01464239  1.0
  H  H20  1  0.29926119  0.00591582  0.93704054  1.0
  H  H21  1  0.69908035  0.99448401  0.06304720  1.0
  H  H22  1  0.80091849  0.49448531  0.56304872  1.0
  H  H23  1  0.20075096  0.50591899  0.43703903  1.0
  H  H24  1  0.51397250  0.16649032  0.76660020  1.0
  H  H25  1  0.48462971  0.83459995  0.23573107  1.0
  H  H26  1  0.01538184  0.33459767  0.73573100  1.0
  H  H27  1  0.98604633  0.66649423  0.26660242  1.0
  C  C28  1  0.51761069  0.32708584  0.67399422  1.0
  C  C29  1  0.49094835  0.67284581  0.32576581  1.0
  C  C30  1  0.00906608  0.17284139  0.82576317  1.0
  C  C31  1  0.98236341  0.82708697  0.17399172  1.0
  C  C32  1  0.50830134  0.33218540  0.82987339  1.0
  C  C33  1  0.48269511  0.66761587  0.16997393  1.0
  C  C34  1  0.01732506  0.16761660  0.66997428  1.0
  C  C35  1  0.99168350  0.83219150  0.32987131  1.0
  C  C36  1  0.82741598  0.03964765  0.55731235  1.0
  C  C37  1  0.16897906  0.93737860  0.45992682  1.0
  C  C38  1  0.33100739  0.43737880  0.95992828  1.0
  C  C39  1  0.67257991  0.53964525  0.05730787  1.0
  C  C40  1  0.83189037  0.08659067  0.60354408  1.0
  C  C41  1  0.16742054  0.89146640  0.41296555  1.0
  C  C42  1  0.33256701  0.39146361  0.91296699  1.0
  C  C43  1  0.66811942  0.58659211  0.10353704  1.0
  C  C44  1  0.01149323  0.11904400  0.61920886  1.0
  C  C45  1  0.99145885  0.88040973  0.38090595  1.0
  C  C46  1  0.50852171  0.38040697  0.88090589  1.0
  C  C47  1  0.48851623  0.61904424  0.11920849  1.0
  C  C48  1  0.18541017  0.10460270  0.58707889  1.0
  C  C49  1  0.81732623  0.91594233  0.39685934  1.0
  C  C50  1  0.68265007  0.41594367  0.89685508  1.0
  C  C51  1  0.31459475  0.60460283  0.08708273  1.0
  C  C52  1  0.17935499  0.05845042  0.54029694  1.0
  C  C53  1  0.82069930  0.96273744  0.44324702  1.0
  C  C54  1  0.67928040  0.46273777  0.94324233  1.0
  C  C55  1  0.32063903  0.55844804  0.04030076  1.0
  C  C56  1  0.00089478  0.02451112  0.52473736  1.0
  C  C57  1  0.99649829  0.97455949  0.47568782  1.0
  C  C58  1  0.50348151  0.47455913  0.97568606  1.0
  C  C59  1  0.49909148  0.52451066  0.02473439  1.0
  C  C60  1  0.16778181  0.00307157  0.96432594  1.0
  C  C61  1  0.83067660  0.99738812  0.03580921  1.0
  C  C62  1  0.66932616  0.49738877  0.53580884  1.0
  C  C63  1  0.33223241  0.50307427  0.46432416  1.0
  C  C64  1  0.00398696  0.04487289  0.95491211  1.0
  C  C65  1  0.99454038  0.95557932  0.04522302  1.0
  C  C66  1  0.50546286  0.45558223  0.54522556  1.0
  C  C67  1  0.49603128  0.54487397  0.45490958  1.0
  C  C68  1  0.83396355  0.04136785  0.99154497  1.0
  C  C69  1  0.16459225  0.95912837  0.00863881  1.0
  C  C70  1  0.33541610  0.45913144  0.50863855  1.0
  C  C71  1  0.66604657  0.54136871  0.49154438  1.0
  C  C72  1  0.00824875  0.08922527  0.91017961  1.0
  C  C73  1  0.98973018  0.91108261  0.08985033  1.0
  C  C74  1  0.51026331  0.41108500  0.58985285  1.0
  C  C75  1  0.49175976  0.58922900  0.41017925  1.0
  C  C76  1  0.98573516  0.87260390  0.12826202  1.0
  C  C77  1  0.01018798  0.12756129  0.87164168  1.0
  C  C78  1  0.48983016  0.62757034  0.37164649  1.0
  C  C79  1  0.51424570  0.37260470  0.62826325  1.0
  C  C80  1  0.33551043  0.91840246  0.01755086  1.0
  C  C81  1  0.66294648  0.08205554  0.98261994  1.0
  C  C82  1  0.83705868  0.58205437  0.48262029  1.0
  C  C83  1  0.16449540  0.41840761  0.51755051  1.0
  N  N84  1  0.47936620  0.88668759  0.02450982  1.0
  N  N85  1  0.51904126  0.11374752  0.97566907  1.0
  N  N86  1  0.98095753  0.61374946  0.47567130  1.0
  N  N87  1  0.02064149  0.38669281  0.52451062  1.0
  O  O88  1  0.33859612  0.30914734  0.81322699  1.0
  O  O89  1  0.64935106  0.68226327  0.19443333  1.0
  O  O90  1  0.85066558  0.18226262  0.69443818  1.0
  O  O91  1  0.16139963  0.80915353  0.31322385  1.0
  O  O92  1  0.68853457  0.30583564  0.68850839  1.0
  O  O93  1  0.32236517  0.68557077  0.30345639  1.0
  O  O94  1  0.17764682  0.18556208  0.80345083  1.0
  O  O95  1  0.81146938  0.80583586  0.18850579  1.0
  O  O96  1  0.67652126  0.31846610  0.80589723  1.0
  O  O97  1  0.31149646  0.69000855  0.18599267  1.0
  O  O98  1  0.18851370  0.19000846  0.68598968  1.0
  O  O99  1  0.82347820  0.81847123  0.30589419  1.0
  O  O100  1  0.83865376  0.19514285  0.81183629  1.0
  O  O101  1  0.15114227  0.81321961  0.19559890  1.0
  O  O102  1  0.34886515  0.31322069  0.69559947  1.0
  O  O103  1  0.66135088  0.69514470  0.31183528  1.0
  O  O104  1  0.51407428  0.20924153  0.74929120  1.0
  O  O105  1  0.48613425  0.79056244  0.25067552  1.0
  O  O106  1  0.01386413  0.29056125  0.75067674  1.0
  O  O107  1  0.98594284  0.70924433  0.24929171  1.0
