# generated using pymatgen
data_AlH9C24(NO2)6
_symmetry_space_group_name_H-M   'P 1'
_cell_length_a   4.02623475
_cell_length_b   15.66225151
_cell_length_c   15.79253268
_cell_angle_alpha   60.47823640
_cell_angle_beta   88.39417092
_cell_angle_gamma   83.73852274
_symmetry_Int_Tables_number   1
_chemical_formula_structural   AlH9C24(NO2)6
_chemical_formula_sum   'Al1 H9 C24 N6 O12'
_cell_volume   861.02917160
_cell_formula_units_Z   1
loop_
 _symmetry_equiv_pos_site_id
 _symmetry_equiv_pos_as_xyz
  1  'x, y, z'
loop_
 _atom_site_type_symbol
 _atom_site_label
 _atom_site_symmetry_multiplicity
 _atom_site_fract_x
 _atom_site_fract_y
 _atom_site_fract_z
 _atom_site_occupancy
  Al  Al0  1  0.01256472  0.99947257  0.49837981  1.0
  H  H1  1  0.37740876  0.09699743  0.03714836  1.0
  H  H2  1  0.50744630  0.37187985  0.58770133  1.0
  H  H3  1  0.56785241  0.54143811  0.87426579  1.0
  H  H4  1  0.67581909  0.73077034  0.51486925  1.0
  H  H5  1  0.70656262  0.54696009  0.60008888  1.0
  H  H6  1  0.53109227  0.00616838  0.75181540  1.0
  H  H7  1  0.58343304  0.08939535  0.85061483  1.0
  H  H8  1  0.69183520  0.23646497  0.24280693  1.0
  H  H9  1  0.71949584  0.33522530  0.06219744  1.0
  C  C10  1  0.50448116  0.05720894  0.35114552  1.0
  C  C11  1  0.56378068  0.85027994  0.58850458  1.0
  C  C12  1  0.47440700  0.08820953  0.55912388  1.0
  C  C13  1  0.51893177  0.11152548  0.24182568  1.0
  C  C14  1  0.48543829  0.14197643  0.61524399  1.0
  C  C15  1  0.60114377  0.73959740  0.64588783  1.0
  C  C16  1  0.42856703  0.07482009  0.18183728  1.0
  C  C17  1  0.44799154  0.12829630  0.08119077  1.0
  C  C18  1  0.48116084  0.24467215  0.57095448  1.0
  C  C19  1  0.51581342  0.29187271  0.62442830  1.0
  C  C20  1  0.57876776  0.68424246  0.74718199  1.0
  C  C21  1  0.59685191  0.58186996  0.79584756  1.0
  C  C22  1  0.65448449  0.68859214  0.59366528  1.0
  C  C23  1  0.67216356  0.58623032  0.64111062  1.0
  C  C24  1  0.52403576  0.08623732  0.71676014  1.0
  C  C25  1  0.55524580  0.13251858  0.77162108  1.0
  C  C26  1  0.62312340  0.20640709  0.19730738  1.0
  C  C27  1  0.63997782  0.26139635  0.09655819  1.0
  C  C28  1  0.55622079  0.22224933  0.03776109  1.0
  C  C29  1  0.57678230  0.27922428  0.93078290  1.0
  C  C30  1  0.55068592  0.23557595  0.72599380  1.0
  C  C31  1  0.57401570  0.28523916  0.78406702  1.0
  C  C32  1  0.63722416  0.53210953  0.74243450  1.0
  C  C33  1  0.62384782  0.42428572  0.79209946  1.0
  N  N34  1  0.55105631  0.23085108  0.88107612  1.0
  N  N35  1  0.61113757  0.38215123  0.73607703  1.0
  N  N36  1  0.61488329  0.37567397  0.88991656  1.0
  N  N37  1  0.30051171  0.97764550  0.22472739  1.0
  N  N38  1  0.51393571  0.73413896  0.80556278  1.0
  N  N39  1  0.41896102  0.30668129  0.46482540  1.0
  O  O40  1  0.25072186  0.03015916  0.58161967  1.0
  O  O41  1  0.24877833  0.08247839  0.38596145  1.0
  O  O42  1  0.31968668  0.88736278  0.52725224  1.0
  O  O43  1  0.70381701  0.09980263  0.49854874  1.0
  O  O44  1  0.78186788  0.89678204  0.59952951  1.0
  O  O45  1  0.75761358  0.99869284  0.39892361  1.0
  O  O46  1  0.32205346  0.92544530  0.31451475  1.0
  O  O47  1  0.17533258  0.95506618  0.16866685  1.0
  O  O48  1  0.36204632  0.81839705  0.76407152  1.0
  O  O49  1  0.61193398  0.68806855  0.89176296  1.0
  O  O50  1  0.25239788  0.27344946  0.42497392  1.0
  O  O51  1  0.53091340  0.38760050  0.42379960  1.0
