# generated using pymatgen
data_Zn3H65C93N9O13
_symmetry_space_group_name_H-M   'P 1'
_cell_length_a   20.90660145
_cell_length_b   21.13904473
_cell_length_c   21.51070849
_cell_angle_alpha   61.09869820
_cell_angle_beta   64.02636114
_cell_angle_gamma   83.76835338
_symmetry_Int_Tables_number   1
_chemical_formula_structural   Zn3H65C93N9O13
_chemical_formula_sum   'Zn6 H130 C186 N18 O26'
_cell_volume   7417.44219199
_cell_formula_units_Z   2
loop_
 _symmetry_equiv_pos_site_id
 _symmetry_equiv_pos_as_xyz
  1  'x, y, z'
loop_
 _atom_site_type_symbol
 _atom_site_label
 _atom_site_symmetry_multiplicity
 _atom_site_fract_x
 _atom_site_fract_y
 _atom_site_fract_z
 _atom_site_occupancy
  Zn  Zn0  1  0.04537330  0.44503675  0.32842673  1.0
  Zn  Zn1  1  0.95462365  0.55496496  0.67157228  1.0
  Zn  Zn2  1  0.10072231  0.27367242  0.36067210  1.0
  Zn  Zn3  1  0.89927914  0.72632713  0.63932457  1.0
  Zn  Zn4  1  0.08400374  0.11315964  0.34671042  1.0
  Zn  Zn5  1  0.91599480  0.88684581  0.65329038  1.0
  H  H6  1  0.09825077  0.79871021  0.37437114  1.0
  H  H7  1  0.90175345  0.20129869  0.62561585  1.0
  H  H8  1  0.05465798  0.71380752  0.43766243  1.0
  H  H9  1  0.94534815  0.28619978  0.56232308  1.0
  H  H10  1  0.21953899  0.48019320  0.50300874  1.0
  H  H11  1  0.78045506  0.51980248  0.49699615  1.0
  H  H12  1  0.21623297  0.24681364  0.60882931  1.0
  H  H13  1  0.78375991  0.75318086  0.39118128  1.0
  H  H14  1  0.03656220  0.62402191  0.42848499  1.0
  H  H15  1  0.96344579  0.37599133  0.57149977  1.0
  H  H16  1  0.05863423  0.51024341  0.41992990  1.0
  H  H17  1  0.94136841  0.48976543  0.58006105  1.0
  H  H18  1  0.06114703  0.94580226  0.45434419  1.0
  H  H19  1  0.93884826  0.05419892  0.54565532  1.0
  H  H20  1  0.59019489  0.29366275  0.72453819  1.0
  H  H21  1  0.40980315  0.70633071  0.27546786  1.0
  H  H22  1  0.68234956  0.41199152  0.45555176  1.0
  H  H23  1  0.31763988  0.58799329  0.54445920  1.0
  H  H24  1  0.16113276  0.47666074  0.42584531  1.0
  H  H25  1  0.83886025  0.52333487  0.57416332  1.0
  H  H26  1  0.46358501  0.45935993  0.57121957  1.0
  H  H27  1  0.53641930  0.54063312  0.42877698  1.0
  H  H28  1  0.83262814  0.35517220  0.59746277  1.0
  H  H29  1  0.16738065  0.64483881  0.40252500  1.0
  H  H30  1  0.70094409  0.34988546  0.66915733  1.0
  H  H31  1  0.29906245  0.65011619  0.33084036  1.0
  H  H32  1  0.00816115  0.58777879  0.23211552  1.0
  H  H33  1  0.99182073  0.41221751  0.76789156  1.0
  H  H34  1  0.81486715  0.42129174  0.38373831  1.0
  H  H35  1  0.18512481  0.57870463  0.61626066  1.0
  H  H36  1  0.99326445  0.98535519  0.24778342  1.0
  H  H37  1  0.00673379  0.01465628  0.75221287  1.0
  H  H38  1  0.40339177  0.29813748  0.64339830  1.0
  H  H39  1  0.59661209  0.70187244  0.35659210  1.0
  H  H40  1  0.42975108  0.43609192  0.77330442  1.0
  H  H41  1  0.57024468  0.56390414  0.22670746  1.0
  H  H42  1  0.27162321  0.49975525  0.95205715  1.0
  H  H43  1  0.72837443  0.50023560  0.04794423  1.0
  H  H44  1  0.26491037  0.44396502  0.70874988  1.0
  H  H45  1  0.73508796  0.55603059  0.29125645  1.0
  H  H46  1  0.45853750  0.28999635  0.79127757  1.0
  H  H47  1  0.54145860  0.71000252  0.20872916  1.0
  H  H48  1  0.16997365  0.27766364  0.08291824  1.0
  H  H49  1  0.83002292  0.72232278  0.91708936  1.0
  H  H50  1  0.02813721  0.83728411  0.45285001  1.0
  H  H51  1  0.97186364  0.16271935  0.54714094  1.0
  H  H52  1  0.15501051  0.24402354  0.53384869  1.0
  H  H53  1  0.84498413  0.75596828  0.46616052  1.0
  H  H54  1  0.17907899  0.31517706  0.95757368  1.0
  H  H55  1  0.82091964  0.68481696  0.04243093  1.0
  H  H56  1  0.33639266  0.29351856  0.57508932  1.0
  H  H57  1  0.66361001  0.70649022  0.42490491  1.0
  H  H58  1  0.36536398  0.44268082  0.89671093  1.0
  H  H59  1  0.63462733  0.55730990  0.10330022  1.0
  H  H60  1  0.98377929  0.70744632  0.23099957  1.0
  H  H61  1  0.01620732  0.29255385  0.76900090  1.0
  H  H62  1  0.09951108  0.29205805  0.20073961  1.0
  H  H63  1  0.90049496  0.70793532  0.79926722  1.0
  H  H64  1  0.59556436  0.46483728  0.50456213  1.0
  H  H65  1  0.40443931  0.53515087  0.49543649  1.0
  H  H66  1  0.19865307  0.44026927  0.63915040  1.0
  H  H67  1  0.80134375  0.55972683  0.36085915  1.0
  H  H68  1  0.24314264  0.30936806  0.83377834  1.0
  H  H69  1  0.75685874  0.69063093  0.16621954  1.0
  H  H70  1  0.19996587  0.51348468  0.07172945  1.0
  H  H71  1  0.80003344  0.48650227  0.92827765  1.0
  H  H72  1  0.02458170  0.08823603  0.26144111  1.0
  H  H73  1  0.97541008  0.91177043  0.73856632  1.0
  H  H74  1  0.30355967  0.22684474  0.44847235  1.0
  H  H75  1  0.69644654  0.77315490  0.55151804  1.0
  H  H76  1  0.74056518  0.05483151  0.53132980  1.0
  H  H77  1  0.25943683  0.94516793  0.46867225  1.0
  H  H78  1  0.74819914  0.25953698  0.52938196  1.0
  H  H79  1  0.25180351  0.74047186  0.47060899  1.0
  H  H80  1  0.25832143  0.19029952  0.87271924  1.0
  H  H81  1  0.74168303  0.80969826  0.12728344  1.0
  H  H82  1  0.87242447  0.07485695  0.45643513  1.0
  H  H83  1  0.12758116  0.92514577  0.54356385  1.0
  H  H84  1  0.46919745  0.06002110  0.81112964  1.0
  H  H85  1  0.53080996  0.93998332  0.18886407  1.0
  H  H86  1  0.51919073  0.21012875  0.68752614  1.0
  H  H87  1  0.48081523  0.78987675  0.31246816  1.0
  H  H88  1  0.50405576  0.05667527  0.61520736  1.0
  H  H89  1  0.49594732  0.94332864  0.38478707  1.0
  H  H90  1  0.14084736  0.14635223  0.12089960  1.0
  H  H91  1  0.85915527  0.85362766  0.87910792  1.0
  H  H92  1  0.20092653  0.01095130  0.63973455  1.0
  H  H93  1  0.79906986  0.98905792  0.36026730  1.0
  H  H94  1  0.63569594  0.07121964  0.54475649  1.0
  H  H95  1  0.36430837  0.92878527  0.45524113  1.0
  H  H96  1  0.22887835  0.23965587  0.24263788  1.0
  H  H97  1  0.77112448  0.76034126  0.75737186  1.0
  H  H98  1  0.23319568  0.22437138  0.38282041  1.0
  H  H99  1  0.76681017  0.77562926  0.61717386  1.0
  H  H100  1  0.19402961  0.13771493  0.99758870  1.0
  H  H101  1  0.80597425  0.86227048  0.00241250  1.0
  H  H102  1  0.39240960  0.19076416  0.47773122  1.0
  H  H103  1  0.60759058  0.80922558  0.52227097  1.0
  H  H104  1  0.41597670  0.06228690  0.93722697  1.0
  H  H105  1  0.58402523  0.93771207  0.06277208  1.0
  H  H106  1  0.31029006  0.18678656  0.74815617  1.0
  H  H107  1  0.68971454  0.81322053  0.25184032  1.0
  H  H108  1  0.13079172  0.00906334  0.57291627  1.0
  H  H109  1  0.86919594  0.99094427  0.42708962  1.0
  H  H110  1  0.46394650  0.19458302  0.54126091  1.0
  H  H111  1  0.53605665  0.80541324  0.45873746  1.0
  H  H112  1  0.34408407  0.12776234  0.12729593  1.0
  H  H113  1  0.65592185  0.87223436  0.87270616  1.0
  H  H114  1  0.40001753  0.12372324  0.00066411  1.0
  H  H115  1  0.59999178  0.87627511  0.99933529  1.0
  H  H116  1  0.88045332  0.27498113  0.45960920  1.0
  H  H117  1  0.11954798  0.72502554  0.54038286  1.0
  H  H118  1  0.29468897  0.05245202  0.77041851  1.0
  H  H119  1  0.70530694  0.94756149  0.22958530  1.0
  H  H120  1  0.22122482  0.05203725  0.70708095  1.0
  H  H121  1  0.77876885  0.94797952  0.29292326  1.0
  H  H122  1  0.65015120  0.22181862  0.62115880  1.0
  H  H123  1  0.34985232  0.77818032  0.37884051  1.0
  H  H124  1  0.28623537  0.43595008  0.15077100  1.0
  H  H125  1  0.71376498  0.56404879  0.84923343  1.0
  H  H126  1  0.37305511  0.42942852  0.08452181  1.0
  H  H127  1  0.62694381  0.57057217  0.91547310  1.0
  H  H128  1  0.35169411  0.39836435  0.18594200  1.0
  H  H129  1  0.64831019  0.60164061  0.81405328  1.0
  H  H130  1  0.40132009  0.29976140  0.10465091  1.0
  H  H131  1  0.59867874  0.70023355  0.89536156  1.0
  H  H132  1  0.34465279  0.33394233  0.05546718  1.0
  H  H133  1  0.65535002  0.66604668  0.94454351  1.0
  H  H134  1  0.32104976  0.24491142  0.14021514  1.0
  H  H135  1  0.67895417  0.75508187  0.85979682  1.0
  C  C136  1  0.00995910  0.67694626  0.32795228  1.0
  C  C137  1  0.99004045  0.32305936  0.67203916  1.0
  C  C138  1  0.22333518  0.36389653  0.56024778  1.0
  C  C139  1  0.77665457  0.63609853  0.43976344  1.0
  C  C140  1  0.99637682  0.74700181  0.32491050  1.0
  C  C141  1  0.00362422  0.25300710  0.67507786  1.0
  C  C142  1  0.15454765  0.35993627  0.47470183  1.0
  C  C143  1  0.84543750  0.64005605  0.52531357  1.0
  C  C144  1  0.01118286  0.90294151  0.34673819  1.0
  C  C145  1  0.98882383  0.09706569  0.65325177  1.0
  C  C146  1  0.68148641  0.38121936  0.56767242  1.0
  C  C147  1  0.31851373  0.61877417  0.43232944  1.0
  C  C148  1  0.20523633  0.42820257  0.51010927  1.0
  C  C149  1  0.79475594  0.57179142  0.48990043  1.0
  C  C150  1  0.26222731  0.36633199  0.60225853  1.0
  C  C151  1  0.73776469  0.63366421  0.39774840  1.0
  C  C152  1  0.10436396  0.41233237  0.21520717  1.0
  C  C153  1  0.89564199  0.58766055  0.78479525  1.0
  C  C154  1  0.99541797  0.84527920  0.33504023  1.0
  C  C155  1  0.00459091  0.15472860  0.66494572  1.0
  C  C156  1  0.20488036  0.29750524  0.56821168  1.0
  C  C157  1  0.79511024  0.70248820  0.43179899  1.0
  C  C158  1  0.91207731  0.39762685  0.44126736  1.0
  C  C159  1  0.08791929  0.60237663  0.55872495  1.0
  C  C160  1  0.03057172  0.62021684  0.38256521  1.0
  C  C161  1  0.96943151  0.37979260  0.61742289  1.0
  C  C162  1  0.22606025  0.38773175  0.00830021  1.0
  C  C163  1  0.77393726  0.61225801  0.99170219  1.0
  C  C164  1  0.04271652  0.55591932  0.37875695  1.0
  C  C165  1  0.95728672  0.44409009  0.62123256  1.0
  C  C166  1  0.60316709  0.37899525  0.60899918  1.0
  C  C167  1  0.39683277  0.62099609  0.39100380  1.0
  C  C168  1  0.33831262  0.37063768  0.68172051  1.0
  C  C169  1  0.66168860  0.62936400  0.31827853  1.0
  C  C170  1  0.04571615  0.95175779  0.40974484  1.0
  C  C171  1  0.95428076  0.04824775  0.59025196  1.0
  C  C172  1  0.56308349  0.33132655  0.69059621  1.0
  C  C173  1  0.43691620  0.66866748  0.30940746  1.0
  C  C174  1  0.71505150  0.40104739  0.48675719  1.0
  C  C175  1  0.28494276  0.59894179  0.51324921  1.0
  C  C176  1  0.17222453  0.42637697  0.46709960  1.0
  C  C177  1  0.82776726  0.57361759  0.53290864  1.0
  C  C178  1  0.12145577  0.35726439  0.42685129  1.0
  C  C179  1  0.87853563  0.64273127  0.57315615  1.0
  C  C180  1  0.49179242  0.42307969  0.60441971  1.0
  C  C181  1  0.50820970  0.57691278  0.39557992  1.0
  C  C182  1  0.26662041  0.38028536  0.93667235  1.0
  C  C183  1  0.73337551  0.61971257  0.06332746  1.0
  C  C184  1  0.34097798  0.37268953  0.79407478  1.0
  C  C185  1  0.65902194  0.62731059  0.20592135  1.0
  C  C186  1  0.79927988  0.36812550  0.56664271  1.0
  C  C187  1  0.20072466  0.63187730  0.43335206  1.0
  C  C188  1  0.72521733  0.36429451  0.60684871  1.0
  C  C189  1  0.27478444  0.63570338  0.39314997  1.0
  C  C190  1  0.01412996  0.59912741  0.27378883  1.0
  C  C191  1  0.98585981  0.40087655  0.72620946  1.0
  C  C192  1  0.78909767  0.40591232  0.44630123  1.0
  C  C193  1  0.21089909  0.59408402  0.55369661  1.0
  C  C194  1  0.00807216  0.97500553  0.29416861  1.0
  C  C195  1  0.99193182  0.02500108  0.70582512  1.0
  C  C196  1  0.35819416  0.32897932  0.64287312  1.0
  C  C197  1  0.64180875  0.67102729  0.35712107  1.0
  C  C198  1  0.37469206  0.40958310  0.81365731  1.0
  C  C199  1  0.62530174  0.59041479  0.18634529  1.0
  C  C200  1  0.23458255  0.45375991  0.00687182  1.0
  C  C201  1  0.76541671  0.54623089  0.99313167  1.0
  C  C202  1  0.14526686  0.40402851  0.14375075  1.0
  C  C203  1  0.85473607  0.59596170  0.85625329  1.0
  C  C204  1  0.28069065  0.41108086  0.67926118  1.0
  C  C205  1  0.71930895  0.58891641  0.32074291  1.0
  C  C206  1  0.45225754  0.37444516  0.68554562  1.0
  C  C207  1  0.54774221  0.62554949  0.31445450  1.0
  C  C208  1  0.48891388  0.32869215  0.72850479  1.0
  C  C209  1  0.51108556  0.67130408  0.27149706  1.0
  C  C210  1  0.17639967  0.33000965  0.07929006  1.0
  C  C211  1  0.82359920  0.66998226  0.92071216  1.0
  C  C212  1  0.02903446  0.89154507  0.40680752  1.0
  C  C213  1  0.97096624  0.10846105  0.59318552  1.0
  C  C214  1  0.83221998  0.39004879  0.48554937  1.0
  C  C215  1  0.16777702  0.60995354  0.51444608  1.0
  C  C216  1  0.17023569  0.29555910  0.52669968  1.0
  C  C217  1  0.82975408  0.70443218  0.47331141  1.0
  C  C218  1  0.23424177  0.34167282  0.91758278  1.0
  C  C219  1  0.76575514  0.65832453  0.08241825  1.0
  C  C220  1  0.32039236  0.32659762  0.60444306  1.0
  C  C221  1  0.67960361  0.67340460  0.39555846  1.0
  C  C222  1  0.33792124  0.41327195  0.88337535  1.0
  C  C223  1  0.66207043  0.58672599  0.11662629  1.0
  C  C224  1  0.00082888  0.66494698  0.27323943  1.0
  C  C225  1  0.99916656  0.33505974  0.72675329  1.0
  C  C226  1  0.13690812  0.33778443  0.14612555  1.0
  C  C227  1  0.86309327  0.66220637  0.85387702  1.0
  C  C228  1  0.56565391  0.42515355  0.56709150  1.0
  C  C229  1  0.43434800  0.57483726  0.43290991  1.0
  C  C230  1  0.24345764  0.40880419  0.64010988  1.0
  C  C231  1  0.75653885  0.59119360  0.35989671  1.0
  C  C232  1  0.27022925  0.33807658  0.84790435  1.0
  C  C233  1  0.72976975  0.66192460  0.15209355  1.0
  C  C234  1  0.19437085  0.46201671  0.07325427  1.0
  C  C235  1  0.80562781  0.53797353  0.92675067  1.0
  C  C236  1  0.02489302  0.03156110  0.30179935  1.0
  C  C237  1  0.97509926  0.96844547  0.69820223  1.0
  C  C238  1  0.13851560  0.11431427  0.43127966  1.0
  C  C239  1  0.86147979  0.88568735  0.56872472  1.0
  C  C240  1  0.73331786  0.15621281  0.53556300  1.0
  C  C241  1  0.26668561  0.84379002  0.46443129  1.0
  C  C242  1  0.17799742  0.11613139  0.47303155  1.0
  C  C243  1  0.82199825  0.88387240  0.52697217  1.0
  C  C244  1  0.88452139  0.17673852  0.45246930  1.0
  C  C245  1  0.11547983  0.82326312  0.54753115  1.0
  C  C246  1  0.26693065  0.17814380  0.47546570  1.0
  C  C247  1  0.73307191  0.82186008  0.52453036  1.0
  C  C248  1  0.96426212  0.18744830  0.40990132  1.0
  C  C249  1  0.03573992  0.81255555  0.59009637  1.0
  C  C250  1  0.30128921  0.13064247  0.98923436  1.0
  C  C251  1  0.69871694  0.86935210  0.01076628  1.0
  C  C252  1  0.77008778  0.10466571  0.51398806  1.0
  C  C253  1  0.22991356  0.89533713  0.48600668  1.0
  C  C254  1  0.77453559  0.21767111  0.51532542  1.0
  C  C255  1  0.22546437  0.78233338  0.48466823  1.0
  C  C256  1  0.30383967  0.16037580  0.86056381  1.0
  C  C257  1  0.69616795  0.83962583  0.13943436  1.0
  C  C258  1  0.30110196  0.12064832  0.58718213  1.0
  C  C259  1  0.69889750  0.87935604  0.41281830  1.0
  C  C260  1  0.25846323  0.11876060  0.54868009  1.0
  C  C261  1  0.74153508  0.88124325  0.45131968  1.0
  C  C262  1  0.84443456  0.11536411  0.47198969  1.0
  C  C263  1  0.15556918  0.88463646  0.52800924  1.0
  C  C264  1  0.65425298  0.14722599  0.57749837  1.0
  C  C265  1  0.34574870  0.85277513  0.42250120  1.0
  C  C266  1  0.42291831  0.08874984  0.82480915  1.0
  C  C267  1  0.57708690  0.91125406  0.17518436  1.0
  C  C268  1  0.54471076  0.17897582  0.65690208  1.0
  C  C269  1  0.45529212  0.82102640  0.34309553  1.0
  C  C270  1  0.53636418  0.09300765  0.61624959  1.0
  C  C271  1  0.46363786  0.90699620  0.38374857  1.0
  C  C272  1  0.50228540  0.13209684  0.65666198  1.0
  C  C273  1  0.49771656  0.86790648  0.34333553  1.0
  C  C274  1  0.33301465  0.12713855  0.91507928  1.0
  C  C275  1  0.66699540  0.87286148  0.08491670  1.0
  C  C276  1  0.19771717  0.14169338  0.09378875  1.0
  C  C277  1  0.80228634  0.85829744  0.90621197  1.0
  C  C278  1  0.20817101  0.05806569  0.58341832  1.0
  C  C279  1  0.79182409  0.94194190  0.41658484  1.0
  C  C280  1  0.23945844  0.13867769  0.13113468  1.0
  C  C281  1  0.76054908  0.86131530  0.86886331  1.0
  C  C282  1  0.61084234  0.10115819  0.57697354  1.0
  C  C283  1  0.38915949  0.89884399  0.42302686  1.0
  C  C284  1  0.38461753  0.12351480  0.66051020  1.0
  C  C285  1  0.61538082  0.87649340  0.33948801  1.0
  C  C286  1  0.24412449  0.29426859  0.23038704  1.0
  C  C287  1  0.75587558  0.70573177  0.76962426  1.0
  C  C288  1  0.22707108  0.17726964  0.43850390  1.0
  C  C289  1  0.77292786  0.82273097  0.56149523  1.0
  C  C290  1  0.22796700  0.13734945  0.02439535  1.0
  C  C291  1  0.77203849  0.86264028  0.97560454  1.0
  C  C292  1  0.36992320  0.16096235  0.54216013  1.0
  C  C293  1  0.63007912  0.83903549  0.45784066  1.0
  C  C294  1  0.39311846  0.09092534  0.89545468  1.0
  C  C295  1  0.60688967  0.90907637  0.10453951  1.0
  C  C296  1  0.33333333  0.15899313  0.78967924  1.0
  C  C297  1  0.66666667  0.84101343  0.21031614  1.0
  C  C298  1  0.16899928  0.05648634  0.54598315  1.0
  C  C299  1  0.83099191  0.94351959  0.45402432  1.0
  C  C300  1  0.39398094  0.12369062  0.77025171  1.0
  C  C301  1  0.60602571  0.87631594  0.22974368  1.0
  C  C302  1  0.41081627  0.16299267  0.57768023  1.0
  C  C303  1  0.58918651  0.83700463  0.42232062  1.0
  C  C304  1  0.31230355  0.13122121  0.09714011  1.0
  C  C305  1  0.68770190  0.86877606  0.90286099  1.0
  C  C306  1  0.20712421  0.14096431  0.20742793  1.0
  C  C307  1  0.79287603  0.85903417  0.79256928  1.0
  C  C308  1  0.34281824  0.12779307  0.02713851  1.0
  C  C309  1  0.65718959  0.87220203  0.97286210  1.0
  C  C310  1  0.84884966  0.22730713  0.47546184  1.0
  C  C311  1  0.15114966  0.77270059  0.52453245  1.0
  C  C312  1  0.31592751  0.08304901  0.70617343  1.0
  C  C313  1  0.68406467  0.91696452  0.29383105  1.0
  C  C314  1  0.27504116  0.08233219  0.67007709  1.0
  C  C315  1  0.72495361  0.91768079  0.32992652  1.0
  C  C316  1  0.61901172  0.18561274  0.61878773  1.0
  C  C317  1  0.38099050  0.81438838  0.38121160  1.0
  C  C318  1  0.33052209  0.40289178  0.14547604  1.0
  C  C319  1  0.66947920  0.59711043  0.85452319  1.0
  C  C320  1  0.34540903  0.30082002  0.11328093  1.0
  C  C321  1  0.65459199  0.69917547  0.88673034  1.0
  N  N322  1  0.02127595  0.77899506  0.35411266  1.0
  N  N323  1  0.97872913  0.22101221  0.64587424  1.0
  N  N324  1  0.04470401  0.02041790  0.35786232  1.0
  N  N325  1  0.95529072  0.97958705  0.64213802  1.0
  N  N326  1  0.95682942  0.85250162  0.29659692  1.0
  N  N327  1  0.04317823  0.14750887  0.70339018  1.0
  N  N328  1  0.07510585  0.75534112  0.37936252  1.0
  N  N329  1  0.92490029  0.24466615  0.62062439  1.0
  N  N330  1  0.37662877  0.37146637  0.72189882  1.0
  N  N331  1  0.62337251  0.62853588  0.27809808  1.0
  N  N332  1  0.03563261  0.54549737  0.32504526  1.0
  N  N333  1  0.96436125  0.45450928  0.67495142  1.0
  N  N334  1  0.95671417  0.79134842  0.29121327  1.0
  N  N335  1  0.04328769  0.20866263  0.70877561  1.0
  N  N336  1  0.42639813  0.12468781  0.69667137  1.0
  N  N337  1  0.57360333  0.87531988  0.30332387  1.0
  N  N338  1  0.30494061  0.33090124  0.16549368  1.0
  N  N339  1  0.69506128  0.66909703  0.83451314  1.0
  O  O340  1  0.10341213  0.47533876  0.20957061  1.0
  O  O341  1  0.89659939  0.52465197  0.79043041  1.0
  O  O342  1  0.10279510  0.29430239  0.44072034  1.0
  O  O343  1  0.89720098  0.70569657  0.55928171  1.0
  O  O344  1  0.93904325  0.42523693  0.36554984  1.0
  O  O345  1  0.06095156  0.57476930  0.63444011  1.0
  O  O346  1  0.06926039  0.35588982  0.28291084  1.0
  O  O347  1  0.93074151  0.64410476  0.71709164  1.0
  O  O348  1  0.95072915  0.37872901  0.47761440  1.0
  O  O349  1  0.04927168  0.62127455  0.52237139  1.0
  O  O350  1  0.11484739  0.41793121  0.37481999  1.0
  O  O351  1  0.88514521  0.58206554  0.62518644  1.0
  O  O352  1  0.99752748  0.22566833  0.42050581  1.0
  O  O353  1  0.00247412  0.77432781  0.57949980  1.0
  O  O354  1  0.13592820  0.17459685  0.37333695  1.0
  O  O355  1  0.86408125  0.82539893  0.62665567  1.0
  O  O356  1  0.10899306  0.05523485  0.44807723  1.0
  O  O357  1  0.89099199  0.94476442  0.55194200  1.0
  O  O358  1  0.14045815  0.15377995  0.23089828  1.0
  O  O359  1  0.85954578  0.84622232  0.76909652  1.0
  O  O360  1  0.20756110  0.32004251  0.27552817  1.0
  O  O361  1  0.79244365  0.67995298  0.72448102  1.0
  O  O362  1  0.99280852  0.15628323  0.36766455  1.0
  O  O363  1  0.00718843  0.84372667  0.63233023  1.0
  O  O364  1  0.24363453  0.13098982  0.24369818  1.0
  O  O365  1  0.75636419  0.86900472  0.75630802  1.0
