# generated using pymatgen
data_ZnH22C36(NO3)2
_symmetry_space_group_name_H-M   'P 1'
_cell_length_a   12.43033974
_cell_length_b   13.19672356
_cell_length_c   27.32752291
_cell_angle_alpha   88.03588659
_cell_angle_beta   79.99534810
_cell_angle_gamma   81.29891467
_symmetry_Int_Tables_number   1
_chemical_formula_structural   ZnH22C36(NO3)2
_chemical_formula_sum   'Zn2 H44 C72 N4 O12'
_cell_volume   4363.67821321
_cell_formula_units_Z   2
loop_
 _symmetry_equiv_pos_site_id
 _symmetry_equiv_pos_as_xyz
  1  'x, y, z'
loop_
 _atom_site_type_symbol
 _atom_site_label
 _atom_site_symmetry_multiplicity
 _atom_site_fract_x
 _atom_site_fract_y
 _atom_site_fract_z
 _atom_site_occupancy
  Zn  Zn0  1  0.89447913  0.47734649  0.48707068  1.0
  Zn  Zn1  1  0.09902800  0.52245366  0.51411445  1.0
  H  H2  1  0.69424257  0.50495018  0.63584624  1.0
  H  H3  1  0.11608085  0.73723591  0.45732871  1.0
  H  H4  1  0.64224292  0.28934861  0.39888982  1.0
  H  H5  1  0.67129560  0.54510999  0.52019044  1.0
  H  H6  1  0.52569476  0.76293699  0.86711661  1.0
  H  H7  1  0.52642562  0.63075272  0.55649205  1.0
  H  H8  1  0.34653169  0.72068952  0.59839552  1.0
  H  H9  1  0.26850144  0.43758842  0.45302771  1.0
  H  H10  1  0.15942073  0.66269549  0.35692357  1.0
  H  H11  1  0.25374991  0.67102737  0.26872147  1.0
  H  H12  1  0.29388646  0.71549025  0.01339328  1.0
  H  H13  1  0.93832440  0.51203454  0.76151374  1.0
  H  H14  1  0.01780847  0.50302387  0.67065183  1.0
  H  H15  1  0.69118908  0.33520079  0.06404699  1.0
  H  H16  1  0.19518569  0.24782785  0.32507872  1.0
  H  H17  1  0.14976936  0.30044209  0.38563815  1.0
  H  H18  1  0.05504127  0.30210480  0.34459761  1.0
  H  H19  1  0.26635584  0.26274702  0.53750404  1.0
  H  H20  1  0.35592998  0.14360342  0.53562810  1.0
  H  H21  1  0.35728992  0.22452050  0.48244848  1.0
  H  H22  1  0.36873754  0.92436834  0.50833465  1.0
  H  H23  1  0.38127920  0.94492739  0.44347025  1.0
  H  H24  1  0.79659330  0.29437340  0.90064039  1.0
  H  H25  1  0.41739657  0.03637244  0.48091618  1.0
  H  H26  1  0.61385678  0.51279751  0.72675978  1.0
  H  H27  1  0.72036654  0.80183311  0.48815200  1.0
  H  H28  1  0.82065134  0.09905776  0.49190842  1.0
  H  H29  1  0.92154442  0.30693889  0.42998647  1.0
  H  H30  1  0.84081965  0.21420597  0.41623179  1.0
  H  H31  1  0.86843986  0.31508601  0.37362144  1.0
  H  H32  1  0.43888964  0.34153912  0.40804431  1.0
  H  H33  1  0.15521935  0.74223752  0.61548376  1.0
  H  H34  1  0.09366796  0.73189767  0.56167746  1.0
  H  H35  1  0.59993233  0.33939167  0.15243388  1.0
  H  H36  1  0.09122919  0.63301451  0.60628476  1.0
  H  H37  1  0.19383172  0.69921056  0.09895864  1.0
  H  H38  1  0.45454704  0.86532443  0.93587917  1.0
  H  H39  1  0.33213052  0.81092317  0.95321350  1.0
  H  H40  1  0.41899370  0.81863021  0.99762457  1.0
  H  H41  1  0.24349059  0.34941822  0.25413319  1.0
  H  H42  1  0.71983707  0.30230700  0.99087004  1.0
  H  H43  1  0.26372588  0.83795075  0.45815513  1.0
  H  H44  1  0.94009369  0.17876258  0.49633693  1.0
  H  H45  1  0.67411937  0.99357598  0.49159798  1.0
  C  C46  1  0.91686238  0.68901998  0.48887327  1.0
  C  C47  1  0.43573876  0.60458514  0.02257380  1.0
  C  C48  1  0.57255090  0.45490917  0.03991962  1.0
  C  C49  1  0.90905319  0.50176761  0.59364535  1.0
  C  C50  1  0.47752319  0.52860076  0.05593665  1.0
  C  C51  1  0.33248076  0.66308475  0.03889660  1.0
  C  C52  1  0.27455852  0.65388264  0.08713845  1.0
  C  C53  1  0.31920238  0.58741885  0.12127975  1.0
  C  C54  1  0.42138322  0.52410504  0.10610416  1.0
  C  C55  1  0.46688644  0.45509454  0.14049993  1.0
  C  C56  1  0.41228118  0.45161291  0.19302277  1.0
  C  C57  1  0.70226129  0.51083468  0.71412549  1.0
  C  C58  1  0.25689718  0.58085313  0.17229273  1.0
  C  C59  1  0.22975079  0.59944065  0.28478547  1.0
  C  C60  1  0.17646609  0.59463510  0.33372644  1.0
  C  C61  1  0.06943169  0.30649254  0.50483028  1.0
  C  C62  1  0.16780390  0.41261470  0.32575462  1.0
  C  C63  1  0.22232152  0.41855503  0.27661634  1.0
  C  C64  1  0.25216702  0.51062109  0.25634261  1.0
  C  C65  1  0.49948866  0.61471260  0.97266338  1.0
  C  C66  1  0.58209987  0.52990859  0.95463446  1.0
  C  C67  1  0.61761272  0.44886784  0.98693456  1.0
  C  C68  1  0.77183435  0.51338852  0.74886237  1.0
  C  C69  1  0.48468110  0.70196888  0.94158816  1.0
  C  C70  1  0.73832245  0.36020258  0.91618343  1.0
  C  C71  1  0.61597440  0.38895487  0.07523894  1.0
  C  C72  1  0.56513823  0.39020541  0.12502643  1.0
  C  C73  1  0.08676923  0.50418449  0.40728271  1.0
  C  C74  1  0.69442511  0.36561693  0.96677861  1.0
  C  C75  1  0.24069507  0.03874445  0.48582075  1.0
  C  C76  1  0.10543134  0.19273307  0.49991140  1.0
  C  C77  1  0.78533184  0.84978506  0.48542613  1.0
  C  C78  1  0.75996750  0.95708747  0.48781229  1.0
  C  C79  1  0.63239445  0.52615691  0.90347555  1.0
  C  C80  1  0.84298006  0.01642466  0.48751030  1.0
  C  C81  1  0.95518168  0.97150400  0.48233332  1.0
  C  C82  1  0.98150091  0.86301620  0.47694772  1.0
  C  C83  1  0.04374409  0.03106330  0.48435169  1.0
  C  C84  1  0.15564369  0.98223624  0.47851605  1.0
  C  C85  1  0.65516874  0.60864313  0.81842701  1.0
  C  C86  1  0.17841468  0.87549427  0.46653789  1.0
  C  C87  1  0.09557915  0.81841562  0.46617215  1.0
  C  C88  1  0.02301110  0.13660594  0.49333278  1.0
  C  C89  1  0.21571583  0.14235303  0.49919706  1.0
  C  C90  1  0.60659749  0.61010731  0.87186608  1.0
  C  C91  1  0.89404904  0.80273069  0.48159278  1.0
  C  C92  1  0.64541154  0.34685391  0.42615327  1.0
  C  C93  1  0.24961449  0.63676114  0.56070228  1.0
  C  C94  1  0.34988884  0.66189633  0.57093162  1.0
  C  C95  1  0.44993049  0.61186953  0.54728028  1.0
  C  C96  1  0.45215558  0.53700087  0.51144811  1.0
  C  C97  1  0.75657916  0.43307540  0.83103839  1.0
  C  C98  1  0.34867324  0.51807209  0.50090423  1.0
  C  C99  1  0.55291875  0.47884388  0.48535371  1.0
  C  C100  1  0.54708411  0.40577391  0.44910568  1.0
  C  C101  1  0.53824477  0.69683418  0.89168678  1.0
  C  C102  1  0.44222734  0.39440310  0.43740201  1.0
  C  C103  1  0.34730943  0.44785931  0.46228630  1.0
  C  C104  1  0.65888065  0.48966669  0.49376188  1.0
  C  C105  1  0.74657729  0.36040067  0.43753694  1.0
  C  C106  1  0.88528418  0.51091326  0.73379340  1.0
  C  C107  1  0.92934626  0.50607011  0.68338849  1.0
  C  C108  1  0.74678655  0.50677692  0.66371658  1.0
  C  C109  1  0.14088613  0.31039893  0.34642854  1.0
  C  C110  1  0.30330098  0.19607648  0.51458225  1.0
  C  C111  1  0.35791855  0.98377689  0.47955464  1.0
  C  C112  1  0.70861628  0.44010376  0.88446238  1.0
  C  C113  1  0.85053345  0.29572779  0.41337120  1.0
  C  C114  1  0.14197609  0.68928519  0.58785197  1.0
  C  C115  1  0.41891501  0.80409942  0.95833982  1.0
  C  C116  1  0.86054826  0.50463467  0.64796245  1.0
  C  C117  1  0.14385371  0.50289257  0.35419725  1.0
  N  N118  1  0.72593911  0.51836217  0.80108368  1.0
  N  N119  1  0.30866311  0.51401495  0.20564210  1.0
  N  N120  1  0.75167737  0.43385954  0.47078332  1.0
  N  N121  1  0.24987549  0.56584019  0.52641862  1.0
  O  O122  1  0.85881611  0.63195742  0.47146719  1.0
  O  O123  1  0.00120306  0.46067121  0.41841532  1.0
  O  O124  1  0.12991885  0.54993210  0.43767156  1.0
  O  O125  1  0.63578371  0.68099696  0.79011227  1.0
  O  O126  1  0.16480930  0.63034917  0.18550774  1.0
  O  O127  1  0.81924546  0.35744195  0.81291469  1.0
  O  O128  1  0.45374776  0.39742951  0.22445235  1.0
  O  O129  1  0.99177173  0.65818151  0.51463512  1.0
  O  O130  1  0.84257837  0.50807772  0.56278953  1.0
  O  O131  1  0.01433157  0.49372503  0.58299428  1.0
  O  O132  1  0.96611147  0.33735056  0.50894819  1.0
  O  O133  1  0.14211099  0.36628783  0.50213436  1.0
