# generated using pymatgen
data_AlH12(C8O3)2
_symmetry_space_group_name_H-M   'P 1'
_cell_length_a   6.61864504
_cell_length_b   11.00198995
_cell_length_c   17.60461714
_cell_angle_alpha   90.88231600
_cell_angle_beta   98.75139612
_cell_angle_gamma   106.10154830
_symmetry_Int_Tables_number   1
_chemical_formula_structural   AlH12(C8O3)2
_chemical_formula_sum   'Al2 H24 C32 O12'
_cell_volume   1215.06911904
_cell_formula_units_Z   2
loop_
 _symmetry_equiv_pos_site_id
 _symmetry_equiv_pos_as_xyz
  1  'x, y, z'
loop_
 _atom_site_type_symbol
 _atom_site_label
 _atom_site_symmetry_multiplicity
 _atom_site_fract_x
 _atom_site_fract_y
 _atom_site_fract_z
 _atom_site_occupancy
  Al  Al0  1  0.00104574  0.49868872  0.49923288  1.0
  Al  Al1  1  0.50120755  0.49902577  0.49887489  1.0
  H  H2  1  0.34385267  0.65357862  0.54117522  1.0
  H  H3  1  0.65840050  0.34234896  0.46140584  1.0
  H  H4  1  0.81525268  0.46568452  0.27770703  1.0
  H  H5  1  0.72089670  0.46855927  0.13456255  1.0
  H  H6  1  0.47515006  0.52574236  0.25752365  1.0
  H  H7  1  0.52360965  0.46664977  0.73992347  1.0
  H  H8  1  0.18481689  0.52842219  0.72117665  1.0
  H  H9  1  0.27705675  0.52570558  0.86435599  1.0
  H  H10  1  0.56218785  0.76759138  0.39255695  1.0
  H  H11  1  0.82153445  0.23618751  0.39997704  1.0
  H  H12  1  0.34937081  0.53008995  0.05254079  1.0
  H  H13  1  0.64611954  0.46213868  0.94498385  1.0
  H  H14  1  0.36501919  0.10188267  0.66470487  1.0
  H  H15  1  0.41458615  0.23580432  0.60830104  1.0
  H  H16  1  0.52523085  0.11036168  0.59232377  1.0
  H  H17  1  0.39819082  0.86695157  0.57810167  1.0
  H  H18  1  0.16041587  0.76145955  0.60102709  1.0
  H  H19  1  0.28493700  0.90537827  0.65614560  1.0
  H  H20  1  0.15837071  0.89147902  0.31728886  1.0
  H  H21  1  0.26677414  0.76427557  0.30136424  1.0
  H  H22  1  0.29854334  0.89217660  0.23945251  1.0
  H  H23  1  0.43111423  0.12008077  0.24308179  1.0
  H  H24  1  0.52952214  0.24884399  0.31386297  1.0
  H  H25  1  0.28856637  0.12953610  0.31898138  1.0
  C  C26  1  0.86264209  0.72498729  0.49098720  1.0
  C  C27  1  0.80119377  0.50284857  0.63773203  1.0
  C  C28  1  0.14012928  0.27298208  0.50681480  1.0
  C  C29  1  0.19974028  0.49252818  0.36044203  1.0
  C  C30  1  0.14889385  0.49403378  0.27503172  1.0
  C  C31  1  0.93637902  0.47801168  0.24074991  1.0
  C  C32  1  0.88456412  0.47898142  0.16156785  1.0
  C  C33  1  0.04484000  0.49592275  0.11519474  1.0
  C  C34  1  0.25953239  0.51335858  0.15049615  1.0
  C  C35  1  0.31082187  0.51214393  0.23008659  1.0
  C  C36  1  0.00349306  0.49635179  0.03424120  1.0
  C  C37  1  0.99299812  0.49769254  0.96406035  1.0
  C  C38  1  0.95236305  0.49753720  0.88306169  1.0
  C  C39  1  0.73783257  0.47913311  0.84731267  1.0
  C  C40  1  0.68762475  0.48013907  0.76766392  1.0
  C  C41  1  0.85044083  0.49898530  0.72308406  1.0
  C  C42  1  0.06274806  0.51535897  0.75778203  1.0
  C  C43  1  0.11348038  0.51470812  0.83702144  1.0
  C  C44  1  0.93313699  0.86654067  0.49467751  1.0
  C  C45  1  0.80847554  0.93275392  0.44739192  1.0
  C  C46  1  0.11794660  0.93012175  0.54486450  1.0
  C  C47  1  0.61861619  0.87072421  0.39607891  1.0
  C  C48  1  0.50007222  0.93662962  0.35105759  1.0
  C  C49  1  0.07048742  0.13150370  0.50274044  1.0
  C  C50  1  0.18764309  0.06563555  0.54930872  1.0
  C  C51  1  0.88071393  0.06815490  0.45081465  1.0
  C  C52  1  0.76215246  0.13360110  0.40130062  1.0
  C  C53  1  0.57441612  0.07196751  0.35349834  1.0
  C  C54  1  0.38246952  0.13279316  0.60631671  1.0
  C  C55  1  0.24499348  0.86127248  0.59736495  1.0
  C  C56  1  0.29592026  0.86718213  0.29972993  1.0
  C  C57  1  0.45033947  0.14669974  0.30488812  1.0
  O  O58  1  0.99389402  0.66686600  0.47483991  1.0
  O  O59  1  0.60685201  0.48072026  0.60643435  1.0
  O  O60  1  0.32489443  0.32746020  0.49153110  1.0
  O  O61  1  0.04044328  0.46590177  0.39610811  1.0
  O  O62  1  0.00883850  0.33061712  0.52354436  1.0
  O  O63  1  0.39473376  0.51649704  0.39138161  1.0
  O  O64  1  0.67687411  0.67074445  0.50559359  1.0
  O  O65  1  0.96129807  0.53045763  0.60242567  1.0
  O  O66  1  0.29398793  0.56228444  0.53127313  1.0
  O  O67  1  0.70795072  0.43432865  0.46700881  1.0
  O  O68  1  0.41691916  0.53146308  0.10636316  1.0
  O  O69  1  0.57942108  0.46046488  0.89103660  1.0
