# generated using pymatgen
data_Zn3H6C10(N2O5)2
_symmetry_space_group_name_H-M   'P 1'
_cell_length_a   11.71318026
_cell_length_b   12.98522136
_cell_length_c   19.16979397
_cell_angle_alpha   90.00026350
_cell_angle_beta   90.00004558
_cell_angle_gamma   66.57448552
_symmetry_Int_Tables_number   1
_chemical_formula_structural   Zn3H6C10(N2O5)2
_chemical_formula_sum   'Zn12 H24 C40 N16 O40'
_cell_volume   2675.37380519
_cell_formula_units_Z   4
loop_
 _symmetry_equiv_pos_site_id
 _symmetry_equiv_pos_as_xyz
  1  'x, y, z'
loop_
 _atom_site_type_symbol
 _atom_site_label
 _atom_site_symmetry_multiplicity
 _atom_site_fract_x
 _atom_site_fract_y
 _atom_site_fract_z
 _atom_site_occupancy
  Zn  Zn0  1  0.81177314  0.69474174  0.38182016  1.0
  Zn  Zn1  1  0.68822765  0.80525754  0.88181942  1.0
  Zn  Zn2  1  0.18822169  0.30525210  0.61818344  1.0
  Zn  Zn3  1  0.31177804  0.19474873  0.11818210  1.0
  Zn  Zn4  1  0.35660909  0.60068425  0.41193394  1.0
  Zn  Zn5  1  0.14339149  0.89931705  0.91193191  1.0
  Zn  Zn6  1  0.64338370  0.39931630  0.58806809  1.0
  Zn  Zn7  1  0.85661416  0.10068338  0.08806805  1.0
  Zn  Zn8  1  0.43588549  0.87311529  0.16752853  1.0
  Zn  Zn9  1  0.06411238  0.62688170  0.66752821  1.0
  Zn  Zn10  1  0.56411751  0.12687346  0.83246986  1.0
  Zn  Zn11  1  0.93588510  0.37312383  0.33247122  1.0
  H  H12  1  0.81229363  0.67190162  0.55735149  1.0
  H  H13  1  0.68770710  0.82809691  0.05735363  1.0
  H  H14  1  0.18769920  0.32810479  0.44264742  1.0
  H  H15  1  0.31229996  0.17189431  0.94264528  1.0
  H  H16  1  0.81784087  0.56858850  0.25705180  1.0
  H  H17  1  0.68216419  0.93140647  0.75705041  1.0
  H  H18  1  0.18215539  0.43141787  0.74294293  1.0
  H  H19  1  0.31784653  0.06858221  0.24294120  1.0
  H  H20  1  0.94057461  0.56772571  0.29400841  1.0
  H  H21  1  0.55942807  0.93227290  0.79400695  1.0
  H  H22  1  0.05941687  0.43227987  0.70599102  1.0
  H  H23  1  0.44058278  0.06771745  0.20598830  1.0
  H  H24  1  0.28733402  0.72496671  0.25156829  1.0
  H  H25  1  0.21266761  0.77503171  0.75156798  1.0
  H  H26  1  0.71266866  0.27502873  0.74842906  1.0
  H  H27  1  0.78732901  0.22497382  0.24842832  1.0
  H  H28  1  0.46111356  0.40380157  0.45650743  1.0
  H  H29  1  0.03888742  0.09619928  0.95650701  1.0
  H  H30  1  0.53888767  0.59619723  0.54349356  1.0
  H  H31  1  0.96111493  0.90380285  0.04349190  1.0
  H  H32  1  0.54856979  0.41806601  0.39990750  1.0
  H  H33  1  0.95143037  0.08193515  0.89990671  1.0
  H  H34  1  0.45143257  0.58193612  0.60009611  1.0
  H  H35  1  0.04856707  0.91806452  0.10009637  1.0
  C  C36  1  0.90043823  0.66231166  0.53407686  1.0
  C  C37  1  0.59956304  0.83768752  0.03407794  1.0
  C  C38  1  0.09955619  0.33769305  0.46592362  1.0
  C  C39  1  0.40044257  0.16230706  0.96592149  1.0
  C  C40  1  0.57833169  0.66350482  0.42031030  1.0
  C  C41  1  0.92166965  0.83649726  0.92030820  1.0
  C  C42  1  0.42166097  0.33649407  0.57969435  1.0
  C  C43  1  0.07833934  0.16350731  0.07969332  1.0
  C  C44  1  0.36971698  0.72752753  0.27613196  1.0
  C  C45  1  0.13028266  0.77247360  0.77613108  1.0
  C  C46  1  0.63028096  0.27247298  0.72386852  1.0
  C  C47  1  0.86971749  0.22752772  0.22386783  1.0
  C  C48  1  0.53657501  0.76096580  0.29480205  1.0
  C  C49  1  0.96342230  0.73903538  0.79480019  1.0
  C  C50  1  0.46342252  0.23902969  0.70520208  1.0
  C  C51  1  0.03657532  0.26097182  0.20520237  1.0
  C  C52  1  0.62418011  0.81405388  0.27537419  1.0
  C  C53  1  0.87581602  0.68594799  0.77537369  1.0
  C  C54  1  0.37581805  0.18594411  0.72462993  1.0
  C  C55  1  0.12418291  0.31405417  0.22462991  1.0
  C  C56  1  0.51831654  0.70150143  0.35155843  1.0
  C  C57  1  0.98168359  0.79849931  0.85155520  1.0
  C  C58  1  0.48167905  0.29849659  0.64844361  1.0
  C  C59  1  0.01832098  0.20150364  0.14844371  1.0
  C  C60  1  0.09644970  0.63388712  0.52159447  1.0
  C  C61  1  0.40355181  0.86611292  0.02159319  1.0
  C  C62  1  0.90354653  0.36611340  0.47840704  1.0
  C  C63  1  0.59645212  0.13388753  0.97840676  1.0
  C  C64  1  0.08304401  0.64251590  0.38139684  1.0
  C  C65  1  0.41696150  0.85748179  0.88139533  1.0
  C  C66  1  0.91695876  0.35747537  0.61860155  1.0
  C  C67  1  0.58304211  0.14252535  0.11860097  1.0
  C  C68  1  0.04183626  0.64881307  0.45545867  1.0
  C  C69  1  0.45816788  0.85118601  0.95545768  1.0
  C  C70  1  0.95816236  0.35117990  0.54453972  1.0
  C  C71  1  0.54183330  0.14882282  0.04453914  1.0
  C  C72  1  0.21957512  0.61741418  0.55069077  1.0
  C  C73  1  0.28042511  0.88258693  0.05068844  1.0
  C  C74  1  0.78041514  0.38259225  0.44930918  1.0
  C  C75  1  0.71958186  0.11740848  0.94930943  1.0
  N  N76  1  0.91860725  0.66755867  0.46531817  1.0
  N  N77  1  0.58139629  0.83244038  0.96531850  1.0
  N  N78  1  0.08139028  0.33243682  0.53468126  1.0
  N  N79  1  0.41860719  0.16756508  0.03467936  1.0
  N  N80  1  0.41287138  0.68197604  0.33852432  1.0
  N  N81  1  0.08712777  0.81802640  0.83852357  1.0
  N  N82  1  0.58712240  0.31802618  0.66147667  1.0
  N  N83  1  0.91287617  0.18197405  0.16147586  1.0
  N  N84  1  0.44082906  0.77642285  0.24820374  1.0
  N  N85  1  0.05916977  0.72357807  0.74820372  1.0
  N  N86  1  0.55916838  0.22357682  0.75179674  1.0
  N  N87  1  0.94082757  0.27642578  0.25179624  1.0
  N  N88  1  0.00560910  0.64223183  0.56975408  1.0
  N  N89  1  0.49439182  0.85776774  0.06975439  1.0
  N  N90  1  0.99438216  0.35777626  0.43024639  1.0
  N  N91  1  0.50561402  0.14222433  0.93024452  1.0
  O  O92  1  0.68375047  0.66366146  0.43593960  1.0
  O  O93  1  0.81624849  0.83633825  0.93593849  1.0
  O  O94  1  0.31624350  0.33633239  0.56406140  1.0
  O  O95  1  0.18375648  0.16366971  0.06406198  1.0
  O  O96  1  0.51575780  0.63127562  0.46258142  1.0
  O  O97  1  0.98424210  0.86872595  0.96258050  1.0
  O  O98  1  0.48423160  0.36873082  0.53741957  1.0
  O  O99  1  0.01576915  0.13126941  0.03741997  1.0
  O  O100  1  0.59991233  0.87003257  0.21902208  1.0
  O  O101  1  0.90008490  0.62997055  0.71901985  1.0
  O  O102  1  0.40009752  0.12995612  0.78098048  1.0
  O  O103  1  0.09990757  0.37003669  0.28098271  1.0
  O  O104  1  0.46052575  0.43268879  0.40731864  1.0
  O  O105  1  0.03947411  0.06731254  0.90731707  1.0
  O  O106  1  0.53947598  0.56731084  0.59268340  1.0
  O  O107  1  0.96052432  0.93268879  0.09268183  1.0
  O  O108  1  0.71808294  0.80475657  0.31313830  1.0
  O  O109  1  0.78191555  0.69524389  0.81313726  1.0
  O  O110  1  0.28190768  0.19524902  0.68687156  1.0
  O  O111  1  0.21809263  0.30475066  0.18687208  1.0
  O  O112  1  0.86645864  0.54805430  0.29988845  1.0
  O  O113  1  0.63354317  0.95194436  0.79988761  1.0
  O  O114  1  0.13353406  0.45195043  0.70010733  1.0
  O  O115  1  0.36646659  0.04804851  0.20010556  1.0
  O  O116  1  0.99762482  0.65652395  0.33590677  1.0
  O  O117  1  0.50238143  0.84347243  0.83590657  1.0
  O  O118  1  0.00236951  0.34346907  0.66409214  1.0
  O  O119  1  0.49762584  0.15653216  0.16409129  1.0
  O  O120  1  0.19392537  0.62421546  0.36473312  1.0
  O  O121  1  0.30608104  0.87578209  0.86473318  1.0
  O  O122  1  0.80607645  0.37577999  0.63526527  1.0
  O  O123  1  0.69392182  0.12422088  0.13526521  1.0
  O  O124  1  0.30704363  0.61898487  0.51227724  1.0
  O  O125  1  0.19295537  0.88102098  0.01227381  1.0
  O  O126  1  0.69294703  0.38102657  0.48772532  1.0
  O  O127  1  0.80705024  0.11897360  0.98772614  1.0
  O  O128  1  0.23257233  0.60526209  0.61696482  1.0
  O  O129  1  0.26742786  0.89473533  0.11696303  1.0
  O  O130  1  0.76742001  0.39474348  0.38303514  1.0
  O  O131  1  0.73257834  0.10525590  0.88303536  1.0
