# generated using pymatgen
data_Zn4H6C24S4Br2O13
_symmetry_space_group_name_H-M   'P 1'
_cell_length_a   19.66310084
_cell_length_b   19.68244740
_cell_length_c   33.35898727
_cell_angle_alpha   79.21083811
_cell_angle_beta   79.26504912
_cell_angle_gamma   63.98849969
_symmetry_Int_Tables_number   1
_chemical_formula_structural   Zn4H6C24S4Br2O13
_chemical_formula_sum   'Zn16 H24 C96 S16 Br8 O52'
_cell_volume   11318.03626270
_cell_formula_units_Z   4
loop_
 _symmetry_equiv_pos_site_id
 _symmetry_equiv_pos_as_xyz
  1  'x, y, z'
loop_
 _atom_site_type_symbol
 _atom_site_label
 _atom_site_symmetry_multiplicity
 _atom_site_fract_x
 _atom_site_fract_y
 _atom_site_fract_z
 _atom_site_occupancy
  Zn  Zn0  1  0.05649354  0.40004699  0.47815954  1.0
  Zn  Zn1  1  0.98475969  0.48420413  0.55963876  1.0
  Zn  Zn2  1  0.05833843  0.56222700  0.48335926  1.0
  Zn  Zn3  1  0.90040465  0.55351524  0.47901180  1.0
  Zn  Zn4  1  0.69424471  0.34976593  0.27141837  1.0
  Zn  Zn5  1  0.68883820  0.18982814  0.26691040  1.0
  Zn  Zn6  1  0.76827762  0.26433908  0.18999220  1.0
  Zn  Zn7  1  0.84710982  0.19494950  0.27280687  1.0
  Zn  Zn8  1  0.26675782  0.76729704  0.68945098  1.0
  Zn  Zn9  1  0.34880132  0.69671924  0.77130123  1.0
  Zn  Zn10  1  0.19365827  0.84920606  0.77212582  1.0
  Zn  Zn11  1  0.19200162  0.68814538  0.76647073  1.0
  Zn  Zn12  1  0.56061867  0.06002960  0.98316990  1.0
  Zn  Zn13  1  0.40118367  0.05536090  0.97827480  1.0
  Zn  Zn14  1  0.55532462  0.90108347  0.97824448  1.0
  Zn  Zn15  1  0.48356178  0.98280774  0.06033540  1.0
  H  H16  1  0.79623547  0.50201619  0.39904959  1.0
  H  H17  1  0.95388936  0.24797428  0.35079031  1.0
  H  H18  1  0.74781177  0.45420224  0.35088457  1.0
  H  H19  1  0.00232977  0.29581472  0.39893711  1.0
  H  H20  1  0.15274923  0.65267437  0.54929433  1.0
  H  H21  1  0.09778222  0.59781136  0.70062715  1.0
  H  H22  1  0.20097256  0.70081642  0.59745804  1.0
  H  H23  1  0.04957245  0.54969558  0.65247950  1.0
  H  H24  1  0.46294475  0.24026431  0.34108276  1.0
  H  H25  1  0.47954558  0.70255769  0.60135077  1.0
  H  H26  1  0.20251125  0.97954418  0.60160661  1.0
  H  H27  1  0.94854949  0.97000389  0.34793982  1.0
  H  H28  1  0.70041172  0.20060082  0.09761219  1.0
  H  H29  1  0.54919205  0.04923442  0.15242822  1.0
  H  H30  1  0.65232215  0.15260489  0.04939003  1.0
  H  H31  1  0.59729410  0.09726082  0.20064813  1.0
  H  H32  1  0.54760883  0.77014546  0.14844380  1.0
  H  H33  1  0.16264516  0.14144471  0.04055381  1.0
  H  H34  1  0.24763282  0.95438134  0.85096801  1.0
  H  H35  1  0.50203874  0.79620368  0.89917576  1.0
  H  H36  1  0.29587588  0.00239468  0.89911983  1.0
  H  H37  1  0.45382644  0.74825332  0.85102877  1.0
  H  H38  1  0.30107300  0.28004759  0.90203331  1.0
  H  H39  1  0.78697440  0.00980988  0.90891012  1.0
  C  C40  1  0.06144240  0.31655211  0.56152301  1.0
  C  C41  1  0.06943303  0.57013591  0.56950979  1.0
  C  C42  1  0.18350966  0.43965288  0.43888237  1.0
  C  C43  1  0.93741136  0.68382191  0.43895970  1.0
  C  C44  1  0.93059326  0.43003755  0.43067352  1.0
  C  C45  1  0.81667266  0.56094810  0.56176452  1.0
  C  C46  1  0.56548739  0.31143165  0.31146466  1.0
  C  C47  1  0.68062531  0.17990942  0.18065324  1.0
  C  C48  1  0.68940519  0.43294494  0.18836118  1.0
  C  C49  1  0.93427624  0.18777324  0.18943684  1.0
  C  C50  1  0.81911734  0.31957569  0.31959307  1.0
  C  C51  1  0.81098588  0.06564565  0.31165778  1.0
  C  C52  1  0.43418392  0.68915801  0.68827124  1.0
  C  C53  1  0.31935386  0.82001451  0.81943837  1.0
  C  C54  1  0.18871455  0.93431712  0.68850858  1.0
  C  C55  1  0.06648511  0.81030109  0.81121605  1.0
  C  C56  1  0.18123905  0.68041639  0.68038210  1.0
  C  C57  1  0.31254281  0.56619857  0.81110449  1.0
  C  C58  1  0.43848073  0.18419305  0.93857972  1.0
  C  C59  1  0.43042707  0.93075499  0.93060677  1.0
  C  C60  1  0.68434384  0.93861550  0.93857334  1.0
  C  C61  1  0.56149796  0.81563068  0.06153268  1.0
  C  C62  1  0.56956244  0.06927727  0.06940844  1.0
  C  C63  1  0.31577856  0.06142948  0.06136920  1.0
  C  C64  1  0.90204391  0.40163807  0.40175697  1.0
  C  C65  1  0.84807521  0.34835634  0.34808312  1.0
  C  C66  1  0.83028065  0.44654043  0.38826678  1.0
  C  C67  1  0.91990119  0.30350151  0.36152392  1.0
  C  C68  1  0.80345105  0.42005248  0.36156267  1.0
  C  C69  1  0.94674620  0.33002245  0.38820571  1.0
  C  C70  1  0.09840349  0.59852416  0.59816327  1.0
  C  C71  1  0.15219677  0.65199793  0.65176392  1.0
  C  C72  1  0.14107109  0.64106619  0.58246055  1.0
  C  C73  1  0.10950413  0.60944981  0.66746611  1.0
  C  C74  1  0.16779581  0.66768750  0.60913726  1.0
  C  C75  1  0.08276520  0.58281740  0.64078584  1.0
  C  C76  1  0.30439540  0.45526413  0.40101326  1.0
  C  C77  1  0.44589609  0.29706018  0.34901547  1.0
  C  C78  1  0.25829230  0.41631618  0.41402942  1.0
  C  C79  1  0.49069656  0.33701829  0.33650688  1.0
  C  C80  1  0.37777564  0.34013535  0.37258106  1.0
  C  C81  1  0.37247011  0.41202533  0.37741006  1.0
  C  C82  1  0.72627341  0.57561188  0.62997594  1.0
  C  C83  1  0.52435943  0.67355969  0.62131888  1.0
  C  C84  1  0.74282195  0.58510456  0.58744316  1.0
  C  C85  1  0.50935754  0.66353417  0.66369625  1.0
  C  C86  1  0.60356871  0.64145728  0.60892652  1.0
  C  C87  1  0.64695335  0.60768338  0.64230956  1.0
  C  C88  1  0.07564143  0.22624117  0.62980167  1.0
  C  C89  1  0.17352612  0.02439537  0.62149591  1.0
  C  C90  1  0.08523329  0.24269557  0.58725258  1.0
  C  C91  1  0.16341764  0.00949778  0.66388666  1.0
  C  C92  1  0.14148860  0.10352792  0.60897186  1.0
  C  C93  1  0.10767537  0.14699164  0.64226294  1.0
  C  C94  1  0.84269973  0.80065815  0.39716971  1.0
  C  C95  1  0.90420598  0.94952909  0.35250864  1.0
  C  C96  1  0.91117355  0.75819232  0.41375847  1.0
  C  C97  1  0.83547858  0.99065800  0.33643553  1.0
  C  C98  1  0.90705322  0.88001940  0.37470183  1.0
  C  C99  1  0.84019334  0.87006162  0.37492006  1.0
  C  C100  1  0.65167044  0.15159697  0.15189933  1.0
  C  C101  1  0.59805825  0.09809415  0.09813749  1.0
  C  C102  1  0.66728581  0.16740739  0.10927372  1.0
  C  C103  1  0.58233909  0.08240306  0.14075930  1.0
  C  C104  1  0.64061420  0.14080148  0.08254194  1.0
  C  C105  1  0.60898447  0.10902610  0.16749295  1.0
  C  C106  1  0.67442347  0.52351748  0.12007273  1.0
  C  C107  1  0.57659014  0.72535232  0.12851772  1.0
  C  C108  1  0.66508133  0.50686016  0.16262014  1.0
  C  C109  1  0.58669550  0.74040051  0.08613648  1.0
  C  C110  1  0.60857383  0.64617228  0.14098888  1.0
  C  C111  1  0.64231074  0.60278817  0.10766534  1.0
  C  C112  1  0.08192888  0.12376667  0.17820768  1.0
  C  C113  1  0.17013789  0.12489925  0.07295335  1.0
  C  C114  1  0.00978719  0.16262893  0.16528367  1.0
  C  C115  1  0.24120982  0.08607672  0.08666871  1.0
  C  C116  1  0.11180105  0.13877048  0.10632672  1.0
  C  C117  1  0.14010584  0.11007144  0.14472100  1.0
  C  C118  1  0.34800308  0.84863338  0.84818669  1.0
  C  C119  1  0.40173220  0.90210995  0.90189799  1.0
  C  C120  1  0.30323599  0.92028720  0.86169106  1.0
  C  C121  1  0.44646565  0.83040324  0.88843386  1.0
  C  C122  1  0.32997092  0.94688602  0.88838948  1.0
  C  C123  1  0.41975526  0.80380618  0.86171880  1.0
  C  C124  1  0.40725168  0.44911955  0.85281344  1.0
  C  C125  1  0.34550482  0.30038446  0.89750886  1.0
  C  C126  1  0.33875091  0.49170567  0.83622596  1.0
  C  C127  1  0.41416226  0.25910715  0.91363227  1.0
  C  C128  1  0.34282304  0.36981311  0.87525263  1.0
  C  C129  1  0.40972690  0.37968068  0.87503612  1.0
  C  C130  1  0.94547639  0.79474195  0.84900383  1.0
  C  C131  1  0.80397330  0.95298605  0.90102121  1.0
  C  C132  1  0.99159715  0.83368097  0.83598793  1.0
  C  C133  1  0.75919484  0.91300851  0.91359458  1.0
  C  C134  1  0.87205970  0.90990722  0.87742072  1.0
  C  C135  1  0.87737316  0.83800139  0.87261357  1.0
  S  S136  1  0.29872882  0.32651312  0.39722426  1.0
  S  S137  1  0.45079607  0.42677582  0.35309364  1.0
  S  S138  1  0.66092590  0.63336301  0.56263699  1.0
  S  S139  1  0.59072203  0.61523783  0.68878392  1.0
  S  S140  1  0.13349876  0.16075456  0.56260738  1.0
  S  S141  1  0.11512756  0.09090713  0.68881330  1.0
  S  S142  1  0.97249480  0.80357932  0.40193092  1.0
  S  S143  1  0.77403403  0.94567458  0.34800007  1.0
  S  S144  1  0.61670237  0.58878146  0.18732708  1.0
  S  S145  1  0.63487588  0.65902085  0.06114113  1.0
  S  S146  1  0.01360142  0.18243792  0.11190554  1.0
  S  S147  1  0.23794518  0.06611679  0.13990853  1.0
  S  S148  1  0.27739723  0.44633230  0.84803725  1.0
  S  S149  1  0.47577404  0.30395655  0.90200902  1.0
  S  S150  1  0.95109974  0.92353496  0.85276237  1.0
  S  S151  1  0.79908399  0.82323974  0.89700156  1.0
  Br  Br152  1  0.28431922  0.55306829  0.41171878  1.0
  Br  Br153  1  0.79607675  0.52716642  0.66883951  1.0
  Br  Br154  1  0.02719825  0.29602430  0.66859756  1.0
  Br  Br155  1  0.76032402  0.77436510  0.40191367  1.0
  Br  Br156  1  0.72263321  0.45377972  0.08125426  1.0
  Br  Br157  1  0.10550388  0.09098109  0.23251712  1.0
  Br  Br158  1  0.48968385  0.47531294  0.84808768  1.0
  Br  Br159  1  0.96574464  0.69692359  0.83824824  1.0
  O  O160  1  0.00055014  0.49940330  0.49941128  1.0
  O  O161  1  0.07859598  0.31435371  0.52262000  1.0
  O  O162  1  0.03148021  0.53131952  0.58587796  1.0
  O  O163  1  0.15433227  0.50561319  0.45058090  1.0
  O  O164  1  0.02621433  0.37575912  0.58001336  1.0
  O  O165  1  0.15463127  0.39079226  0.44643820  1.0
  O  O166  1  0.08475922  0.58697019  0.53106190  1.0
  O  O167  1  0.00420441  0.65864306  0.44993633  1.0
  O  O168  1  0.88650390  0.49535875  0.44204952  1.0
  O  O169  1  0.89214174  0.65130185  0.44769015  1.0
  O  O170  1  0.99647581  0.38672605  0.44166627  1.0
  O  O171  1  0.87614318  0.52605434  0.58014473  1.0
  O  O172  1  0.81420642  0.57747243  0.52284308  1.0
  O  O173  1  0.74903493  0.25020610  0.25032302  1.0
  O  O174  1  0.59637626  0.35849061  0.30322859  1.0
  O  O175  1  0.66372075  0.16425241  0.21907989  1.0
  O  O176  1  0.72539413  0.37350837  0.17009145  1.0
  O  O177  1  0.59253830  0.24496145  0.30029727  1.0
  O  O178  1  0.67187370  0.43546351  0.22723944  1.0
  O  O179  1  0.71998837  0.21736199  0.16444358  1.0
  O  O180  1  0.87714876  0.22290572  0.16875832  1.0
  O  O181  1  0.86234670  0.25342211  0.30900945  1.0
  O  O182  1  0.93203454  0.17259775  0.22834898  1.0
  O  O183  1  0.75363650  0.36323340  0.30818373  1.0
  O  O184  1  0.74441508  0.09329506  0.30019986  1.0
  O  O185  1  0.85815471  0.09619716  0.30389743  1.0
  O  O186  1  0.24976773  0.75099675  0.74973283  1.0
  O  O187  1  0.37601853  0.72481904  0.66866345  1.0
  O  O188  1  0.36333259  0.75459984  0.80815608  1.0
  O  O189  1  0.17225390  0.93420089  0.72747947  1.0
  O  O190  1  0.43432434  0.67317391  0.72726083  1.0
  O  O191  1  0.22458586  0.87640373  0.66879792  1.0
  O  O192  1  0.25339564  0.86318360  0.80849619  1.0
  O  O193  1  0.09535696  0.85917327  0.80373192  1.0
  O  O194  1  0.16579926  0.66348089  0.71879626  1.0
  O  O195  1  0.09594443  0.74432094  0.79949554  1.0
  O  O196  1  0.21924516  0.71925670  0.66406974  1.0
  O  O197  1  0.35780112  0.59873903  0.80250825  1.0
  O  O198  1  0.24576176  0.59163784  0.80004644  1.0
  O  O199  1  0.50007988  0.99991829  0.00000657  1.0
  O  O200  1  0.50527827  0.15636303  0.94974793  1.0
  O  O201  1  0.38687779  0.99645052  0.94171397  1.0
  O  O202  1  0.65351209  0.89149047  0.94678702  1.0
  O  O203  1  0.39104800  0.15390478  0.94679961  1.0
  O  O204  1  0.65705963  0.00510550  0.94972657  1.0
  O  O205  1  0.49617359  0.88718847  0.94170117  1.0
  O  O206  1  0.57785280  0.81572191  0.02254504  1.0
  O  O207  1  0.53121272  0.03077156  0.08564762  1.0
  O  O208  1  0.52580382  0.87368937  0.08114673  1.0
  O  O209  1  0.58591392  0.08543749  0.03098101  1.0
  O  O210  1  0.31537675  0.07824126  0.02251187  1.0
  O  O211  1  0.37427478  0.02528591  0.08085622  1.0
