# generated using pymatgen
data_MgH20(C13N5)2
_symmetry_space_group_name_H-M   'P 1'
_cell_length_a   10.25957205
_cell_length_b   16.01142819
_cell_length_c   16.01391123
_cell_angle_alpha   115.57313523
_cell_angle_beta   102.35314408
_cell_angle_gamma   102.29915808
_symmetry_Int_Tables_number   1
_chemical_formula_structural   MgH20(C13N5)2
_chemical_formula_sum   'Mg3 H60 C78 N30'
_cell_volume   2174.32281204
_cell_formula_units_Z   3
loop_
 _symmetry_equiv_pos_site_id
 _symmetry_equiv_pos_as_xyz
  1  'x, y, z'
loop_
 _atom_site_type_symbol
 _atom_site_label
 _atom_site_symmetry_multiplicity
 _atom_site_fract_x
 _atom_site_fract_y
 _atom_site_fract_z
 _atom_site_occupancy
  Mg  Mg0  1  0.00000159  0.99999891  0.50000006  1.0
  Mg  Mg1  1  0.49999840  0.49999886  0.50000081  1.0
  Mg  Mg2  1  0.00000040  0.50000063  0.00000185  1.0
  H  H3  1  0.00647062  0.14249206  0.40944247  1.0
  H  H4  1  0.59753827  0.59052969  0.73301827  1.0
  H  H5  1  0.86442778  0.26701179  0.85766261  1.0
  H  H6  1  0.99352224  0.85750132  0.59055325  1.0
  H  H7  1  0.40245654  0.40947025  0.26698336  1.0
  H  H8  1  0.13557264  0.73298923  0.14233828  1.0
  H  H9  1  0.14887268  0.19908057  0.32106375  1.0
  H  H10  1  0.82847273  0.67902509  0.87794131  1.0
  H  H11  1  0.95036072  0.12200530  0.80140280  1.0
  H  H12  1  0.85111855  0.80091603  0.67893271  1.0
  H  H13  1  0.17152606  0.32097790  0.12206032  1.0
  H  H14  1  0.04963670  0.87799531  0.19859809  1.0
  H  H15  1  0.33342786  0.12502202  0.27827868  1.0
  H  H16  1  0.05561412  0.72201348  0.84658180  1.0
  H  H17  1  0.20901921  0.15334355  0.87536319  1.0
  H  H18  1  0.66656535  0.87497610  0.72171778  1.0
  H  H19  1  0.94438193  0.27799162  0.15341835  1.0
  H  H20  1  0.79097722  0.84665567  0.12463770  1.0
  H  H21  1  0.27172886  0.77556507  0.60066654  1.0
  H  H22  1  0.67047491  0.39909469  0.17452201  1.0
  H  H23  1  0.49578328  0.82534445  0.22465136  1.0
  H  H24  1  0.72826735  0.22443283  0.39932992  1.0
  H  H25  1  0.32952650  0.60090897  0.82547888  1.0
  H  H26  1  0.50422114  0.17465525  0.77534953  1.0
  H  H27  1  0.38086289  0.65600979  0.61829933  1.0
  H  H28  1  0.76214073  0.38140581  0.03744152  1.0
  H  H29  1  0.72441283  0.96248690  0.34416676  1.0
  H  H30  1  0.61913355  0.34398944  0.38170156  1.0
  H  H31  1  0.23786989  0.61859727  0.96256380  1.0
  H  H32  1  0.27559421  0.03751222  0.65583340  1.0
  H  H33  1  0.53538886  0.62378059  0.39146379  1.0
  H  H34  1  0.14338268  0.60829500  0.23228084  1.0
  H  H35  1  0.91137422  0.76774827  0.37613126  1.0
  H  H36  1  0.46461194  0.37621581  0.60853783  1.0
  H  H37  1  0.85662316  0.39171059  0.76772890  1.0
  H  H38  1  0.08862747  0.23224855  0.62386815  1.0
  H  H39  1  0.43597600  0.74477402  0.36682779  1.0
  H  H40  1  0.06852140  0.63285493  0.37779309  1.0
  H  H41  1  0.69109508  0.62216328  0.25506258  1.0
  H  H42  1  0.56402769  0.25522182  0.63317163  1.0
  H  H43  1  0.93147461  0.36715021  0.62221296  1.0
  H  H44  1  0.30890199  0.37783446  0.74493757  1.0
  H  H45  1  0.41329254  0.93485520  0.33740297  1.0
  H  H46  1  0.07600091  0.66262760  0.59728798  1.0
  H  H47  1  0.47883852  0.40272139  0.06513859  1.0
  H  H48  1  0.58670356  0.06514174  0.66259128  1.0
  H  H49  1  0.92399478  0.33737276  0.40271143  1.0
  H  H50  1  0.52116043  0.59727691  0.93485935  1.0
  H  H51  1  0.50808275  0.04688204  0.34554020  1.0
  H  H52  1  0.16265913  0.65446621  0.70120396  1.0
  H  H53  1  0.46160651  0.29879180  0.95310657  1.0
  H  H54  1  0.49191272  0.95311575  0.65445478  1.0
  H  H55  1  0.83733755  0.34553491  0.29879546  1.0
  H  H56  1  0.53838671  0.70120445  0.04688989  1.0
  H  H57  1  0.37726948  0.95086176  0.23201784  1.0
  H  H58  1  0.14539116  0.76801541  0.71870763  1.0
  H  H59  1  0.42699466  0.28134181  0.04916972  1.0
  H  H60  1  0.62272563  0.04913504  0.76797641  1.0
  H  H61  1  0.85460852  0.23198612  0.28129179  1.0
  H  H62  1  0.57300366  0.71865671  0.95082895  1.0
  C  C63  1  0.08804223  0.11257579  0.38822096  1.0
  C  C64  1  0.70023617  0.61175030  0.72426916  1.0
  C  C65  1  0.97591379  0.27572236  0.88758749  1.0
  C  C66  1  0.91195062  0.88741822  0.61177476  1.0
  C  C67  1  0.29975963  0.38825040  0.27573247  1.0
  C  C68  1  0.02408301  0.72427723  0.11241414  1.0
  C  C69  1  0.16685973  0.14348988  0.33939331  1.0
  C  C70  1  0.82795730  0.66069002  0.80400819  1.0
  C  C71  1  0.02388833  0.19595979  0.85683931  1.0
  C  C72  1  0.83313113  0.85650573  0.66060242  1.0
  C  C73  1  0.17204186  0.33931397  0.19599418  1.0
  C  C74  1  0.97610847  0.80404105  0.14316231  1.0
  C  C75  1  0.26920906  0.10204724  0.31597322  1.0
  C  C76  1  0.95360249  0.68418782  0.78593196  1.0
  C  C77  1  0.16769461  0.21401774  0.89824292  1.0
  C  C78  1  0.73078379  0.89794988  0.68402251  1.0
  C  C79  1  0.04639393  0.31581515  0.21406893  1.0
  C  C80  1  0.83229883  0.78598045  0.10175797  1.0
  C  C81  1  0.29316702  0.03114575  0.34043371  1.0
  C  C82  1  0.95291453  0.65960979  0.69052312  1.0
  C  C83  1  0.26248711  0.30943332  0.96893498  1.0
  C  C84  1  0.70682782  0.96885103  0.65956201  1.0
  C  C85  1  0.04708289  0.34039207  0.30947777  1.0
  C  C86  1  0.73751032  0.69056479  0.03106591  1.0
  C  C87  1  0.20916803  0.00442753  0.39036755  1.0
  C  C88  1  0.81889994  0.60951751  0.61387375  1.0
  C  C89  1  0.20511042  0.38609537  0.99553325  1.0
  C  C90  1  0.79083018  0.99556941  0.60962891  1.0
  C  C91  1  0.18109512  0.39048308  0.38612640  1.0
  C  C92  1  0.79488676  0.61390334  0.00446912  1.0
  C  C93  1  0.22081533  0.93409998  0.42496199  1.0
  C  C94  1  0.79570279  0.57477445  0.50890582  1.0
  C  C95  1  0.28690368  0.49104852  0.06578553  1.0
  C  C96  1  0.77918425  0.06589746  0.57503521  1.0
  C  C97  1  0.20429128  0.42522538  0.49109433  1.0
  C  C98  1  0.71309549  0.50895110  0.93421683  1.0
  C  C99  1  0.27638182  0.83509566  0.46682787  1.0
  C  C100  1  0.80905291  0.53285943  0.36797747  1.0
  C  C101  1  0.44118507  0.63193444  0.16487889  1.0
  C  C102  1  0.72361665  0.16490068  0.53316711  1.0
  C  C103  1  0.19094288  0.46714439  0.63202416  1.0
  C  C104  1  0.55881609  0.36806545  0.83512348  1.0
  C  C105  1  0.34352657  0.76865026  0.48097736  1.0
  C  C106  1  0.86195947  0.51871461  0.28738543  1.0
  C  C107  1  0.57467198  0.71252301  0.23136764  1.0
  C  C108  1  0.65647264  0.23134618  0.51901910  1.0
  C  C109  1  0.13803632  0.48129046  0.71261620  1.0
  C  C110  1  0.42533281  0.28747643  0.76863399  1.0
  C  C111  1  0.33058448  0.74386900  0.55370763  1.0
  C  C112  1  0.77633004  0.44601295  0.18984294  1.0
  C  C113  1  0.58640497  0.81006451  0.25628320  1.0
  C  C114  1  0.66941347  0.25612979  0.44629031  1.0
  C  C115  1  0.22367347  0.55399257  0.81016016  1.0
  C  C116  1  0.41360181  0.18993708  0.74371843  1.0
  C  C117  1  0.39089914  0.67749508  0.56332235  1.0
  C  C118  1  0.82712096  0.43640152  0.11391733  1.0
  C  C119  1  0.71304799  0.88601454  0.32265291  1.0
  C  C120  1  0.60909855  0.32250368  0.43667706  1.0
  C  C121  1  0.17288456  0.56360178  0.88608577  1.0
  C  C122  1  0.28695605  0.11398417  0.67734724  1.0
  C  C123  1  0.47739991  0.65980059  0.43721799  1.0
  C  C124  1  0.03965448  0.56250545  0.22245331  1.0
  C  C125  1  0.81734591  0.77752023  0.34016494  1.0
  C  C126  1  0.52260015  0.34019570  0.56278216  1.0
  C  C127  1  0.96034789  0.43750026  0.77755348  1.0
  C  C128  1  0.18265614  0.22247758  0.65983521  1.0
  C  C129  1  0.42196591  0.72661767  0.42320481  1.0
  C  C130  1  0.99818519  0.57649728  0.30322119  1.0
  C  C131  1  0.69517818  0.69673000  0.27333492  1.0
  C  C132  1  0.57803578  0.27337852  0.57679461  1.0
  C  C133  1  0.00181618  0.42351017  0.69678561  1.0
  C  C134  1  0.30482324  0.30326866  0.72666597  1.0
  C  C135  1  0.40408489  0.98789432  0.31267331  1.0
  C  C136  1  0.09154999  0.68736513  0.67504229  1.0
  C  C137  1  0.41666972  0.32494738  0.01213519  1.0
  C  C138  1  0.59590985  0.01210148  0.68732020  1.0
  C  C139  1  0.90844507  0.31263609  0.32495786  1.0
  C  C140  1  0.58332760  0.67505039  0.98786348  1.0
  N  N141  1  0.10863003  0.04516008  0.41282444  1.0
  N  N142  1  0.69601079  0.58706753  0.63221582  1.0
  N  N143  1  0.06383163  0.36778969  0.95481402  1.0
  N  N144  1  0.89136655  0.95483632  0.58717276  1.0
  N  N145  1  0.30398501  0.41293317  0.36778581  1.0
  N  N146  1  0.93616754  0.63221118  0.04518834  1.0
  N  N147  1  0.14056583  0.92118761  0.47912679  1.0
  N  N148  1  0.66121924  0.52056366  0.44188131  1.0
  N  N149  1  0.21936222  0.55806843  0.07877867  1.0
  N  N150  1  0.85943648  0.07881084  0.52087188  1.0
  N  N151  1  0.33877819  0.47943508  0.55811958  1.0
  N  N152  1  0.78064068  0.44193296  0.92122518  1.0
  N  N153  1  0.17635193  0.85852626  0.50677201  1.0
  N  N154  1  0.66912373  0.49290267  0.35153147  1.0
  N  N155  1  0.31764546  0.64840142  0.14151737  1.0
  N  N156  1  0.82364928  0.14146984  0.49322445  1.0
  N  N157  1  0.33087244  0.50709903  0.64847090  1.0
  N  N158  1  0.68235633  0.35159886  0.85848426  1.0
  N  N159  1  0.30657095  0.87992971  0.41472563  1.0
  N  N160  1  0.89150832  0.58498591  0.46489209  1.0
  N  N161  1  0.42678446  0.53502225  0.11993487  1.0
  N  N162  1  0.69342715  0.12006563  0.58526862  1.0
  N  N163  1  0.10848647  0.41501965  0.53510954  1.0
  N  N164  1  0.57321534  0.46497713  0.88006676  1.0
  N  N165  1  0.46141101  0.63383219  0.50515753  1.0
  N  N166  1  0.95580752  0.49457369  0.12851266  1.0
  N  N167  1  0.82724547  0.87144993  0.36622612  1.0
  N  N168  1  0.53858879  0.36616594  0.49484410  1.0
  N  N169  1  0.04419785  0.50543056  0.87149414  1.0
  N  N170  1  0.17275784  0.12854803  0.63377255  1.0
