# generated using pymatgen
data_ZnH20C32NO4
_symmetry_space_group_name_H-M   'P 1'
_cell_length_a   9.27537013
_cell_length_b   18.24686726
_cell_length_c   19.32663415
_cell_angle_alpha   89.42263259
_cell_angle_beta   89.75300851
_cell_angle_gamma   89.81514083
_symmetry_Int_Tables_number   1
_chemical_formula_structural   ZnH20C32NO4
_chemical_formula_sum   'Zn2 H40 C64 N2 O8'
_cell_volume   3270.75113785
_cell_formula_units_Z   2
loop_
 _symmetry_equiv_pos_site_id
 _symmetry_equiv_pos_as_xyz
  1  'x, y, z'
loop_
 _atom_site_type_symbol
 _atom_site_label
 _atom_site_symmetry_multiplicity
 _atom_site_fract_x
 _atom_site_fract_y
 _atom_site_fract_z
 _atom_site_occupancy
  Zn  Zn0  1  0.48596704  0.57595674  0.50140535  1.0
  Zn  Zn1  1  0.48742471  0.42376607  0.49849348  1.0
  H  H2  1  0.73037828  0.43667057  0.69711559  1.0
  H  H3  1  0.63819772  0.30907994  0.41730796  1.0
  H  H4  1  0.62928903  0.69090861  0.41860038  1.0
  H  H5  1  0.34352075  0.30629674  0.57838365  1.0
  H  H6  1  0.35129897  0.83021734  0.59006466  1.0
  H  H7  1  0.64800219  0.17217206  0.41353597  1.0
  H  H8  1  0.64207871  0.82790450  0.41435499  1.0
  H  H9  1  0.34498188  0.16937749  0.58448433  1.0
  H  H10  1  0.72274036  0.93190638  0.47231080  1.0
  H  H11  1  0.27280358  0.06770033  0.52783661  1.0
  H  H12  1  0.27292166  0.93275245  0.52943591  1.0
  H  H13  1  0.73806465  0.56253773  0.30090899  1.0
  H  H14  1  0.72285066  0.06699018  0.47109459  1.0
  H  H15  1  0.44218129  0.68149062  0.96552723  1.0
  H  H16  1  0.45324300  0.79715574  0.89742133  1.0
  H  H17  1  0.66041724  0.82074415  0.81759172  1.0
  H  H18  1  0.85558613  0.72718547  0.80665656  1.0
  H  H19  1  0.84180959  0.61084252  0.87379949  1.0
  H  H20  1  0.43846457  0.31974056  0.03549699  1.0
  H  H21  1  0.44854239  0.20428754  0.10400432  1.0
  H  H22  1  0.65652121  0.17934288  0.18218916  1.0
  H  H23  1  0.85387865  0.27137905  0.19120845  1.0
  H  H24  1  0.35376498  0.43747422  0.26715097  1.0
  H  H25  1  0.84093162  0.38757176  0.12375417  1.0
  H  H26  1  0.84481894  0.66841942  0.04323359  1.0
  H  H27  1  0.84375992  0.78400650  0.10992545  1.0
  H  H28  1  0.62764627  0.81872457  0.17957088  1.0
  H  H29  1  0.41317893  0.73651603  0.18212620  1.0
  H  H30  1  0.41659599  0.62041563  0.11660897  1.0
  H  H31  1  0.84008868  0.32983180  0.95485237  1.0
  H  H32  1  0.83612566  0.21394510  0.88864663  1.0
  H  H33  1  0.61869218  0.18066964  0.82056090  1.0
  H  H34  1  0.40558642  0.26447884  0.81928101  1.0
  H  H35  1  0.35123867  0.56621044  0.73456046  1.0
  H  H36  1  0.41185651  0.38092295  0.88423202  1.0
  H  H37  1  0.79094292  0.44029495  0.82251882  1.0
  H  H38  1  0.79608084  0.55769582  0.17509930  1.0
  H  H39  1  0.40539383  0.43717488  0.14041126  1.0
  H  H40  1  0.40498585  0.56530810  0.86080204  1.0
  H  H41  1  0.35139868  0.69316180  0.58624123  1.0
  C  C42  1  0.50850620  0.50323164  0.36712957  1.0
  C  C43  1  0.41010928  0.19770233  0.54562194  1.0
  C  C44  1  0.49660784  0.84137667  0.50196927  1.0
  C  C45  1  0.49663426  0.15835818  0.49900248  1.0
  C  C46  1  0.62316255  0.96149849  0.48367710  1.0
  C  C47  1  0.37252517  0.03813592  0.51675188  1.0
  C  C48  1  0.37256138  0.96197768  0.51763232  1.0
  C  C49  1  0.62319465  0.03776867  0.48294836  1.0
  C  C50  1  0.49784066  0.07752639  0.49951022  1.0
  C  C51  1  0.49786992  0.92220387  0.50117000  1.0
  C  C52  1  0.76625223  0.49834779  0.49959191  1.0
  C  C53  1  0.50310475  0.49897056  0.63288963  1.0
  C  C54  1  0.20888068  0.49812572  0.50057809  1.0
  C  C55  1  0.92209742  0.49832848  0.50000752  1.0
  C  C56  1  0.05305541  0.49816694  0.50038891  1.0
  C  C57  1  0.66048335  0.46534371  0.73343562  1.0
  C  C58  1  0.66623717  0.53468793  0.26533893  1.0
  C  C59  1  0.44967011  0.46429997  0.24634194  1.0
  C  C60  1  0.44670334  0.53819663  0.75441489  1.0
  C  C61  1  0.69380454  0.46748585  0.80357806  1.0
  C  C62  1  0.69828364  0.53184778  0.19495565  1.0
  C  C63  1  0.47953294  0.46375837  0.17578421  1.0
  C  C64  1  0.41308542  0.72587963  0.54909863  1.0
  C  C65  1  0.47773487  0.53806462  0.82475570  1.0
  C  C66  1  0.60160904  0.50275752  0.85045845  1.0
  C  C67  1  0.60410532  0.49748347  0.14898166  1.0
  C  C68  1  0.53673593  0.50070507  0.70837129  1.0
  C  C69  1  0.54172439  0.50096706  0.29149613  1.0
  C  C70  1  0.63359760  0.56744498  0.96344600  1.0
  C  C71  1  0.63234187  0.43237503  0.03578776  1.0
  C  C72  1  0.63197391  0.56640211  0.03645390  1.0
  C  C73  1  0.62947936  0.43343465  0.96279869  1.0
  C  C74  1  0.62689891  0.49880725  0.07265822  1.0
  C  C75  1  0.57490575  0.27530101  0.45295573  1.0
  C  C76  1  0.62560029  0.50107013  0.92662107  1.0
  C  C77  1  0.64117116  0.63819270  0.92437643  1.0
  C  C78  1  0.53279216  0.69153179  0.93061351  1.0
  C  C79  1  0.53926499  0.75662645  0.89231178  1.0
  C  C80  1  0.65522527  0.76984495  0.84756432  1.0
  C  C81  1  0.76454124  0.71742997  0.84143277  1.0
  C  C82  1  0.75718510  0.65204381  0.87931427  1.0
  C  C83  1  0.63889708  0.36163051  0.07491946  1.0
  C  C84  1  0.52942174  0.30913897  0.06974887  1.0
  C  C85  1  0.53540266  0.24415810  0.10826666  1.0
  C  C86  1  0.57069477  0.72466624  0.45560659  1.0
  C  C87  1  0.65187434  0.23022280  0.15215403  1.0
  C  C88  1  0.76231466  0.28176463  0.15719559  1.0
  C  C89  1  0.75542631  0.34702363  0.11910300  1.0
  C  C90  1  0.63074525  0.63659611  0.07536535  1.0
  C  C91  1  0.75037989  0.68336648  0.07389109  1.0
  C  C92  1  0.74951034  0.74838400  0.11134483  1.0
  C  C93  1  0.62843703  0.76788477  0.15037572  1.0
  C  C94  1  0.50823084  0.72191309  0.15174357  1.0
  C  C95  1  0.50970379  0.65673519  0.11468952  1.0
  C  C96  1  0.62623899  0.36318412  0.92405507  1.0
  C  C97  1  0.40958813  0.27376212  0.54330838  1.0
  C  C98  1  0.74503527  0.31546409  0.92490110  1.0
  C  C99  1  0.74250530  0.25030175  0.88773938  1.0
  C  C100  1  0.62062266  0.23160735  0.84959894  1.0
  C  C101  1  0.50131110  0.27853391  0.84888169  1.0
  C  C102  1  0.50434804  0.34388476  0.88565264  1.0
  C  C103  1  0.41348994  0.80195396  0.55047377  1.0
  C  C104  1  0.58055204  0.19922314  0.45192554  1.0
  C  C105  1  0.57713264  0.80068801  0.45399954  1.0
  N  N106  1  0.48985896  0.68795731  0.50227599  1.0
  N  N107  1  0.49054338  0.31184341  0.49773440  1.0
  O  O108  1  0.53717723  0.56256680  0.39851363  1.0
  O  O109  1  0.53221956  0.43973983  0.60127693  1.0
  O  O110  1  0.44992245  0.55691986  0.60554897  1.0
  O  O111  1  0.45551801  0.44554958  0.39478143  1.0
  O  O112  1  0.70456735  0.55682188  0.51968868  1.0
  O  O113  1  0.26995772  0.43784271  0.51703132  1.0
  O  O114  1  0.26958288  0.55836637  0.48418124  1.0
  O  O115  1  0.70613177  0.43978505  0.47923382  1.0
