# generated using pymatgen
data_CuH5C7N2
_symmetry_space_group_name_H-M   'P 1'
_cell_length_a   26.86972323
_cell_length_b   27.31792214
_cell_length_c   28.80566530
_cell_angle_alpha   93.77227748
_cell_angle_beta   90.42959114
_cell_angle_gamma   94.48262334
_symmetry_Int_Tables_number   1
_chemical_formula_structural   CuH5C7N2
_chemical_formula_sum   'Cu12 H60 C84 N24'
_cell_volume   21032.03249814
_cell_formula_units_Z   12
loop_
 _symmetry_equiv_pos_site_id
 _symmetry_equiv_pos_as_xyz
  1  'x, y, z'
loop_
 _atom_site_type_symbol
 _atom_site_label
 _atom_site_symmetry_multiplicity
 _atom_site_fract_x
 _atom_site_fract_y
 _atom_site_fract_z
 _atom_site_occupancy
  Cu  Cu0  1  0.43565377  0.35291140  0.38988615  1.0
  Cu  Cu1  1  0.37111959  0.40904161  0.32043748  1.0
  Cu  Cu2  1  0.33484963  0.39222700  0.42268924  1.0
  Cu  Cu3  1  0.05930071  0.84457293  0.62349805  1.0
  Cu  Cu4  1  0.10757769  0.94492121  0.66938053  1.0
  Cu  Cu5  1  0.15635741  0.89538213  0.57867546  1.0
  Cu  Cu6  1  0.58343120  0.15081642  0.86977567  1.0
  Cu  Cu7  1  0.61561913  0.04797698  0.82785456  1.0
  Cu  Cu8  1  0.67648932  0.10393931  0.91270425  1.0
  Cu  Cu9  1  0.91881139  0.68467834  0.14160365  1.0
  Cu  Cu10  1  0.88201633  0.57946576  0.17246135  1.0
  Cu  Cu11  1  0.85347487  0.61019819  0.07269985  1.0
  H  H12  1  0.53683253  0.35078764  0.33384989  1.0
  H  H13  1  0.43956508  0.40315616  0.23051642  1.0
  H  H14  1  0.30766210  0.32273565  0.50493118  1.0
  H  H15  1  0.45124017  0.27348365  0.46369003  1.0
  H  H16  1  0.28629864  0.47493275  0.28645270  1.0
  H  H17  1  0.25250475  0.46939141  0.43295883  1.0
  H  H18  1  0.97580988  0.81790874  0.69749619  1.0
  H  H19  1  0.03113935  0.96378355  0.75212816  1.0
  H  H20  1  0.17207123  0.81738196  0.49345751  1.0
  H  H21  1  0.03233851  0.75696093  0.54812194  1.0
  H  H22  1  0.18805455  0.03410972  0.69344872  1.0
  H  H23  1  0.25037334  0.97111853  0.56692388  1.0
  H  H24  1  0.50515100  0.17401980  0.79227279  1.0
  H  H25  1  0.53570671  0.02545273  0.74558766  1.0
  H  H26  1  0.70754127  0.18443659  0.99442040  1.0
  H  H27  1  0.57145487  0.23987976  0.94486507  1.0
  H  H28  1  0.68050091  0.95692743  0.80753401  1.0
  H  H29  1  0.76344257  0.03280352  0.92400785  1.0
  H  H30  1  0.00075432  0.71796910  0.22059733  1.0
  H  H31  1  0.95467109  0.57043388  0.25838760  1.0
  H  H32  1  0.84599822  0.67470296  0.98552789  1.0
  H  H33  1  0.91234885  0.78348066  0.08868307  1.0
  H  H34  1  0.80163379  0.48877755  0.18230890  1.0
  H  H35  1  0.77872187  0.51873628  0.03813409  1.0
  H  H36  1  0.92198073  0.78110554  0.86153761  1.0
  H  H37  1  0.82016791  0.85566669  0.95102616  1.0
  H  H38  1  0.86381279  0.91485969  0.82123244  1.0
  H  H39  1  0.62812675  0.41911640  0.19190962  1.0
  H  H40  1  0.68810683  0.35691139  0.06502591  1.0
  H  H41  1  0.53942200  0.30926387  0.10665157  1.0
  H  H42  1  0.06916504  0.69008449  0.37879369  1.0
  H  H43  1  0.19852779  0.63647033  0.44132869  1.0
  H  H44  1  0.12170795  0.55205525  0.32705022  1.0
  H  H45  1  0.37587456  0.07998522  0.67131249  1.0
  H  H46  1  0.33465175  0.14743320  0.54716536  1.0
  H  H47  1  0.46356318  0.20731743  0.62768433  1.0
  H  H48  1  0.94433475  0.92459970  0.79497782  1.0
  H  H49  1  0.94235089  0.81175103  0.78435672  1.0
  H  H50  1  0.58325968  0.37765022  0.24824056  1.0
  H  H51  1  0.50102602  0.35553662  0.17330145  1.0
  H  H52  1  0.04455046  0.69008531  0.30365859  1.0
  H  H53  1  0.04380954  0.57720044  0.29725141  1.0
  H  H54  1  0.45302237  0.06493380  0.70003232  1.0
  H  H55  1  0.48049909  0.17649185  0.70327117  1.0
  H  H56  1  0.87065950  0.82103084  0.00586399  1.0
  H  H57  1  0.88489957  0.74022798  0.92874227  1.0
  H  H58  1  0.33227481  0.23313516  0.54080712  1.0
  H  H59  1  0.44669659  0.23615938  0.54786883  1.0
  H  H60  1  0.68370715  0.27489020  0.03877292  1.0
  H  H61  1  0.57012313  0.28015617  0.03056269  1.0
  H  H62  1  0.06035779  0.71475829  0.45869907  1.0
  H  H63  1  0.17502856  0.72124255  0.46292400  1.0
  H  H64  1  0.77577035  0.92304732  0.82519431  1.0
  H  H65  1  0.79680609  0.94122205  0.93020514  1.0
  H  H66  1  0.19994763  0.52408846  0.31755181  1.0
  H  H67  1  0.22163655  0.55496073  0.42075991  1.0
  H  H68  1  0.28768530  0.07076869  0.67265172  1.0
  H  H69  1  0.29495920  0.06408227  0.56597900  1.0
  H  H70  1  0.72416088  0.43459705  0.06571314  1.0
  H  H71  1  0.71274378  0.44357735  0.17201320  1.0
  C  C72  1  0.50664922  0.36402484  0.31407586  1.0
  C  C73  1  0.50528655  0.37556551  0.26726557  1.0
  C  C74  1  0.45659035  0.38972990  0.26101099  1.0
  C  C75  1  0.34356034  0.31676815  0.48939327  1.0
  C  C76  1  0.37752116  0.28212964  0.49933629  1.0
  C  C77  1  0.41734206  0.29216179  0.46905196  1.0
  C  C78  1  0.28404652  0.46790298  0.32307044  1.0
  C  C79  1  0.25302382  0.48742899  0.35754552  1.0
  C  C80  1  0.26746068  0.46589876  0.39810082  1.0
  C  C81  1  0.99567925  0.85365109  0.70545314  1.0
  C  C82  1  0.98770597  0.88978831  0.74116185  1.0
  C  C83  1  0.02350818  0.92849719  0.73275989  1.0
  C  C84  1  0.13877434  0.80841704  0.51327221  1.0
  C  C85  1  0.10118820  0.76996498  0.50490132  1.0
  C  C86  1  0.06690168  0.77813194  0.54065923  1.0
  C  C87  1  0.19659607  0.01255970  0.66189780  1.0
  C  C88  1  0.23700623  0.01932577  0.63163502  1.0
  C  C89  1  0.22796918  0.98102790  0.59679081  1.0
  C  C90  1  0.51902176  0.13788129  0.78646305  1.0
  C  C91  1  0.50529143  0.10026252  0.75195986  1.0
  C  C92  1  0.53393587  0.06165596  0.76318630  1.0
  C  C93  1  0.67360427  0.19174819  0.97629654  1.0
  C  C94  1  0.64123097  0.22904736  0.98600551  1.0
  C  C95  1  0.60369759  0.21967702  0.95150531  1.0
  C  C96  1  0.69495761  0.98152627  0.83649947  1.0
  C  C97  1  0.73747777  0.97850207  0.86461240  1.0
  C  C98  1  0.73686793  0.01968489  0.89654551  1.0
  C  C99  1  0.98338307  0.68114892  0.22391012  1.0
  C  C100  1  0.99418007  0.64632624  0.25564603  1.0
  C  C101  1  0.96057984  0.60547632  0.24275998  1.0
  C  C102  1  0.86382010  0.69498156  0.01565112  1.0
  C  C103  1  0.87794240  0.74561257  0.02277986  1.0
  C  C104  1  0.89673212  0.75070172  0.06869651  1.0
  C  C105  1  0.80166541  0.50290535  0.14796318  1.0
  C  C106  1  0.77343808  0.48599390  0.10792222  1.0
  C  C107  1  0.79070140  0.51787477  0.07412779  1.0
  C  C108  1  0.89772692  0.84855834  0.83704279  1.0
  C  C109  1  0.89836033  0.81149341  0.86858217  1.0
  C  C110  1  0.87220787  0.81442765  0.91063004  1.0
  C  C111  1  0.84252490  0.85404800  0.91954993  1.0
  C  C112  1  0.83785017  0.88940128  0.88683650  1.0
  C  C113  1  0.86632473  0.88674865  0.84618830  1.0
  C  C114  1  0.57943449  0.36345099  0.15393477  1.0
  C  C115  1  0.62435854  0.39283838  0.16161618  1.0
  C  C116  1  0.66315430  0.39205785  0.12923899  1.0
  C  C117  1  0.65782814  0.35863155  0.08996754  1.0
  C  C118  1  0.61372918  0.32808550  0.08175848  1.0
  C  C119  1  0.57414136  0.33244244  0.11306233  1.0
  C  C120  1  0.09184811  0.62106567  0.34790222  1.0
  C  C121  1  0.09606101  0.66227954  0.38006073  1.0
  C  C122  1  0.13397977  0.66803528  0.41416219  1.0
  C  C123  1  0.16865318  0.63217936  0.41508384  1.0
  C  C124  1  0.16514862  0.59026664  0.38390878  1.0
  C  C125  1  0.12592487  0.58489512  0.35095127  1.0
  C  C126  1  0.42408708  0.14316730  0.65396089  1.0
  C  C127  1  0.38255640  0.10879090  0.64708936  1.0
  C  C128  1  0.34977389  0.11025420  0.60909171  1.0
  C  C129  1  0.35921224  0.14679674  0.57746246  1.0
  C  C130  1  0.39944248  0.18267489  0.58424378  1.0
  C  C131  1  0.43168908  0.18007108  0.62242997  1.0
  C  C132  1  0.95248742  0.88869105  0.77898315  1.0
  C  C133  1  0.93136766  0.84786125  0.79733774  1.0
  C  C134  1  0.54521659  0.37311119  0.23388432  1.0
  C  C135  1  0.53884523  0.36440631  0.18741673  1.0
  C  C136  1  0.03191618  0.65213599  0.29216672  1.0
  C  C137  1  0.05349665  0.61502658  0.31126161  1.0
  C  C138  1  0.47044387  0.10071118  0.71334620  1.0
  C  C139  1  0.45968899  0.14149581  0.69235312  1.0
  C  C140  1  0.87443605  0.78380543  0.99050437  1.0
  C  C141  1  0.87684373  0.77661169  0.94373352  1.0
  C  C142  1  0.37093796  0.24426631  0.53215396  1.0
  C  C143  1  0.40783929  0.22252644  0.55295103  1.0
  C  C144  1  0.64617282  0.26691042  0.02375261  1.0
  C  C145  1  0.60835278  0.29087180  0.04279014  1.0
  C  C146  1  0.09800596  0.72997400  0.46904525  1.0
  C  C147  1  0.13747956  0.70907059  0.44967231  1.0
  C  C148  1  0.77318046  0.94141920  0.85994747  1.0
  C  C149  1  0.80188661  0.92674366  0.89432832  1.0
  C  C150  1  0.21604886  0.52263209  0.35238946  1.0
  C  C151  1  0.20219954  0.55423252  0.38712298  1.0
  C  C152  1  0.27864903  0.05641841  0.63695152  1.0
  C  C153  1  0.30617913  0.07475373  0.60209894  1.0
  C  C154  1  0.73369187  0.44718501  0.10176706  1.0
  C  C155  1  0.70590516  0.42830939  0.13620676  1.0
  N  N156  1  0.43107123  0.38658365  0.30095846  1.0
  N  N157  1  0.46208693  0.37024686  0.33386695  1.0
  N  N158  1  0.40760444  0.32979064  0.44325529  1.0
  N  N159  1  0.36189612  0.34530520  0.45609771  1.0
  N  N160  1  0.30427077  0.43621323  0.38837694  1.0
  N  N161  1  0.31487969  0.43766110  0.34180654  1.0
  N  N162  1  0.05091061  0.91610187  0.69541408  1.0
  N  N163  1  0.03330744  0.86974890  0.67826617  1.0
  N  N164  1  0.08321782  0.81785306  0.56844934  1.0
  N  N165  1  0.12762788  0.83696609  0.55116588  1.0
  N  N166  1  0.18555151  0.95376960  0.60581061  1.0
  N  N167  1  0.16580204  0.97360163  0.64607344  1.0
  N  N168  1  0.56285874  0.07551108  0.80096867  1.0
  N  N169  1  0.55323352  0.12273575  0.81564737  1.0
  N  N170  1  0.61313666  0.17988915  0.92373666  1.0
  N  N171  1  0.65636532  0.16226393  0.93936259  1.0
  N  N172  1  0.69707268  0.04502136  0.88793317  1.0
  N  N173  1  0.67080359  0.02110215  0.85086688  1.0
  N  N174  1  0.93235597  0.61541402  0.20621579  1.0
  N  N175  1  0.94666734  0.66231819  0.19426233  1.0
  N  N176  1  0.89452776  0.70646248  0.08712627  1.0
  N  N177  1  0.87369308  0.67191536  0.05422942  1.0
  N  N178  1  0.82595238  0.55142042  0.09270769  1.0
  N  N179  1  0.83292894  0.54187007  0.13850060  1.0
