# generated using pymatgen
data_ZnH16C19N3O5
_symmetry_space_group_name_H-M   'P 1'
_cell_length_a   9.71926024
_cell_length_b   10.98785170
_cell_length_c   18.93834826
_cell_angle_alpha   89.85856514
_cell_angle_beta   90.06804894
_cell_angle_gamma   89.90201468
_symmetry_Int_Tables_number   1
_chemical_formula_structural   ZnH16C19N3O5
_chemical_formula_sum   'Zn2 H32 C38 N6 O10'
_cell_volume   2022.48743366
_cell_formula_units_Z   2
loop_
 _symmetry_equiv_pos_site_id
 _symmetry_equiv_pos_as_xyz
  1  'x, y, z'
loop_
 _atom_site_type_symbol
 _atom_site_label
 _atom_site_symmetry_multiplicity
 _atom_site_fract_x
 _atom_site_fract_y
 _atom_site_fract_z
 _atom_site_occupancy
  Zn  Zn0  1  0.36415185  0.51039615  0.49797362  1.0
  Zn  Zn1  1  0.64793700  0.50944385  0.49810352  1.0
  H  H2  1  0.29013841  0.43590320  0.71622275  1.0
  H  H3  1  0.29692724  0.14739037  0.61626917  1.0
  H  H4  1  0.18662826  0.13350152  0.54122184  1.0
  H  H5  1  0.29740279  0.91919714  0.63017325  1.0
  H  H6  1  0.18625272  0.90665715  0.55524913  1.0
  H  H7  1  0.87487410  0.42710856  0.40014687  1.0
  H  H8  1  0.13466240  0.42608692  0.39955294  1.0
  H  H9  1  0.14345390  0.57130205  0.65961027  1.0
  H  H10  1  0.13709187  0.71530138  0.61583933  1.0
  H  H11  1  0.88743788  0.55608395  0.66003231  1.0
  H  H12  1  0.27850348  0.38306948  0.84466571  1.0
  H  H13  1  0.30552058  0.31519069  0.16963910  1.0
  H  H14  1  0.31572869  0.38582668  0.29524047  1.0
  H  H15  1  0.67724686  0.51500048  0.12705005  1.0
  H  H16  1  0.67313585  0.88599309  0.42484305  1.0
  H  H17  1  0.92841013  0.17264541  0.40094565  1.0
  H  H18  1  0.84098713  0.19290359  0.48298062  1.0
  H  H19  1  0.88734922  0.04434253  0.45414052  1.0
  H  H20  1  0.72237007  0.06598729  0.35170346  1.0
  H  H21  1  0.67776819  0.21369143  0.38042059  1.0
  H  H22  1  0.82084586  0.92218876  0.58415191  1.0
  H  H23  1  0.98717162  0.86102831  0.56997205  1.0
  H  H24  1  0.84319905  0.80598100  0.52087720  1.0
  H  H25  1  0.73797160  0.72066159  0.63036964  1.0
  H  H26  1  0.87393212  0.77774659  0.68230249  1.0
  H  H27  1  0.73274405  0.34672248  0.90409357  1.0
  H  H28  1  0.82296601  0.39138640  0.75741850  1.0
  H  H29  1  0.58829642  0.74323077  0.31644868  1.0
  H  H30  1  0.74425918  0.80715064  0.28506009  1.0
  H  H31  1  0.60452122  0.78362496  0.22590987  1.0
  H  H32  1  0.76999804  0.58234932  0.30165695  1.0
  H  H33  1  0.79077315  0.62329019  0.21168716  1.0
  C  C34  1  0.50272711  0.74413142  0.50156885  1.0
  C  C35  1  0.51022664  0.43364816  0.71072132  1.0
  C  C36  1  0.49556963  0.36735355  0.06808394  1.0
  C  C37  1  0.49678623  0.34960685  0.93192506  1.0
  C  C38  1  0.38769036  0.37479683  0.18773264  1.0
  C  C39  1  0.39346665  0.41449360  0.25727316  1.0
  C  C40  1  0.50107123  0.48882529  0.28112343  1.0
  C  C41  1  0.60417037  0.52899920  0.23389228  1.0
  C  C42  1  0.59808181  0.48699497  0.16450535  1.0
  C  C43  1  0.49276218  0.40937967  0.14110523  1.0
  C  C44  1  0.40120789  0.95168136  0.52738208  1.0
  C  C45  1  0.50748919  0.46986217  0.63421472  1.0
  C  C46  1  0.49940551  0.87890853  0.49457361  1.0
  C  C47  1  0.59703967  0.94066862  0.45287182  1.0
  C  C48  1  0.60068938  0.06763713  0.44538275  1.0
  C  C49  1  0.50158181  0.13953492  0.48113087  1.0
  C  C50  1  0.40219214  0.07785252  0.52010182  1.0
  C  C51  1  0.27802921  0.09573628  0.56759805  1.0
  C  C52  1  0.27785133  0.95241386  0.57625807  1.0
  C  C53  1  0.93483647  0.56205182  0.54892702  1.0
  C  C54  1  0.93372657  0.46615721  0.44351959  1.0
  C  C55  1  0.07708367  0.46559788  0.44316371  1.0
  C  C56  1  0.50353718  0.27525858  0.48280016  1.0
  C  C57  1  0.07839308  0.56198774  0.54814724  1.0
  C  C58  1  0.09068479  0.62441221  0.61856370  1.0
  C  C59  1  0.92621155  0.62196169  0.62103217  1.0
  C  C60  1  0.50658093  0.51398470  0.35904807  1.0
  C  C61  1  0.38355308  0.42118470  0.74684102  1.0
  C  C62  1  0.37681091  0.39141921  0.81755805  1.0
  C  C63  1  0.49930298  0.37234037  0.85652005  1.0
  C  C64  1  0.62636952  0.38141907  0.82102184  1.0
  C  C65  1  0.63207829  0.41112481  0.74820945  1.0
  C  C66  1  0.71071997  0.12334803  0.39897241  1.0
  C  C67  1  0.85027633  0.13400488  0.43648463  1.0
  C  C68  1  0.84838611  0.74211014  0.62957025  1.0
  C  C69  1  0.87737785  0.83779473  0.57294814  1.0
  C  C70  1  0.71566260  0.61746935  0.25497664  1.0
  C  C71  1  0.65967594  0.74512444  0.27152153  1.0
  N  N72  1  0.61826215  0.34264800  0.96704335  1.0
  N  N73  1  0.61885524  0.35326027  0.03629348  1.0
  N  N74  1  0.37656985  0.33388057  0.03538665  1.0
  N  N75  1  0.37657447  0.32622880  0.96638684  1.0
  N  N76  1  0.85923967  0.51420165  0.49752163  1.0
  N  N77  1  0.15285063  0.51350993  0.49667327  1.0
  O  O78  1  0.39152477  0.69078210  0.51967866  1.0
  O  O79  1  0.61690966  0.69126796  0.48863226  1.0
  O  O80  1  0.39152550  0.46117416  0.60297273  1.0
  O  O81  1  0.61861480  0.50735662  0.60617821  1.0
  O  O82  1  0.38947628  0.32985759  0.47239998  1.0
  O  O83  1  0.61790708  0.32548401  0.49785194  1.0
  O  O84  1  0.39488150  0.54283463  0.38973781  1.0
  O  O85  1  0.62293130  0.49787413  0.38863951  1.0
  O  O86  1  0.75085658  0.36303309  0.85184452  1.0
  O  O87  1  0.75998793  0.41475943  0.71898990  1.0
