# generated using pymatgen
data_AgH6C6N(OF)2
_symmetry_space_group_name_H-M   'P 1'
_cell_length_a   18.25256237
_cell_length_b   18.25258056
_cell_length_c   18.25256206
_cell_angle_alpha   87.25257213
_cell_angle_beta   87.25263910
_cell_angle_gamma   87.25257857
_symmetry_Int_Tables_number   1
_chemical_formula_structural   AgH6C6N(OF)2
_chemical_formula_sum   'Ag24 H144 C144 N24 O48 F48'
_cell_volume   6060.63592291
_cell_formula_units_Z   24
loop_
 _symmetry_equiv_pos_site_id
 _symmetry_equiv_pos_as_xyz
  1  'x, y, z'
loop_
 _atom_site_type_symbol
 _atom_site_label
 _atom_site_symmetry_multiplicity
 _atom_site_fract_x
 _atom_site_fract_y
 _atom_site_fract_z
 _atom_site_occupancy
  Ag  Ag0  1  0.44404441  0.74999911  0.05595466  1.0
  Ag  Ag1  1  0.05595490  0.44404416  0.75000001  1.0
  Ag  Ag2  1  0.74999971  0.05595448  0.44404490  1.0
  Ag  Ag3  1  0.55595589  0.25000117  0.94404521  1.0
  Ag  Ag4  1  0.94404541  0.55595613  0.25000041  1.0
  Ag  Ag5  1  0.25000058  0.94404635  0.55595549  1.0
  Ag  Ag6  1  0.37360644  0.65071594  0.96199108  1.0
  Ag  Ag7  1  0.96198962  0.37360582  0.65071462  1.0
  Ag  Ag8  1  0.65071443  0.96198980  0.37360566  1.0
  Ag  Ag9  1  0.84928609  0.12639601  0.53801150  1.0
  Ag  Ag10  1  0.12639512  0.53801047  0.84928585  1.0
  Ag  Ag11  1  0.53801114  0.84928543  0.12639484  1.0
  Ag  Ag12  1  0.62639441  0.34928434  0.03800932  1.0
  Ag  Ag13  1  0.03801069  0.62639446  0.34928580  1.0
  Ag  Ag14  1  0.34928533  0.03801048  0.62639424  1.0
  Ag  Ag15  1  0.15071308  0.87360538  0.46199002  1.0
  Ag  Ag16  1  0.87360516  0.46199037  0.15071345  1.0
  Ag  Ag17  1  0.46199030  0.15071431  0.87360555  1.0
  Ag  Ag18  1  0.34105857  0.15894717  0.74999821  1.0
  Ag  Ag19  1  0.74999877  0.34105807  0.15894761  1.0
  Ag  Ag20  1  0.15894699  0.74999636  0.34105768  1.0
  Ag  Ag21  1  0.65894284  0.84105311  0.25000161  1.0
  Ag  Ag22  1  0.25000156  0.65894166  0.84105229  1.0
  Ag  Ag23  1  0.84105282  0.25000282  0.65894282  1.0
  H  H24  1  0.34424736  0.84884557  0.04031973  1.0
  H  H25  1  0.04032036  0.34424688  0.84884642  1.0
  H  H26  1  0.84884514  0.04032131  0.34424818  1.0
  H  H27  1  0.65115399  0.15575285  0.45967851  1.0
  H  H28  1  0.15575259  0.45967954  0.65115524  1.0
  H  H29  1  0.45967997  0.65115540  0.15575235  1.0
  H  H30  1  0.65575297  0.15115417  0.95967962  1.0
  H  H31  1  0.95967943  0.65575286  0.15115351  1.0
  H  H32  1  0.15115462  0.95967898  0.65575172  1.0
  H  H33  1  0.34884407  0.84424852  0.54032032  1.0
  H  H34  1  0.84424717  0.54032075  0.34884466  1.0
  H  H35  1  0.54032037  0.34884434  0.84424810  1.0
  H  H36  1  0.26887647  0.89987286  0.08172335  1.0
  H  H37  1  0.08172337  0.26887563  0.89987418  1.0
  H  H38  1  0.89987347  0.08172435  0.26887577  1.0
  H  H39  1  0.60012523  0.23112410  0.41827652  1.0
  H  H40  1  0.23112316  0.41827705  0.60012756  1.0
  H  H41  1  0.41827776  0.60012646  0.23112311  1.0
  H  H42  1  0.73112441  0.10012687  0.91827653  1.0
  H  H43  1  0.91827587  0.73112410  0.10012577  1.0
  H  H44  1  0.10012629  0.91827593  0.73112413  1.0
  H  H45  1  0.39987285  0.76887673  0.58172234  1.0
  H  H46  1  0.76887663  0.58172269  0.39987292  1.0
  H  H47  1  0.58172202  0.39987328  0.76887682  1.0
  H  H48  1  0.25349024  0.82080470  0.03208495  1.0
  H  H49  1  0.03208470  0.25348968  0.82080549  1.0
  H  H50  1  0.82080454  0.03208534  0.25349035  1.0
  H  H51  1  0.67919627  0.24651115  0.46791368  1.0
  H  H52  1  0.24651035  0.46791441  0.67919678  1.0
  H  H53  1  0.46791436  0.67919736  0.24651017  1.0
  H  H54  1  0.74651010  0.17919503  0.96791495  1.0
  H  H55  1  0.96791511  0.74650951  0.17919501  1.0
  H  H56  1  0.17919527  0.96791385  0.74651015  1.0
  H  H57  1  0.32080289  0.75349023  0.53208510  1.0
  H  H58  1  0.75348941  0.53208587  0.32080257  1.0
  H  H59  1  0.53208486  0.32080292  0.75348976  1.0
  H  H60  1  0.34389978  0.57552736  0.07968839  1.0
  H  H61  1  0.07968749  0.34389957  0.57552836  1.0
  H  H62  1  0.57552767  0.07968793  0.34389935  1.0
  H  H63  1  0.92447281  0.15610073  0.42031217  1.0
  H  H64  1  0.15610096  0.42031181  0.92447276  1.0
  H  H65  1  0.42031295  0.92447306  0.15610100  1.0
  H  H66  1  0.65610056  0.42447238  0.92031206  1.0
  H  H67  1  0.92031227  0.65610072  0.42447209  1.0
  H  H68  1  0.42447211  0.92031181  0.65610058  1.0
  H  H69  1  0.07552695  0.84389955  0.57968773  1.0
  H  H70  1  0.84389940  0.57968738  0.07552717  1.0
  H  H71  1  0.57968736  0.07552722  0.84389942  1.0
  H  H72  1  0.37606133  0.50844964  0.14633111  1.0
  H  H73  1  0.14633081  0.37606067  0.50844982  1.0
  H  H74  1  0.50844996  0.14633122  0.37606066  1.0
  H  H75  1  0.99155077  0.12394018  0.35366945  1.0
  H  H76  1  0.12393999  0.35366906  0.99155073  1.0
  H  H77  1  0.35366931  0.99155078  0.12394017  1.0
  H  H78  1  0.62393901  0.49155009  0.85366879  1.0
  H  H79  1  0.85366953  0.62393907  0.49155008  1.0
  H  H80  1  0.49155035  0.85366906  0.62393921  1.0
  H  H81  1  0.00844897  0.87606065  0.64633098  1.0
  H  H82  1  0.87606035  0.64633068  0.00844917  1.0
  H  H83  1  0.64633048  0.00844896  0.87606030  1.0
  H  H84  1  0.32562840  0.48176507  0.07225397  1.0
  H  H85  1  0.07225329  0.32562875  0.48176522  1.0
  H  H86  1  0.48176538  0.07225337  0.32562878  1.0
  H  H87  1  0.01823541  0.17437166  0.42774713  1.0
  H  H88  1  0.17437138  0.42774706  0.01823528  1.0
  H  H89  1  0.42774751  0.01823591  0.17437149  1.0
  H  H90  1  0.67437139  0.51823466  0.92774651  1.0
  H  H91  1  0.92774702  0.67437153  0.51823466  1.0
  H  H92  1  0.51823495  0.92774637  0.67437167  1.0
  H  H93  1  0.98176433  0.82562918  0.57225274  1.0
  H  H94  1  0.82562895  0.57225267  0.98176462  1.0
  H  H95  1  0.57225223  0.98176492  0.82562838  1.0
  H  H96  1  0.50483474  0.60113993  0.83919526  1.0
  H  H97  1  0.83919496  0.50483494  0.60114046  1.0
  H  H98  1  0.60114017  0.83919558  0.50483464  1.0
  H  H99  1  0.89886020  0.99516686  0.66080427  1.0
  H  H100  1  0.99516619  0.66080457  0.89886049  1.0
  H  H101  1  0.66080465  0.89886075  0.99516593  1.0
  H  H102  1  0.49516559  0.39885981  0.16080519  1.0
  H  H103  1  0.16080481  0.49516535  0.39885999  1.0
  H  H104  1  0.39886014  0.16080471  0.49516578  1.0
  H  H105  1  0.10114011  0.00483342  0.33919560  1.0
  H  H106  1  0.00483414  0.33919517  0.10113996  1.0
  H  H107  1  0.33919566  0.10113953  0.00483339  1.0
  H  H108  1  0.59041575  0.61656209  0.87806060  1.0
  H  H109  1  0.87806016  0.59041596  0.61656234  1.0
  H  H110  1  0.61656246  0.87805975  0.59041619  1.0
  H  H111  1  0.88343715  0.90958530  0.62193959  1.0
  H  H112  1  0.90958454  0.62193984  0.88343749  1.0
  H  H113  1  0.62193985  0.88343749  0.90958445  1.0
  H  H114  1  0.40958458  0.38343765  0.12193930  1.0
  H  H115  1  0.12193963  0.40958378  0.38343759  1.0
  H  H116  1  0.38343733  0.12193998  0.40958429  1.0
  H  H117  1  0.11656261  0.09041499  0.37805976  1.0
  H  H118  1  0.09041579  0.37805989  0.11656296  1.0
  H  H119  1  0.37805993  0.11656224  0.09041548  1.0
  H  H120  1  0.50925655  0.66581931  0.90883522  1.0
  H  H121  1  0.90883537  0.50925709  0.66581991  1.0
  H  H122  1  0.66581935  0.90883537  0.50925699  1.0
  H  H123  1  0.83417969  0.99074416  0.59116493  1.0
  H  H124  1  0.99074413  0.59116533  0.83417992  1.0
  H  H125  1  0.59116531  0.83418027  0.99074417  1.0
  H  H126  1  0.49074381  0.33417988  0.09116526  1.0
  H  H127  1  0.09116494  0.49074320  0.33418052  1.0
  H  H128  1  0.33417986  0.09116492  0.49074349  1.0
  H  H129  1  0.16582007  0.00925612  0.40883497  1.0
  H  H130  1  0.00925618  0.40883495  0.16581996  1.0
  H  H131  1  0.40883445  0.16582002  0.00925628  1.0
  H  H132  1  0.19114682  0.90326490  0.20994625  1.0
  H  H133  1  0.20994625  0.19114593  0.90326596  1.0
  H  H134  1  0.90326575  0.20994606  0.19114660  1.0
  H  H135  1  0.59673476  0.30885601  0.29005667  1.0
  H  H136  1  0.30885684  0.29005589  0.59673453  1.0
  H  H137  1  0.29005663  0.59673387  0.30885712  1.0
  H  H138  1  0.80885354  0.09673429  0.79005367  1.0
  H  H139  1  0.79005352  0.80885435  0.09673449  1.0
  H  H140  1  0.09673458  0.79005367  0.80885385  1.0
  H  H141  1  0.40326558  0.69114373  0.70994323  1.0
  H  H142  1  0.69114352  0.70994329  0.40326540  1.0
  H  H143  1  0.70994315  0.40326586  0.69114336  1.0
  H  H144  1  0.13159440  0.82993552  0.22840477  1.0
  H  H145  1  0.22840471  0.13159376  0.82993598  1.0
  H  H146  1  0.82993625  0.22840421  0.13159389  1.0
  H  H147  1  0.67006452  0.36840708  0.27159821  1.0
  H  H148  1  0.36840665  0.27159774  0.67006521  1.0
  H  H149  1  0.27159834  0.67006434  0.36840700  1.0
  H  H150  1  0.86840594  0.17006421  0.77159514  1.0
  H  H151  1  0.77159508  0.86840597  0.17006395  1.0
  H  H152  1  0.17006406  0.77159607  0.86840653  1.0
  H  H153  1  0.32993522  0.63159375  0.72840167  1.0
  H  H154  1  0.63159314  0.72840199  0.32993472  1.0
  H  H155  1  0.72840143  0.32993595  0.63159345  1.0
  H  H156  1  0.15632343  0.85763028  0.13571178  1.0
  H  H157  1  0.13571254  0.15632291  0.85763030  1.0
  H  H158  1  0.85763022  0.13571168  0.15632397  1.0
  H  H159  1  0.64237234  0.34367409  0.36429071  1.0
  H  H160  1  0.34367524  0.36429027  0.64237200  1.0
  H  H161  1  0.36429064  0.64237123  0.34367531  1.0
  H  H162  1  0.84367633  0.14237000  0.86428757  1.0
  H  H163  1  0.86428780  0.84367683  0.14236960  1.0
  H  H164  1  0.14237009  0.86428860  0.84367590  1.0
  H  H165  1  0.35762800  0.65632564  0.63570864  1.0
  H  H166  1  0.65632455  0.63570946  0.35762793  1.0
  H  H167  1  0.63570860  0.35762851  0.65632519  1.0
  C  C168  1  0.40352095  0.86895522  0.83773231  1.0
  C  C169  1  0.83773175  0.40352179  0.86895606  1.0
  C  C170  1  0.86895619  0.83773247  0.40352071  1.0
  C  C171  1  0.63104461  0.09647783  0.66226771  1.0
  C  C172  1  0.09647827  0.66226725  0.63104552  1.0
  C  C173  1  0.66226742  0.63104506  0.09647834  1.0
  C  C174  1  0.59647993  0.13104452  0.16226811  1.0
  C  C175  1  0.16226791  0.59648070  0.13104429  1.0
  C  C176  1  0.13104360  0.16226726  0.59647867  1.0
  C  C177  1  0.36895521  0.90352136  0.33773279  1.0
  C  C178  1  0.90352204  0.33773303  0.36895545  1.0
  C  C179  1  0.33773287  0.36895577  0.90352151  1.0
  C  C180  1  0.34524339  0.92964846  0.86087776  1.0
  C  C181  1  0.86087755  0.34524367  0.92964927  1.0
  C  C182  1  0.92964892  0.86087760  0.34524382  1.0
  C  C183  1  0.57035231  0.15475594  0.63912101  1.0
  C  C184  1  0.15475592  0.63912103  0.57035295  1.0
  C  C185  1  0.63912169  0.57035181  0.15475531  1.0
  C  C186  1  0.65475749  0.07035128  0.13912102  1.0
  C  C187  1  0.13912051  0.65475771  0.07035066  1.0
  C  C188  1  0.07035035  0.13912159  0.65475616  1.0
  C  C189  1  0.42964748  0.84524380  0.36087891  1.0
  C  C190  1  0.84524329  0.36087925  0.42964753  1.0
  C  C191  1  0.36087919  0.42964792  0.84524401  1.0
  C  C192  1  0.41083507  0.80492593  0.89652217  1.0
  C  C193  1  0.89652279  0.41083541  0.80492642  1.0
  C  C194  1  0.80492624  0.89652216  0.41083562  1.0
  C  C195  1  0.69507510  0.08916366  0.60347838  1.0
  C  C196  1  0.08916348  0.60347756  0.69507572  1.0
  C  C197  1  0.60347758  0.69507544  0.08916334  1.0
  C  C198  1  0.58916581  0.19507380  0.10347770  1.0
  C  C199  1  0.10347750  0.58916542  0.19507397  1.0
  C  C200  1  0.19507407  0.10347812  0.58916426  1.0
  C  C201  1  0.30492414  0.91083608  0.39652213  1.0
  C  C202  1  0.91083681  0.39652328  0.30492467  1.0
  C  C203  1  0.39652218  0.30492485  0.91083656  1.0
  C  C204  1  0.29056429  0.84446721  0.06954563  1.0
  C  C205  1  0.06954543  0.29056376  0.84446755  1.0
  C  C206  1  0.84446711  0.06954587  0.29056415  1.0
  C  C207  1  0.65553396  0.20943488  0.43045310  1.0
  C  C208  1  0.20943492  0.43045388  0.65553423  1.0
  C  C209  1  0.43045382  0.65553376  0.20943533  1.0
  C  C210  1  0.70943659  0.15553253  0.93045424  1.0
  C  C211  1  0.93045436  0.70943598  0.15553238  1.0
  C  C212  1  0.15553213  0.93045386  0.70943581  1.0
  C  C213  1  0.34446580  0.79056540  0.56954570  1.0
  C  C214  1  0.79056485  0.56954641  0.34446622  1.0
  C  C215  1  0.56954597  0.34446598  0.79056515  1.0
  C  C216  1  0.36710080  0.51926972  0.08767825  1.0
  C  C217  1  0.08767832  0.36710052  0.51927039  1.0
  C  C218  1  0.51926967  0.08767821  0.36710046  1.0
  C  C219  1  0.98073046  0.13289978  0.41232181  1.0
  C  C220  1  0.13290014  0.41232153  0.98073068  1.0
  C  C221  1  0.41232171  0.98073070  0.13289991  1.0
  C  C222  1  0.63289953  0.48073002  0.91232165  1.0
  C  C223  1  0.91232144  0.63289977  0.48073006  1.0
  C  C224  1  0.48072957  0.91232153  0.63289949  1.0
  C  C225  1  0.01926930  0.86710050  0.58767809  1.0
  C  C226  1  0.86710023  0.58767766  0.01926979  1.0
  C  C227  1  0.58767805  0.01926958  0.86710054  1.0
  C  C228  1  0.34209174  0.99814343  0.80663701  1.0
  C  C229  1  0.80663624  0.34209149  0.99814335  1.0
  C  C230  1  0.99814437  0.80663747  0.34209168  1.0
  C  C231  1  0.50185757  0.15790701  0.69336064  1.0
  C  C232  1  0.15790689  0.69336117  0.50185786  1.0
  C  C233  1  0.69336136  0.50185684  0.15790697  1.0
  C  C234  1  0.65790911  0.00185686  0.19336228  1.0
  C  C235  1  0.19336297  0.65790879  0.00185658  1.0
  C  C236  1  0.00185594  0.19336282  0.65790819  1.0
  C  C237  1  0.49814276  0.84209272  0.30663926  1.0
  C  C238  1  0.84209232  0.30663911  0.49814262  1.0
  C  C239  1  0.30663949  0.49814344  0.84209288  1.0
  C  C240  1  0.29670226  0.79599755  0.13745142  1.0
  C  C241  1  0.13745146  0.29670188  0.79599793  1.0
  C  C242  1  0.79599656  0.13745253  0.29670208  1.0
  C  C243  1  0.70400139  0.20329731  0.36254799  1.0
  C  C244  1  0.20329690  0.36254831  0.70400331  1.0
  C  C245  1  0.36254872  0.70400231  0.20329735  1.0
  C  C246  1  0.70329859  0.20400273  0.86254788  1.0
  C  C247  1  0.86254833  0.70329786  0.20400145  1.0
  C  C248  1  0.20400213  0.86254720  0.70329845  1.0
  C  C249  1  0.29599727  0.79670297  0.63745142  1.0
  C  C250  1  0.79670176  0.63745197  0.29599664  1.0
  C  C251  1  0.63745107  0.29599742  0.79670313  1.0
  C  C252  1  0.43664367  0.50861756  0.04206643  1.0
  C  C253  1  0.04206595  0.43664369  0.50861786  1.0
  C  C254  1  0.50861754  0.04206639  0.43664389  1.0
  C  C255  1  0.99138222  0.06335661  0.45793371  1.0
  C  C256  1  0.06335647  0.45793388  0.99138262  1.0
  C  C257  1  0.45793358  0.99138286  0.06335595  1.0
  C  C258  1  0.56335669  0.49138162  0.95793405  1.0
  C  C259  1  0.95793381  0.56335659  0.49138259  1.0
  C  C260  1  0.49138222  0.95793389  0.56335656  1.0
  C  C261  1  0.00861751  0.93664423  0.54206616  1.0
  C  C262  1  0.93664387  0.54206585  0.00861728  1.0
  C  C263  1  0.54206615  0.00861797  0.93664393  1.0
  C  C264  1  0.51579719  0.55363308  0.94777036  1.0
  C  C265  1  0.94776983  0.51579719  0.55363427  1.0
  C  C266  1  0.55363323  0.94777021  0.51579692  1.0
  C  C267  1  0.94636585  0.98420297  0.55222879  1.0
  C  C268  1  0.98420307  0.55222938  0.94636624  1.0
  C  C269  1  0.55222968  0.94636650  0.98420308  1.0
  C  C270  1  0.48420262  0.44636611  0.05222905  1.0
  C  C271  1  0.05222993  0.48420310  0.44636673  1.0
  C  C272  1  0.44636603  0.05222897  0.48420251  1.0
  C  C273  1  0.05363393  0.01579676  0.44777004  1.0
  C  C274  1  0.01579779  0.44777091  0.05363415  1.0
  C  C275  1  0.44777008  0.05363379  0.01579682  1.0
  C  C276  1  0.53135986  0.61252188  0.89017372  1.0
  C  C277  1  0.89017383  0.53136014  0.61252254  1.0
  C  C278  1  0.61252235  0.89017362  0.53136000  1.0
  C  C279  1  0.88747772  0.96864112  0.60982643  1.0
  C  C280  1  0.96864050  0.60982598  0.88747789  1.0
  C  C281  1  0.60982675  0.88747770  0.96864058  1.0
  C  C282  1  0.46864050  0.38747731  0.10982676  1.0
  C  C283  1  0.10982648  0.46864015  0.38747789  1.0
  C  C284  1  0.38747796  0.10982667  0.46864042  1.0
  C  C285  1  0.11252204  0.03135917  0.39017347  1.0
  C  C286  1  0.03135984  0.39017376  0.11252256  1.0
  C  C287  1  0.39017356  0.11252259  0.03135929  1.0
  C  C288  1  0.24144108  0.79660214  0.19390281  1.0
  C  C289  1  0.19390250  0.24144065  0.79660270  1.0
  C  C290  1  0.79660174  0.19390267  0.24144108  1.0
  C  C291  1  0.70339726  0.25855964  0.30609758  1.0
  C  C292  1  0.25855895  0.30609818  0.70339743  1.0
  C  C293  1  0.30609844  0.70339772  0.25855883  1.0
  C  C294  1  0.75855923  0.20339814  0.80609706  1.0
  C  C295  1  0.80609726  0.75855964  0.20339720  1.0
  C  C296  1  0.20339750  0.80609707  0.75855942  1.0
  C  C297  1  0.29660195  0.74144064  0.69390180  1.0
  C  C298  1  0.74144081  0.69390211  0.29660192  1.0
  C  C299  1  0.69390186  0.29660256  0.74144049  1.0
  C  C300  1  0.17635280  0.84957824  0.19130619  1.0
  C  C301  1  0.19130666  0.17635262  0.84957888  1.0
  C  C302  1  0.84957824  0.19130622  0.17635303  1.0
  C  C303  1  0.65042267  0.32364713  0.30869628  1.0
  C  C304  1  0.32364661  0.30869573  0.65042286  1.0
  C  C305  1  0.30869624  0.65042271  0.32364732  1.0
  C  C306  1  0.82364753  0.15042149  0.80869316  1.0
  C  C307  1  0.80869365  0.82364767  0.15042154  1.0
  C  C308  1  0.15042152  0.80869406  0.82364742  1.0
  C  C309  1  0.34957707  0.67635370  0.69130359  1.0
  C  C310  1  0.67635318  0.69130401  0.34957707  1.0
  C  C311  1  0.69130349  0.34957812  0.67635310  1.0
  N  N312  1  0.35636580  0.75000021  0.14363421  1.0
  N  N313  1  0.14363409  0.35636574  0.75000113  1.0
  N  N314  1  0.74999959  0.14363400  0.35636521  1.0
  N  N315  1  0.64363454  0.24999953  0.85636569  1.0
  N  N316  1  0.85636515  0.64363400  0.24999883  1.0
  N  N317  1  0.24999962  0.85636628  0.64363417  1.0
  N  N318  1  0.45338479  0.56061512  0.98986228  1.0
  N  N319  1  0.98986186  0.45338452  0.56061534  1.0
  N  N320  1  0.56061541  0.98986211  0.45338452  1.0
  N  N321  1  0.93938449  0.04661566  0.51013788  1.0
  N  N322  1  0.04661541  0.51013760  0.93938464  1.0
  N  N323  1  0.51013777  0.93938461  0.04661541  1.0
  N  N324  1  0.54661557  0.43938407  0.01013765  1.0
  N  N325  1  0.01013847  0.54661522  0.43938456  1.0
  N  N326  1  0.43938490  0.01013818  0.54661536  1.0
  N  N327  1  0.06061524  0.95338517  0.48986254  1.0
  N  N328  1  0.95338493  0.48986214  0.06061526  1.0
  N  N329  1  0.48986202  0.06061513  0.95338452  1.0
  N  N330  1  0.24708257  0.74999965  0.25291795  1.0
  N  N331  1  0.25291837  0.24708222  0.75000006  1.0
  N  N332  1  0.75000070  0.25291863  0.24708186  1.0
  N  N333  1  0.75291722  0.25000008  0.74708143  1.0
  N  N334  1  0.74708193  0.75291807  0.24999982  1.0
  N  N335  1  0.24999906  0.74708165  0.75291695  1.0
  O  O336  1  0.36406235  0.75668625  0.89248778  1.0
  O  O337  1  0.89248819  0.36406210  0.75668696  1.0
  O  O338  1  0.75668681  0.89248705  0.36406189  1.0
  O  O339  1  0.74331329  0.13593807  0.60751221  1.0
  O  O340  1  0.13593837  0.60751157  0.74331352  1.0
  O  O341  1  0.60751192  0.74331237  0.13593775  1.0
  O  O342  1  0.63593798  0.24331348  0.10751212  1.0
  O  O343  1  0.10751212  0.63593819  0.24331401  1.0
  O  O344  1  0.24331296  0.10751323  0.63593856  1.0
  O  O345  1  0.25668702  0.86406221  0.39248821  1.0
  O  O346  1  0.86406196  0.39248817  0.25668693  1.0
  O  O347  1  0.39248790  0.25668681  0.86406165  1.0
  O  O348  1  0.46026522  0.80977327  0.94150756  1.0
  O  O349  1  0.94150891  0.46026502  0.80977400  1.0
  O  O350  1  0.80977251  0.94150609  0.46026556  1.0
  O  O351  1  0.69023020  0.03973242  0.55849459  1.0
  O  O352  1  0.03973249  0.55849363  0.69023030  1.0
  O  O353  1  0.55849365  0.69023029  0.03973223  1.0
  O  O354  1  0.53973512  0.19022646  0.05849234  1.0
  O  O355  1  0.05849304  0.53973527  0.19022634  1.0
  O  O356  1  0.19022783  0.05849365  0.53973434  1.0
  O  O357  1  0.30976959  0.96026732  0.44150588  1.0
  O  O358  1  0.96026727  0.44150665  0.30977015  1.0
  O  O359  1  0.44150556  0.30976999  0.96026770  1.0
  O  O360  1  0.35785505  0.05834868  0.83187123  1.0
  O  O361  1  0.83187071  0.35785495  0.05834893  1.0
  O  O362  1  0.05834977  0.83187000  0.35785526  1.0
  O  O363  1  0.44165183  0.14214370  0.66812642  1.0
  O  O364  1  0.14214340  0.66812655  0.44165225  1.0
  O  O365  1  0.66812674  0.44165161  0.14214345  1.0
  O  O366  1  0.64214468  0.94165215  0.16812864  1.0
  O  O367  1  0.16813028  0.64214259  0.94165105  1.0
  O  O368  1  0.94165052  0.16813083  0.64214294  1.0
  O  O369  1  0.55834793  0.85785658  0.33187348  1.0
  O  O370  1  0.85785638  0.33187318  0.55834768  1.0
  O  O371  1  0.33187305  0.55834813  0.85785647  1.0
  O  O372  1  0.32262650  0.98426079  0.74386914  1.0
  O  O373  1  0.74386829  0.32262572  0.98426087  1.0
  O  O374  1  0.98426119  0.74386886  0.32262607  1.0
  O  O375  1  0.51573903  0.17737278  0.75612909  1.0
  O  O376  1  0.17737304  0.75612922  0.51573974  1.0
  O  O377  1  0.75612909  0.51573894  0.17737271  1.0
  O  O378  1  0.67737436  0.01573950  0.25613071  1.0
  O  O379  1  0.25613090  0.67737512  0.01573958  1.0
  O  O380  1  0.01573966  0.25613142  0.67737378  1.0
  O  O381  1  0.48426075  0.82262695  0.24387084  1.0
  O  O382  1  0.82262675  0.24387052  0.48426128  1.0
  O  O383  1  0.24387070  0.48426080  0.82262721  1.0
  F  F384  1  0.38629847  0.84208066  0.77195149  1.0
  F  F385  1  0.77195125  0.38629944  0.84208081  1.0
  F  F386  1  0.84208224  0.77195089  0.38630110  1.0
  F  F387  1  0.65791974  0.11369907  0.72804802  1.0
  F  F388  1  0.11369861  0.72804774  0.65791974  1.0
  F  F389  1  0.72804845  0.65791906  0.11369910  1.0
  F  F390  1  0.61370186  0.15791907  0.22804787  1.0
  F  F391  1  0.22804846  0.61370194  0.15791904  1.0
  F  F392  1  0.15791810  0.22804885  0.61369880  1.0
  F  F393  1  0.34208059  0.88630066  0.27195188  1.0
  F  F394  1  0.88630225  0.27195255  0.34208120  1.0
  F  F395  1  0.27195186  0.34208122  0.88630023  1.0
  F  F396  1  0.46937557  0.90307960  0.82505792  1.0
  F  F397  1  0.82505763  0.46937544  0.90308035  1.0
  F  F398  1  0.90308206  0.82505889  0.46937634  1.0
  F  F399  1  0.59691766  0.03062471  0.67494162  1.0
  F  F400  1  0.03062483  0.67494084  0.59691791  1.0
  F  F401  1  0.67494154  0.59691793  0.03062442  1.0
  F  F402  1  0.53062534  0.09691959  0.17494143  1.0
  F  F403  1  0.17494208  0.53062594  0.09692005  1.0
  F  F404  1  0.09691826  0.17494140  0.53062408  1.0
  F  F405  1  0.40308213  0.96937502  0.32505886  1.0
  F  F406  1  0.96937545  0.32506000  0.40308304  1.0
  F  F407  1  0.32505875  0.40308290  0.96937543  1.0
  F  F408  1  0.27691488  0.89974356  0.86707316  1.0
  F  F409  1  0.86707181  0.27691577  0.89974377  1.0
  F  F410  1  0.89974413  0.86707200  0.27691531  1.0
  F  F411  1  0.60025469  0.22308494  0.63292843  1.0
  F  F412  1  0.22308478  0.63292828  0.60025563  1.0
  F  F413  1  0.63292782  0.60025452  0.22308497  1.0
  F  F414  1  0.72308602  0.10025563  0.13292510  1.0
  F  F415  1  0.13292571  0.72308561  0.10025564  1.0
  F  F416  1  0.10025615  0.13292883  0.72308399  1.0
  F  F417  1  0.39974455  0.77691480  0.36707207  1.0
  F  F418  1  0.77691496  0.36707255  0.39974425  1.0
  F  F419  1  0.36707251  0.39974522  0.77691493  1.0
  F  F420  1  0.36085825  0.94847749  0.93055226  1.0
  F  F421  1  0.93055162  0.36085822  0.94847746  1.0
  F  F422  1  0.94847795  0.93055230  0.36085795  1.0
  F  F423  1  0.55152539  0.13914085  0.56944642  1.0
  F  F424  1  0.13914129  0.56944689  0.55152534  1.0
  F  F425  1  0.56944628  0.55152498  0.13914053  1.0
  F  F426  1  0.63914099  0.05152225  0.06944769  1.0
  F  F427  1  0.06944877  0.63914042  0.05152139  1.0
  F  F428  1  0.05152181  0.06944799  0.63914140  1.0
  F  F429  1  0.44847440  0.86085889  0.43055406  1.0
  F  F430  1  0.86085902  0.43055340  0.44847453  1.0
  F  F431  1  0.43055405  0.44847476  0.86085937  1.0
