# generated using pymatgen
data_ZnH10C17N4F
_symmetry_space_group_name_H-M   'P 1'
_cell_length_a   19.29362454
_cell_length_b   19.95169244
_cell_length_c   20.34628196
_cell_angle_alpha   112.13454663
_cell_angle_beta   103.85226510
_cell_angle_gamma   110.65356191
_symmetry_Int_Tables_number   1
_chemical_formula_structural   ZnH10C17N4F
_chemical_formula_sum   'Zn4 H40 C68 N16 F4'
_cell_volume   6130.43249830
_cell_formula_units_Z   4
loop_
 _symmetry_equiv_pos_site_id
 _symmetry_equiv_pos_as_xyz
  1  'x, y, z'
loop_
 _atom_site_type_symbol
 _atom_site_label
 _atom_site_symmetry_multiplicity
 _atom_site_fract_x
 _atom_site_fract_y
 _atom_site_fract_z
 _atom_site_occupancy
  Zn  Zn0  1  0.62012864  0.59740591  0.49723343  1.0
  Zn  Zn1  1  0.37649279  0.38628961  0.47509469  1.0
  Zn  Zn2  1  0.50148379  0.58417558  0.60224370  1.0
  Zn  Zn3  1  0.49298012  0.38944896  0.36970030  1.0
  H  H4  1  0.20826689  0.38857493  0.42788176  1.0
  H  H5  1  0.51684563  0.99992755  0.37064111  1.0
  H  H6  1  0.46078325  0.65184917  0.10907038  1.0
  H  H7  1  0.46763110  0.64372943  0.98596631  1.0
  H  H8  1  0.98034875  0.03594062  0.83071149  1.0
  H  H9  1  0.10388459  0.14755831  0.95522780  1.0
  H  H10  1  0.95051775  0.15597048  0.07797963  1.0
  H  H11  1  0.55933826  0.58699380  0.75649439  1.0
  H  H12  1  0.65567026  0.35427745  0.34748982  1.0
  H  H13  1  0.77397237  0.58237342  0.57200895  1.0
  H  H14  1  0.55880502  0.27125789  0.40091178  1.0
  H  H15  1  0.37572460  0.61460688  0.49128045  1.0
  H  H16  1  0.58582913  0.64260723  0.34547064  1.0
  H  H17  1  0.39762743  0.73078794  0.27418184  1.0
  H  H18  1  0.41163954  0.79150008  0.22816384  1.0
  H  H19  1  0.47269232  0.74325170  0.23703617  1.0
  H  H20  1  0.55395856  0.89606982  0.33764709  1.0
  H  H21  1  0.54072435  0.83469615  0.38254713  1.0
  H  H22  1  0.20874880  0.36252092  0.99136822  1.0
  H  H23  1  0.20192213  0.30809799  0.89577711  1.0
  H  H24  1  0.19850877  0.26177046  0.95518623  1.0
  H  H25  1  0.33688381  0.31489848  0.95610863  1.0
  H  H26  1  0.33492612  0.25315791  0.18940393  1.0
  H  H27  1  0.34443328  0.37126818  0.05126303  1.0
  H  H28  1  0.80778327  0.16191816  0.99199334  1.0
  H  H29  1  0.76237147  0.09657403  0.88836719  1.0
  H  H30  1  0.70673197  0.07577050  0.94299203  1.0
  H  H31  1  0.76048909  0.97688125  0.90492581  1.0
  H  H32  1  0.80601774  0.04173932  0.00825207  1.0
  H  H33  1  0.67372990  0.73788302  0.85851863  1.0
  H  H34  1  0.73496495  0.84172628  0.88322114  1.0
  H  H35  1  0.64454184  0.81384912  0.89878503  1.0
  H  H36  1  0.61893315  0.82666243  0.77875124  1.0
  H  H37  1  0.19936512  0.30073556  0.32571240  1.0
  H  H38  1  0.55786378  0.72249184  0.75254355  1.0
  H  H39  1  0.37053261  0.40367622  0.24448316  1.0
  H  H40  1  0.34807542  0.61948375  0.65138030  1.0
  H  H41  1  0.36799432  0.01101959  0.49803679  1.0
  H  H42  1  0.35113319  0.87821250  0.48981669  1.0
  H  H43  1  0.40971080  0.27087269  0.53004685  1.0
  C  C44  1  0.73656373  0.73275421  0.66026351  1.0
  C  C45  1  0.54964867  0.71373913  0.48924419  1.0
  C  C46  1  0.42944291  0.46021972  0.27986210  1.0
  C  C47  1  0.44474169  0.28206136  0.49712721  1.0
  C  C48  1  0.32672109  0.56340707  0.59665074  1.0
  C  C49  1  0.46249708  0.52606587  0.26632968  1.0
  C  C50  1  0.24530209  0.50154141  0.54072069  1.0
  C  C51  1  0.46977978  0.70205275  0.47279305  1.0
  C  C52  1  0.23639226  0.26294945  0.22708038  1.0
  C  C53  1  0.81885135  0.46039017  0.48628114  1.0
  C  C54  1  0.88531622  0.46196759  0.50199107  1.0
  C  C55  1  0.48292395  0.23865086  0.46427664  1.0
  C  C56  1  0.95913022  0.46722689  0.51667434  1.0
  C  C57  1  0.02816511  0.47517062  0.52786751  1.0
  C  C58  1  0.10270913  0.48495618  0.53623099  1.0
  C  C59  1  0.50291799  0.52929402  0.71293385  1.0
  C  C60  1  0.17083293  0.49498058  0.54111298  1.0
  C  C61  1  0.38694551  0.90512950  0.46339226  1.0
  C  C62  1  0.42580648  0.86490174  0.42718701  1.0
  C  C63  1  0.47084809  0.89781246  0.39039130  1.0
  C  C64  1  0.48030835  0.97267512  0.39647376  1.0
  C  C65  1  0.44596456  0.01592944  0.43704992  1.0
  C  C66  1  0.43949088  0.47994721  0.72456837  1.0
  C  C67  1  0.39658212  0.97930689  0.46832166  1.0
  C  C68  1  0.42769003  0.79778902  0.43455963  1.0
  C  C69  1  0.46180852  0.09495397  0.44767067  1.0
  C  C70  1  0.47571600  0.16380444  0.45840526  1.0
  C  C71  1  0.67225276  0.41159743  0.39864447  1.0
  C  C72  1  0.43979399  0.74772708  0.44903562  1.0
  C  C73  1  0.43853647  0.58724861  0.98800024  1.0
  C  C74  1  0.40718362  0.50964546  0.92021451  1.0
  C  C75  1  0.36734914  0.43831675  0.92464596  1.0
  C  C76  1  0.36236926  0.43954146  0.99209324  1.0
  C  C77  1  0.74646017  0.46473619  0.46827910  1.0
  C  C78  1  0.39980737  0.51890306  0.06066283  1.0
  C  C79  1  0.43457503  0.59165792  0.05647743  1.0
  C  C80  1  0.41785676  0.50206187  0.85200815  1.0
  C  C81  1  0.41075993  0.52544462  0.13461039  1.0
  C  C82  1  0.43125525  0.52822140  0.19767400  1.0
  C  C83  1  0.38473539  0.41394881  0.64690935  1.0
  C  C84  1  0.42980434  0.49236270  0.79362958  1.0
  C  C85  1  0.04329599  0.12508775  0.95460307  1.0
  C  C86  1  0.03604695  0.15523519  0.02614642  1.0
  C  C87  1  0.95672663  0.12980961  0.02338510  1.0
  C  C88  1  0.54011429  0.58233436  0.33142708  1.0
  C  C89  1  0.88653808  0.06805454  0.95396587  1.0
  C  C90  1  0.89635202  0.02953355  0.88483546  1.0
  C  C91  1  0.97445845  0.06312062  0.88522261  1.0
  C  C92  1  0.10681579  0.20167843  0.09829936  1.0
  C  C93  1  0.83295196  0.95140420  0.82001135  1.0
  C  C94  1  0.78657852  0.87749021  0.77198604  1.0
  C  C95  1  0.73301612  0.52796596  0.51402346  1.0
  C  C96  1  0.16707424  0.23050693  0.15836622  1.0
  C  C97  1  0.52116414  0.28234197  0.43109583  1.0
  C  C98  1  0.65736362  0.74378258  0.72055439  1.0
  C  C99  1  0.25549271  0.44542833  0.48175743  1.0
  C  C100  1  0.73217855  0.79227678  0.72131764  1.0
  C  C101  1  0.50805638  0.85300915  0.34646452  1.0
  C  C102  1  0.44368698  0.77515651  0.26677006  1.0
  C  C103  1  0.32075461  0.35926595  0.99090668  1.0
  C  C104  1  0.22697832  0.32077781  0.95625333  1.0
  C  C105  1  0.80272918  0.04127767  0.95331368  1.0
  C  C106  1  0.76791793  0.09715120  0.94362833  1.0
  C  C107  1  0.62168652  0.77151738  0.77602587  1.0
  C  C108  1  0.67154904  0.79238249  0.85908127  1.0
  C  C109  1  0.43626781  0.64186117  0.49323590  1.0
  C  C110  1  0.31416480  0.27124040  0.23503030  1.0
  C  C111  1  0.24537456  0.29660326  0.30506105  1.0
  N  N112  1  0.67230156  0.65663969  0.62434435  1.0
  N  N113  1  0.48584463  0.49507662  0.63552503  1.0
  N  N114  1  0.62027002  0.44162654  0.40214527  1.0
  N  N115  1  0.41141261  0.42262585  0.59478508  1.0
  N  N116  1  0.65798167  0.51354122  0.47387685  1.0
  N  N117  1  0.50447481  0.34479321  0.44180701  1.0
  N  N118  1  0.62263467  0.66415003  0.66293748  1.0
  N  N119  1  0.55256341  0.55081550  0.37793658  1.0
  N  N120  1  0.33590332  0.47163654  0.50126202  1.0
  N  N121  1  0.49255635  0.62164249  0.51984214  1.0
  N  N122  1  0.36502594  0.30784433  0.31111369  1.0
  N  N123  1  0.32200438  0.32353470  0.35475789  1.0
  N  N124  1  0.56371187  0.66751284  0.51755450  1.0
  N  N125  1  0.48418303  0.47566562  0.34667037  1.0
  N  N126  1  0.37935857  0.54439162  0.57233665  1.0
  N  N127  1  0.45756827  0.34450849  0.48206459  1.0
  F  F128  1  0.79549536  0.74519491  0.63439164  1.0
  F  F129  1  0.60861865  0.76410660  0.47929990  1.0
  F  F130  1  0.33449623  0.36278443  0.85896030  1.0
  F  F131  1  0.31371896  0.34729488  0.62339620  1.0
