# generated using pymatgen
data_CoH12C16(NO2)2
_symmetry_space_group_name_H-M   'P 1'
_cell_length_a   12.17396413
_cell_length_b   12.28046853
_cell_length_c   13.70903960
_cell_angle_alpha   90.00025694
_cell_angle_beta   90.00011208
_cell_angle_gamma   89.99999480
_symmetry_Int_Tables_number   1
_chemical_formula_structural   CoH12C16(NO2)2
_chemical_formula_sum   'Co4 H48 C64 N8 O16'
_cell_volume   2049.52861046
_cell_formula_units_Z   4
loop_
 _symmetry_equiv_pos_site_id
 _symmetry_equiv_pos_as_xyz
  1  'x, y, z'
loop_
 _atom_site_type_symbol
 _atom_site_label
 _atom_site_symmetry_multiplicity
 _atom_site_fract_x
 _atom_site_fract_y
 _atom_site_fract_z
 _atom_site_occupancy
  Co  Co0  1  0.80922345  0.25000063  0.50000032  1.0
  Co  Co1  1  0.69077504  0.24999857  0.00000021  1.0
  Co  Co2  1  0.19077821  0.75000031  0.50000153  1.0
  Co  Co3  1  0.30922305  0.75000069  0.00000088  1.0
  H  H4  1  0.53434494  0.51957811  0.42043853  1.0
  H  H5  1  0.53434838  0.98042411  0.57956220  1.0
  H  H6  1  0.96564706  0.98042087  0.92043401  1.0
  H  H7  1  0.96565107  0.51957886  0.07956163  1.0
  H  H8  1  0.46565344  0.48042446  0.57956405  1.0
  H  H9  1  0.46565164  0.01957601  0.42043381  1.0
  H  H10  1  0.03434804  0.01957600  0.07956711  1.0
  H  H11  1  0.03434977  0.48042371  0.92043438  1.0
  H  H12  1  0.66512877  0.42585486  0.24598787  1.0
  H  H13  1  0.66512935  0.07414397  0.75401545  1.0
  H  H14  1  0.83486862  0.07414394  0.74598002  1.0
  H  H15  1  0.83487382  0.42585487  0.25401265  1.0
  H  H16  1  0.33486796  0.57414364  0.75401544  1.0
  H  H17  1  0.33486739  0.92585453  0.24598348  1.0
  H  H18  1  0.16513140  0.92585293  0.25401745  1.0
  H  H19  1  0.16513031  0.57414852  0.74598191  1.0
  H  H20  1  0.63943524  0.51329250  0.09192179  1.0
  H  H21  1  0.63943202  0.98670726  0.90807912  1.0
  H  H22  1  0.86056424  0.98670564  0.59192296  1.0
  H  H23  1  0.86056734  0.51329084  0.40808053  1.0
  H  H24  1  0.36056231  0.48670843  0.90807714  1.0
  H  H25  1  0.36056472  0.01328961  0.09192346  1.0
  H  H26  1  0.13943249  0.01329041  0.40807671  1.0
  H  H27  1  0.13943350  0.48671091  0.59192351  1.0
  H  H28  1  0.52396192  0.62744021  0.98111477  1.0
  H  H29  1  0.52396003  0.87256201  0.01888375  1.0
  H  H30  1  0.97603925  0.87255744  0.48111565  1.0
  H  H31  1  0.97603848  0.62744066  0.51888512  1.0
  H  H32  1  0.47603482  0.37256154  0.01888343  1.0
  H  H33  1  0.47603589  0.12743486  0.98111518  1.0
  H  H34  1  0.02396160  0.12743699  0.51888620  1.0
  H  H35  1  0.02396401  0.37256353  0.48111454  1.0
  H  H36  1  0.31482787  0.71230557  0.20646167  1.0
  H  H37  1  0.31482769  0.78769178  0.79353868  1.0
  H  H38  1  0.18517549  0.78769890  0.70645880  1.0
  H  H39  1  0.18517094  0.71230580  0.29354059  1.0
  H  H40  1  0.68517298  0.28769374  0.79354091  1.0
  H  H41  1  0.68517069  0.21230427  0.20646025  1.0
  H  H42  1  0.81482781  0.21230611  0.29354013  1.0
  H  H43  1  0.81483073  0.28769514  0.70646053  1.0
  H  H44  1  0.41991949  0.60389632  0.32754588  1.0
  H  H45  1  0.41991986  0.89610020  0.67245392  1.0
  H  H46  1  0.08007921  0.89610061  0.82754910  1.0
  H  H47  1  0.08008014  0.60389677  0.17245594  1.0
  H  H48  1  0.58007889  0.39610380  0.67245743  1.0
  H  H49  1  0.58007770  0.10389992  0.32754501  1.0
  H  H50  1  0.91991999  0.10389789  0.17245420  1.0
  H  H51  1  0.91992152  0.39610498  0.82754518  1.0
  C  C52  1  0.66328489  0.39872202  0.44245307  1.0
  C  C53  1  0.66328503  0.10128170  0.55754806  1.0
  C  C54  1  0.83671294  0.10127776  0.94245263  1.0
  C  C55  1  0.83671442  0.39872349  0.05754369  1.0
  C  C56  1  0.33671431  0.60128381  0.55755170  1.0
  C  C57  1  0.33671253  0.89871843  0.44244723  1.0
  C  C58  1  0.16328872  0.89871992  0.05755286  1.0
  C  C59  1  0.16328807  0.60128233  0.94244722  1.0
  C  C60  1  0.59471061  0.47078589  0.38083104  1.0
  C  C61  1  0.59471007  0.02921538  0.61917215  1.0
  C  C62  1  0.90528544  0.02921439  0.88082241  1.0
  C  C63  1  0.90528787  0.47079011  0.11916965  1.0
  C  C64  1  0.40529188  0.52921830  0.61917519  1.0
  C  C65  1  0.40528667  0.97078148  0.38082459  1.0
  C  C66  1  0.09471376  0.97078329  0.11917361  1.0
  C  C67  1  0.09471297  0.52921734  0.88082490  1.0
  C  C68  1  0.60435075  0.47666002  0.28291319  1.0
  C  C69  1  0.60435206  0.02333800  0.71709002  1.0
  C  C70  1  0.89564591  0.02333734  0.78290816  1.0
  C  C71  1  0.89564938  0.47666309  0.21708826  1.0
  C  C72  1  0.39564763  0.52333929  0.71709085  1.0
  C  C73  1  0.39564550  0.97666131  0.28290818  1.0
  C  C74  1  0.10435329  0.97665872  0.21709077  1.0
  C  C75  1  0.10435311  0.52334192  0.78290848  1.0
  C  C76  1  0.53921495  0.54659449  0.21940992  1.0
  C  C77  1  0.53921391  0.95340203  0.78059009  1.0
  C  C78  1  0.96078893  0.95340348  0.71940820  1.0
  C  C79  1  0.96078846  0.54659462  0.28059254  1.0
  C  C80  1  0.46078836  0.45340319  0.78059193  1.0
  C  C81  1  0.46078858  0.04659647  0.21940957  1.0
  C  C82  1  0.03921356  0.04659420  0.28059219  1.0
  C  C83  1  0.03921156  0.45340632  0.71940858  1.0
  C  C84  1  0.56792364  0.55634957  0.12028194  1.0
  C  C85  1  0.56792118  0.94364939  0.87971739  1.0
  C  C86  1  0.93207672  0.94364221  0.62027867  1.0
  C  C87  1  0.93207894  0.55635020  0.37971983  1.0
  C  C88  1  0.43207391  0.44364648  0.87972064  1.0
  C  C89  1  0.43207391  0.05635155  0.12028008  1.0
  C  C90  1  0.06792248  0.05634977  0.37971953  1.0
  C  C91  1  0.06792355  0.44365074  0.62028056  1.0
  C  C92  1  0.50401341  0.61930141  0.05833092  1.0
  C  C93  1  0.50401191  0.88069918  0.94166903  1.0
  C  C94  1  0.99599339  0.88069901  0.55832970  1.0
  C  C95  1  0.99598752  0.61930153  0.44166965  1.0
  C  C96  1  0.49598661  0.38069790  0.94167020  1.0
  C  C97  1  0.49598647  0.11930095  0.05832990  1.0
  C  C98  1  0.00400992  0.11930274  0.44166924  1.0
  C  C99  1  0.00401250  0.38069941  0.55833001  1.0
  C  C100  1  0.38694158  0.66586103  0.18502541  1.0
  C  C101  1  0.38694062  0.83413713  0.81497433  1.0
  C  C102  1  0.11305763  0.83413437  0.68502626  1.0
  C  C103  1  0.11305969  0.66586219  0.31497812  1.0
  C  C104  1  0.61305926  0.33413665  0.81497571  1.0
  C  C105  1  0.61305693  0.16586218  0.18502460  1.0
  C  C106  1  0.88694157  0.16586249  0.31497486  1.0
  C  C107  1  0.88694361  0.33413875  0.68502446  1.0
  C  C108  1  0.44688433  0.60572098  0.25165583  1.0
  C  C109  1  0.44688569  0.89427473  0.74834329  1.0
  C  C110  1  0.05311584  0.89427720  0.75165755  1.0
  C  C111  1  0.05312105  0.60572181  0.24834672  1.0
  C  C112  1  0.55311405  0.39427507  0.74834529  1.0
  C  C113  1  0.55311187  0.10572540  0.25165710  1.0
  C  C114  1  0.94688500  0.10572211  0.24834430  1.0
  C  C115  1  0.94688636  0.39427994  0.75165658  1.0
  N  N116  1  0.41285579  0.67161139  0.08909313  1.0
  N  N117  1  0.41285587  0.82838840  0.91090666  1.0
  N  N118  1  0.08714731  0.82839250  0.58909463  1.0
  N  N119  1  0.08714630  0.67160814  0.41091043  1.0
  N  N120  1  0.58714423  0.32839037  0.91090799  1.0
  N  N121  1  0.58714251  0.17160847  0.08909154  1.0
  N  N122  1  0.91285517  0.17161088  0.41090941  1.0
  N  N123  1  0.91285701  0.32839199  0.58909142  1.0
  O  O124  1  0.74127752  0.34261493  0.40046321  1.0
  O  O125  1  0.74127692  0.15739122  0.59953951  1.0
  O  O126  1  0.75872022  0.15738708  0.90046287  1.0
  O  O127  1  0.75872097  0.34261662  0.09953332  1.0
  O  O128  1  0.25872414  0.65739008  0.59954229  1.0
  O  O129  1  0.25872063  0.84260890  0.40045723  1.0
  O  O130  1  0.24127980  0.84261060  0.09954409  1.0
  O  O131  1  0.24127905  0.65739165  0.90045540  1.0
  O  O132  1  0.64644906  0.39313613  0.53271173  1.0
  O  O133  1  0.64644982  0.10686595  0.46729082  1.0
  O  O134  1  0.85355772  0.10685916  0.03270549  1.0
  O  O135  1  0.85354806  0.39313721  0.96728430  1.0
  O  O136  1  0.35355260  0.60686155  0.46729522  1.0
  O  O137  1  0.35355184  0.89313825  0.53270519  1.0
  O  O138  1  0.14644969  0.89313690  0.96729636  1.0
  O  O139  1  0.14644785  0.60686373  0.03270369  1.0
