# generated using pymatgen
data_Zn2BH19C23(N5O2)2
_symmetry_space_group_name_H-M   'P 1'
_cell_length_a   12.98272288
_cell_length_b   12.98270399
_cell_length_c   53.72468757
_cell_angle_alpha   89.99996426
_cell_angle_beta   90.00002022
_cell_angle_gamma   89.99961188
_symmetry_Int_Tables_number   1
_chemical_formula_structural   Zn2BH19C23(N5O2)2
_chemical_formula_sum   'Zn16 B8 H152 C184 N80 O32'
_cell_volume   9055.34165551
_cell_formula_units_Z   8
loop_
 _symmetry_equiv_pos_site_id
 _symmetry_equiv_pos_as_xyz
  1  'x, y, z'
loop_
 _atom_site_type_symbol
 _atom_site_label
 _atom_site_symmetry_multiplicity
 _atom_site_fract_x
 _atom_site_fract_y
 _atom_site_fract_z
 _atom_site_occupancy
  Zn  Zn0  1  0.87349712  0.85076378  0.11413278  1.0
  Zn  Zn1  1  0.93034727  0.67070608  0.31343372  1.0
  Zn  Zn2  1  0.12650248  0.14923770  0.61413254  1.0
  Zn  Zn3  1  0.06965262  0.32929334  0.81343364  1.0
  Zn  Zn4  1  0.35073752  0.62647849  0.86414439  1.0
  Zn  Zn5  1  0.17074484  0.56963450  0.06345235  1.0
  Zn  Zn6  1  0.64926322  0.37352080  0.36414468  1.0
  Zn  Zn7  1  0.82925238  0.43036634  0.56345231  1.0
  Zn  Zn8  1  0.37352140  0.64926287  0.63585549  1.0
  Zn  Zn9  1  0.43036851  0.82925394  0.43654785  1.0
  Zn  Zn10  1  0.62647900  0.35073625  0.13585522  1.0
  Zn  Zn11  1  0.56963233  0.17074594  0.93654746  1.0
  Zn  Zn12  1  0.85076201  0.87349696  0.88586718  1.0
  Zn  Zn13  1  0.67070622  0.93034577  0.68656662  1.0
  Zn  Zn14  1  0.14923645  0.12650228  0.38586765  1.0
  Zn  Zn15  1  0.32929272  0.06965399  0.18656674  1.0
  B  B16  1  0.46616768  0.74568688  0.12750483  1.0
  B  B17  1  0.53383271  0.25431302  0.62750480  1.0
  B  B18  1  0.24567606  0.03383727  0.87748281  1.0
  B  B19  1  0.75432392  0.96616123  0.37748227  1.0
  B  B20  1  0.96616251  0.75432297  0.62251732  1.0
  B  B21  1  0.03383787  0.24567695  0.12251739  1.0
  B  B22  1  0.74568680  0.46616693  0.87249515  1.0
  B  B23  1  0.25431394  0.53383234  0.37249519  1.0
  H  H24  1  0.46849623  0.95466566  0.14671331  1.0
  H  H25  1  0.29030572  0.68574461  0.15791618  1.0
  H  H26  1  0.21710639  0.84386211  0.18830480  1.0
  H  H27  1  0.68826215  0.72524970  0.13412527  1.0
  H  H28  1  0.68431084  0.00704345  0.09496995  1.0
  H  H29  1  0.48401611  0.93892780  0.10020359  1.0
  H  H30  1  0.51679026  0.53877683  0.11034291  1.0
  H  H31  1  0.52553985  0.70244139  0.17858657  1.0
  H  H32  1  0.60938425  0.50757568  0.18507485  1.0
  H  H33  1  0.04776411  0.68568156  0.11092697  1.0
  H  H34  1  0.98384977  0.65297113  0.03445490  1.0
  H  H35  1  0.83822581  0.78334351  0.05605241  1.0
  H  H36  1  0.25290675  0.68725988  0.11452569  1.0
  H  H37  1  0.39979062  0.61453502  0.04686891  1.0
  H  H38  1  0.54112815  0.71049988  0.07835649  1.0
  H  H39  1  0.81473523  0.62484715  0.19199793  1.0
  H  H40  1  0.84590826  0.61575797  0.23817409  1.0
  H  H41  1  0.06094264  0.86700106  0.23224027  1.0
  H  H42  1  0.02820060  0.87638833  0.18670236  1.0
  H  H43  1  0.53150418  0.04533420  0.64671331  1.0
  H  H44  1  0.70969240  0.31425599  0.65791671  1.0
  H  H45  1  0.78289332  0.15613764  0.68830480  1.0
  H  H46  1  0.31173902  0.27475096  0.63412540  1.0
  H  H47  1  0.31568796  0.99295731  0.59497035  1.0
  H  H48  1  0.51598193  0.06107217  0.60020396  1.0
  H  H49  1  0.48321010  0.46122389  0.61034284  1.0
  H  H50  1  0.47446062  0.29755762  0.67858634  1.0
  H  H51  1  0.39061777  0.49242331  0.68507533  1.0
  H  H52  1  0.95223240  0.31431531  0.61092659  1.0
  H  H53  1  0.01614432  0.34702902  0.53445463  1.0
  H  H54  1  0.16177139  0.21665889  0.55605161  1.0
  H  H55  1  0.74709285  0.31274160  0.61452567  1.0
  H  H56  1  0.60020734  0.38546663  0.54686906  1.0
  H  H57  1  0.45887062  0.28950093  0.57835700  1.0
  H  H58  1  0.18525832  0.37515875  0.69199804  1.0
  H  H59  1  0.15408767  0.38424396  0.73817438  1.0
  H  H60  1  0.93905944  0.13299550  0.73223973  1.0
  H  H61  1  0.97180141  0.12361219  0.68670183  1.0
  H  H62  1  0.45468154  0.03152962  0.89667939  1.0
  H  H63  1  0.18574507  0.20970372  0.90788260  1.0
  H  H64  1  0.34385497  0.28291286  0.93827254  1.0
  H  H65  1  0.22525013  0.81176541  0.88413425  1.0
  H  H66  1  0.50700532  0.81561424  0.84496326  1.0
  H  H67  1  0.43886747  0.01591973  0.85015963  1.0
  H  H68  1  0.03874629  0.98318105  0.86033959  1.0
  H  H69  1  0.20248397  0.97454123  0.92857191  1.0
  H  H70  1  0.00764455  0.89067799  0.93507953  1.0
  H  H71  1  0.18560865  0.45226111  0.86091739  1.0
  H  H72  1  0.15307745  0.51619946  0.78444230  1.0
  H  H73  1  0.28340942  0.66180348  0.80605973  1.0
  H  H74  1  0.18729466  0.24711200  0.86450272  1.0
  H  H75  1  0.11452917  0.10023384  0.79684892  1.0
  H  H76  1  0.21043914  0.95886894  0.82833978  1.0
  H  H77  1  0.12485487  0.68530820  0.94201082  1.0
  H  H78  1  0.11578218  0.65413592  0.98818624  1.0
  H  H79  1  0.36700601  0.43907973  0.98225082  1.0
  H  H80  1  0.37637756  0.47180945  0.93671291  1.0
  H  H81  1  0.54531770  0.96846882  0.39667921  1.0
  H  H82  1  0.81425496  0.79029623  0.40788284  1.0
  H  H83  1  0.65614510  0.71709010  0.43827352  1.0
  H  H84  1  0.77474986  0.18823230  0.38413458  1.0
  H  H85  1  0.49299539  0.18438588  0.34496319  1.0
  H  H86  1  0.56113324  0.98408037  0.35015926  1.0
  H  H87  1  0.96125290  0.01681902  0.36033921  1.0
  H  H88  1  0.79751300  0.02545482  0.42857171  1.0
  H  H89  1  0.99235167  0.10931958  0.43507952  1.0
  H  H90  1  0.81439131  0.54773742  0.36091730  1.0
  H  H91  1  0.84692163  0.48379927  0.28444222  1.0
  H  H92  1  0.71659046  0.33819519  0.30605966  1.0
  H  H93  1  0.81270607  0.75288729  0.36450222  1.0
  H  H94  1  0.88546838  0.89976640  0.29684822  1.0
  H  H95  1  0.78955923  0.04113045  0.32833939  1.0
  H  H96  1  0.87514598  0.31469244  0.44201095  1.0
  H  H97  1  0.88421873  0.34586305  0.48818655  1.0
  H  H98  1  0.63299566  0.56092081  0.48225126  1.0
  H  H99  1  0.62362251  0.52819043  0.43671336  1.0
  H  H100  1  0.96847320  0.54531722  0.60332039  1.0
  H  H101  1  0.79029779  0.81425334  0.59211750  1.0
  H  H102  1  0.71709101  0.65614249  0.56172720  1.0
  H  H103  1  0.18823394  0.77474894  0.61586541  1.0
  H  H104  1  0.18438674  0.49299480  0.65503699  1.0
  H  H105  1  0.98408161  0.56113353  0.64984071  1.0
  H  H106  1  0.01681705  0.96125378  0.63966022  1.0
  H  H107  1  0.02545827  0.79751445  0.57142810  1.0
  H  H108  1  0.10932137  0.99235340  0.56492047  1.0
  H  H109  1  0.54773931  0.81438966  0.63908287  1.0
  H  H110  1  0.48379889  0.84692152  0.71555776  1.0
  H  H111  1  0.33819504  0.71659095  0.69394014  1.0
  H  H112  1  0.75288734  0.81270519  0.63549737  1.0
  H  H113  1  0.89976619  0.88546911  0.70315119  1.0
  H  H114  1  0.04113074  0.78955830  0.67166042  1.0
  H  H115  1  0.31469394  0.87514600  0.55798941  1.0
  H  H116  1  0.34586453  0.88421880  0.51181380  1.0
  H  H117  1  0.56092197  0.63299536  0.51774872  1.0
  H  H118  1  0.52819161  0.62362217  0.56328681  1.0
  H  H119  1  0.03152947  0.45468352  0.10332080  1.0
  H  H120  1  0.20970409  0.18574743  0.09211741  1.0
  H  H121  1  0.28291082  0.34385758  0.06172709  1.0
  H  H122  1  0.81176643  0.22525023  0.11586536  1.0
  H  H123  1  0.81561369  0.50700503  0.15503672  1.0
  H  H124  1  0.01591958  0.43886786  0.14984019  1.0
  H  H125  1  0.98318258  0.03874610  0.13966040  1.0
  H  H126  1  0.97454203  0.20248637  0.07142788  1.0
  H  H127  1  0.89067969  0.00764590  0.06492027  1.0
  H  H128  1  0.45226033  0.18561098  0.13908279  1.0
  H  H129  1  0.51619932  0.15307970  0.21555770  1.0
  H  H130  1  0.66180391  0.28341109  0.19394007  1.0
  H  H131  1  0.24711229  0.18729315  0.13549803  1.0
  H  H132  1  0.10023046  0.11452983  0.20315184  1.0
  H  H133  1  0.95886740  0.21043841  0.17166020  1.0
  H  H134  1  0.68530866  0.12485408  0.05798918  1.0
  H  H135  1  0.65413569  0.11578218  0.01181357  1.0
  H  H136  1  0.43907903  0.36700560  0.01774899  1.0
  H  H137  1  0.47181023  0.37637790  0.06328690  1.0
  H  H138  1  0.95466375  0.46849473  0.85328648  1.0
  H  H139  1  0.68574233  0.29030551  0.84208344  1.0
  H  H140  1  0.84385961  0.21710685  0.81169463  1.0
  H  H141  1  0.72525120  0.68825942  0.86587434  1.0
  H  H142  1  0.00704366  0.68430962  0.90503005  1.0
  H  H143  1  0.93892820  0.48401615  0.89979638  1.0
  H  H144  1  0.53877705  0.51679035  0.88965708  1.0
  H  H145  1  0.70244294  0.52553844  0.82141378  1.0
  H  H146  1  0.50757675  0.60938066  0.81492457  1.0
  H  H147  1  0.68568079  0.04776198  0.88907303  1.0
  H  H148  1  0.65297036  0.98385512  0.96554544  1.0
  H  H149  1  0.78334103  0.83822865  0.94394849  1.0
  H  H150  1  0.68725989  0.25290646  0.88547430  1.0
  H  H151  1  0.61453355  0.39979050  0.95313089  1.0
  H  H152  1  0.71049905  0.54112826  0.92164312  1.0
  H  H153  1  0.62484652  0.81473734  0.80800260  1.0
  H  H154  1  0.61575738  0.84590736  0.76182644  1.0
  H  H155  1  0.86700087  0.06094291  0.76775991  1.0
  H  H156  1  0.87638810  0.02820002  0.81329782  1.0
  H  H157  1  0.04533697  0.53150536  0.35328688  1.0
  H  H158  1  0.31425915  0.70969231  0.34208309  1.0
  H  H159  1  0.15614104  0.78289258  0.31169463  1.0
  H  H160  1  0.27475108  0.31173833  0.36587423  1.0
  H  H161  1  0.99295791  0.31568880  0.40502963  1.0
  H  H162  1  0.06107413  0.51598229  0.39979641  1.0
  H  H163  1  0.46122450  0.48320965  0.38965733  1.0
  H  H164  1  0.29755773  0.47445865  0.32141384  1.0
  H  H165  1  0.49242468  0.39061645  0.31492522  1.0
  H  H166  1  0.31431921  0.95223494  0.38907339  1.0
  H  H167  1  0.34702898  0.01614622  0.46554538  1.0
  H  H168  1  0.21665674  0.16177121  0.44394822  1.0
  H  H169  1  0.31274242  0.74709433  0.38547413  1.0
  H  H170  1  0.38546731  0.60020857  0.45313056  1.0
  H  H171  1  0.28950176  0.45887166  0.42164281  1.0
  H  H172  1  0.37515875  0.18525979  0.30800234  1.0
  H  H173  1  0.38424475  0.15408912  0.26182618  1.0
  H  H174  1  0.13299511  0.93906126  0.26776025  1.0
  H  H175  1  0.12361025  0.97180326  0.31329816  1.0
  C  C176  1  0.40828254  0.90395454  0.15344485  1.0
  C  C177  1  0.31384674  0.76556303  0.15946983  1.0
  C  C178  1  0.27862968  0.84307934  0.17463957  1.0
  C  C179  1  0.65902691  0.79161118  0.12406545  1.0
  C  C180  1  0.65574358  0.93644930  0.10334089  1.0
  C  C181  1  0.55570997  0.90496775  0.10646180  1.0
  C  C182  1  0.53070409  0.55682770  0.12977178  1.0
  C  C183  1  0.53631668  0.63983422  0.16550879  1.0
  C  C184  1  0.57808790  0.54350977  0.16849048  1.0
  C  C185  1  0.01108070  0.69416453  0.09287251  1.0
  C  C186  1  0.97477379  0.67892951  0.05351095  1.0
  C  C187  1  0.90361593  0.74380452  0.06425646  1.0
  C  C188  1  0.31168488  0.67968655  0.10031621  1.0
  C  C189  1  0.39075082  0.64528826  0.06551434  1.0
  C  C190  1  0.46067977  0.69139781  0.08105059  1.0
  C  C191  1  0.89570467  0.75818278  0.15934757  1.0
  C  C192  1  0.91992768  0.75067267  0.18656690  1.0
  C  C193  1  0.86906958  0.67663278  0.20109374  1.0
  C  C194  1  0.88614462  0.67174542  0.22661516  1.0
  C  C195  1  0.95468317  0.74065223  0.23809033  1.0
  C  C196  1  0.00694182  0.81366491  0.22357833  1.0
  C  C197  1  0.98931429  0.81862822  0.19802383  1.0
  C  C198  1  0.96880813  0.73846694  0.26583028  1.0
  C  C199  1  0.59171712  0.09604607  0.65344466  1.0
  C  C200  1  0.68615293  0.23443679  0.65947000  1.0
  C  C201  1  0.72137000  0.15691967  0.67463957  1.0
  C  C202  1  0.34097270  0.20838950  0.62406541  1.0
  C  C203  1  0.34425677  0.06354912  0.60334069  1.0
  C  C204  1  0.44429192  0.09503067  0.60646179  1.0
  C  C205  1  0.46929707  0.44317220  0.62977190  1.0
  C  C206  1  0.46368454  0.36016558  0.66550874  1.0
  C  C207  1  0.42191408  0.45648849  0.66849060  1.0
  C  C208  1  0.98891501  0.30583238  0.59287214  1.0
  C  C209  1  0.02521956  0.32107058  0.55351068  1.0
  C  C210  1  0.09637974  0.25619555  0.56425602  1.0
  C  C211  1  0.68831547  0.32031574  0.60031600  1.0
  C  C212  1  0.60924717  0.35471335  0.56551468  1.0
  C  C213  1  0.53931901  0.30860299  0.58105074  1.0
  C  C214  1  0.10429730  0.24182166  0.65934769  1.0
  C  C215  1  0.08007125  0.24933170  0.68656683  1.0
  C  C216  1  0.13092706  0.32337156  0.70109386  1.0
  C  C217  1  0.11385284  0.32825500  0.72661527  1.0
  C  C218  1  0.04531661  0.25934585  0.73809026  1.0
  C  C219  1  0.99305948  0.18633244  0.72357798  1.0
  C  C220  1  0.01068620  0.18137227  0.69802339  1.0
  C  C221  1  0.03119169  0.26153030  0.76583039  1.0
  C  C222  1  0.40396394  0.09173604  0.90341242  1.0
  C  C223  1  0.26557124  0.18617291  0.90943626  1.0
  C  C224  1  0.34308338  0.22139796  0.92460583  1.0
  C  C225  1  0.29159897  0.84097252  0.87406533  1.0
  C  C226  1  0.43641911  0.84420327  0.85333222  1.0
  C  C227  1  0.40491999  0.94425110  0.85643581  1.0
  C  C228  1  0.05682268  0.96929403  0.87976827  1.0
  C  C229  1  0.13987695  0.96373708  0.91550101  1.0
  C  C230  1  0.04354830  0.92194796  0.91849200  1.0
  C  C231  1  0.19413908  0.48894607  0.84286480  1.0
  C  C232  1  0.17899187  0.52526064  0.80350132  1.0
  C  C233  1  0.24385554  0.59641507  0.81425783  1.0
  C  C234  1  0.17969937  0.18833307  0.85029418  1.0
  C  C235  1  0.14527232  0.10926650  0.81549416  1.0
  C  C236  1  0.19135304  0.03932404  0.83103098  1.0
  C  C237  1  0.25818308  0.60429308  0.90935750  1.0
  C  C238  1  0.25066935  0.58009318  0.93657664  1.0
  C  C239  1  0.17664081  0.63095724  0.95110478  1.0
  C  C240  1  0.17175901  0.61388450  0.97662880  1.0
  C  C241  1  0.24065928  0.54534152  0.98810268  1.0
  C  C242  1  0.31366879  0.49307869  0.97358887  1.0
  C  C243  1  0.31862683  0.51070061  0.94803470  1.0
  C  C244  1  0.23849497  0.53121167  0.01584314  1.0
  C  C245  1  0.59603608  0.90826316  0.40341243  1.0
  C  C246  1  0.73442956  0.81382704  0.40943649  1.0
  C  C247  1  0.65691745  0.77860272  0.42460661  1.0
  C  C248  1  0.70840100  0.15902598  0.37406565  1.0
  C  C249  1  0.56358161  0.15579605  0.35333216  1.0
  C  C250  1  0.59507997  0.05574821  0.35643559  1.0
  C  C251  1  0.94317577  0.03070600  0.37976808  1.0
  C  C252  1  0.86012232  0.03626054  0.41550025  1.0
  C  C253  1  0.95644866  0.07805043  0.41849161  1.0
  C  C254  1  0.80586008  0.51105328  0.34286470  1.0
  C  C255  1  0.82100723  0.47473959  0.30350143  1.0
  C  C256  1  0.75614358  0.40358435  0.31425775  1.0
  C  C257  1  0.82029980  0.81166703  0.35029386  1.0
  C  C258  1  0.85472526  0.89073369  0.31549365  1.0
  C  C259  1  0.80864610  0.96067534  0.33103026  1.0
  C  C260  1  0.74181849  0.39570764  0.40935760  1.0
  C  C261  1  0.74933149  0.41990824  0.43657675  1.0
  C  C262  1  0.82336005  0.36904261  0.45110471  1.0
  C  C263  1  0.82824189  0.38611604  0.47662892  1.0
  C  C264  1  0.75934163  0.45465822  0.48810296  1.0
  C  C265  1  0.68633211  0.50692264  0.47358896  1.0
  C  C266  1  0.68137402  0.48930078  0.44803497  1.0
  C  C267  1  0.76150602  0.46878852  0.51584310  1.0
  C  C268  1  0.90826608  0.59603491  0.59658735  1.0
  C  C269  1  0.81382933  0.73442705  0.59056366  1.0
  C  C270  1  0.77860508  0.65691483  0.57539392  1.0
  C  C271  1  0.15902767  0.70840075  0.62593434  1.0
  C  C272  1  0.15579619  0.56358113  0.64666802  1.0
  C  C273  1  0.05575004  0.59508031  0.64356460  1.0
  C  C274  1  0.03070479  0.94317586  0.62023172  1.0
  C  C275  1  0.03626320  0.86012154  0.58449918  1.0
  C  C276  1  0.07805226  0.95644956  0.58150781  1.0
  C  C277  1  0.51105444  0.80585918  0.65713546  1.0
  C  C278  1  0.47473846  0.82100710  0.69649892  1.0
  C  C279  1  0.40358411  0.75614490  0.68574223  1.0
  C  C280  1  0.81166698  0.82029970  0.64970593  1.0
  C  C281  1  0.89073351  0.85472518  0.68450631  1.0
  C  C282  1  0.96067661  0.80864443  0.66896933  1.0
  C  C283  1  0.39570900  0.74181676  0.59064256  1.0
  C  C284  1  0.41990881  0.74933056  0.56342342  1.0
  C  C285  1  0.36904326  0.82335924  0.54889564  1.0
  C  C286  1  0.38611591  0.82824186  0.52337125  1.0
  C  C287  1  0.45465800  0.75934306  0.51189702  1.0
  C  C288  1  0.50692310  0.68633111  0.52641121  1.0
  C  C289  1  0.48930126  0.68137300  0.55196520  1.0
  C  C290  1  0.46878983  0.76150669  0.48415707  1.0
  C  C291  1  0.09173580  0.40396508  0.09658759  1.0
  C  C292  1  0.18617254  0.26557295  0.09056374  1.0
  C  C293  1  0.22139678  0.34308598  0.07539399  1.0
  C  C294  1  0.84097272  0.29159916  0.12593428  1.0
  C  C295  1  0.84420423  0.43641872  0.14666757  1.0
  C  C296  1  0.94425037  0.40492033  0.14356416  1.0
  C  C297  1  0.96929559  0.05682407  0.12023153  1.0
  C  C298  1  0.96373790  0.13987771  0.08449935  1.0
  C  C299  1  0.92194960  0.04354969  0.08150818  1.0
  C  C300  1  0.48894445  0.19414142  0.15713539  1.0
  C  C301  1  0.52525895  0.17899417  0.19649867  1.0
  C  C302  1  0.59641406  0.24385793  0.18574198  1.0
  C  C303  1  0.18833190  0.17969938  0.14970620  1.0
  C  C304  1  0.10926465  0.14527380  0.18450603  1.0
  C  C305  1  0.03932307  0.19135306  0.16896885  1.0
  C  C306  1  0.60429133  0.25818093  0.09064231  1.0
  C  C307  1  0.58009225  0.25066874  0.06342335  1.0
  C  C308  1  0.63095624  0.17664087  0.04889484  1.0
  C  C309  1  0.61388278  0.17175908  0.02337063  1.0
  C  C310  1  0.54534145  0.24065869  0.01189713  1.0
  C  C311  1  0.49307714  0.31366906  0.02641112  1.0
  C  C312  1  0.51069902  0.31862710  0.05196492  1.0
  C  C313  1  0.53120954  0.23849692  0.98415686  1.0
  C  C314  1  0.90395270  0.40828172  0.84655494  1.0
  C  C315  1  0.76556140  0.31384656  0.84052997  1.0
  C  C316  1  0.84307761  0.27862946  0.82536004  1.0
  C  C317  1  0.79161181  0.65902567  0.87593433  1.0
  C  C318  1  0.93645125  0.65574156  0.89665908  1.0
  C  C319  1  0.90496974  0.55570704  0.89353836  1.0
  C  C320  1  0.55682867  0.53070421  0.87022802  1.0
  C  C321  1  0.63983663  0.53631683  0.83449138  1.0
  C  C322  1  0.54351155  0.57808734  0.83150932  1.0
  C  C323  1  0.69416451  0.01108005  0.90712749  1.0
  C  C324  1  0.67892949  0.97477683  0.94648939  1.0
  C  C325  1  0.74380364  0.90361810  0.93574425  1.0
  C  C326  1  0.67968579  0.31168390  0.89968359  1.0
  C  C327  1  0.64528752  0.39075147  0.93448527  1.0
  C  C328  1  0.69139778  0.46067976  0.91894939  1.0
  C  C329  1  0.75818116  0.89570611  0.84065258  1.0
  C  C330  1  0.75067108  0.91992917  0.81343307  1.0
  C  C331  1  0.67663131  0.86907100  0.79890678  1.0
  C  C332  1  0.67174473  0.88614531  0.77338518  1.0
  C  C333  1  0.74065146  0.95468320  0.76191001  1.0
  C  C334  1  0.81366479  0.00694200  0.77642203  1.0
  C  C335  1  0.81862808  0.98931511  0.80197651  1.0
  C  C336  1  0.73846695  0.96880819  0.73416987  1.0
  C  C337  1  0.09604801  0.59171839  0.34655496  1.0
  C  C338  1  0.23443930  0.68615203  0.34052961  1.0
  C  C339  1  0.15692307  0.72136917  0.32535986  1.0
  C  C340  1  0.20838972  0.34097359  0.37593440  1.0
  C  C341  1  0.06354953  0.34425612  0.39665913  1.0
  C  C342  1  0.09503257  0.44429141  0.39353840  1.0
  C  C343  1  0.44317285  0.46929584  0.37022846  1.0
  C  C344  1  0.36016714  0.46368178  0.33449144  1.0
  C  C345  1  0.45648914  0.42191281  0.33150977  1.0
  C  C346  1  0.30583475  0.98891683  0.40712765  1.0
  C  C347  1  0.32107059  0.02522149  0.44648933  1.0
  C  C348  1  0.25619566  0.09638024  0.43574380  1.0
  C  C349  1  0.32031654  0.68831608  0.39968343  1.0
  C  C350  1  0.35471332  0.60924841  0.43448494  1.0
  C  C351  1  0.30860457  0.53932171  0.41894926  1.0
  C  C352  1  0.24182108  0.10429864  0.34065251  1.0
  C  C353  1  0.24932958  0.08007257  0.31343318  1.0
  C  C354  1  0.32337087  0.13092769  0.29890634  1.0
  C  C355  1  0.32825587  0.11385345  0.27338492  1.0
  C  C356  1  0.25934682  0.04531713  0.26191013  1.0
  C  C357  1  0.18633274  0.99306060  0.27642200  1.0
  C  C358  1  0.18137180  0.01068742  0.30197662  1.0
  C  C359  1  0.26153129  0.03119144  0.23416999  1.0
  N  N360  1  0.39607280  0.80488586  0.14585468  1.0
  N  N361  1  0.33875314  0.92929539  0.17063043  1.0
  N  N362  1  0.55835612  0.81330886  0.11985490  1.0
  N  N363  1  0.71957867  0.86410744  0.11431165  1.0
  N  N364  1  0.50591392  0.64767633  0.14081939  1.0
  N  N365  1  0.57418210  0.49245881  0.14594629  1.0
  N  N366  1  0.04282149  0.64780200  0.07181497  1.0
  N  N367  1  0.92720573  0.75298431  0.08922301  1.0
  N  N368  1  0.41005628  0.71312301  0.10323759  1.0
  N  N369  1  0.29742297  0.63865588  0.07780478  1.0
  N  N370  1  0.60392685  0.19511400  0.64585503  1.0
  N  N371  1  0.66124808  0.07070518  0.67063043  1.0
  N  N372  1  0.44164272  0.18669107  0.61985506  1.0
  N  N373  1  0.28042247  0.13589558  0.61431180  1.0
  N  N374  1  0.49408649  0.35232200  0.64081953  1.0
  N  N375  1  0.42581908  0.50754259  0.64594658  1.0
  N  N376  1  0.95717342  0.35219497  0.57181440  1.0
  N  N377  1  0.07278998  0.24701415  0.58922238  1.0
  N  N378  1  0.58994254  0.28687696  0.60323793  1.0
  N  N379  1  0.70257503  0.36134492  0.57780456  1.0
  N  N380  1  0.30489608  0.10394031  0.89582428  1.0
  N  N381  1  0.42929816  0.16127614  0.92059725  1.0
  N  N382  1  0.31327744  0.94163176  0.86983505  1.0
  N  N383  1  0.36409090  0.78039785  0.86431935  1.0
  N  N384  1  0.14767874  0.99410903  0.89080677  1.0
  N  N385  1  0.99248172  0.92582378  0.89594970  1.0
  N  N386  1  0.14781992  0.45721326  0.82180092  1.0
  N  N387  1  0.25297314  0.57281515  0.83922475  1.0
  N  N388  1  0.21310102  0.08994590  0.85321891  1.0
  N  N389  1  0.13867401  0.20260300  0.82778255  1.0
  N  N390  1  0.69510316  0.89605890  0.39582412  1.0
  N  N391  1  0.57070266  0.83872532  0.42059765  1.0
  N  N392  1  0.68672176  0.05836753  0.36983483  1.0
  N  N393  1  0.63590906  0.21960145  0.36431947  1.0
  N  N394  1  0.85231896  0.00588943  0.39080676  1.0
  N  N395  1  0.00751598  0.07417621  0.39594961  1.0
  N  N396  1  0.85217921  0.54278537  0.32180083  1.0
  N  N397  1  0.74702679  0.42718498  0.33922485  1.0
  N  N398  1  0.78689816  0.91005265  0.35321839  1.0
  N  N399  1  0.86132590  0.79739716  0.32778167  1.0
  N  N400  1  0.89606184  0.69510367  0.60417566  1.0
  N  N401  1  0.83872758  0.57070146  0.57940233  1.0
  N  N402  1  0.05836935  0.68672224  0.63016517  1.0
  N  N403  1  0.21960304  0.63590947  0.63568052  1.0
  N  N404  1  0.00589057  0.85232200  0.60919323  1.0
  N  N405  1  0.07417649  0.00751703  0.60405041  1.0
  N  N406  1  0.54278647  0.85217837  0.67819933  1.0
  N  N407  1  0.42718549  0.74702657  0.66077494  1.0
  N  N408  1  0.91005400  0.78689723  0.64678139  1.0
  N  N409  1  0.79739789  0.86132430  0.67221755  1.0
  N  N410  1  0.10394083  0.30489784  0.10417610  1.0
  N  N411  1  0.16127505  0.42929934  0.07940256  1.0
  N  N412  1  0.94163258  0.31327766  0.13016493  1.0
  N  N413  1  0.78039736  0.36409119  0.13568045  1.0
  N  N414  1  0.99410979  0.14768026  0.10919302  1.0
  N  N415  1  0.92582541  0.99248294  0.10404970  1.0
  N  N416  1  0.45721322  0.14782295  0.17819926  1.0
  N  N417  1  0.57281418  0.25297402  0.16077543  1.0
  N  N418  1  0.08994565  0.21309954  0.14678203  1.0
  N  N419  1  0.20260102  0.13867395  0.17221820  1.0
  N  N420  1  0.80488493  0.39607119  0.85414493  1.0
  N  N421  1  0.92929276  0.33875146  0.82936918  1.0
  N  N422  1  0.81331022  0.55835550  0.88014507  1.0
  N  N423  1  0.86410719  0.71957752  0.88568795  1.0
  N  N424  1  0.64767871  0.50591478  0.85918059  1.0
  N  N425  1  0.49245834  0.57418152  0.85405333  1.0
  N  N426  1  0.64780203  0.04282395  0.92818503  1.0
  N  N427  1  0.75298343  0.92720641  0.91077733  1.0
  N  N428  1  0.71312297  0.41005621  0.89676239  1.0
  N  N429  1  0.63865517  0.29742272  0.92219521  1.0
  N  N430  1  0.19511656  0.60392659  0.35414496  1.0
  N  N431  1  0.07070716  0.66124792  0.32936919  1.0
  N  N432  1  0.18669285  0.44164375  0.38014494  1.0
  N  N433  1  0.13589435  0.28042096  0.38568802  1.0
  N  N434  1  0.35232278  0.49408530  0.35918083  1.0
  N  N435  1  0.50754314  0.42581780  0.35405378  1.0
  N  N436  1  0.35219802  0.95717595  0.42818539  1.0
  N  N437  1  0.24701506  0.07279046  0.41077725  1.0
  N  N438  1  0.28687782  0.58994455  0.39676206  1.0
  N  N439  1  0.36134565  0.70257642  0.42219505  1.0
  O  O440  1  0.92148704  0.66347577  0.27719563  1.0
  O  O441  1  0.02047602  0.80603849  0.27682332  1.0
  O  O442  1  0.93326508  0.83809283  0.14776034  1.0
  O  O443  1  0.84051000  0.69122775  0.14903685  1.0
  O  O444  1  0.07851203  0.33652067  0.77719574  1.0
  O  O445  1  0.97952304  0.19395949  0.77682315  1.0
  O  O446  1  0.06673611  0.16191318  0.64775954  1.0
  O  O447  1  0.15949504  0.30877750  0.64903790  1.0
  O  O448  1  0.16350208  0.57850021  0.02721351  1.0
  O  O449  1  0.30609269  0.47955578  0.02683120  1.0
  O  O450  1  0.33806475  0.56668432  0.89776805  1.0
  O  O451  1  0.19125471  0.65951679  0.89904510  1.0
  O  O452  1  0.83649893  0.42149687  0.52721367  1.0
  O  O453  1  0.69391064  0.52044669  0.52683152  1.0
  O  O454  1  0.66193603  0.43331720  0.39776814  1.0
  O  O455  1  0.80874531  0.34048396  0.39904522  1.0
  O  O456  1  0.42149749  0.83650049  0.47278668  1.0
  O  O457  1  0.52044871  0.69391121  0.47316883  1.0
  O  O458  1  0.43331773  0.66193418  0.60223166  1.0
  O  O459  1  0.34048616  0.80874444  0.60095495  1.0
  O  O460  1  0.57849724  0.16350392  0.97278630  1.0
  O  O461  1  0.47955296  0.30609242  0.97316879  1.0
  O  O462  1  0.56668185  0.33806271  0.10223194  1.0
  O  O463  1  0.65951419  0.19125245  0.10095471  1.0
  O  O464  1  0.66347590  0.92148704  0.72280452  1.0
  O  O465  1  0.80603995  0.02047548  0.72317705  1.0
  O  O466  1  0.83809109  0.93326811  0.85224018  1.0
  O  O467  1  0.69122622  0.84050981  0.85096312  1.0
  O  O468  1  0.33652309  0.07851339  0.22280446  1.0
  O  O469  1  0.19395981  0.97952495  0.22317702  1.0
  O  O470  1  0.16191116  0.06673738  0.35224029  1.0
  O  O471  1  0.30877757  0.15949491  0.35096266  1.0
