# generated using pymatgen
data_Al4H31C56N8O20F
_symmetry_space_group_name_H-M   'P 1'
_cell_length_a   6.67139210
_cell_length_b   21.96937244
_cell_length_c   23.80613833
_cell_angle_alpha   68.04940652
_cell_angle_beta   89.82734361
_cell_angle_gamma   89.86549947
_symmetry_Int_Tables_number   1
_chemical_formula_structural   Al4H31C56N8O20F
_chemical_formula_sum   'Al4 H31 C56 N8 O20 F1'
_cell_volume   3236.21749094
_cell_formula_units_Z   1
loop_
 _symmetry_equiv_pos_site_id
 _symmetry_equiv_pos_as_xyz
  1  'x, y, z'
loop_
 _atom_site_type_symbol
 _atom_site_label
 _atom_site_symmetry_multiplicity
 _atom_site_fract_x
 _atom_site_fract_y
 _atom_site_fract_z
 _atom_site_occupancy
  Al  Al0  1  0.09665171  0.49883937  0.50369156  1.0
  Al  Al1  1  0.59624692  0.50065284  0.49986823  1.0
  Al  Al2  1  0.66951037  0.00097563  0.99852506  1.0
  Al  Al3  1  0.16955491  0.99860136  0.00176799  1.0
  H  H4  1  0.24445913  0.12562874  0.83000306  1.0
  H  H5  1  0.48908729  0.28052677  0.76980217  1.0
  H  H6  1  0.27659783  0.21960359  0.73120346  1.0
  H  H7  1  0.52081764  0.37419500  0.67053096  1.0
  H  H8  1  0.13243590  0.32120958  0.65375501  1.0
  H  H9  1  0.59066517  0.09249688  0.11594615  1.0
  H  H10  1  0.21489433  0.18280547  0.16844223  1.0
  H  H11  1  0.22955202  0.11566364  0.10305580  1.0
  H  H12  1  0.54646480  0.31209969  0.33852795  1.0
  H  H13  1  0.54304787  0.37940598  0.40314504  1.0
  H  H14  1  0.18128107  0.34754023  0.30987163  1.0
  H  H15  1  0.67535263  0.59569761  0.61344735  1.0
  H  H16  1  0.04742582  0.68017755  0.67169943  1.0
  H  H17  1  0.03435048  0.61272643  0.60654299  1.0
  H  H18  1  0.72220051  0.82022726  0.82869020  1.0
  H  H19  1  0.73416198  0.88709882  0.89438476  1.0
  H  H20  1  0.09298197  0.90324634  0.88775442  1.0
  H  H21  1  0.07972589  0.83762451  0.82107773  1.0
  H  H22  1  0.13484914  0.81933536  0.15296762  1.0
  H  H23  1  0.74287267  0.87444047  0.17016997  1.0
  H  H24  1  0.77480443  0.78117803  0.26945926  1.0
  H  H25  1  0.02298981  0.62510760  0.33018960  1.0
  H  H26  1  0.62983430  0.68081538  0.34789043  1.0
  H  H27  1  0.63456856  0.17991269  0.84761512  1.0
  H  H28  1  0.68973390  0.66211647  0.67945530  1.0
  H  H29  1  0.99108271  0.71829596  0.23090080  1.0
  H  H30  1  0.57490005  0.15773258  0.18297896  1.0
  H  H31  1  0.34451564  0.42651052  0.49062557  1.0
  H  H32  1  0.85138390  0.58474961  0.46400911  1.0
  H  H33  1  0.41406630  0.08590195  0.96915577  1.0
  H  H34  1  0.91490547  0.91344762  0.02942088  1.0
  C  C35  1  0.34800176  0.56224336  0.56622436  1.0
  C  C36  1  0.34153660  0.59295987  0.40487465  1.0
  C  C37  1  0.84953858  0.43625719  0.43657914  1.0
  C  C38  1  0.84358396  0.40851467  0.59748963  1.0
  C  C39  1  0.93690851  0.14800976  0.84455945  1.0
  C  C40  1  0.82962858  0.35254462  0.65688616  1.0
  C  C41  1  0.62841053  0.28882204  0.74389268  1.0
  C  C42  1  0.64578475  0.34086748  0.68948122  1.0
  C  C43  1  0.99195974  0.31130631  0.67919546  1.0
  C  C44  1  0.97599293  0.25606396  0.73399875  1.0
  C  C45  1  0.79063087  0.24458323  0.76727678  1.0
  C  C46  1  0.77498620  0.18946194  0.82219699  1.0
  C  C47  1  0.12010030  0.15939370  0.81159664  1.0
  C  C48  1  0.13765496  0.21152992  0.75725322  1.0
  C  C49  1  0.72600035  0.11232857  0.12814732  1.0
  C  C50  1  0.71725595  0.14854330  0.16503998  1.0
  C  C51  1  0.89396484  0.17444277  0.17936285  1.0
  C  C52  1  0.07937268  0.16243743  0.15700563  1.0
  C  C53  1  0.08737467  0.12545624  0.12074780  1.0
  C  C54  1  0.91077159  0.10066712  0.10564901  1.0
  C  C55  1  0.87077112  0.28488337  0.28277339  1.0
  C  C56  1  0.88525769  0.21430565  0.21699146  1.0
  C  C57  1  0.68344719  0.33425483  0.34678585  1.0
  C  C58  1  0.68209178  0.37131483  0.38293765  1.0
  C  C59  1  0.85771315  0.39954060  0.39490872  1.0
  C  C60  1  0.03494201  0.38993088  0.36719931  1.0
  C  C61  1  0.04076624  0.35357290  0.33059751  1.0
  C  C62  1  0.86404053  0.32473431  0.32053385  1.0
  C  C63  1  0.53928480  0.61442120  0.62673861  1.0
  C  C64  1  0.54724293  0.65118782  0.66311701  1.0
  C  C65  1  0.36937643  0.67523250  0.67925229  1.0
  C  C66  1  0.18376944  0.66121164  0.65887125  1.0
  C  C67  1  0.17656703  0.62400641  0.62282415  1.0
  C  C68  1  0.35413832  0.60069446  0.60626611  1.0
  C  C69  1  0.39211636  0.78516964  0.78330271  1.0
  C  C70  1  0.37751384  0.71503892  0.71701294  1.0
  C  C71  1  0.58557192  0.83889091  0.84169559  1.0
  C  C72  1  0.59207907  0.87574723  0.87808217  1.0
  C  C73  1  0.41422564  0.89857447  0.89500525  1.0
  C  C74  1  0.22944242  0.88485879  0.87430627  1.0
  C  C75  1  0.22210062  0.84849006  0.83755994  1.0
  C  C76  1  0.40019836  0.82475981  0.82123386  1.0
  C  C77  1  0.43604454  0.85174997  0.15594993  1.0
  C  C78  1  0.32900395  0.64822345  0.34484009  1.0
  C  C79  1  0.12947436  0.71067272  0.25699692  1.0
  C  C80  1  0.14691011  0.65896817  0.31164014  1.0
  C  C81  1  0.49020047  0.68985056  0.32232749  1.0
  C  C82  1  0.47481899  0.74449633  0.26703549  1.0
  C  C83  1  0.29048247  0.75533992  0.23357088  1.0
  C  C84  1  0.27479467  0.81013955  0.17842420  1.0
  C  C85  1  0.61875845  0.84070647  0.18886404  1.0
  C  C86  1  0.63614816  0.78896246  0.24347597  1.0
  C  C87  1  0.42276974  0.90744040  0.09635287  1.0
  C  C88  1  0.41960851  0.93632379  0.93573981  1.0
  C  C89  1  0.92358417  0.09226658  0.90407512  1.0
  C  C90  1  0.91745524  0.06296831  0.06482299  1.0
  N  N91  1  0.05706208  0.24314902  0.22465200  1.0
  N  N92  1  0.04964211  0.27886587  0.25824829  1.0
  N  N93  1  0.69881786  0.25644994  0.27493647  1.0
  N  N94  1  0.70625766  0.22036283  0.24157538  1.0
  N  N95  1  0.20301180  0.73929689  0.72933721  1.0
  N  N96  1  0.21039975  0.77495326  0.76303684  1.0
  N  N97  1  0.56666940  0.76101178  0.77088808  1.0
  N  N98  1  0.55925922  0.72537544  0.73717456  1.0
  O  O99  1  0.51479992  0.57377713  0.42714627  1.0
  O  O100  1  0.17662284  0.54765431  0.55140522  1.0
  O  O101  1  0.01696299  0.42930832  0.57666459  1.0
  O  O102  1  0.17418877  0.56994646  0.42964767  1.0
  O  O103  1  0.01540993  0.44749446  0.45697620  1.0
  O  O104  1  0.51577424  0.54755771  0.54911149  1.0
  O  O105  1  0.34744365  0.46047712  0.50745082  1.0
  O  O106  1  0.67632817  0.45217326  0.44942881  1.0
  O  O107  1  0.67795862  0.43065090  0.57146309  1.0
  O  O108  1  0.84677069  0.53952244  0.49208865  1.0
  O  O109  1  0.25089161  0.94929332  0.95386241  1.0
  O  O110  1  0.58918903  0.93060373  0.07115417  1.0
  O  O111  1  0.74921418  0.04990373  0.04691116  1.0
  O  O112  1  0.59107326  0.95168501  0.94992563  1.0
  O  O113  1  0.75041058  0.07239319  0.92609053  1.0
  O  O114  1  0.24968808  0.92732183  0.07451397  1.0
  O  O115  1  0.41842042  0.03908074  0.99210922  1.0
  O  O116  1  0.08993292  0.06901320  0.92921123  1.0
  O  O117  1  0.08940745  0.04783329  0.05048137  1.0
  O  O118  1  0.91878439  0.96058205  0.00828383  1.0
  F  F119  1  0.21083249  0.41722449  0.37457815  1.0
