# generated using pymatgen
data_Zn4H7C44S10N4Cl5(O4F)4
_symmetry_space_group_name_H-M   'P 1'
_cell_length_a   11.47503704
_cell_length_b   12.74945609
_cell_length_c   26.13568318
_cell_angle_alpha   90.28269207
_cell_angle_beta   88.88918641
_cell_angle_gamma   90.00278110
_symmetry_Int_Tables_number   1
_chemical_formula_structural   Zn4H7C44S10N4Cl5(O4F)4
_chemical_formula_sum   'Zn4 H7 C44 S10 N4 Cl5 O16 F4'
_cell_volume   3822.89790453
_cell_formula_units_Z   1
loop_
 _symmetry_equiv_pos_site_id
 _symmetry_equiv_pos_as_xyz
  1  'x, y, z'
loop_
 _atom_site_type_symbol
 _atom_site_label
 _atom_site_symmetry_multiplicity
 _atom_site_fract_x
 _atom_site_fract_y
 _atom_site_fract_z
 _atom_site_occupancy
  Zn  Zn0  1  0.61995275  0.50122949  0.49812408  1.0
  Zn  Zn1  1  0.37777411  0.49825695  0.49945533  1.0
  Zn  Zn2  1  0.38002811  0.50340468  0.01056764  1.0
  Zn  Zn3  1  0.62187695  0.50032674  0.01128479  1.0
  H  H4  1  0.16308326  0.60675935  0.55728095  1.0
  H  H5  1  0.31365037  0.85826813  0.49732103  1.0
  H  H6  1  0.70217043  0.49956148  0.85884035  1.0
  H  H7  1  0.29944693  0.49927189  0.65111293  1.0
  H  H8  1  0.68645052  0.50316200  0.18526586  1.0
  H  H9  1  0.83605190  0.60721279  0.95265921  1.0
  H  H10  1  0.68615253  0.86054280  0.01191411  1.0
  C  C11  1  0.49670032  0.70481276  0.50046993  1.0
  C  C12  1  0.49971469  0.50150040  0.59927630  1.0
  C  C13  1  0.49887989  0.29493091  0.49938957  1.0
  C  C14  1  0.49360974  0.50058277  0.39881500  1.0
  C  C15  1  0.50254561  0.70695342  0.00914456  1.0
  C  C16  1  0.50139329  0.50220971  0.91056603  1.0
  C  C17  1  0.50014998  0.29698400  0.01006512  1.0
  C  C18  1  0.50594988  0.50373481  0.11088060  1.0
  C  C19  1  0.87596513  0.44582155  0.46762911  1.0
  C  C20  1  0.12569118  0.55425400  0.52901063  1.0
  C  C21  1  0.00658440  0.53684363  0.51857845  1.0
  C  C22  1  0.99488306  0.46361104  0.47862194  1.0
  C  C23  1  0.59633857  0.11075915  0.50217621  1.0
  C  C24  1  0.40265137  0.88709641  0.49908224  1.0
  C  C25  1  0.50235010  0.17941929  0.50013024  1.0
  C  C26  1  0.49761141  0.82050744  0.50083106  1.0
  C  C27  1  0.43836870  0.99316168  0.49957346  1.0
  C  C28  1  0.56020154  0.00466496  0.50180018  1.0
  C  C29  1  0.42372403  0.50262648  0.81918778  1.0
  C  C30  1  0.62999544  0.50121422  0.83250970  1.0
  C  C31  1  0.65086401  0.50163355  0.78084738  1.0
  C  C32  1  0.55976752  0.50223634  0.74471774  1.0
  C  C33  1  0.57793874  0.50248237  0.69069289  1.0
  C  C34  1  0.37163928  0.50089773  0.67743302  1.0
  C  C35  1  0.35078348  0.50153178  0.72909159  1.0
  C  C36  1  0.44195280  0.50221212  0.76517285  1.0
  C  C37  1  0.51503366  0.50217800  0.85318964  1.0
  C  C38  1  0.48658963  0.50180065  0.65672461  1.0
  C  C39  1  0.39965396  0.50071512  0.30917268  1.0
  C  C40  1  0.59686632  0.50272751  0.19957603  1.0
  C  C41  1  0.49287773  0.50086026  0.34243347  1.0
  C  C42  1  0.50271521  0.50315748  0.16733512  1.0
  C  C43  1  0.55957678  0.50197595  0.25142402  1.0
  C  C44  1  0.43737747  0.50157426  0.25732475  1.0
  C  C45  1  0.12448517  0.44803625  0.04150340  1.0
  C  C46  1  0.87376133  0.55515110  0.98079038  1.0
  C  C47  1  0.99305765  0.53792852  0.99088477  1.0
  C  C48  1  0.00540674  0.46529199  0.03069290  1.0
  C  C49  1  0.40324524  0.11262968  0.00680944  1.0
  C  C50  1  0.59712916  0.88923730  0.01008811  1.0
  C  C51  1  0.49711891  0.18146539  0.00901036  1.0
  C  C52  1  0.50214982  0.82261663  0.00845921  1.0
  C  C53  1  0.56139618  0.99527972  0.00944947  1.0
  C  C54  1  0.43955990  0.00661518  0.00720470  1.0
  S  S55  1  0.87062062  0.57647146  0.53959211  1.0
  S  S56  1  0.12883408  0.42204712  0.45735314  1.0
  S  S57  1  0.36954661  0.11334210  0.49803622  1.0
  S  S58  1  0.63069730  0.88570643  0.50302841  1.0
  S  S59  1  0.62680295  0.50202927  0.30990696  1.0
  S  S60  1  0.36845757  0.50268175  0.19946623  1.0
  S  S61  1  0.12871497  0.57767608  0.96972530  1.0
  S  S62  1  0.87170221  0.42381453  0.05216459  1.0
  S  S63  1  0.63000079  0.11558474  0.01119756  1.0
  S  S64  1  0.36907654  0.88768184  0.00604635  1.0
  N  N65  1  0.80247545  0.50067629  0.49714252  1.0
  N  N66  1  0.19718126  0.49793865  0.49931869  1.0
  N  N67  1  0.19748508  0.50270133  0.01194365  1.0
  N  N68  1  0.80265251  0.49927471  0.01056808  1.0
  Cl  Cl69  1  0.83022840  0.36347176  0.42122100  1.0
  Cl  Cl70  1  0.74050420  0.14412302  0.50524448  1.0
  Cl  Cl71  1  0.25455995  0.50030352  0.32571490  1.0
  Cl  Cl72  1  0.17085648  0.36670793  0.08780625  1.0
  Cl  Cl73  1  0.25900425  0.14561343  0.00373239  1.0
  O  O74  1  0.59640978  0.65986174  0.50072865  1.0
  O  O75  1  0.39770021  0.65978454  0.49981916  1.0
  O  O76  1  0.40297790  0.49938373  0.57583220  1.0
  O  O77  1  0.60033904  0.50317630  0.57847255  1.0
  O  O78  1  0.39760615  0.33645046  0.49860781  1.0
  O  O79  1  0.59583321  0.34360238  0.49950881  1.0
  O  O80  1  0.59334304  0.50450844  0.41957760  1.0
  O  O81  1  0.39518961  0.49646437  0.42206617  1.0
  O  O82  1  0.40264910  0.66248805  0.00846393  1.0
  O  O83  1  0.60129278  0.66149915  0.01049201  1.0
  O  O84  1  0.59749665  0.49958408  0.93444513  1.0
  O  O85  1  0.40029346  0.50467975  0.93096416  1.0
  O  O86  1  0.60112415  0.33895682  0.01223992  1.0
  O  O87  1  0.40314134  0.34527752  0.00880712  1.0
  O  O88  1  0.40808834  0.50699522  0.08857185  1.0
  O  O89  1  0.60643788  0.50080948  0.08919694  1.0
  F  F90  1  0.23776407  0.50109593  0.74574347  1.0
  F  F91  1  0.31238904  0.50340181  0.83685525  1.0
  F  F92  1  0.76390599  0.50078155  0.76422388  1.0
  F  F93  1  0.68921523  0.50341677  0.67295555  1.0
