# generated using pymatgen
data_Zn4H6C24S4Br4N2O13
_symmetry_space_group_name_H-M   'P 1'
_cell_length_a   19.54342477
_cell_length_b   19.57020171
_cell_length_c   33.15157499
_cell_angle_alpha   79.39012030
_cell_angle_beta   79.51071548
_cell_angle_gamma   64.05169553
_symmetry_Int_Tables_number   1
_chemical_formula_structural   Zn4H6C24S4Br4N2O13
_chemical_formula_sum   'Zn16 H24 C96 S16 Br16 N8 O52'
_cell_volume   11132.17114935
_cell_formula_units_Z   4
loop_
 _symmetry_equiv_pos_site_id
 _symmetry_equiv_pos_as_xyz
  1  'x, y, z'
loop_
 _atom_site_type_symbol
 _atom_site_label
 _atom_site_symmetry_multiplicity
 _atom_site_fract_x
 _atom_site_fract_y
 _atom_site_fract_z
 _atom_site_occupancy
  Zn  Zn0  1  0.60164894  0.94659249  0.51976354  1.0
  Zn  Zn1  1  0.52374535  0.00907313  0.44101601  1.0
  Zn  Zn2  1  0.43176005  0.94762151  0.51710833  1.0
  Zn  Zn3  1  0.44111612  0.09604664  0.52512107  1.0
  Zn  Zn4  1  0.64911153  0.30950559  0.72791298  1.0
  Zn  Zn5  1  0.80157672  0.31791329  0.73341142  1.0
  Zn  Zn6  1  0.73867931  0.22630355  0.81081580  1.0
  Zn  Zn7  1  0.79896959  0.15187787  0.73039047  1.0
  Zn  Zn8  1  0.24207787  0.72540912  0.31068110  1.0
  Zn  Zn9  1  0.31005794  0.64861919  0.22945297  1.0
  Zn  Zn10  1  0.15446067  0.80440890  0.22765009  1.0
  Zn  Zn11  1  0.30637876  0.81490043  0.23402140  1.0
  Zn  Zn12  1  0.93366821  0.44639767  0.01673960  1.0
  Zn  Zn13  1  0.94680889  0.59979493  0.02090956  1.0
  Zn  Zn14  1  0.10004666  0.44170729  0.02248217  1.0
  Zn  Zn15  1  0.02314757  0.50731213  0.94013324  1.0
  H  H16  1  0.75179283  0.54398336  0.66079594  1.0
  H  H17  1  0.30442431  0.51495607  0.39831664  1.0
  H  H18  1  0.02860776  0.80064762  0.40043336  1.0
  H  H19  1  0.01746539  0.05804637  0.65073043  1.0
  H  H20  1  0.23424545  0.44387449  0.85487069  1.0
  H  H21  1  0.84461932  0.82437480  0.95514103  1.0
  H  H22  1  0.73444334  0.69585271  0.11362963  1.0
  H  H23  1  0.97914496  0.21491879  0.09190128  1.0
  H  H24  1  0.45074603  0.67805306  0.58721691  1.0
  H  H25  1  0.44945544  0.76551473  0.56286311  1.0
  H  H26  1  0.47303774  0.22257723  0.31628407  1.0
  H  H27  1  0.47864242  0.15491675  0.35956487  1.0
  H  H28  1  0.74077727  0.93925187  0.31372335  1.0
  H  H29  1  0.67134154  0.96729581  0.35574789  1.0
  H  H30  1  0.19228442  0.25818213  0.61794750  1.0
  H  H31  1  0.27029786  0.20526574  0.58454198  1.0
  H  H32  1  0.52710977  0.29402513  0.93754218  1.0
  H  H33  1  0.59442735  0.28077367  0.89409905  1.0
  H  H34  1  0.92587912  0.85333216  0.76846275  1.0
  H  H35  1  0.89411854  0.95241921  0.75826561  1.0
  H  H36  1  0.55209816  0.50570098  0.13274166  1.0
  H  H37  1  0.46760837  0.56294432  0.16143472  1.0
  H  H38  1  0.30089108  0.06771314  0.14269323  1.0
  H  H39  1  0.30321732  0.98061487  0.16867160  1.0
  C  C40  1  0.69032482  0.93643999  0.43701503  1.0
  C  C41  1  0.43159664  0.93262030  0.43206485  1.0
  C  C42  1  0.55691986  0.82072992  0.55917453  1.0
  C  C43  1  0.30815495  0.06453815  0.56365646  1.0
  C  C44  1  0.56786607  0.06877174  0.56825582  1.0
  C  C45  1  0.44019280  0.17779022  0.44016177  1.0
  C  C46  1  0.68076150  0.44102029  0.68883388  1.0
  C  C47  1  0.81404887  0.32097695  0.81876705  1.0
  C  C48  1  0.57084972  0.30955718  0.81335704  1.0
  C  C49  1  0.81391140  0.05921119  0.81060545  1.0
  C  C50  1  0.67716024  0.18569871  0.68254312  1.0
  C  C51  1  0.92424318  0.19447195  0.68906330  1.0
  C  C52  1  0.31659430  0.55869432  0.31122781  1.0
  C  C53  1  0.18828211  0.67830088  0.17981677  1.0
  C  C54  1  0.07506505  0.80491633  0.31270646  1.0
  C  C55  1  0.18666678  0.93569118  0.18730951  1.0
  C  C56  1  0.31993008  0.81625723  0.31877703  1.0
  C  C57  1  0.43640141  0.69407711  0.19220859  1.0
  C  C58  1  0.82093067  0.56592172  0.06758468  1.0
  C  C59  1  0.07211163  0.56721684  0.06834299  1.0
  C  C60  1  0.05598989  0.31285000  0.05539158  1.0
  C  C61  1  0.19016814  0.44180799  0.94150508  1.0
  C  C62  1  0.92968562  0.43144327  0.93287169  1.0
  C  C63  1  0.93315997  0.67377883  0.93414754  1.0
  C  C64  1  0.59709929  0.09949215  0.59687117  1.0
  C  C65  1  0.64970243  0.15652336  0.65230853  1.0
  C  C66  1  0.55549122  0.17493787  0.60708111  1.0
  C  C67  1  0.69505414  0.08387482  0.63867763  1.0
  C  C68  1  0.57805125  0.20075288  0.63709120  1.0
  C  C69  1  0.66618181  0.05329377  0.61416337  1.0
  C  C70  1  0.40285329  0.90246000  0.40292926  1.0
  C  C71  1  0.34928909  0.84547770  0.34805011  1.0
  C  C72  1  0.36066630  0.85829732  0.41825687  1.0
  C  C73  1  0.39656275  0.88431422  0.33280660  1.0
  C  C74  1  0.32945012  0.83516081  0.39111071  1.0
  C  C75  1  0.41784195  0.91752209  0.35970137  1.0
  C  C76  1  0.53972801  0.70134962  0.59527850  1.0
  C  C77  1  0.69539298  0.56084681  0.65168012  1.0
  C  C78  1  0.58053291  0.74735305  0.58416716  1.0
  C  C79  1  0.65526659  0.51572140  0.66352790  1.0
  C  C80  1  0.65333000  0.62891106  0.62732259  1.0
  C  C81  1  0.58226228  0.63370287  0.62056500  1.0
  C  C82  1  0.42370664  0.26486200  0.37178849  1.0
  C  C83  1  0.33180948  0.46918802  0.37866244  1.0
  C  C84  1  0.41486505  0.25132747  0.41520576  1.0
  C  C85  1  0.34101103  0.48335648  0.33599084  1.0
  C  C86  1  0.36256617  0.38992059  0.39193950  1.0
  C  C87  1  0.39389437  0.34507087  0.35896926  1.0
  C  C88  1  0.78032909  0.91887503  0.36985374  1.0
  C  C89  1  0.98388043  0.82569824  0.37999878  1.0
  C  C90  1  0.76485405  0.91247454  0.41315932  1.0
  C  C91  1  0.99982929  0.83070706  0.33741619  1.0
  C  C92  1  0.90413257  0.85676917  0.39207567  1.0
  C  C93  1  0.86092315  0.88575794  0.35828485  1.0
  C  C94  1  0.19294433  0.15978055  0.60410683  1.0
  C  C95  1  0.03968596  0.10118236  0.64728347  1.0
  C  C96  1  0.23361394  0.08974274  0.58743678  1.0
  C  C97  1  0.99947432  0.16940584  0.66428804  1.0
  C  C98  1  0.11061266  0.09670488  0.62588577  1.0
  C  C99  1  0.12256155  0.16233790  0.62655582  1.0
  C  C100  1  0.84261316  0.35137352  0.84779774  1.0
  C  C101  1  0.89868355  0.40472786  0.90323796  1.0
  C  C102  1  0.80348286  0.36644076  0.88725735  1.0
  C  C103  1  0.93352619  0.39609526  0.86176696  1.0
  C  C104  1  0.83397509  0.38716531  0.91584891  1.0
  C  C105  1  0.90893244  0.36428107  0.83567858  1.0
  C  C106  1  0.48442860  0.33540885  0.88166293  1.0
  C  C107  1  0.27999905  0.42121777  0.87456588  1.0
  C  C108  1  0.49761516  0.33772338  0.83835828  1.0
  C  C109  1  0.26574509  0.41795841  0.91716014  1.0
  C  C110  1  0.35927545  0.39119994  0.86149895  1.0
  C  C111  1  0.40416726  0.36614354  0.89448499  1.0
  C  C112  1  0.88015365  0.91340676  0.81870090  1.0
  C  C113  1  0.86532825  0.81865684  0.92267320  1.0
  C  C114  1  0.83707129  0.98448940  0.83407613  1.0
  C  C115  1  0.90820708  0.74811817  0.90838399  1.0
  C  C116  1  0.85412703  0.87876409  0.89020746  1.0
  C  C117  1  0.88912806  0.85295867  0.85157658  1.0
  C  C118  1  0.15865310  0.64910907  0.15081526  1.0
  C  C119  1  0.10253847  0.59581010  0.09724251  1.0
  C  C120  1  0.09265920  0.63592002  0.16389067  1.0
  C  C121  1  0.16886535  0.60838521  0.08428738  1.0
  C  C122  1  0.06445364  0.60949528  0.13700835  1.0
  C  C123  1  0.19682649  0.63530761  0.11106120  1.0
  C  C124  1  0.54826359  0.60535971  0.14728831  1.0
  C  C125  1  0.70951040  0.65583215  0.11381682  1.0
  C  C126  1  0.51081100  0.67066729  0.16842754  1.0
  C  C127  1  0.74654298  0.59148384  0.09319794  1.0
  C  C128  1  0.63750252  0.66102556  0.13404672  1.0
  C  C129  1  0.62124956  0.60060842  0.12802054  1.0
  C  C130  1  0.20390183  0.05043206  0.14458470  1.0
  C  C131  1  0.03850969  0.19580321  0.09698136  1.0
  C  C132  1  0.16086672  0.00793370  0.16136670  1.0
  C  C133  1  0.08049146  0.23800893  0.08056851  1.0
  C  C134  1  0.08282769  0.12751518  0.12055612  1.0
  C  C135  1  0.15782195  0.11922523  0.12136238  1.0
  S  S136  1  0.66873467  0.70800723  0.60402171  1.0
  S  S137  1  0.56623435  0.55561301  0.64520737  1.0
  S  S138  1  0.36995984  0.33503367  0.43933169  1.0
  S  S139  1  0.38658419  0.40043898  0.31173247  1.0
  S  S140  1  0.84709942  0.86805984  0.43874103  1.0
  S  S141  1  0.91821362  0.87376650  0.31176321  1.0
  S  S142  1  0.18587575  0.02967038  0.59857283  1.0
  S  S143  1  0.04721641  0.22886873  0.65406582  1.0
  S  S144  1  0.41388377  0.37763005  0.81423486  1.0
  S  S145  1  0.34857830  0.37907555  0.94161332  1.0
  S  S146  1  0.80916167  0.97699274  0.88730786  1.0
  S  S147  1  0.93531701  0.75448844  0.85530455  1.0
  S  S148  1  0.56388782  0.72484915  0.16395290  1.0
  S  S149  1  0.69438824  0.53703781  0.09812743  1.0
  S  S150  1  0.06684688  0.05129898  0.14844550  1.0
  S  S151  1  0.17386418  0.19509604  0.09346553  1.0
  Br  Br152  1  0.47142621  0.24531459  0.57839434  1.0
  Br  Br153  1  0.79845013  0.02722429  0.64983357  1.0
  Br  Br154  1  0.50742392  0.29321115  0.65822386  1.0
  Br  Br155  1  0.71924789  0.94795410  0.60709735  1.0
  Br  Br156  1  0.34801895  0.82482019  0.47550026  1.0
  Br  Br157  1  0.43724908  0.88751094  0.27631116  1.0
  Br  Br158  1  0.25645497  0.79464678  0.41334863  1.0
  Br  Br159  1  0.46154780  0.98767138  0.33606331  1.0
  Br  Br160  1  0.70669944  0.36181716  0.90030614  1.0
  Br  Br161  1  0.01034054  0.43044169  0.83734592  1.0
  Br  Br162  1  0.78656862  0.38540970  0.97109826  1.0
  Br  Br163  1  0.96614963  0.33542039  0.78405982  1.0
  Br  Br164  1  0.04393710  0.65288467  0.21828607  1.0
  Br  Br165  1  0.21873085  0.58899798  0.03031548  1.0
  Br  Br166  1  0.97564210  0.59065598  0.15351398  1.0
  Br  Br167  1  0.28515736  0.65490902  0.09419202  1.0
  N  N168  1  0.46907477  0.71979533  0.58468749  1.0
  N  N169  1  0.45403006  0.20962374  0.34585887  1.0
  N  N170  1  0.72643815  0.95355663  0.34288755  1.0
  N  N171  1  0.21619684  0.21731832  0.59860536  1.0
  N  N172  1  0.54013465  0.30978686  0.90734494  1.0
  N  N173  1  0.91089752  0.90410814  0.77872514  1.0
  N  N174  1  0.51868332  0.55552003  0.14452372  1.0
  N  N175  1  0.27887168  0.02831491  0.14873984  1.0
  O  O176  1  0.49950848  0.00010466  0.50080364  1.0
  O  O177  1  0.68796333  0.91829354  0.47624868  1.0
  O  O178  1  0.49671441  0.93432778  0.42109381  1.0
  O  O179  1  0.49368594  0.84501526  0.54283528  1.0
  O  O180  1  0.63114921  0.97433189  0.41692047  1.0
  O  O181  1  0.60063757  0.85569355  0.55525677  1.0
  O  O182  1  0.38878906  0.95391641  0.46524399  1.0
  O  O183  1  0.33887384  0.99589771  0.55398754  1.0
  O  O184  1  0.49603174  0.08806162  0.57229832  1.0
  O  O185  1  0.33880403  0.11296704  0.55384489  1.0
  O  O186  1  0.61708559  0.02605272  0.54251900  1.0
  O  O187  1  0.47038513  0.11786126  0.42054475  1.0
  O  O188  1  0.43103647  0.17793124  0.47953153  1.0
  O  O189  1  0.74747813  0.25186547  0.75075928  1.0
  O  O190  1  0.63108415  0.41324877  0.70117108  1.0
  O  O191  1  0.79895420  0.36069874  0.78402248  1.0
  O  O192  1  0.63118251  0.28110640  0.83259875  1.0
  O  O193  1  0.75061010  0.41019474  0.69621954  1.0
  O  O194  1  0.56999833  0.31461572  0.77421289  1.0
  O  O195  1  0.80836143  0.25826032  0.83183815  1.0
  O  O196  1  0.77123736  0.11740751  0.83004869  1.0
  O  O197  1  0.71820223  0.13623225  0.70911999  1.0
  O  O198  1  0.83767622  0.06232365  0.77149372  1.0
  O  O199  1  0.65748500  0.25739045  0.67948736  1.0
  O  O200  1  0.90182173  0.25669172  0.70513530  1.0
  O  O201  1  0.88853473  0.15202004  0.69218463  1.0
  O  O202  1  0.25282263  0.74767955  0.25032669  1.0
  O  O203  1  0.27509092  0.61643739  0.33080747  1.0
  O  O204  1  0.24663551  0.62914990  0.19664360  1.0
  O  O205  1  0.07404342  0.81115539  0.27365160  1.0
  O  O206  1  0.33875707  0.55999329  0.27235898  1.0
  O  O207  1  0.13404510  0.77886951  0.33217281  1.0
  O  O208  1  0.15142026  0.74869214  0.18431822  1.0
  O  O209  1  0.13788394  0.90697049  0.20105856  1.0
  O  O210  1  0.29854975  0.85921438  0.28552066  1.0
  O  O211  1  0.25740546  0.90498085  0.19491542  1.0
  O  O212  1  0.31854030  0.75104512  0.32967422  1.0
  O  O213  1  0.40107266  0.65071906  0.19392825  1.0
  O  O214  1  0.41080017  0.75537979  0.20978829  1.0
  O  O215  1  0.00126469  0.49960402  0.00062483  1.0
  O  O216  1  0.84405455  0.50088447  0.05456098  1.0
  O  O217  1  0.01704356  0.61769250  0.04950548  1.0
  O  O218  1  0.10605855  0.34061308  0.04661397  1.0
  O  O219  1  0.85538045  0.61013634  0.06034249  1.0
  O  O220  1  0.98823454  0.34325987  0.04468348  1.0
  O  O221  1  0.10492927  0.49573140  0.06605896  1.0
  O  O222  1  0.18874817  0.42938726  0.98092412  1.0
  O  O223  1  0.99593429  0.43102643  0.92283069  1.0
  O  O224  1  0.13248973  0.47272190  0.92096847  1.0
  O  O225  1  0.88815718  0.45279523  0.96650892  1.0
  O  O226  1  0.91511791  0.67655995  0.97302961  1.0
  O  O227  1  0.97068673  0.61370023  0.91559983  1.0
