# generated using pymatgen
data_Zn4H16C40Br8N4O13
_symmetry_space_group_name_H-M   'P 1'
_cell_length_a   23.86649816
_cell_length_b   23.86620469
_cell_length_c   23.86505357
_cell_angle_alpha   113.06997201
_cell_angle_beta   107.70520244
_cell_angle_gamma   107.70264761
_symmetry_Int_Tables_number   1
_chemical_formula_structural   Zn4H16C40Br8N4O13
_chemical_formula_sum   'Zn8 H32 C80 Br16 N8 O26'
_cell_volume   10432.80110861
_cell_formula_units_Z   2
loop_
 _symmetry_equiv_pos_site_id
 _symmetry_equiv_pos_as_xyz
  1  'x, y, z'
loop_
 _atom_site_type_symbol
 _atom_site_label
 _atom_site_symmetry_multiplicity
 _atom_site_fract_x
 _atom_site_fract_y
 _atom_site_fract_z
 _atom_site_occupancy
  Zn  Zn0  1  0.94306912  0.90016935  0.45578852  1.0
  Zn  Zn1  1  0.94306962  0.04290013  0.48727296  1.0
  Zn  Zn2  1  0.05693340  0.04423649  0.59984816  1.0
  Zn  Zn3  1  0.05692084  0.01270836  0.45709889  1.0
  Zn  Zn4  1  0.05561197  0.59982792  0.04289718  1.0
  Zn  Zn5  1  0.94435602  0.45709095  0.90014840  1.0
  Zn  Zn6  1  0.05560906  0.45578870  0.01270524  1.0
  Zn  Zn7  1  0.94438856  0.48728634  0.04421522  1.0
  H  H8  1  0.07705538  0.72798888  0.96365747  1.0
  H  H9  1  0.92291301  0.53631562  0.77194853  1.0
  H  H10  1  0.07537034  0.96502268  0.72755008  1.0
  H  H11  1  0.92482785  0.77252543  0.53500444  1.0
  H  H12  1  0.92291627  0.38656592  0.15090063  1.0
  H  H13  1  0.07705308  0.34902171  0.11336727  1.0
  H  H14  1  0.92479885  0.15229448  0.38978241  1.0
  H  H15  1  0.07535277  0.11034419  0.34783994  1.0
  H  H16  1  0.26250090  0.72749788  0.15219838  1.0
  H  H17  1  0.26250017  0.53500704  0.11032262  1.0
  H  H18  1  0.73565365  0.96367040  0.38663586  1.0
  H  H19  1  0.73565371  0.77198867  0.34907215  1.0
  H  H20  1  0.73747572  0.34770408  0.77249241  1.0
  H  H21  1  0.73750543  0.38967820  0.96502248  1.0
  H  H22  1  0.26433474  0.11337766  0.53633141  1.0
  H  H23  1  0.26434951  0.15094250  0.72803135  1.0
  H  H24  1  0.08413510  0.92551139  0.33437752  1.0
  H  H25  1  0.09099585  0.89378539  0.25991588  1.0
  H  H26  1  0.90887994  0.57447821  0.15864132  1.0
  H  H27  1  0.86612257  0.60619219  0.19719359  1.0
  H  H28  1  0.09111561  0.74977148  0.16561315  1.0
  H  H29  1  0.13385452  0.83108383  0.24008431  1.0
  H  H30  1  0.91580900  0.75022053  0.34132105  1.0
  H  H31  1  0.90897681  0.66891449  0.30276593  1.0
  H  H32  1  0.08415866  0.15867763  0.74978744  1.0
  H  H33  1  0.09099229  0.19723884  0.83109607  1.0
  H  H34  1  0.90884752  0.33437631  0.75018571  1.0
  H  H35  1  0.86610833  0.25991027  0.66886334  1.0
  H  H36  1  0.09108805  0.34136428  0.92551267  1.0
  H  H37  1  0.13383137  0.30279307  0.89379500  1.0
  H  H38  1  0.91582748  0.16559115  0.57445435  1.0
  H  H39  1  0.90897871  0.24005680  0.60616533  1.0
  C  C40  1  0.81818272  0.90909869  0.40911025  1.0
  C  C41  1  0.99999564  0.13950830  0.63950035  1.0
  C  C42  1  0.00005137  0.90995270  0.59011448  1.0
  C  C43  1  0.18181518  0.09089639  0.59092016  1.0
  C  C44  1  0.99995858  0.86048923  0.36046862  1.0
  C  C45  1  0.00002963  0.09011345  0.40994285  1.0
  C  C46  1  0.99997163  0.59087966  0.90905842  1.0
  C  C47  1  0.99995835  0.36049279  0.86046924  1.0
  C  C48  1  0.18016436  0.59007692  0.09008199  1.0
  C  C49  1  0.99999641  0.40907010  0.09088294  1.0
  C  C50  1  0.00000426  0.63950027  0.13950443  1.0
  C  C51  1  0.81982499  0.40989794  0.90991525  1.0
  C  C52  1  0.99995975  0.80454547  0.30452326  1.0
  C  C53  1  0.99998959  0.69544227  0.19543565  1.0
  C  C54  1  0.04320331  0.82057326  0.27642534  1.0
  C  C55  1  0.95585038  0.67941469  0.22263615  1.0
  C  C56  1  0.04411511  0.76678467  0.22354460  1.0
  C  C57  1  0.95673673  0.73320378  0.27731695  1.0
  C  C58  1  0.99998408  0.19544581  0.69543592  1.0
  C  C59  1  0.99996520  0.30454799  0.80453021  1.0
  C  C60  1  0.04321177  0.22266203  0.76678632  1.0
  C  C61  1  0.95583834  0.27643333  0.73317878  1.0
  C  C62  1  0.04410268  0.27734822  0.82056876  1.0
  C  C63  1  0.95674627  0.22354548  0.67939605  1.0
  C  C64  1  0.99998637  0.62845611  0.87150468  1.0
  C  C65  1  0.04346996  0.70006392  0.90804135  1.0
  C  C66  1  0.04314849  0.73465392  0.87295149  1.0
  C  C67  1  0.99999941  0.69971365  0.80026336  1.0
  C  C68  1  0.95683595  0.62702821  0.76530247  1.0
  C  C69  1  0.95650569  0.59192918  0.79988537  1.0
  C  C70  1  0.00001663  0.73509267  0.76489681  1.0
  C  C71  1  0.00004781  0.76580932  0.73419931  1.0
  C  C72  1  0.00007779  0.80118817  0.69883098  1.0
  C  C73  1  0.04253983  0.87407354  0.73399097  1.0
  C  C74  1  0.04258413  0.90921658  0.69946439  1.0
  C  C75  1  0.00008508  0.87241908  0.62762729  1.0
  C  C76  1  0.95760683  0.80058614  0.59081536  1.0
  C  C77  1  0.95763946  0.76603968  0.62593618  1.0
  C  C78  1  0.99999135  0.37150406  0.12844246  1.0
  C  C79  1  0.95651188  0.36454863  0.15657040  1.0
  C  C80  1  0.95684070  0.32978371  0.19148804  1.0
  C  C81  1  0.00000398  0.30027064  0.19971713  1.0
  C  C82  1  0.04315248  0.30847414  0.17018252  1.0
  C  C83  1  0.04347143  0.34337330  0.13539977  1.0
  C  C84  1  0.00001886  0.26491732  0.23510367  1.0
  C  C85  1  0.00004644  0.23422675  0.26582799  1.0
  C  C86  1  0.00006401  0.19887447  0.30122330  1.0
  C  C87  1  0.95761457  0.19157593  0.33166290  1.0
  C  C88  1  0.95757974  0.15700546  0.36675968  1.0
  C  C89  1  0.00006270  0.12766017  0.37244707  1.0
  C  C90  1  0.04256444  0.13335936  0.34312165  1.0
  C  C91  1  0.04253014  0.16845448  0.30854860  1.0
  C  C92  1  0.25520277  0.62760241  0.12760634  1.0
  C  C93  1  0.29023705  0.69942651  0.15692443  1.0
  C  C94  1  0.35990554  0.73396640  0.19149752  1.0
  C  C95  1  0.39764622  0.69882326  0.19882822  1.0
  C  C96  1  0.35990429  0.62594296  0.16842617  1.0
  C  C97  1  0.29023485  0.59080806  0.13332651  1.0
  C  C98  1  0.46838870  0.73419445  0.23419671  1.0
  C  C99  1  0.52980616  0.76489886  0.26490566  1.0
  C  C100  1  0.60054775  0.80027001  0.30028351  1.0
  C  C101  1  0.63828681  0.87295861  0.32983235  1.0
  C  C102  1  0.70797052  0.90805679  0.36460258  1.0
  C  C103  1  0.74305374  0.87152316  0.37154754  1.0
  C  C104  1  0.70797138  0.79991857  0.34341336  1.0
  C  C105  1  0.63828982  0.76533048  0.30849343  1.0
  C  C106  1  0.74478352  0.37234693  0.87240339  1.0
  C  C107  1  0.70974493  0.34299045  0.80056580  1.0
  C  C108  1  0.64007852  0.30841145  0.76603117  1.0
  C  C109  1  0.60234735  0.30111618  0.80118820  1.0
  C  C110  1  0.64010005  0.33155133  0.87408200  1.0
  C  C111  1  0.70976628  0.36665182  0.90921198  1.0
  C  C112  1  0.53160125  0.26575801  0.76581955  1.0
  C  C113  1  0.47018900  0.23506765  0.73510933  1.0
  C  C114  1  0.39944749  0.19970896  0.69973767  1.0
  C  C115  1  0.36170626  0.17017592  0.62704743  1.0
  C  C116  1  0.29202327  0.13540822  0.59195119  1.0
  C  C117  1  0.25694256  0.12845996  0.62848188  1.0
  C  C118  1  0.29203113  0.15659723  0.70009897  1.0
  C  C119  1  0.36171534  0.19150957  0.73468725  1.0
  Br  Br120  1  0.89748253  0.57547235  0.66843510  1.0
  Br  Br121  1  0.10250982  0.83152180  0.92452796  1.0
  Br  Br122  1  0.89886886  0.66903483  0.57403448  1.0
  Br  Br123  1  0.10132998  0.92593274  0.83099759  1.0
  Br  Br124  1  0.10250958  0.27096754  0.17797878  1.0
  Br  Br125  1  0.89745296  0.32196632  0.22895893  1.0
  Br  Br126  1  0.10134027  0.17540244  0.27036796  1.0
  Br  Br127  1  0.89883165  0.22979190  0.32475328  1.0
  Br  Br128  1  0.40503411  0.57408342  0.17539419  1.0
  Br  Br129  1  0.40503865  0.83096065  0.22968507  1.0
  Br  Br130  1  0.59298777  0.66846139  0.27097687  1.0
  Br  Br131  1  0.59298835  0.92453076  0.32208199  1.0
  Br  Br132  1  0.59497899  0.32461619  0.92595725  1.0
  Br  Br133  1  0.59494641  0.27017701  0.66902016  1.0
  Br  Br134  1  0.40701797  0.22902423  0.83155798  1.0
  Br  Br135  1  0.40699945  0.17795655  0.57547843  1.0
  N  N136  1  0.08801425  0.88780512  0.29905434  1.0
  N  N137  1  0.91124953  0.61218126  0.20021732  1.0
  N  N138  1  0.08873409  0.78897428  0.20093457  1.0
  N  N139  1  0.91193030  0.71101520  0.29974148  1.0
  N  N140  1  0.08802467  0.20025107  0.78898592  1.0
  N  N141  1  0.91122879  0.29905381  0.71098085  1.0
  N  N142  1  0.08871018  0.29978248  0.88781059  1.0
  N  N143  1  0.91194283  0.20091576  0.61215111  1.0
  O  O144  1  0.99999703  0.00000002  0.50000349  1.0
  O  O145  1  0.84707003  0.87349539  0.41667152  1.0
  O  O146  1  0.95553359  0.11100371  0.57585311  1.0
  O  O147  1  0.03680355  0.97595969  0.62734726  1.0
  O  O148  1  0.84706463  0.97356644  0.43042559  1.0
  O  O149  1  0.96324046  0.87270057  0.52408432  1.0
  O  O150  1  0.04446759  0.12034902  0.65548431  1.0
  O  O151  1  0.15293795  0.08336961  0.62652403  1.0
  O  O152  1  0.04442016  0.92412528  0.38896411  1.0
  O  O153  1  0.15292565  0.06953850  0.52642159  1.0
  O  O154  1  0.95549234  0.84451640  0.37964262  1.0
  O  O155  1  0.96321891  0.09054030  0.43913986  1.0
  O  O156  1  0.03680875  0.06087714  0.40949365  1.0
  O  O157  1  0.99998921  0.49999850  0.99998786  1.0
  O  O158  1  0.04312454  0.62648276  0.97355484  1.0
  O  O159  1  0.96480283  0.38897288  0.84448962  1.0
  O  O160  1  0.15138740  0.52407390  0.06086456  1.0
  O  O161  1  0.95682236  0.52640486  0.87345593  1.0
  O  O162  1  0.15138435  0.62731716  0.09052134  1.0
  O  O163  1  0.03511189  0.37967697  0.92411371  1.0
  O  O164  1  0.04313649  0.41662187  0.06954861  1.0
  O  O165  1  0.96487395  0.57586358  0.12034047  1.0
  O  O166  1  0.95684723  0.43041172  0.08333890  1.0
  O  O167  1  0.03515077  0.65547112  0.11101225  1.0
  O  O168  1  0.84858805  0.40945588  0.87267552  1.0
  O  O169  1  0.84861829  0.43915631  0.97594556  1.0
