# generated using pymatgen
data_GaH4C8O5
_symmetry_space_group_name_H-M   'P 1'
_cell_length_a   12.02491757
_cell_length_b   12.26160178
_cell_length_c   12.26193840
_cell_angle_alpha   76.08671577
_cell_angle_beta   60.63457864
_cell_angle_gamma   60.63179921
_symmetry_Int_Tables_number   1
_chemical_formula_structural   GaH4C8O5
_chemical_formula_sum   'Ga4 H16 C32 O20'
_cell_volume   1373.16035994
_cell_formula_units_Z   4
loop_
 _symmetry_equiv_pos_site_id
 _symmetry_equiv_pos_as_xyz
  1  'x, y, z'
loop_
 _atom_site_type_symbol
 _atom_site_label
 _atom_site_symmetry_multiplicity
 _atom_site_fract_x
 _atom_site_fract_y
 _atom_site_fract_z
 _atom_site_occupancy
  Ga  Ga0  1  0.19104417  0.61784962  0.99998962  1.0
  Ga  Ga1  1  0.80891818  0.38214608  0.99999179  1.0
  Ga  Ga2  1  0.55894396  0.49998107  0.88211144  1.0
  Ga  Ga3  1  0.94106618  0.49996731  0.11785414  1.0
  H  H4  1  0.19087300  0.43410437  0.93411309  1.0
  H  H5  1  0.55909667  0.56588550  0.06585418  1.0
  H  H6  1  0.37497169  0.43414356  0.06585950  1.0
  H  H7  1  0.87497833  0.56586172  0.93411395  1.0
  H  H8  1  0.86310503  0.50001525  0.50001530  1.0
  H  H9  1  0.11304249  0.99995310  0.00003699  1.0
  H  H10  1  0.88701584  0.99996341  0.99999865  1.0
  H  H11  1  0.63691393  0.49997708  0.50002795  1.0
  H  H12  1  0.23843573  0.55969250  0.30646156  1.0
  H  H13  1  0.10463099  0.44037971  0.69343078  1.0
  H  H14  1  0.54805667  0.80648372  0.94041099  1.0
  H  H15  1  0.29487599  0.19354263  0.05956688  1.0
  H  H16  1  0.51161517  0.19352994  0.94040587  1.0
  H  H17  1  0.64546647  0.80653741  0.05960190  1.0
  H  H18  1  0.20189754  0.55966008  0.69345386  1.0
  H  H19  1  0.45508466  0.44037836  0.30650115  1.0
  C  C20  1  0.95360396  0.50004603  0.49999415  1.0
  C  C21  1  0.20353559  0.99997033  0.00003549  1.0
  C  C22  1  0.79649398  0.99996224  0.00004853  1.0
  C  C23  1  0.54642335  0.49997193  0.50000980  1.0
  C  C24  1  0.04417488  0.54827464  0.26950804  1.0
  C  C25  1  0.86198691  0.45176303  0.73046532  1.0
  C  C26  1  0.34235711  0.76949823  0.95185666  1.0
  C  C27  1  0.06365849  0.23045364  0.04824526  1.0
  C  C28  1  0.70585267  0.23043213  0.95185379  1.0
  C  C29  1  0.88806328  0.76948279  0.04824047  1.0
  C  C30  1  0.40754687  0.54820431  0.73048428  1.0
  C  C31  1  0.68633427  0.45172174  0.26951864  1.0
  C  C32  1  0.05364771  0.52716247  0.39050830  1.0
  C  C33  1  0.97132045  0.47292871  0.60944689  1.0
  C  C34  1  0.33069698  0.89048880  0.97303921  1.0
  C  C35  1  0.19415906  0.10946155  0.02705765  1.0
  C  C36  1  0.69635788  0.10944370  0.97304846  1.0
  C  C37  1  0.77877771  0.89051216  0.02708081  1.0
  C  C38  1  0.41924781  0.52706344  0.60946332  1.0
  C  C39  1  0.55586139  0.47288990  0.39053158  1.0
  C  C40  1  0.18861251  0.50005202  0.49994852  1.0
  C  C41  1  0.43859914  0.00002435  0.99995714  1.0
  C  C42  1  0.56141736  0.00002661  0.99999220  1.0
  C  C43  1  0.31141406  0.50006543  0.49995270  1.0
  C  C44  1  0.16727368  0.53116709  0.39177323  1.0
  C  C45  1  0.09023707  0.46892742  0.60812516  1.0
  C  C46  1  0.44834092  0.89180041  0.96895896  1.0
  C  C47  1  0.30907010  0.10821612  0.03100904  1.0
  C  C48  1  0.58274741  0.10820693  0.96897349  1.0
  C  C49  1  0.65984887  0.89184999  0.03108906  1.0
  C  C50  1  0.30160871  0.53115492  0.60815012  1.0
  C  C51  1  0.44094442  0.46892787  0.39179790  1.0
  O  O52  1  0.10417800  0.61299047  0.18736275  1.0
  O  O53  1  0.90456666  0.38705913  0.81259474  1.0
  O  O54  1  0.46712722  0.68735352  0.88715418  1.0
  O  O55  1  0.04150023  0.31255228  0.11305072  1.0
  O  O56  1  0.64576269  0.31256510  0.88716285  1.0
  O  O57  1  0.84539854  0.68738394  0.11294541  1.0
  O  O58  1  0.28279760  0.61286447  0.81261596  1.0
  O  O59  1  0.70845285  0.38697640  0.18741780  1.0
  O  O60  1  0.12666954  0.49829137  0.99820081  1.0
  O  O61  1  0.62327594  0.50177592  0.00168692  1.0
  O  O62  1  0.37497990  0.49825410  0.00170386  1.0
  O  O63  1  0.87493297  0.50175886  0.99827895  1.0
  O  O64  1  0.98037188  0.49664770  0.25899595  1.0
  O  O65  1  0.73603291  0.50332419  0.74095913  1.0
  O  O66  1  0.22694401  0.75901113  0.00332502  1.0
  O  O67  1  0.98938969  0.24099376  0.99658009  1.0
  O  O68  1  0.76974417  0.24094856  0.00336434  1.0
  O  O69  1  0.01399972  0.75896323  0.99666471  1.0
  O  O70  1  0.52299933  0.49669330  0.74098070  1.0
  O  O71  1  0.76062934  0.50339022  0.25899352  1.0
