# generated using pymatgen
data_ZnH16C23NO4
_symmetry_space_group_name_H-M   'P 1'
_cell_length_a   10.91957154
_cell_length_b   14.78184291
_cell_length_c   16.16863423
_cell_angle_alpha   92.88523460
_cell_angle_beta   92.21012240
_cell_angle_gamma   94.21253257
_symmetry_Int_Tables_number   1
_chemical_formula_structural   ZnH16C23NO4
_chemical_formula_sum   'Zn2 H32 C46 N2 O8'
_cell_volume   2597.11087919
_cell_formula_units_Z   2
loop_
 _symmetry_equiv_pos_site_id
 _symmetry_equiv_pos_as_xyz
  1  'x, y, z'
loop_
 _atom_site_type_symbol
 _atom_site_label
 _atom_site_symmetry_multiplicity
 _atom_site_fract_x
 _atom_site_fract_y
 _atom_site_fract_z
 _atom_site_occupancy
  Zn  Zn0  1  0.51124237  0.59492042  0.50285594  1.0
  Zn  Zn1  1  0.48878290  0.40506848  0.49714561  1.0
  H  H2  1  0.73425010  0.21717782  0.77320156  1.0
  H  H3  1  0.26575768  0.78283608  0.22681332  1.0
  H  H4  1  0.68475201  0.92513523  0.54952510  1.0
  H  H5  1  0.31524790  0.07485432  0.45044385  1.0
  H  H6  1  0.69183077  0.38096891  0.77785669  1.0
  H  H7  1  0.30816634  0.61904220  0.22213752  1.0
  H  H8  1  0.78544769  0.48347206  0.67791081  1.0
  H  H9  1  0.21455518  0.51653022  0.32207708  1.0
  H  H10  1  0.96084511  0.26034117  0.56385341  1.0
  H  H11  1  0.03918826  0.73965194  0.43617375  1.0
  H  H12  1  0.87088799  0.15749647  0.66633533  1.0
  H  H13  1  0.12912958  0.84250846  0.33369125  1.0
  H  H14  1  0.11579741  0.38884789  0.57360489  1.0
  H  H15  1  0.88423365  0.61114463  0.42640056  1.0
  H  H16  1  0.67363837  0.57025255  0.92539169  1.0
  H  H17  1  0.32634239  0.42975776  0.07461212  1.0
  H  H18  1  0.68799545  0.09519730  0.55356052  1.0
  H  H19  1  0.31199886  0.90478887  0.44641382  1.0
  H  H20  1  0.97740570  0.59274844  0.13572763  1.0
  H  H21  1  0.89537900  0.57527134  0.22688330  1.0
  H  H22  1  0.98259357  0.48864153  0.18527643  1.0
  H  H23  1  0.75760393  0.45129145  0.15047739  1.0
  H  H24  1  0.83841568  0.46742319  0.05928399  1.0
  H  H25  1  0.77394563  0.62556830  0.05459488  1.0
  H  H26  1  0.69911847  0.61316790  0.14926386  1.0
  H  H27  1  0.10460114  0.42471509  0.77311431  1.0
  H  H28  1  0.02257339  0.40725086  0.86427091  1.0
  H  H29  1  0.01739514  0.51135429  0.81470982  1.0
  H  H30  1  0.16156615  0.53257932  0.94070478  1.0
  H  H31  1  0.24237931  0.54870429  0.84951062  1.0
  H  H32  1  0.30087634  0.38683191  0.85074054  1.0
  H  H33  1  0.22604041  0.37443871  0.94540770  1.0
  C  C34  1  0.51176599  0.49347036  0.33862238  1.0
  C  C35  1  0.48823992  0.50653231  0.66137857  1.0
  C  C36  1  0.12563399  0.49477358  0.48825708  1.0
  C  C37  1  0.87439178  0.50520918  0.51174184  1.0
  C  C38  1  0.06248495  0.55981833  0.44602015  1.0
  C  C39  1  0.93754213  0.44016933  0.55398388  1.0
  C  C40  1  0.59794095  0.53949058  0.95909199  1.0
  C  C41  1  0.40203793  0.46051964  0.04090993  1.0
  C  C42  1  0.49193300  0.50223846  0.91347066  1.0
  C  C43  1  0.50804822  0.49776502  0.08653050  1.0
  C  C44  1  0.39135867  0.46180564  0.95497487  1.0
  C  C45  1  0.60862110  0.53820394  0.04502766  1.0
  C  C46  1  0.48810826  0.50475184  0.82605071  1.0
  C  C47  1  0.51187038  0.49525430  0.17395110  1.0
  C  C48  1  0.51333971  0.49342598  0.24927036  1.0
  C  C49  1  0.48664164  0.50658018  0.75072963  1.0
  C  C50  1  0.60491155  0.95887905  0.52815074  1.0
  C  C51  1  0.39508094  0.04110710  0.47182419  1.0
  C  C52  1  0.49829999  0.90631675  0.49800830  1.0
  C  C53  1  0.50168903  0.09366954  0.50197585  1.0
  C  C54  1  0.39318399  0.94706581  0.46974217  1.0
  C  C55  1  0.60681034  0.05292037  0.53023279  1.0
  C  C56  1  0.73775721  0.50924054  0.51262718  1.0
  C  C57  1  0.26226747  0.49073946  0.48737104  1.0
  C  C58  1  0.49853261  0.81024246  0.49734227  1.0
  C  C59  1  0.50146127  0.18974742  0.50264515  1.0
  C  C60  1  0.75118603  0.35403212  0.73135123  1.0
  C  C61  1  0.24882215  0.64597742  0.26865117  1.0
  C  C62  1  0.80328509  0.41173572  0.67455559  1.0
  C  C63  1  0.19672634  0.58826773  0.32544424  1.0
  C  C64  1  0.87918774  0.37900094  0.61336876  1.0
  C  C65  1  0.12084004  0.62099638  0.38664171  1.0
  C  C66  1  0.90246912  0.28670892  0.61131516  1.0
  C  C67  1  0.09755902  0.71329071  0.38870652  1.0
  C  C68  1  0.85065291  0.22884838  0.66832448  1.0
  C  C69  1  0.14936734  0.77115654  0.33169905  1.0
  C  C70  1  0.77459067  0.26225345  0.72850187  1.0
  C  C71  1  0.22542152  0.73775783  0.27151240  1.0
  C  C72  1  0.06298044  0.43641606  0.54037287  1.0
  C  C73  1  0.93704646  0.56356948  0.45962800  1.0
  C  C74  1  0.72399847  0.57614150  0.09221259  1.0
  C  C75  1  0.80978857  0.50271380  0.11622455  1.0
  C  C76  1  0.92234968  0.54187579  0.16874474  1.0
  C  C77  1  0.27598917  0.42386212  0.90778869  1.0
  C  C78  1  0.19019574  0.49728340  0.88376661  1.0
  C  C79  1  0.07763264  0.45811803  0.83124877  1.0
  N  N80  1  0.49758184  0.26781804  0.50125165  1.0
  N  N81  1  0.50243109  0.73216696  0.49874031  1.0
  O  O82  1  0.52439127  0.57135394  0.37676578  1.0
  O  O83  1  0.47563930  0.42864662  0.62323678  1.0
  O  O84  1  0.49697981  0.41649377  0.37018697  1.0
  O  O85  1  0.50301774  0.58350797  0.62981134  1.0
  O  O86  1  0.69661076  0.58770340  0.51557048  1.0
  O  O87  1  0.30341041  0.41227544  0.48443879  1.0
  O  O88  1  0.67409138  0.43346804  0.50684271  1.0
  O  O89  1  0.32593839  0.56650970  0.49314193  1.0
