# generated using pymatgen
data_Zn3H19C22N2O13
_symmetry_space_group_name_H-M   'P 1'
_cell_length_a   18.65969519
_cell_length_b   18.70487957
_cell_length_c   18.87749582
_cell_angle_alpha   109.41294822
_cell_angle_beta   108.76281616
_cell_angle_gamma   109.74868424
_symmetry_Int_Tables_number   1
_chemical_formula_structural   Zn3H19C22N2O13
_chemical_formula_sum   'Zn6 H38 C44 N4 O26'
_cell_volume   5102.13143412
_cell_formula_units_Z   2
loop_
 _symmetry_equiv_pos_site_id
 _symmetry_equiv_pos_as_xyz
  1  'x, y, z'
loop_
 _atom_site_type_symbol
 _atom_site_label
 _atom_site_symmetry_multiplicity
 _atom_site_fract_x
 _atom_site_fract_y
 _atom_site_fract_z
 _atom_site_occupancy
  Zn  Zn0  1  0.47982038  0.54497822  0.55626385  1.0
  Zn  Zn1  1  0.48440466  0.43210219  0.42811762  1.0
  Zn  Zn2  1  0.05428442  0.98125023  0.56914169  1.0
  Zn  Zn3  1  0.93234638  0.97975301  0.44504309  1.0
  Zn  Zn4  1  0.06181894  0.55704930  0.98905121  1.0
  Zn  Zn5  1  0.93133538  0.44048671  0.99156546  1.0
  H  H6  1  0.65290065  0.79168001  0.40679558  1.0
  H  H7  1  0.27161226  0.50854458  0.31908119  1.0
  H  H8  1  0.07997534  0.13062035  0.33922354  1.0
  H  H9  1  0.21126555  0.19297132  0.52502665  1.0
  H  H10  1  0.24234316  0.33786772  0.52163240  1.0
  H  H11  1  0.69110094  0.40294954  0.80664935  1.0
  H  H12  1  0.82448820  0.51573215  0.77176986  1.0
  H  H13  1  0.68813185  0.41333312  0.61616263  1.0
  H  H14  1  0.91982065  0.64159575  0.15330037  1.0
  H  H15  1  0.63744577  0.82431608  0.55883194  1.0
  H  H16  1  0.07835964  0.78890876  0.37505110  1.0
  H  H17  1  0.16911693  0.40143695  0.86591338  1.0
  H  H18  1  0.98069284  0.26639889  0.80417736  1.0
  H  H19  1  0.17197821  0.25847341  0.79732742  1.0
  H  H20  1  0.98221543  0.20159652  0.67727836  1.0
  H  H21  1  0.81880043  0.70816930  0.48457310  1.0
  H  H22  1  0.63420437  0.62637310  0.38453363  1.0
  H  H23  1  0.22215644  0.47522548  0.10652527  1.0
  H  H24  1  0.11387271  0.40991989  0.18790471  1.0
  H  H25  1  0.31396665  0.41980424  0.18118101  1.0
  H  H26  1  0.29269140  0.25836074  0.35227745  1.0
  H  H27  1  0.23206360  0.11901616  0.23964563  1.0
  H  H28  1  0.12730131  0.09721506  0.22750246  1.0
  H  H29  1  0.19475952  0.07717932  0.30071536  1.0
  H  H30  1  0.59986856  0.45774636  0.78561187  1.0
  H  H31  1  0.16114336  0.78934927  0.19627148  1.0
  H  H32  1  0.20393135  0.92924245  0.28806113  1.0
  H  H33  1  0.15150261  0.89286356  0.34355212  1.0
  H  H34  1  0.09006187  0.89298929  0.25006324  1.0
  H  H35  1  0.88670163  0.80483394  0.28589289  1.0
  H  H36  1  0.79605067  0.76606391  0.14476803  1.0
  H  H37  1  0.78765302  0.66165017  0.11605509  1.0
  H  H38  1  0.86928286  0.74244805  0.11288691  1.0
  H  H39  1  0.88744222  0.94404962  0.68769069  1.0
  H  H40  1  0.77751073  0.72791472  0.68328584  1.0
  H  H41  1  0.91997588  0.74196100  0.73121094  1.0
  H  H42  1  0.93000801  0.84128540  0.73367009  1.0
  H  H43  1  0.92425219  0.75992217  0.64571130  1.0
  C  C44  1  0.37344433  0.47530276  0.35360539  1.0
  C  C45  1  0.77708326  0.73228249  0.50044336  1.0
  C  C46  1  0.67605000  0.68886822  0.44458214  1.0
  C  C47  1  0.66556565  0.70627368  0.52653196  1.0
  C  C48  1  0.21030542  0.45417101  0.15124979  1.0
  C  C49  1  0.13419005  0.43859926  0.15121211  1.0
  C  C50  1  0.27793871  0.44578628  0.20684510  1.0
  C  C51  1  0.30203555  0.47590706  0.29090924  1.0
  C  C52  1  0.14140129  0.17100668  0.40006108  1.0
  C  C53  1  0.14840424  0.15644582  0.46628970  1.0
  C  C54  1  0.21758797  0.23711250  0.40635984  1.0
  C  C55  1  0.60084386  0.63539810  0.52854659  1.0
  C  C56  1  0.26620361  0.32086905  0.47666838  1.0
  C  C57  1  0.71269642  0.43627504  0.77329095  1.0
  C  C58  1  0.79860949  0.47803730  0.79970185  1.0
  C  C59  1  0.64666495  0.43927101  0.70850427  1.0
  C  C60  1  0.64408692  0.43146028  0.63341119  1.0
  C  C61  1  0.01815405  0.86016121  0.42140290  1.0
  C  C62  1  0.85504668  0.88364644  0.50478915  1.0
  C  C63  1  0.03314382  0.11626689  0.64083895  1.0
  C  C64  1  0.07885221  0.08755106  0.46530122  1.0
  C  C65  1  0.03041422  0.40352924  0.88582492  1.0
  C  C66  1  0.58375737  0.44349178  0.57200550  1.0
  C  C67  1  0.07305450  0.45599399  0.09701181  1.0
  C  C68  1  0.03483952  0.64516318  0.11164573  1.0
  C  C69  1  0.86394878  0.48037428  0.87156868  1.0
  C  C70  1  0.97770843  0.70521848  0.20129279  1.0
  C  C71  1  0.04720676  0.72009537  0.18674347  1.0
  C  C72  1  0.96740413  0.76194692  0.26732302  1.0
  C  C73  1  0.02577483  0.80313969  0.35533128  1.0
  C  C74  1  0.11005547  0.33736828  0.82920315  1.0
  C  C75  1  0.03791592  0.33048846  0.83465363  1.0
  C  C76  1  0.11150757  0.26111456  0.77677860  1.0
  C  C77  1  0.34509100  0.38847795  0.49210401  1.0
  C  C78  1  0.04013088  0.19550183  0.70163010  1.0
  C  C79  1  0.67684883  0.79783374  0.54092804  1.0
  C  C80  1  0.68534663  0.77935552  0.45720228  1.0
  C  C81  1  0.78621307  0.82271935  0.51150322  1.0
  C  C82  1  0.77777226  0.84179977  0.59625804  1.0
  C  C83  1  0.76820026  0.74914865  0.58361001  1.0
  C  C84  1  0.19513853  0.12176146  0.27446731  1.0
  C  C85  1  0.14357864  0.88167952  0.27984330  1.0
  C  C86  1  0.83396223  0.73230957  0.14855008  1.0
  C  C87  1  0.89919644  0.77004460  0.69134824  1.0
  N  N88  1  0.23604441  0.21133192  0.34161674  1.0
  N  N89  1  0.12528590  0.79468242  0.22626177  1.0
  N  N90  1  0.89399127  0.76738267  0.23803632  1.0
  N  N91  1  0.80384428  0.72458324  0.64334170  1.0
  O  O92  1  0.39949807  0.52460799  0.43224486  1.0
  O  O93  1  0.95521360  0.87799680  0.40020592  1.0
  O  O94  1  0.93375294  0.91112473  0.55848033  1.0
  O  O95  1  0.83118907  0.90417447  0.44587948  1.0
  O  O96  1  0.08418336  0.08773658  0.66773112  1.0
  O  O97  1  0.97402495  0.08159244  0.56348242  1.0
  O  O98  1  0.10516095  0.06481057  0.52038761  1.0
  O  O99  1  0.99779803  0.05493666  0.41083830  1.0
  O  O100  1  0.08709473  0.48293699  0.91263375  1.0
  O  O101  1  0.96686922  0.38279894  0.90117345  1.0
  O  O102  1  0.10365122  0.51234214  0.07587089  1.0
  O  O103  1  0.40396286  0.42596220  0.32595361  1.0
  O  O104  1  0.99110152  0.41233656  0.07356863  1.0
  O  O105  1  0.08932029  0.66451743  0.08337624  1.0
  O  O106  1  0.97280959  0.56925148  0.08039224  1.0
  O  O107  1  0.94382379  0.53149632  0.89830105  1.0
  O  O108  1  0.83572569  0.43220291  0.90278937  1.0
  O  O109  1  0.57187644  0.65453769  0.58175867  1.0
  O  O110  1  0.57877809  0.55827381  0.47626436  1.0
  O  O111  1  0.55884441  0.49655437  0.60097403  1.0
  O  O112  1  0.56154755  0.40042095  0.49156189  1.0
  O  O113  1  0.38014941  0.46704085  0.55526064  1.0
  O  O114  1  0.37838355  0.36894323  0.44290795  1.0
  O  O115  1  0.07407287  0.89403545  0.50231441  1.0
  O  O116  1  0.58477967  0.44904285  0.72782862  1.0
  O  O117  1  0.82586541  0.92201238  0.67144776  1.0
