# generated using pymatgen
data_AlH15C24(NO)6
_symmetry_space_group_name_H-M   'P 1'
_cell_length_a   3.92897151
_cell_length_b   15.74233159
_cell_length_c   15.78868112
_cell_angle_alpha   60.76559049
_cell_angle_beta   87.37320556
_cell_angle_gamma   86.12081292
_symmetry_Int_Tables_number   1
_chemical_formula_structural   AlH15C24(NO)6
_chemical_formula_sum   'Al1 H15 C24 N6 O6'
_cell_volume   850.12029988
_cell_formula_units_Z   1
loop_
 _symmetry_equiv_pos_site_id
 _symmetry_equiv_pos_as_xyz
  1  'x, y, z'
loop_
 _atom_site_type_symbol
 _atom_site_label
 _atom_site_symmetry_multiplicity
 _atom_site_fract_x
 _atom_site_fract_y
 _atom_site_fract_z
 _atom_site_occupancy
  Al  Al0  1  0.99316585  0.49875357  0.99753208  1.0
  H  H1  1  0.66701465  0.85080139  0.10443184  1.0
  H  H2  1  0.72610200  0.04144637  0.35209670  1.0
  H  H3  1  0.78413056  0.60992036  0.53791167  1.0
  H  H4  1  0.19617372  0.74244629  0.73640465  1.0
  H  H5  1  0.20387011  0.84305208  0.55475180  1.0
  H  H6  1  0.24033200  0.23480827  0.02291047  1.0
  H  H7  1  0.23526271  0.05235819  0.10886297  1.0
  H  H8  1  0.18353730  0.52570758  0.24373858  1.0
  H  H9  1  0.19499979  0.60923830  0.34423107  1.0
  H  H10  1  0.79811244  0.73012451  0.96040115  1.0
  H  H11  1  0.87654316  0.82995221  0.97186132  1.0
  H  H12  1  0.92310838  0.46961670  0.79682279  1.0
  H  H13  1  0.03737506  0.48410631  0.68421604  1.0
  H  H14  1  0.87081870  0.29979544  0.22890427  1.0
  H  H15  1  0.95809035  0.18816225  0.32899332  1.0
  C  C16  1  0.45654926  0.57929927  0.07027512  1.0
  C  C17  1  0.50059270  0.57118503  0.84655291  1.0
  C  C18  1  0.51129136  0.34758765  0.07735646  1.0
  C  C19  1  0.44345389  0.63669118  0.12142939  1.0
  C  C20  1  0.50808288  0.24060232  0.13496005  1.0
  C  C21  1  0.50855730  0.62405598  0.73959241  1.0
  C  C22  1  0.58484691  0.72996640  0.07989526  1.0
  C  C23  1  0.56566534  0.77869284  0.13472588  1.0
  C  C24  1  0.65252124  0.18653621  0.22905648  1.0
  C  C25  1  0.62433538  0.08461043  0.27911771  1.0
  C  C26  1  0.68600821  0.58545695  0.68404623  1.0
  C  C27  1  0.66095753  0.63924228  0.58219644  1.0
  C  C28  1  0.33283103  0.71585389  0.69169182  1.0
  C  C29  1  0.33434986  0.77127959  0.59156696  1.0
  C  C30  1  0.35395302  0.19105079  0.09408146  1.0
  C  C31  1  0.34879246  0.09056972  0.14140275  1.0
  C  C32  1  0.29614986  0.59608104  0.21515373  1.0
  C  C33  1  0.30023081  0.64214325  0.27068597  1.0
  C  C34  1  0.43495613  0.73498077  0.22926000  1.0
  C  C35  1  0.44665805  0.78722079  0.28534631  1.0
  C  C36  1  0.48129921  0.03704267  0.23573279  1.0
  C  C37  1  0.47065352  0.92969867  0.28851281  1.0
  C  C38  1  0.49336612  0.73096203  0.53655371  1.0
  C  C39  1  0.47922782  0.78560647  0.42949921  1.0
  N  N40  1  0.44851168  0.88508907  0.23506623  1.0
  N  N41  1  0.48543205  0.88330832  0.38608615  1.0
  N  N42  1  0.46094764  0.73389464  0.38269325  1.0
  N  N43  1  0.72011871  0.77547169  0.98715565  1.0
  N  N44  1  0.85899202  0.49580742  0.72634561  1.0
  N  N45  1  0.79780229  0.23085753  0.27391567  1.0
  O  O46  1  0.28606206  0.39192090  0.01153177  1.0
  O  O47  1  0.23456035  0.51588436  0.09130045  1.0
  O  O48  1  0.25256383  0.59147451  0.89024423  1.0
  O  O49  1  0.73725665  0.39248895  0.09467964  1.0
  O  O50  1  0.74246292  0.50696281  0.89183887  1.0
  O  O51  1  0.69560063  0.59521512  0.00632030  1.0
