# generated using pymatgen
data_Al2H25C35NO10
_symmetry_space_group_name_H-M   'P 1'
_cell_length_a   6.69508485
_cell_length_b   23.60347238
_cell_length_c   25.98423707
_cell_angle_alpha   101.80451055
_cell_angle_beta   89.99973478
_cell_angle_gamma   89.99992066
_symmetry_Int_Tables_number   1
_chemical_formula_structural   Al2H25C35NO10
_chemical_formula_sum   'Al4 H50 C70 N2 O20'
_cell_volume   4019.37632004
_cell_formula_units_Z   2
loop_
 _symmetry_equiv_pos_site_id
 _symmetry_equiv_pos_as_xyz
  1  'x, y, z'
loop_
 _atom_site_type_symbol
 _atom_site_label
 _atom_site_symmetry_multiplicity
 _atom_site_fract_x
 _atom_site_fract_y
 _atom_site_fract_z
 _atom_site_occupancy
  Al  Al0  1  0.10707228  0.50049489  0.49962422  1.0
  Al  Al1  1  0.60707191  0.49950555  0.50037584  1.0
  Al  Al2  1  0.70343378  0.99942247  0.00029977  1.0
  Al  Al3  1  0.20343388  0.00057944  0.99970134  1.0
  H  H4  1  0.62488102  0.10272705  0.89660370  1.0
  H  H5  1  0.12487736  0.89727101  0.10339712  1.0
  H  H6  1  0.60746266  0.16834279  0.83286743  1.0
  H  H7  1  0.10745971  0.83165399  0.16713144  1.0
  H  H8  1  0.25056358  0.17044928  0.82587892  1.0
  H  H9  1  0.75055830  0.82955490  0.17412488  1.0
  H  H10  1  0.26474671  0.10616154  0.89089289  1.0
  H  H11  1  0.76474225  0.89384220  0.10911089  1.0
  H  H12  1  0.18054939  0.26222907  0.81509407  1.0
  H  H13  1  0.68056082  0.73777568  0.18491022  1.0
  H  H14  1  0.15935513  0.32657616  0.75194292  1.0
  H  H15  1  0.65937175  0.67342766  0.24806100  1.0
  H  H16  1  0.62917972  0.23733819  0.68465582  1.0
  H  H17  1  0.12917302  0.76265731  0.31534302  1.0
  H  H18  1  0.65063835  0.17295628  0.74774951  1.0
  H  H19  1  0.15062348  0.82703921  0.25224930  1.0
  H  H20  1  0.55924918  0.32906658  0.67356787  1.0
  H  H21  1  0.05925620  0.67092801  0.32642870  1.0
  H  H22  1  0.54586663  0.39336167  0.60853938  1.0
  H  H23  1  0.04586537  0.60663328  0.39145878  1.0
  H  H24  1  0.18577564  0.39677333  0.60321874  1.0
  H  H25  1  0.68577656  0.60323372  0.39678829  1.0
  H  H26  1  0.20235607  0.33119414  0.66699361  1.0
  H  H27  1  0.70236076  0.66881094  0.33301223  1.0
  H  H28  1  0.81071898  0.22571865  0.33551848  1.0
  H  H29  1  0.31063290  0.77428091  0.66448562  1.0
  H  H30  1  0.86299995  0.15058390  0.26314037  1.0
  H  H31  1  0.36290026  0.84941572  0.73686406  1.0
  H  H32  1  0.22352215  0.24157813  0.20431966  1.0
  H  H33  1  0.72355411  0.75844321  0.79566221  1.0
  H  H34  1  0.15910668  0.25892092  0.31923101  1.0
  H  H35  1  0.65905262  0.74109718  0.68075526  1.0
  H  H36  1  0.19887038  0.31201548  0.28116230  1.0
  H  H37  1  0.69889956  0.68800360  0.71882078  1.0
  H  H38  1  0.68670099  0.24861149  0.17502210  1.0
  H  H39  1  0.18676754  0.75137396  0.82498882  1.0
  H  H40  1  0.92628425  0.27396801  0.16282665  1.0
  H  H41  1  0.42638358  0.72603202  0.83717023  1.0
  H  H42  1  0.65512923  0.32549147  0.24764057  1.0
  H  H43  1  0.15520044  0.67449298  0.75236960  1.0
  H  H44  1  0.64928367  0.17253516  0.23339004  1.0
  H  H45  1  0.14922540  0.82745085  0.76662329  1.0
  H  H46  1  0.60485922  0.25061584  0.30405845  1.0
  H  H47  1  0.10481602  0.74936958  0.69595218  1.0
  H  H48  1  0.89813889  0.34933988  0.23643133  1.0
  H  H49  1  0.39824587  0.65066153  0.76356597  1.0
  H  H50  1  0.35528905  0.42427319  0.48139906  1.0
  H  H51  1  0.85529097  0.57572718  0.51860302  1.0
  H  H52  1  0.45569154  0.07553426  0.01921912  1.0
  H  H53  1  0.95568952  0.92446716  0.98078597  1.0
  C  C54  1  0.45288984  0.92321235  0.92221426  1.0
  C  C55  1  0.95288711  0.07679006  0.07778573  1.0
  C  C56  1  0.35705777  0.57664514  0.57786434  1.0
  C  C57  1  0.85704722  0.42335504  0.42213499  1.0
  C  C58  1  0.35877821  0.56309589  0.43721652  1.0
  C  C59  1  0.85877408  0.43690439  0.56278516  1.0
  C  C60  1  0.76062398  0.11803646  0.88076166  1.0
  C  C61  1  0.26062162  0.88196226  0.11923858  1.0
  C  C62  1  0.75219414  0.15421256  0.84485364  1.0
  C  C63  1  0.25218984  0.84578532  0.15514661  1.0
  C  C64  1  0.92780519  0.17418562  0.82464285  1.0
  C  C65  1  0.42780362  0.82581419  0.17535874  1.0
  C  C66  1  0.11265036  0.15647220  0.84188223  1.0
  C  C67  1  0.61264679  0.84353012  0.15812057  1.0
  C  C68  1  0.12172993  0.12028284  0.87789239  1.0
  C  C69  1  0.62172681  0.87971990  0.12211040  1.0
  C  C70  1  0.94553714  0.10082472  0.89775861  1.0
  C  C71  1  0.44553499  0.89917499  0.10224257  1.0
  C  C72  1  0.06071548  0.25594938  0.78603514  1.0
  C  C73  1  0.56072338  0.74405288  0.21396734  1.0
  C  C74  1  0.04872930  0.29232796  0.75027728  1.0
  C  C75  1  0.54873974  0.70767422  0.24972482  1.0
  C  C76  1  0.89264277  0.28707395  0.71333653  1.0
  C  C77  1  0.39264579  0.71292580  0.28666471  1.0
  C  C78  1  0.74877166  0.24374796  0.71379284  1.0
  C  C79  1  0.24876849  0.75624908  0.28620741  1.0
  C  C80  1  0.76080713  0.20733625  0.74952940  1.0
  C  C81  1  0.26079993  0.79266112  0.25047044  1.0
  C  C82  1  0.91684066  0.21263020  0.78650573  1.0
  C  C83  1  0.41684011  0.78737038  0.21349549  1.0
  C  C84  1  0.69735955  0.34323275  0.65781058  1.0
  C  C85  1  0.19736338  0.65676473  0.34218777  1.0
  C  C86  1  0.68869670  0.37941039  0.62178586  1.0
  C  C87  1  0.18870457  0.62058752  0.37821251  1.0
  C  C88  1  0.86504859  0.39893389  0.60205429  1.0
  C  C89  1  0.36505322  0.60106681  0.39794738  1.0
  C  C90  1  0.04980564  0.38165457  0.61912171  1.0
  C  C91  1  0.54980826  0.61834890  0.38088236  1.0
  C  C92  1  0.05781278  0.34549074  0.65505059  1.0
  C  C93  1  0.55781884  0.65451263  0.34495308  1.0
  C  C94  1  0.88199191  0.32551758  0.67519705  1.0
  C  C95  1  0.38199744  0.67448251  0.32480382  1.0
  C  C96  1  0.79265432  0.18791277  0.25124116  1.0
  C  C97  1  0.29259495  0.81208207  0.74876453  1.0
  C  C98  1  0.13458804  0.22552939  0.23403353  1.0
  C  C99  1  0.63457562  0.77448611  0.76595434  1.0
  C  C100  1  0.10821290  0.27410201  0.28423930  1.0
  C  C101  1  0.60820012  0.72591148  0.71574899  1.0
  C  C102  1  0.85908058  0.37775348  0.37572435  1.0
  C  C103  1  0.35908112  0.62224788  0.62427458  1.0
  C  C104  1  0.92516379  0.20721524  0.20921350  1.0
  C  C105  1  0.42515755  0.79278684  0.79078496  1.0
  C  C106  1  0.76309478  0.23834097  0.29900551  1.0
  C  C107  1  0.26304546  0.76165279  0.70100100  1.0
  C  C108  1  0.88572048  0.29178757  0.29165808  1.0
  C  C109  1  0.38572359  0.70821412  0.70834042  1.0
  C  C110  1  0.81132152  0.31141588  0.24164333  1.0
  C  C111  1  0.31138209  0.68858021  0.75836037  1.0
  C  C112  1  0.83228820  0.26126520  0.19326263  1.0
  C  C113  1  0.33234617  0.73872976  0.80673987  1.0
  C  C114  1  0.86706001  0.33860188  0.33728583  1.0
  C  C115  1  0.36705818  0.66139803  0.66271231  1.0
  C  C116  1  0.94308044  0.16095122  0.16312325  1.0
  C  C117  1  0.44308211  0.83905162  0.83687676  1.0
  C  C118  1  0.95050723  0.12241545  0.12423297  1.0
  C  C119  1  0.45050802  0.87758576  0.87576545  1.0
  C  C120  1  0.45195935  0.93712185  0.06293958  1.0
  C  C121  1  0.95195802  0.06287819  0.93706119  1.0
  C  C122  1  0.23976670  0.17604010  0.24654403  1.0
  C  C123  1  0.73970198  0.82398165  0.75343782  1.0
  N  N124  1  0.32270067  0.13720371  0.25843327  1.0
  N  N125  1  0.82260758  0.86282093  0.74154651  1.0
  O  O126  1  0.52671176  0.54817824  0.45337790  1.0
  O  O127  1  0.02671602  0.45182558  0.54662580  1.0
  O  O128  1  0.18688687  0.55953077  0.55899086  1.0
  O  O129  1  0.68688487  0.44047188  0.44100595  1.0
  O  O130  1  0.18749575  0.54918370  0.45225171  1.0
  O  O131  1  0.68750376  0.45081412  0.54774627  1.0
  O  O132  1  0.02716657  0.44174425  0.44015916  1.0
  O  O133  1  0.52716934  0.55825414  0.55984296  1.0
  O  O134  1  0.78404070  0.04796057  0.95323380  1.0
  O  O135  1  0.28404075  0.95203617  0.04676325  1.0
  O  O136  1  0.35643443  0.46535397  0.49640612  1.0
  O  O137  1  0.85643533  0.53464689  0.50359439  1.0
  O  O138  1  0.62321458  0.94019976  0.94102183  1.0
  O  O139  1  0.12321598  0.05979916  0.05898095  1.0
  O  O140  1  0.45415633  0.03463216  0.00351139  1.0
  O  O141  1  0.95415532  0.96536917  0.99649134  1.0
  O  O142  1  0.28294108  0.94162377  0.94027026  1.0
  O  O143  1  0.78294025  0.05838078  0.05972760  1.0
  O  O144  1  0.62326273  0.95085577  0.04778690  1.0
  O  O145  1  0.12326342  0.04914765  0.95221707  1.0
