# generated using pymatgen
data_ZnH8C23I2(NO3)2
_symmetry_space_group_name_H-M   'P 1'
_cell_length_a   13.83283443
_cell_length_b   15.31794635
_cell_length_c   16.11447969
_cell_angle_alpha   90.64111505
_cell_angle_beta   90.10652527
_cell_angle_gamma   90.88497882
_symmetry_Int_Tables_number   1
_chemical_formula_structural   ZnH8C23I2(NO3)2
_chemical_formula_sum   'Zn2 H16 C46 I4 N4 O12'
_cell_volume   3413.87894468
_cell_formula_units_Z   2
loop_
 _symmetry_equiv_pos_site_id
 _symmetry_equiv_pos_as_xyz
  1  'x, y, z'
loop_
 _atom_site_type_symbol
 _atom_site_label
 _atom_site_symmetry_multiplicity
 _atom_site_fract_x
 _atom_site_fract_y
 _atom_site_fract_z
 _atom_site_occupancy
  Zn  Zn0  1  0.59967693  0.49972565  0.49995361  1.0
  Zn  Zn1  1  0.40032264  0.50027349  0.50004748  1.0
  H  H2  1  0.41481873  0.36942787  0.94650592  1.0
  H  H3  1  0.58518085  0.63057192  0.05349393  1.0
  H  H4  1  0.58086155  0.36943920  0.05054132  1.0
  H  H5  1  0.41913803  0.63056059  0.94945915  1.0
  H  H6  1  0.33256940  0.50000855  0.05009357  1.0
  H  H7  1  0.66743090  0.49999125  0.94990752  1.0
  H  H8  1  0.40822355  0.77381086  0.59811155  1.0
  H  H9  1  0.59177676  0.22618956  0.40188334  1.0
  H  H10  1  0.64729006  0.92626215  0.32854829  1.0
  H  H11  1  0.35271240  0.07373698  0.67144722  1.0
  H  H12  1  0.75261829  0.60231747  0.58336581  1.0
  H  H13  1  0.24737841  0.39768363  0.41663653  1.0
  H  H14  1  0.74900222  0.40171570  0.40967272  1.0
  H  H15  1  0.25099878  0.59828218  0.59033457  1.0
  H  H16  1  0.08876743  0.33202023  0.36125137  1.0
  H  H17  1  0.91123283  0.66797571  0.63875901  1.0
  C  C18  1  0.49809146  0.32913410  0.50293564  1.0
  C  C19  1  0.50191172  0.67086439  0.49706235  1.0
  C  C20  1  0.50133310  0.50239060  0.66213209  1.0
  C  C21  1  0.49866575  0.49760855  0.33787086  1.0
  C  C22  1  0.54503066  0.42737927  0.02708933  1.0
  C  C23  1  0.45496819  0.57262052  0.97291114  1.0
  C  C24  1  0.45250736  0.42741303  0.97125648  1.0
  C  C25  1  0.54749296  0.57258809  0.02874524  1.0
  C  C26  1  0.50064164  0.50139757  0.75146646  1.0
  C  C27  1  0.49935503  0.49860155  0.24853152  1.0
  C  C28  1  0.59315954  0.50003650  0.97300055  1.0
  C  C29  1  0.40684004  0.49996330  0.02700055  1.0
  C  C30  1  0.50087929  0.50008035  0.91477679  1.0
  C  C31  1  0.49911885  0.49992009  0.08522245  1.0
  C  C32  1  0.50041287  0.50045292  0.82709362  1.0
  C  C33  1  0.49958236  0.49954623  0.17291180  1.0
  C  C34  1  0.44908691  0.81245213  0.55345041  1.0
  C  C35  1  0.55091483  0.18754700  0.44654572  1.0
  C  C36  1  0.50272564  0.76887556  0.49303189  1.0
  C  C37  1  0.49727611  0.23112488  0.50696424  1.0
  C  C38  1  0.55354683  0.81670846  0.43323299  1.0
  C  C39  1  0.44645420  0.18329131  0.56676066  1.0
  C  C40  1  0.55354137  0.90914100  0.43485349  1.0
  C  C41  1  0.44645891  0.09085614  0.56513890  1.0
  C  C42  1  0.50000789  0.95341597  0.49863285  1.0
  C  C43  1  0.49999385  0.04658315  0.50136017  1.0
  C  C44  1  0.44650265  0.90358436  0.55824033  1.0
  C  C45  1  0.55349911  0.09641605  0.44175147  1.0
  C  C46  1  0.60644170  0.96046108  0.37622088  1.0
  C  C47  1  0.39356147  0.03953675  0.62377586  1.0
  C  C48  1  0.60736524  0.04950951  0.38000554  1.0
  C  C49  1  0.39263505  0.95048960  0.61998810  1.0
  C  C50  1  0.79634627  0.55807251  0.54608153  1.0
  C  C51  1  0.20365188  0.44192860  0.45392081  1.0
  C  C52  1  0.79453459  0.44451171  0.44788927  1.0
  C  C53  1  0.20546423  0.55548549  0.55211429  1.0
  C  C54  1  0.89600155  0.44113445  0.44521593  1.0
  C  C55  1  0.10399582  0.55886145  0.55479010  1.0
  C  C56  1  0.94866434  0.50006925  0.49839761  1.0
  C  C57  1  0.05133230  0.49992664  0.50160718  1.0
  C  C58  1  0.89754581  0.56044952  0.54900402  1.0
  C  C59  1  0.10245229  0.43954769  0.45100264  1.0
  C  C60  1  0.95147158  0.38105525  0.39576988  1.0
  C  C61  1  0.04852940  0.61894070  0.60424112  1.0
  C  C62  1  0.05007096  0.37935199  0.39910816  1.0
  C  C63  1  0.94993078  0.62064785  0.60089853  1.0
  I  I64  1  0.62365628  0.74893287  0.33599756  1.0
  I  I65  1  0.37634688  0.25106366  0.66399918  1.0
  I  I66  1  0.69358363  0.11809676  0.29370063  1.0
  I  I67  1  0.30641883  0.88190171  0.70629488  1.0
  N  N68  1  0.74812673  0.50097492  0.49745437  1.0
  N  N69  1  0.25187140  0.49902488  0.50254735  1.0
  N  N70  1  0.90382801  0.31955649  0.33654536  1.0
  N  N71  1  0.09616860  0.68043748  0.66346686  1.0
  O  O72  1  0.58099291  0.36599741  0.50216087  1.0
  O  O73  1  0.41900954  0.63400109  0.49783898  1.0
  O  O74  1  0.41687539  0.36628858  0.49831246  1.0
  O  O75  1  0.58312852  0.63371059  0.50168864  1.0
  O  O76  1  0.58384457  0.50226478  0.62689700  1.0
  O  O77  1  0.41615356  0.49773502  0.37310471  1.0
  O  O78  1  0.41916645  0.50311318  0.62598292  1.0
  O  O79  1  0.58083312  0.49688531  0.37401816  1.0
  O  O80  1  0.82982032  0.34478490  0.30112502  1.0
  O  O81  1  0.94242633  0.24812814  0.32503015  1.0
  O  O82  1  0.17018498  0.65520908  0.69888040  1.0
  O  O83  1  0.05756877  0.75185998  0.67498948  1.0
