# generated using pymatgen
data_Al6H17C96I10Br17O28
_symmetry_space_group_name_H-M   'P 1'
_cell_length_a   13.80988941
_cell_length_b   14.06814636
_cell_length_c   26.87902718
_cell_angle_alpha   89.77406344
_cell_angle_beta   89.12922282
_cell_angle_gamma   62.09879251
_symmetry_Int_Tables_number   1
_chemical_formula_structural   Al6H17C96I10Br17O28
_chemical_formula_sum   'Al6 H17 C96 I10 Br17 O28'
_cell_volume   4614.44992231
_cell_formula_units_Z   1
loop_
 _symmetry_equiv_pos_site_id
 _symmetry_equiv_pos_as_xyz
  1  'x, y, z'
loop_
 _atom_site_type_symbol
 _atom_site_label
 _atom_site_symmetry_multiplicity
 _atom_site_fract_x
 _atom_site_fract_y
 _atom_site_fract_z
 _atom_site_occupancy
  Al  Al0  1  0.63117110  0.82825551  0.49328910  1.0
  Al  Al1  1  0.57169309  0.07756058  0.49986511  1.0
  Al  Al2  1  0.38692932  0.02290889  0.50446466  1.0
  Al  Al3  1  0.05960929  0.81231278  0.98308613  1.0
  Al  Al4  1  0.29227656  0.60188869  0.98680742  1.0
  Al  Al5  1  0.09143401  0.57258805  0.98542789  1.0
  H  H6  1  0.41662562  0.94365217  0.18052384  1.0
  H  H7  1  0.52600378  0.76096307  0.24319790  1.0
  H  H8  1  0.93839615  0.69065193  0.28558352  1.0
  H  H9  1  0.61993304  0.88125030  0.26192380  1.0
  H  H10  1  0.40960243  0.45101872  0.85964648  1.0
  H  H11  1  0.48038677  0.28002911  0.61964082  1.0
  H  H12  1  0.19205678  0.18306447  0.82099387  1.0
  H  H13  1  0.26024943  0.89287422  0.60341159  1.0
  H  H14  1  0.07134110  0.88832590  0.75228302  1.0
  H  H15  1  0.60790122  0.67690527  0.81262755  1.0
  H  H16  1  0.85421429  0.74508957  0.59584943  1.0
  H  H17  1  0.78096930  0.05808912  0.81653939  1.0
  H  H18  1  0.20225246  0.56154862  0.25172380  1.0
  H  H19  1  0.12717402  0.96753193  0.22475834  1.0
  H  H20  1  0.26506056  0.05237295  0.25891628  1.0
  H  H21  1  0.72022843  0.64513306  0.51245209  1.0
  H  H22  1  0.96579676  0.99228220  0.00961563  1.0
  C  C23  1  0.70583051  0.94656940  0.42308072  1.0
  C  C24  1  0.34028479  0.25789933  0.39875832  1.0
  C  C25  1  0.24936262  0.47435465  0.25533652  1.0
  C  C26  1  0.30340743  0.39575921  0.20921407  1.0
  C  C27  1  0.20557288  0.39777581  0.27672248  1.0
  C  C28  1  0.31273551  0.33542170  0.30821718  1.0
  C  C29  1  0.26033547  0.31781824  0.23194745  1.0
  C  C30  1  0.36803441  0.25694373  0.26239083  1.0
  C  C31  1  0.29435120  0.42432657  0.15819871  1.0
  C  C32  1  0.32278925  0.29785781  0.35746961  1.0
  C  C33  1  0.27610278  0.82357903  0.26332603  1.0
  C  C34  1  0.38182875  0.19422378  0.44280800  1.0
  C  C35  1  0.21595949  0.92325142  0.22895902  1.0
  C  C36  1  0.26627578  0.81721261  0.09477182  1.0
  C  C37  1  0.40748004  0.86889605  0.37611875  1.0
  C  C38  1  0.36175053  0.76179888  0.22060754  1.0
  C  C39  1  0.29958237  0.86281069  0.18514029  1.0
  C  C40  1  0.43753272  0.80852678  0.23870100  1.0
  C  C41  1  0.35466901  0.86899504  0.28262291  1.0
  C  C42  1  0.37693343  0.90898930  0.20460057  1.0
  C  C43  1  0.29232170  0.96940791  0.24738204  1.0
  C  C44  1  0.27725981  0.84776273  0.13565085  1.0
  C  C45  1  0.43701168  0.88153385  0.42577288  1.0
  C  C46  1  0.38275275  0.86979473  0.33278085  1.0
  C  C47  1  0.87979824  0.75265982  0.26134594  1.0
  C  C48  1  0.78884301  0.74381895  0.23057997  1.0
  C  C49  1  0.87042287  0.74052898  0.09065353  1.0
  C  C50  1  0.74786223  0.93246927  0.37264344  1.0
  C  C51  1  0.90921907  0.80237863  0.21520701  1.0
  C  C52  1  0.81795856  0.79264772  0.18343263  1.0
  C  C53  1  0.82325712  0.91878663  0.23239658  1.0
  C  C54  1  0.79278222  0.86903907  0.27948638  1.0
  C  C55  1  0.73216892  0.90845133  0.20172638  1.0
  C  C56  1  0.72463292  0.93343338  0.56368385  1.0
  C  C57  1  0.70225500  0.85899333  0.24778161  1.0
  C  C58  1  0.83848194  0.75905935  0.13365714  1.0
  C  C59  1  0.77231845  0.90641104  0.32924667  1.0
  C  C60  1  0.42251047  0.27079721  0.64440584  1.0
  C  C61  1  0.40963679  0.30711175  0.69370390  1.0
  C  C62  1  0.39544919  0.36318788  0.79680219  1.0
  C  C63  1  0.45796799  0.39159164  0.76200678  1.0
  C  C64  1  0.46188366  0.36741010  0.71222349  1.0
  C  C65  1  0.37694981  0.39879035  0.84647269  1.0
  C  C66  1  0.31141632  0.37533595  0.87948542  1.0
  C  C67  1  0.39818785  0.16846035  0.57539952  1.0
  C  C68  1  0.28032206  0.21775486  0.65561417  1.0
  C  C69  1  0.28307394  0.22868926  0.70808806  1.0
  C  C70  1  0.34666594  0.27773837  0.72736029  1.0
  C  C71  1  0.22945999  0.19342039  0.74484323  1.0
  C  C72  1  0.23082154  0.21372608  0.79448733  1.0
  C  C73  1  0.28097865  0.27409947  0.81320381  1.0
  C  C74  1  0.34213808  0.30412414  0.77895903  1.0
  C  C75  1  0.26966488  0.30671724  0.86353273  1.0
  C  C76  1  0.36261960  0.22265968  0.62520146  1.0
  C  C77  1  0.32434800  0.84132938  0.62866592  1.0
  C  C78  1  0.45429396  0.84186915  0.56505597  1.0
  C  C79  1  0.29658410  0.82138575  0.67621099  1.0
  C  C80  1  0.23860483  0.82411057  0.77846174  1.0
  C  C81  1  0.15668715  0.85884871  0.74094192  1.0
  C  C82  1  0.18527283  0.85606544  0.69192973  1.0
  C  C83  1  0.21148410  0.83559218  0.82993197  1.0
  C  C84  1  0.29308833  0.78033927  0.86578561  1.0
  C  C85  1  0.51637574  0.72727246  0.64435071  1.0
  C  C86  1  0.49468192  0.72808416  0.69628806  1.0
  C  C87  1  0.38123807  0.77414178  0.71236457  1.0
  C  C88  1  0.57452542  0.69366254  0.73538532  1.0
  C  C89  1  0.35682774  0.41254015  0.28596613  1.0
  C  C90  1  0.54506762  0.69984389  0.78453553  1.0
  C  C91  1  0.43454241  0.73755427  0.80042657  1.0
  C  C92  1  0.35147058  0.77624328  0.76367504  1.0
  C  C93  1  0.40368936  0.73709961  0.85065566  1.0
  C  C94  1  0.43306435  0.79825109  0.61252052  1.0
  C  C95  1  0.84378513  0.80416302  0.62422632  1.0
  C  C96  1  0.88492994  0.77049520  0.67162166  1.0
  C  C97  1  0.93366774  0.70033773  0.77240869  1.0
  C  C98  1  0.98439952  0.62637472  0.73131766  1.0
  C  C99  1  0.95458373  0.65927975  0.68320650  1.0
  C  C100  1  0.41171509  0.33369100  0.24077322  1.0
  C  C101  1  0.93747909  0.67141217  0.82321335  1.0
  C  C102  1  0.90787846  0.74884400  0.86177053  1.0
  C  C103  1  0.77381671  0.99087770  0.64765538  1.0
  C  C104  1  0.80961932  0.96139775  0.69732401  1.0
  C  C105  1  0.85842317  0.84875471  0.71015281  1.0
  C  C106  1  0.79690226  0.03364623  0.73818246  1.0
  C  C107  1  0.79674208  0.00132854  0.78623325  1.0
  C  C108  1  0.83302375  0.89166779  0.79914703  1.0
  C  C109  1  0.87755678  0.81290575  0.76061016  1.0
  C  C110  1  0.84623549  0.85801320  0.84914654  1.0
  C  C111  1  0.28133744  0.44493125  0.11388911  1.0
  C  C112  1  0.78369098  0.91290364  0.61222173  1.0
  C  C113  1  0.23740296  0.77764444  0.05134498  1.0
  C  C114  1  0.25984032  0.48194111  0.06304185  1.0
  C  C115  1  0.93614464  0.71716916  0.04617126  1.0
  C  C116  1  0.26169144  0.75397733  0.91576746  1.0
  C  C117  1  0.27552843  0.43954749  0.92659731  1.0
  C  C118  1  0.96423265  0.72006171  0.91137006  1.0
  I  I119  1  0.41542226  0.60342793  0.19486198  1.0
  I  I120  1  0.76071940  0.60871581  0.22716405  1.0
  I  I121  1  0.85258529  0.05188379  0.23502969  1.0
  I  I122  1  0.06598108  0.75681352  0.18414339  1.0
  I  I123  1  0.43716496  0.47238212  0.33209102  1.0
  I  I124  1  0.16622736  0.08592907  0.73140014  1.0
  I  I125  1  0.13815183  0.23164591  0.62138669  1.0
  I  I126  1  0.05173255  0.94986851  0.85065295  1.0
  I  I127  1  0.80971921  0.17795165  0.73422984  1.0
  I  I128  1  0.04728995  0.44538676  0.30533310  1.0
  Br  Br129  1  0.55522435  0.28852152  0.21599251  1.0
  Br  Br130  1  0.63345788  0.01115646  0.15658869  1.0
  Br  Br131  1  0.53174154  0.46580428  0.78610428  1.0
  Br  Br132  1  0.53146033  0.41860698  0.66582075  1.0
  Br  Br133  1  0.20098379  0.25232540  0.90892730  1.0
  Br  Br134  1  0.45203532  0.10655310  0.27104347  1.0
  Br  Br135  1  0.07389046  0.90276568  0.64319094  1.0
  Br  Br136  1  0.51696545  0.68491286  0.89881372  1.0
  Br  Br137  1  0.72551855  0.65491006  0.72517602  1.0
  Br  Br138  1  0.64981107  0.62062342  0.61636666  1.0
  Br  Br139  1  0.96218890  0.53122329  0.84138018  1.0
  Br  Br140  1  0.10862711  0.49189299  0.74149172  1.0
  Br  Br141  1  0.01253440  0.56079937  0.62943337  1.0
  Br  Br142  1  0.77559775  0.96326944  0.89948086  1.0
  Br  Br143  1  0.19418805  0.25213668  0.19360491  1.0
  Br  Br144  1  0.70143807  0.13819708  0.63061671  1.0
  Br  Br145  1  0.20487452  0.76926046  0.30780755  1.0
  O  O146  1  0.53451459  0.82393766  0.43915217  1.0
  O  O147  1  0.48358043  0.16590634  0.55480953  1.0
  O  O148  1  0.34776372  0.11958177  0.55805709  1.0
  O  O149  1  0.37248956  0.92859314  0.54899943  1.0
  O  O150  1  0.52868216  0.97807757  0.49870921  1.0
  O  O151  1  0.95543176  0.79056157  0.02958347  1.0
  O  O152  1  0.13668410  0.82410554  0.04057402  1.0
  O  O153  1  0.31427592  0.69694361  0.02817580  1.0
  O  O154  1  0.32628164  0.51185680  0.04310131  1.0
  O  O155  1  0.17578015  0.48562216  0.04238630  1.0
  O  O156  1  0.97484892  0.62021122  0.02899738  1.0
  O  O157  1  0.70907622  0.86299139  0.44215342  1.0
  O  O158  1  0.99092018  0.78934673  0.92657004  1.0
  O  O159  1  0.17442404  0.81843794  0.93759109  1.0
  O  O160  1  0.32625151  0.65778387  0.93110039  1.0
  O  O161  1  0.33572157  0.47632284  0.94519506  1.0
  O  O162  1  0.17967425  0.46186354  0.94333183  1.0
  O  O163  1  0.99059721  0.62974526  0.93251402  1.0
  O  O164  1  0.14867309  0.66066814  0.98553785  1.0
  O  O165  1  0.66578690  0.04022384  0.44337421  1.0
  O  O166  1  0.47219434  0.18677507  0.45855578  1.0
  O  O167  1  0.33043731  0.14665281  0.46112585  1.0
  O  O168  1  0.35886868  0.95570544  0.45189702  1.0
  O  O169  1  0.54863688  0.79911879  0.54554617  1.0
  O  O170  1  0.71123203  0.85651230  0.54736224  1.0
  O  O171  1  0.68831018  0.02605330  0.54242425  1.0
  O  O172  1  0.72641095  0.69176960  0.48747980  1.0
  O  O173  1  0.97483615  0.95174662  0.97939577  1.0
