# generated using pymatgen
data_Zr6H19C52S10N4Cl5O32
_symmetry_space_group_name_H-M   'P 1'
_cell_length_a   16.44656940
_cell_length_b   16.47015208
_cell_length_c   16.47490949
_cell_angle_alpha   88.50489672
_cell_angle_beta   60.23373959
_cell_angle_gamma   60.25429426
_symmetry_Int_Tables_number   1
_chemical_formula_structural   Zr6H19C52S10N4Cl5O32
_chemical_formula_sum   'Zr6 H19 C52 S10 N4 Cl5 O32'
_cell_volume   3216.63553054
_cell_formula_units_Z   1
loop_
 _symmetry_equiv_pos_site_id
 _symmetry_equiv_pos_as_xyz
  1  'x, y, z'
loop_
 _atom_site_type_symbol
 _atom_site_label
 _atom_site_symmetry_multiplicity
 _atom_site_fract_x
 _atom_site_fract_y
 _atom_site_fract_z
 _atom_site_occupancy
  Zr  Zr0  1  0.48852815  0.39968788  0.90206880  1.0
  Zr  Zr1  1  0.50427885  0.60335775  0.10621321  1.0
  Zr  Zr2  1  0.70717197  0.39518714  0.89822716  1.0
  Zr  Zr3  1  0.28687355  0.60677922  0.11019201  1.0
  Zr  Zr4  1  0.49751195  0.61012725  0.89428878  1.0
  Zr  Zr5  1  0.49767743  0.39100341  0.11272166  1.0
  H  H6  1  0.65691871  0.42204586  0.75463284  1.0
  H  H7  1  0.33720448  0.75025829  0.08318858  1.0
  H  H8  1  0.66971072  0.41248522  0.08615471  1.0
  H  H9  1  0.32403520  0.41874202  0.09288441  1.0
  H  H10  1  0.48605031  0.63862293  0.61184596  1.0
  H  H11  1  0.51406193  0.09634690  0.12601080  1.0
  H  H12  1  0.98575241  0.87478183  0.11950705  1.0
  H  H13  1  0.98646661  0.63440603  0.39656132  1.0
  H  H14  1  0.69421753  0.17185200  0.64837957  1.0
  H  H15  1  0.29718800  0.85834605  0.33375150  1.0
  H  H16  1  0.23027784  0.38908167  0.87316038  1.0
  H  H17  1  0.15477649  0.08214474  0.49191861  1.0
  H  H18  1  0.27569065  0.97351510  0.42611433  1.0
  H  H19  1  0.93950742  0.16297299  0.71879205  1.0
  H  H20  1  0.07665282  0.06309940  0.62611935  1.0
  H  H21  1  0.83052792  0.02140280  0.42588818  1.0
  H  H22  1  0.71329751  0.07824821  0.53721891  1.0
  H  H23  1  0.05292260  0.79058828  0.33681641  1.0
  H  H24  1  0.91446621  0.88379123  0.43665439  1.0
  C  C25  1  0.48028717  0.51489294  0.73913743  1.0
  C  C26  1  0.51382557  0.76549042  0.98969011  1.0
  C  C27  1  0.49745404  0.49529680  0.27617850  1.0
  C  C28  1  0.49700632  0.22832754  0.00791305  1.0
  C  C29  1  0.75008813  0.23370902  0.74335715  1.0
  C  C30  1  0.22061086  0.50988238  0.00296083  1.0
  C  C31  1  0.24202252  0.76285680  0.27147850  1.0
  C  C32  1  0.77123361  0.50420004  0.99678054  1.0
  C  C33  1  0.76928343  0.50494121  0.73473323  1.0
  C  C34  1  0.76928799  0.22428292  0.00073964  1.0
  C  C35  1  0.22707745  0.50331055  0.28145566  1.0
  C  C36  1  0.22671111  0.77031856  0.99902105  1.0
  C  C37  1  0.48428707  0.43710864  0.42757888  1.0
  C  C38  1  0.48332493  0.57733105  0.59389208  1.0
  C  C39  1  0.49068355  0.49855809  0.36836227  1.0
  C  C40  1  0.47883143  0.51435416  0.65066832  1.0
  C  C41  1  0.48477210  0.54961638  0.51248414  1.0
  C  C42  1  0.48103370  0.46611367  0.50972200  1.0
  C  C43  1  0.51139102  0.91171871  0.92566425  1.0
  C  C44  1  0.51184352  0.07788196  0.06456794  1.0
  C  C45  1  0.51638547  0.85330928  0.98796723  1.0
  C  C46  1  0.50448775  0.13571069  0.00281814  1.0
  C  C47  1  0.51502145  0.99559571  0.03625205  1.0
  C  C48  1  0.51037921  0.99297724  0.95326543  1.0
  C  C49  1  0.97664443  0.08714392  0.93443001  1.0
  C  C50  1  0.02220878  0.90261266  0.06065018  1.0
  C  C51  1  0.86009798  0.13431152  0.99768012  1.0
  C  C52  1  0.13755645  0.85769665  0.99718912  1.0
  C  C53  1  0.96309132  0.98611119  0.03749932  1.0
  C  C54  1  0.03532416  0.00266706  0.95689654  1.0
  C  C55  1  0.97705028  0.44004539  0.59986621  1.0
  C  C56  1  0.02314859  0.57328100  0.42210432  1.0
  C  C57  1  0.86055320  0.50577110  0.64905649  1.0
  C  C58  1  0.13840711  0.50580586  0.37324665  1.0
  C  C59  1  0.96392508  0.54999312  0.50540630  1.0
  C  C60  1  0.03598002  0.46514727  0.51798620  1.0
  C  C61  1  0.94823870  0.09421382  0.61098134  1.0
  C  C62  1  0.78509027  0.12493822  0.61409323  1.0
  C  C63  1  0.85077652  0.04604427  0.53363198  1.0
  C  C64  1  0.97102051  0.98654340  0.48711088  1.0
  C  C65  1  0.04329455  0.89638923  0.40924346  1.0
  C  C66  1  0.20633942  0.89245312  0.38043810  1.0
  C  C67  1  0.14021539  0.97257871  0.45984554  1.0
  C  C68  1  0.02016438  0.01803293  0.51960868  1.0
  C  C69  1  0.82991686  0.14921128  0.65610946  1.0
  C  C70  1  0.16168558  0.85068456  0.35544681  1.0
  C  C71  1  0.84478320  0.57653237  0.05910153  1.0
  C  C72  1  0.14711752  0.44914551  0.93205689  1.0
  C  C73  1  0.85787928  0.51049461  0.99505725  1.0
  C  C74  1  0.13179900  0.51356865  0.99869900  1.0
  C  C75  1  0.04237228  0.47245719  0.95323403  1.0
  C  C76  1  0.94999233  0.55460146  0.03538278  1.0
  S  S77  1  0.49188143  0.59203045  0.41390623  1.0
  S  S78  1  0.47555048  0.42172980  0.60663987  1.0
  S  S79  1  0.52098354  0.89762256  0.07955475  1.0
  S  S80  1  0.50241288  0.09084853  0.90981732  1.0
  S  S81  1  0.82319560  0.07480832  0.08475664  1.0
  S  S82  1  0.17531177  0.91573064  0.90904257  1.0
  S  S83  1  0.82398926  0.59866406  0.59513039  1.0
  S  S84  1  0.17597211  0.41438709  0.42825648  1.0
  S  S85  1  0.99891531  0.42289218  0.90534313  1.0
  S  S86  1  0.99113946  0.60332877  0.08652699  1.0
  N  N87  1  0.19254430  0.00852675  0.48089564  1.0
  N  N88  1  0.99358753  0.11062315  0.65337259  1.0
  N  N89  1  0.79753480  0.02554502  0.49813498  1.0
  N  N90  1  0.99798882  0.85564697  0.38990205  1.0
  Cl  Cl91  1  0.48094469  0.33775382  0.40784273  1.0
  Cl  Cl92  1  0.50546116  0.89286733  0.82780002  1.0
  Cl  Cl93  1  0.04716844  0.12318203  0.84107309  1.0
  Cl  Cl94  1  0.04681568  0.33929750  0.62928256  1.0
  Cl  Cl95  1  0.72099991  0.67273536  0.15648610  1.0
  O  O96  1  0.47752029  0.44672059  0.77695108  1.0
  O  O97  1  0.51463198  0.72967914  0.05936756  1.0
  O  O98  1  0.50281130  0.56269549  0.23813737  1.0
  O  O99  1  0.48968798  0.26833638  0.94213412  1.0
  O  O100  1  0.78686172  0.26566610  0.77898740  1.0
  O  O101  1  0.18941241  0.57493886  0.07181320  1.0
  O  O102  1  0.20566112  0.72697195  0.23901468  1.0
  O  O103  1  0.80448464  0.43496185  0.93082343  1.0
  O  O104  1  0.66796193  0.57383164  0.76525984  1.0
  O  O105  1  0.66783326  0.25615239  0.07053635  1.0
  O  O106  1  0.32903915  0.43276021  0.24664962  1.0
  O  O107  1  0.32872491  0.73807235  0.93056036  1.0
  O  O108  1  0.79961715  0.26391054  0.93366444  1.0
  O  O109  1  0.19398307  0.57125738  0.24343436  1.0
  O  O110  1  0.19419342  0.73520748  0.06991746  1.0
  O  O111  1  0.79896298  0.43431941  0.77086580  1.0
  O  O112  1  0.64432248  0.27479241  0.77981158  1.0
  O  O113  1  0.66915140  0.56803701  0.06585591  1.0
  O  O114  1  0.34771081  0.72570618  0.23138614  1.0
  O  O115  1  0.32190529  0.44032350  0.93788280  1.0
  O  O116  1  0.49700536  0.26160998  0.07723354  1.0
  O  O117  1  0.48640603  0.58099192  0.76964708  1.0
  O  O118  1  0.50884276  0.73305052  0.92375221  1.0
  O  O119  1  0.49882936  0.42604278  0.24093854  1.0
  O  O120  1  0.37321903  0.44203144  0.06827994  1.0
  O  O121  1  0.62057614  0.43679990  0.06284100  1.0
  O  O122  1  0.38298111  0.67945698  0.05921516  1.0
  O  O123  1  0.61065769  0.44620962  0.82542409  1.0
  O  O124  1  0.58764988  0.54471289  0.95669557  1.0
  O  O125  1  0.40581184  0.54880556  0.96052224  1.0
  O  O126  1  0.41361877  0.54082420  0.13509124  1.0
  O  O127  1  0.58019463  0.37003967  0.96372826  1.0
