# generated using pymatgen
data_AlH6C24(NO3)6
_symmetry_space_group_name_H-M   'P 1'
_cell_length_a   3.94194217
_cell_length_b   29.13028043
_cell_length_c   29.12947295
_cell_angle_alpha   120.00075954
_cell_angle_beta   90.00058387
_cell_angle_gamma   89.99796852
_symmetry_Int_Tables_number   1
_chemical_formula_structural   AlH6C24(NO3)6
_chemical_formula_sum   'Al2 H12 C48 N12 O36'
_cell_volume   2896.77556463
_cell_formula_units_Z   2
loop_
 _symmetry_equiv_pos_site_id
 _symmetry_equiv_pos_as_xyz
  1  'x, y, z'
loop_
 _atom_site_type_symbol
 _atom_site_label
 _atom_site_symmetry_multiplicity
 _atom_site_fract_x
 _atom_site_fract_y
 _atom_site_fract_z
 _atom_site_occupancy
  Al  Al0  1  0.00000479  0.50000286  0.00000436  1.0
  Al  Al1  1  0.99961054  0.83334063  0.66668023  1.0
  H  H2  1  0.45937005  0.68524797  0.51884750  1.0
  H  H3  1  0.54016410  0.83360274  0.51882977  1.0
  H  H4  1  0.54038850  0.49972583  0.14784049  1.0
  H  H5  1  0.45966826  0.64810308  0.14784428  1.0
  H  H6  1  0.45937204  0.83359310  0.81477637  1.0
  H  H7  1  0.54010211  0.68522806  0.66640330  1.0
  H  H8  1  0.54036677  0.64810455  0.00027093  1.0
  H  H9  1  0.45967641  0.49972631  0.85189401  1.0
  H  H10  1  0.45939859  0.98116612  0.66640487  1.0
  H  H11  1  0.54018903  0.98119948  0.81479154  1.0
  H  H12  1  0.54036103  0.35217474  0.85188626  1.0
  H  H13  1  0.45967016  0.35216867  0.00026194  1.0
  C  C14  1  0.50002357  0.41846505  0.95922584  1.0
  C  C15  1  0.50002004  0.54076812  0.08154509  1.0
  C  C16  1  0.50001306  0.54077027  0.95923239  1.0
  C  C17  1  0.49963334  0.79257593  0.58512483  1.0
  C  C18  1  0.49961749  0.79255204  0.70744349  1.0
  C  C19  1  0.49963489  0.91489312  0.70746271  1.0
  C  C20  1  0.49977956  0.76304911  0.52608890  1.0
  C  C21  1  0.47823784  0.70775146  0.49830211  1.0
  C  C22  1  0.49610613  0.68066243  0.44339830  1.0
  C  C23  1  0.49978519  0.70660534  0.41320797  1.0
  C  C24  1  0.50343976  0.76273496  0.44338707  1.0
  C  C25  1  0.52132534  0.79055893  0.49829442  1.0
  C  C26  1  0.49984252  0.67872382  0.35745784  1.0
  C  C27  1  0.49980326  0.65458878  0.30920137  1.0
  C  C28  1  0.49987581  0.62671797  0.25345482  1.0
  C  C29  1  0.50335224  0.57059321  0.22326144  1.0
  C  C30  1  0.52141088  0.54277025  0.16836041  1.0
  C  C31  1  0.50000828  0.57027826  0.14057032  1.0
  C  C32  1  0.47856358  0.62557763  0.16836308  1.0
  C  C33  1  0.49652027  0.65265218  0.22326489  1.0
  C  C34  1  0.49977200  0.76303678  0.73696351  1.0
  C  C35  1  0.47824985  0.79054488  0.79226573  1.0
  C  C36  1  0.49610852  0.76272468  0.81934902  1.0
  C  C37  1  0.49974999  0.70659106  0.79340154  1.0
  C  C38  1  0.50336876  0.68064668  0.73726691  1.0
  C  C39  1  0.52126411  0.70773649  0.70945420  1.0
  C  C40  1  0.49982812  0.67871484  0.82127212  1.0
  C  C41  1  0.49980671  0.65458481  0.84540139  1.0
  C  C42  1  0.49988737  0.62671724  0.87327554  1.0
  C  C43  1  0.50336155  0.65265229  0.92940184  1.0
  C  C44  1  0.52141803  0.62557838  0.95722523  1.0
  C  C45  1  0.50001077  0.57027997  0.92971911  1.0
  C  C46  1  0.47856852  0.54276980  0.87441772  1.0
  C  C47  1  0.49651454  0.57059367  0.84734194  1.0
  C  C48  1  0.49980348  0.97392891  0.73697427  1.0
  C  C49  1  0.47826362  0.00171094  0.70945178  1.0
  C  C50  1  0.49611432  0.05661369  0.73726235  1.0
  C  C51  1  0.49978075  0.08681346  0.79339500  1.0
  C  C52  1  0.50342841  0.05663444  0.81935409  1.0
  C  C53  1  0.52131140  0.00173284  0.79227171  1.0
  C  C54  1  0.49983554  0.14256507  0.82126504  1.0
  C  C55  1  0.49977446  0.19081342  0.84538350  1.0
  C  C56  1  0.49983687  0.24656469  0.87326384  1.0
  C  C57  1  0.50331513  0.27675348  0.84733051  1.0
  C  C58  1  0.52139665  0.33165572  0.87441090  1.0
  C  C59  1  0.49999197  0.35944165  0.92970953  1.0
  C  C60  1  0.47854515  0.33165056  0.95721542  1.0
  C  C61  1  0.49648392  0.27674914  0.92938779  1.0
  N  N62  1  0.48077584  0.79482584  0.41697014  1.0
  N  N63  1  0.51886536  0.62216021  0.41698624  1.0
  N  N64  1  0.51915744  0.71113957  0.24968802  1.0
  N  N65  1  0.48077704  0.53853037  0.24968753  1.0
  N  N66  1  0.48072378  0.62213874  0.70517278  1.0
  N  N67  1  0.51884915  0.79480987  0.87785613  1.0
  N  N68  1  0.51913986  0.53853012  0.78885225  1.0
  N  N69  1  0.48078010  0.71114127  0.96146469  1.0
  N  N70  1  0.48082156  0.08306877  0.87786639  1.0
  N  N71  1  0.51885999  0.08301564  0.70516013  1.0
  N  N72  1  0.51913211  0.25032706  0.96145271  1.0
  N  N73  1  0.48077419  0.25032763  0.78884044  1.0
  O  O74  1  0.73507980  0.55147679  0.99316973  1.0
  O  O75  1  0.73510739  0.44169361  0.94852228  1.0
  O  O76  1  0.73510561  0.50683366  0.05831400  1.0
  O  O77  1  0.26491462  0.50683698  0.94852646  1.0
  O  O78  1  0.26492053  0.55147526  0.05831664  1.0
  O  O79  1  0.26493215  0.44169541  0.99316587  1.0
  O  O80  1  0.73461124  0.89164351  0.71816357  1.0
  O  O81  1  0.73459272  0.82652024  0.60837383  1.0
  O  O82  1  0.73462107  0.78185470  0.67349868  1.0
  O  O83  1  0.26449111  0.89166759  0.67353689  1.0
  O  O84  1  0.26448581  0.82648090  0.71814854  1.0
  O  O85  1  0.26447482  0.78187308  0.60834925  1.0
  O  O86  1  0.28200643  0.77912333  0.37940208  1.0
  O  O87  1  0.65601238  0.83544403  0.43598833  1.0
  O  O88  1  0.71777888  0.60031314  0.37943299  1.0
  O  O89  1  0.34366076  0.60054669  0.43599328  1.0
  O  O90  1  0.71784235  0.73298598  0.28727349  1.0
  O  O91  1  0.34402966  0.73275251  0.23067329  1.0
  O  O92  1  0.28212306  0.55426666  0.28727725  1.0
  O  O93  1  0.65595406  0.49790656  0.23067425  1.0
  O  O94  1  0.28198500  0.60027226  0.72087737  1.0
  O  O95  1  0.65596101  0.60053881  0.66455176  1.0
  O  O96  1  0.71766511  0.77909259  0.89970393  1.0
  O  O97  1  0.34365954  0.83543482  0.89947380  1.0
  O  O98  1  0.71781831  0.55426662  0.76700297  1.0
  O  O99  1  0.34400723  0.49790342  0.76723759  1.0
  O  O100  1  0.28212340  0.73299344  0.94572746  1.0
  O  O101  1  0.65595389  0.73275244  0.00208863  1.0
  O  O102  1  0.28211856  0.12064785  0.89972788  1.0
  O  O103  1  0.65602521  0.06405500  0.89947599  1.0
  O  O104  1  0.71773490  0.12056995  0.72086079  1.0
  O  O105  1  0.34365035  0.06400118  0.66453776  1.0
  O  O106  1  0.71783280  0.21274200  0.94571174  1.0
  O  O107  1  0.34401952  0.26934063  0.00208325  1.0
  O  O108  1  0.28214260  0.21273705  0.76698557  1.0
  O  O109  1  0.65597649  0.26933625  0.76722981  1.0
