# generated using pymatgen
data_Zn4C40Br20O13
_symmetry_space_group_name_H-M   'P 1'
_cell_length_a   24.05993865
_cell_length_b   24.06024840
_cell_length_c   24.05863181
_cell_angle_alpha   66.46159500
_cell_angle_beta   72.52096466
_cell_angle_gamma   107.47634419
_symmetry_Int_Tables_number   1
_chemical_formula_structural   Zn4C40Br20O13
_chemical_formula_sum   'Zn8 C80 Br40 O26'
_cell_volume   10680.13777959
_cell_formula_units_Z   2
loop_
 _symmetry_equiv_pos_site_id
 _symmetry_equiv_pos_as_xyz
  1  'x, y, z'
loop_
 _atom_site_type_symbol
 _atom_site_label
 _atom_site_symmetry_multiplicity
 _atom_site_fract_x
 _atom_site_fract_y
 _atom_site_fract_z
 _atom_site_occupancy
  Zn  Zn0  1  0.05656925  0.09902684  0.45752593  1.0
  Zn  Zn1  1  0.05656834  0.95753998  0.48589005  1.0
  Zn  Zn2  1  0.94342985  0.95752639  0.59903686  1.0
  Zn  Zn3  1  0.94344471  0.98591112  0.45752356  1.0
  Zn  Zn4  1  0.94343664  0.40097403  0.04246833  1.0
  Zn  Zn5  1  0.05657104  0.54246933  0.90096220  1.0
  Zn  Zn6  1  0.94343612  0.54246403  0.01410199  1.0
  Zn  Zn7  1  0.05655196  0.51409229  0.04247853  1.0
  C  C8  1  0.18044876  0.09021635  0.40977297  1.0
  C  C9  1  0.99999809  0.86308432  0.63691533  1.0
  C  C10  1  0.99998660  0.09020230  0.59023457  1.0
  C  C11  1  0.81955522  0.90979102  0.59020270  1.0
  C  C12  1  0.00000816  0.13692507  0.36307921  1.0
  C  C13  1  0.99999464  0.90977885  0.40977227  1.0
  C  C14  1  0.00000562  0.40979447  0.90976170  1.0
  C  C15  1  0.00001180  0.63691917  0.86307486  1.0
  C  C16  1  0.81955646  0.40977986  0.09023316  1.0
  C  C17  1  0.99998905  0.59022945  0.09022058  1.0
  C  C18  1  0.99999497  0.36308195  0.13691908  1.0
  C  C19  1  0.18044315  0.59022170  0.90979808  1.0
  C  C20  1  0.00000720  0.19494625  0.30505240  1.0
  C  C21  1  0.99999886  0.30505768  0.19494333  1.0
  C  C22  1  0.95736375  0.18048798  0.27687271  1.0
  C  C23  1  0.04264318  0.31951595  0.22312275  1.0
  C  C24  1  0.95735987  0.23423441  0.22312764  1.0
  C  C25  1  0.04264943  0.26576900  0.27686565  1.0
  C  C26  1  0.00000071  0.80505885  0.69494026  1.0
  C  C27  1  0.00000792  0.69494344  0.80505185  1.0
  C  C28  1  0.95736406  0.77687206  0.76577355  1.0
  C  C29  1  0.04264245  0.72312884  0.73421952  1.0
  C  C30  1  0.95736751  0.72312563  0.81951874  1.0
  C  C31  1  0.04263943  0.77687525  0.68047587  1.0
  C  C32  1  0.99999624  0.37208648  0.87206680  1.0
  C  C33  1  0.95702279  0.29953618  0.90771820  1.0
  C  C34  1  0.95735277  0.26504132  0.87238478  1.0
  C  C35  1  0.99999127  0.30039436  0.80038032  1.0
  C  C36  1  0.04263521  0.37239000  0.76502353  1.0
  C  C37  1  0.04297034  0.40773087  0.79951063  1.0
  C  C38  1  0.99998354  0.26521971  0.76521100  1.0
  C  C39  1  0.99997378  0.23478300  0.73478114  1.0
  C  C40  1  0.99996886  0.19960782  0.69961243  1.0
  C  C41  1  0.95734604  0.12760473  0.73497520  1.0
  C  C42  1  0.95701626  0.09226695  0.70048318  1.0
  C  C43  1  0.99997373  0.12791153  0.62792921  1.0
  C  C44  1  0.04293059  0.20046897  0.59226982  1.0
  C  C45  1  0.04259414  0.23496022  0.62760496  1.0
  C  C46  1  0.00000726  0.62795089  0.12789876  1.0
  C  C47  1  0.04298935  0.63528740  0.15746428  1.0
  C  C48  1  0.04264774  0.67027913  0.19229990  1.0
  C  C49  1  0.00000300  0.69963061  0.19959419  1.0
  C  C50  1  0.95736592  0.69234517  0.17023418  1.0
  C  C51  1  0.95703694  0.65752547  0.13522512  1.0
  C  C52  1  0.99999452  0.73478941  0.23477695  1.0
  C  C53  1  0.99998283  0.76520802  0.26522504  1.0
  C  C54  1  0.99997413  0.80036977  0.30040610  1.0
  C  C55  1  0.04259900  0.80763918  0.32978198  1.0
  C  C56  1  0.04293484  0.84246146  0.36478545  1.0
  C  C57  1  0.99997714  0.87205673  0.37209398  1.0
  C  C58  1  0.95701314  0.86474142  0.34250918  1.0
  C  C59  1  0.95734787  0.82974141  0.30767891  1.0
  C  C60  1  0.74415530  0.37208533  0.12792634  1.0
  C  C61  1  0.70725267  0.29953284  0.15751976  1.0
  C  C62  1  0.63742464  0.26504168  0.19234340  1.0
  C  C63  1  0.60077700  0.30039341  0.19961929  1.0
  C  C64  1  0.63742128  0.37239296  0.17024243  1.0
  C  C65  1  0.70725094  0.40773221  0.13523380  1.0
  C  C66  1  0.53043291  0.26521622  0.23480002  1.0
  C  C67  1  0.46956807  0.23477734  0.26524045  1.0
  C  C68  1  0.39922475  0.19960274  0.30041867  1.0
  C  C69  1  0.36258456  0.12760738  0.32977310  1.0
  C  C70  1  0.29275552  0.09226760  0.36477884  1.0
  C  C71  1  0.25585012  0.12791031  0.37210406  1.0
  C  C72  1  0.29274897  0.20045550  0.34254420  1.0
  C  C73  1  0.36257895  0.23495184  0.30771210  1.0
  C  C74  1  0.25584520  0.62793227  0.87209619  1.0
  C  C75  1  0.29275191  0.65753802  0.79953310  1.0
  C  C76  1  0.36257917  0.69236231  0.76504200  1.0
  C  C77  1  0.39922389  0.69963351  0.80039776  1.0
  C  C78  1  0.36257509  0.67024968  0.87240670  1.0
  C  C79  1  0.29274352  0.63523734  0.90774778  1.0
  C  C80  1  0.46956539  0.73480604  0.76522174  1.0
  C  C81  1  0.53043147  0.76523821  0.73477612  1.0
  C  C82  1  0.60077704  0.80040919  0.69959658  1.0
  C  C83  1  0.63742576  0.82977027  0.62759337  1.0
  C  C84  1  0.70725407  0.86477745  0.59225325  1.0
  C  C85  1  0.74415419  0.87209958  0.62790126  1.0
  C  C86  1  0.70724784  0.84251813  0.70045874  1.0
  C  C87  1  0.63742089  0.80769074  0.73495223  1.0
  Br  Br88  1  0.89729874  0.08859640  0.30869516  1.0
  Br  Br89  1  0.10270557  0.41140752  0.19130484  1.0
  Br  Br90  1  0.89728620  0.20599146  0.19130661  1.0
  Br  Br91  1  0.10273187  0.29400832  0.30867800  1.0
  Br  Br92  1  0.89729482  0.80869447  0.79402605  1.0
  Br  Br93  1  0.10270350  0.69129817  0.70596778  1.0
  Br  Br94  1  0.89730475  0.69129939  0.91142371  1.0
  Br  Br95  1  0.10270331  0.80870202  0.58857244  1.0
  Br  Br96  1  0.89622304  0.24258075  0.00402358  1.0
  Br  Br97  1  0.10376539  0.50403173  0.74253121  1.0
  Br  Br98  1  0.09901064  0.41856227  0.66924931  1.0
  Br  Br99  1  0.90097216  0.16927789  0.91857029  1.0
  Br  Br100  1  0.90099502  0.08142774  0.83075266  1.0
  Br  Br101  1  0.09894845  0.33072993  0.58141408  1.0
  Br  Br102  1  0.10367112  0.25744525  0.49595155  1.0
  Br  Br103  1  0.89623260  0.99596243  0.75747101  1.0
  Br  Br104  1  0.10381926  0.59982831  0.15358294  1.0
  Br  Br105  1  0.89625774  0.65371988  0.09970148  1.0
  Br  Br106  1  0.90098906  0.73173149  0.18043566  1.0
  Br  Br107  1  0.09902825  0.68048914  0.23168264  1.0
  Br  Br108  1  0.09895312  0.76822442  0.31960822  1.0
  Br  Br109  1  0.90099557  0.81957070  0.26826250  1.0
  Br  Br110  1  0.89621604  0.90023979  0.34634564  1.0
  Br  Br111  1  0.10368701  0.84623607  0.40034179  1.0
  Br  Br112  1  0.74658572  0.24256075  0.15372721  1.0
  Br  Br113  1  0.74657730  0.50403919  0.09968393  1.0
  Br  Br114  1  0.58783074  0.41857161  0.18041697  1.0
  Br  Br115  1  0.58783702  0.16927188  0.23175823  1.0
  Br  Br116  1  0.41217377  0.08143344  0.31957256  1.0
  Br  Br117  1  0.41217082  0.33071379  0.26833236  1.0
  Br  Br118  1  0.25340697  0.25739997  0.34643662  1.0
  Br  Br119  1  0.25342871  0.99596533  0.40030578  1.0
  Br  Br120  1  0.25342656  0.65376674  0.74254794  1.0
  Br  Br121  1  0.25341322  0.59969138  0.00406364  1.0
  Br  Br122  1  0.41215998  0.68041895  0.91859044  1.0
  Br  Br123  1  0.41216882  0.73178109  0.66926457  1.0
  Br  Br124  1  0.58783772  0.81957257  0.58141523  1.0
  Br  Br125  1  0.58782488  0.76830714  0.83072175  1.0
  Br  Br126  1  0.74658132  0.84636444  0.75742095  1.0
  Br  Br127  1  0.74658716  0.90030686  0.49594104  1.0
  O  O128  1  0.00000068  0.99999765  0.49999898  1.0
  O  O129  1  0.15101773  0.12532532  0.41434943  1.0
  O  O130  1  0.03937745  0.88560064  0.57502787  1.0
  O  O131  1  0.96026213  0.02567216  0.62534025  1.0
  O  O132  1  0.15101822  0.02568034  0.43459658  1.0
  O  O133  1  0.03973200  0.12530109  0.52569620  1.0
  O  O134  1  0.96061948  0.88558655  0.65378313  1.0
  O  O135  1  0.84898799  0.91438172  0.62531199  1.0
  O  O136  1  0.96063582  0.07504121  0.38558688  1.0
  O  O137  1  0.84899073  0.93462123  0.52565800  1.0
  O  O138  1  0.03937296  0.15378418  0.38559697  1.0
  O  O139  1  0.03972050  0.91440388  0.43458026  1.0
  O  O140  1  0.96028786  0.93461067  0.41437400  1.0
  O  O141  1  0.99999965  0.50000119  0.99999885  1.0
  O  O142  1  0.96029728  0.37468628  0.97430926  1.0
  O  O143  1  0.03939700  0.61442363  0.84620907  1.0
  O  O144  1  0.84898899  0.47431635  0.06543080  1.0
  O  O145  1  0.03971241  0.47432880  0.87465345  1.0
  O  O146  1  0.84898945  0.37468652  0.08560709  1.0
  O  O147  1  0.96062497  0.61439614  0.92496267  1.0
  O  O148  1  0.96028558  0.58563270  0.06538362  1.0
  O  O149  1  0.03936612  0.42496324  0.11441238  1.0
  O  O150  1  0.03967380  0.56536851  0.08564769  1.0
  O  O151  1  0.96062511  0.34622131  0.11440512  1.0
  O  O152  1  0.15101112  0.58558652  0.87469752  1.0
  O  O153  1  0.15100772  0.56541424  0.97433704  1.0
