# generated using pymatgen
data_AlH9C14O5
_symmetry_space_group_name_H-M   'P 1'
_cell_length_a   18.53210715
_cell_length_b   18.53208025
_cell_length_c   37.64755275
_cell_angle_alpha   89.99996923
_cell_angle_beta   89.99993653
_cell_angle_gamma   89.99996504
_symmetry_Int_Tables_number   1
_chemical_formula_structural   AlH9C14O5
_chemical_formula_sum   'Al16 H144 C224 O80'
_cell_volume   12929.61892861
_cell_formula_units_Z   16
loop_
 _symmetry_equiv_pos_site_id
 _symmetry_equiv_pos_as_xyz
  1  'x, y, z'
loop_
 _atom_site_type_symbol
 _atom_site_label
 _atom_site_symmetry_multiplicity
 _atom_site_fract_x
 _atom_site_fract_y
 _atom_site_fract_z
 _atom_site_occupancy
  Al  Al0  1  0.32877132  0.32877117  0.00000014  1.0
  Al  Al1  1  0.17122727  0.82877202  0.49999968  1.0
  Al  Al2  1  0.67122930  0.67122804  0.00000027  1.0
  Al  Al3  1  0.82877277  0.17122772  0.50000012  1.0
  Al  Al4  1  0.36055173  0.40664851  0.07903740  1.0
  Al  Al5  1  0.09335151  0.86055041  0.57903777  1.0
  Al  Al6  1  0.63944980  0.59335008  0.07903756  1.0
  Al  Al7  1  0.90664888  0.13945033  0.57903818  1.0
  Al  Al8  1  0.13944843  0.90664784  0.42096187  1.0
  Al  Al9  1  0.86054962  0.09335091  0.42096232  1.0
  Al  Al10  1  0.59335154  0.63945023  0.92096268  1.0
  Al  Al11  1  0.40664809  0.36055068  0.92096250  1.0
  Al  Al12  1  0.50000099  0.50000062  0.11122297  1.0
  Al  Al13  1  0.00000047  0.99999942  0.61122287  1.0
  Al  Al14  1  0.00000018  0.99999900  0.38877654  1.0
  Al  Al15  1  0.50000012  0.50000020  0.88877657  1.0
  H  H16  1  0.43790403  0.37920745  0.02838043  1.0
  H  H17  1  0.12079311  0.93790548  0.52838001  1.0
  H  H18  1  0.56209653  0.62079335  0.02838010  1.0
  H  H19  1  0.87920794  0.06209585  0.52838019  1.0
  H  H20  1  0.06209452  0.87920732  0.47162044  1.0
  H  H21  1  0.93790504  0.12079300  0.47162030  1.0
  H  H22  1  0.62079307  0.56209515  0.97162069  1.0
  H  H23  1  0.37920644  0.43790463  0.97162024  1.0
  H  H24  1  0.20646728  0.49354763  0.02482168  1.0
  H  H25  1  0.00645055  0.70646415  0.52482260  1.0
  H  H26  1  0.79353598  0.50644994  0.02482126  1.0
  H  H27  1  0.99355051  0.29353665  0.52482186  1.0
  H  H28  1  0.29353552  0.99354897  0.47517756  1.0
  H  H29  1  0.70646350  0.00644865  0.47517864  1.0
  H  H30  1  0.50645198  0.79353493  0.97517922  1.0
  H  H31  1  0.49354807  0.20646538  0.97517877  1.0
  H  H32  1  0.40829425  0.52421059  0.06716993  1.0
  H  H33  1  0.97579029  0.90829384  0.56717009  1.0
  H  H34  1  0.59170568  0.47578855  0.06716989  1.0
  H  H35  1  0.02421067  0.09170583  0.56716992  1.0
  H  H36  1  0.09170614  0.02420941  0.43282997  1.0
  H  H37  1  0.90829405  0.97578933  0.43283042  1.0
  H  H38  1  0.47578909  0.59170603  0.93283015  1.0
  H  H39  1  0.52421051  0.40829487  0.93283017  1.0
  H  H40  1  0.44745930  0.20420384  0.11044183  1.0
  H  H41  1  0.29579848  0.94745909  0.61044134  1.0
  H  H42  1  0.55254107  0.79579849  0.11044146  1.0
  H  H43  1  0.70420185  0.05254000  0.61044135  1.0
  H  H44  1  0.05253990  0.70420273  0.38955802  1.0
  H  H45  1  0.94745930  0.29579930  0.38955863  1.0
  H  H46  1  0.79579755  0.55254143  0.88955900  1.0
  H  H47  1  0.20420215  0.44745951  0.88955917  1.0
  H  H48  1  0.61443051  0.34371590  0.14991605  1.0
  H  H49  1  0.15628460  0.11442904  0.64991656  1.0
  H  H50  1  0.38557139  0.65628423  0.14991527  1.0
  H  H51  1  0.84371618  0.88557162  0.64991680  1.0
  H  H52  1  0.88556984  0.84371570  0.35008376  1.0
  H  H53  1  0.11442838  0.15628421  0.35008380  1.0
  H  H54  1  0.65628464  0.38557157  0.85008425  1.0
  H  H55  1  0.34371515  0.61442887  0.85008430  1.0
  H  H56  1  0.51601840  0.41625682  0.78736175  1.0
  H  H57  1  0.08374067  0.01601775  0.28736076  1.0
  H  H58  1  0.48398260  0.58374153  0.78736120  1.0
  H  H59  1  0.91625930  0.98398169  0.28736120  1.0
  H  H60  1  0.98398239  0.91625995  0.71263956  1.0
  H  H61  1  0.01601824  0.08374011  0.71263861  1.0
  H  H62  1  0.58374150  0.48398130  0.21263831  1.0
  H  H63  1  0.41625810  0.51601984  0.21263782  1.0
  H  H64  1  0.40464521  0.23661105  0.83388408  1.0
  H  H65  1  0.26338802  0.90464646  0.33388420  1.0
  H  H66  1  0.59535299  0.76338941  0.83388422  1.0
  H  H67  1  0.73661185  0.09535347  0.33388391  1.0
  H  H68  1  0.09535392  0.73661231  0.66611596  1.0
  H  H69  1  0.90464682  0.26338780  0.66611527  1.0
  H  H70  1  0.76338865  0.59535408  0.16611596  1.0
  H  H71  1  0.23661051  0.40464549  0.16611560  1.0
  H  H72  1  0.51247242  0.09766046  0.13478790  1.0
  H  H73  1  0.40233978  0.01247388  0.63478697  1.0
  H  H74  1  0.48752574  0.90234077  0.13478780  1.0
  H  H75  1  0.59766049  0.98752572  0.63478706  1.0
  H  H76  1  0.98752646  0.59765964  0.36521251  1.0
  H  H77  1  0.01247388  0.40234079  0.36521306  1.0
  H  H78  1  0.90233972  0.48752713  0.86521264  1.0
  H  H79  1  0.09766003  0.51247384  0.86521339  1.0
  H  H80  1  0.67933409  0.23782544  0.17502949  1.0
  H  H81  1  0.26217483  0.17933375  0.67502971  1.0
  H  H82  1  0.32066560  0.76217305  0.17502846  1.0
  H  H83  1  0.73782589  0.82066689  0.67502976  1.0
  H  H84  1  0.82066578  0.73782476  0.32497088  1.0
  H  H85  1  0.17933303  0.26217356  0.32497058  1.0
  H  H86  1  0.76217497  0.32066735  0.82497051  1.0
  H  H87  1  0.23782542  0.67933366  0.82497087  1.0
  H  H88  1  0.51419085  0.35495828  0.72851278  1.0
  H  H89  1  0.14504137  0.01419012  0.22851176  1.0
  H  H90  1  0.48581083  0.64504175  0.72851222  1.0
  H  H91  1  0.85496035  0.98581046  0.22851144  1.0
  H  H92  1  0.98580944  0.85495865  0.77148828  1.0
  H  H93  1  0.01418836  0.14504026  0.77148785  1.0
  H  H94  1  0.64504099  0.48580997  0.27148753  1.0
  H  H95  1  0.35495956  0.51419165  0.27148734  1.0
  H  H96  1  0.40261261  0.17424356  0.77529675  1.0
  H  H97  1  0.32575768  0.90261432  0.27529737  1.0
  H  H98  1  0.59738573  0.82575859  0.77529741  1.0
  H  H99  1  0.67424286  0.09738675  0.27529712  1.0
  H  H100  1  0.09738602  0.67424259  0.72470277  1.0
  H  H101  1  0.90261243  0.32575637  0.72470233  1.0
  H  H102  1  0.82575656  0.59738618  0.22470302  1.0
  H  H103  1  0.17424355  0.40261278  0.22470322  1.0
  H  H104  1  0.62176871  0.03414085  0.12210684  1.0
  H  H105  1  0.46585871  0.12177245  0.62210750  1.0
  H  H106  1  0.37823001  0.96585877  0.12210785  1.0
  H  H107  1  0.53414051  0.87822879  0.62210765  1.0
  H  H108  1  0.87823020  0.53414116  0.37789385  1.0
  H  H109  1  0.12176903  0.46586034  0.37789327  1.0
  H  H110  1  0.96585923  0.37823122  0.87789314  1.0
  H  H111  1  0.03414050  0.62176811  0.87789363  1.0
  H  H112  1  0.67461577  0.14659065  0.21870167  1.0
  H  H113  1  0.35340996  0.17461593  0.71870211  1.0
  H  H114  1  0.32538274  0.85340833  0.21870140  1.0
  H  H115  1  0.64659228  0.82538466  0.71870168  1.0
  H  H116  1  0.82538416  0.64658948  0.28129793  1.0
  H  H117  1  0.17461799  0.35340996  0.28129841  1.0
  H  H118  1  0.85340965  0.32538457  0.78129832  1.0
  H  H119  1  0.14659137  0.67461649  0.78129874  1.0
  H  H120  1  0.56472321  0.26239663  0.69891776  1.0
  H  H121  1  0.23760345  0.06472357  0.19891778  1.0
  H  H122  1  0.43527691  0.73760344  0.69891800  1.0
  H  H123  1  0.76239618  0.93527705  0.19891752  1.0
  H  H124  1  0.93527660  0.76239538  0.80108227  1.0
  H  H125  1  0.06472222  0.23760404  0.80108231  1.0
  H  H126  1  0.73760357  0.43527701  0.30108227  1.0
  H  H127  1  0.26239583  0.56472350  0.30108238  1.0
  H  H128  1  0.70234808  0.97573346  0.08585547  1.0
  H  H129  1  0.52426708  0.20235056  0.58585465  1.0
  H  H130  1  0.29765235  0.02426620  0.08585491  1.0
  H  H131  1  0.47573384  0.79765071  0.58585512  1.0
  H  H132  1  0.79764895  0.47573542  0.41414511  1.0
  H  H133  1  0.20235074  0.52426388  0.41414500  1.0
  H  H134  1  0.02426688  0.29765176  0.91414464  1.0
  H  H135  1  0.97573330  0.70234916  0.91414486  1.0
  H  H136  1  0.70322487  0.83714131  0.17786890  1.0
  H  H137  1  0.66285888  0.20322355  0.67786883  1.0
  H  H138  1  0.29677643  0.16285879  0.17786857  1.0
  H  H139  1  0.33714075  0.79677709  0.67786884  1.0
  H  H140  1  0.79677548  0.33714067  0.32213171  1.0
  H  H141  1  0.20322334  0.66285819  0.32213182  1.0
  H  H142  1  0.16285835  0.29677707  0.82213118  1.0
  H  H143  1  0.83714042  0.70322503  0.82213121  1.0
  H  H144  1  0.71277007  0.86748336  0.04671216  1.0
  H  H145  1  0.63251763  0.21277247  0.54671157  1.0
  H  H146  1  0.28722775  0.13251473  0.04671105  1.0
  H  H147  1  0.36748392  0.78722776  0.54671157  1.0
  H  H148  1  0.78722541  0.36748582  0.45328870  1.0
  H  H149  1  0.21277473  0.63251452  0.45328856  1.0
  H  H150  1  0.13251519  0.28722816  0.95328819  1.0
  H  H151  1  0.86748329  0.71277271  0.95328820  1.0
  H  H152  1  0.71474064  0.72989217  0.13839012  1.0
  H  H153  1  0.77010847  0.21473762  0.63839027  1.0
  H  H154  1  0.28525913  0.27010797  0.13838923  1.0
  H  H155  1  0.22989180  0.78526251  0.63838981  1.0
  H  H156  1  0.78525924  0.22989257  0.36161078  1.0
  H  H157  1  0.21473895  0.77010679  0.36161087  1.0
  H  H158  1  0.27010839  0.28526023  0.86160995  1.0
  H  H159  1  0.72989191  0.71474182  0.86161030  1.0
  C  C160  1  0.25056535  0.45485848  0.03038300  1.0
  C  C161  1  0.04514014  0.75056334  0.53038470  1.0
  C  C162  1  0.74943574  0.54514016  0.03038311  1.0
  C  C163  1  0.95486091  0.24943529  0.53038372  1.0
  C  C164  1  0.24943585  0.95485986  0.46961520  1.0
  C  C165  1  0.75056533  0.04513830  0.46961651  1.0
  C  C166  1  0.54514107  0.74943571  0.96961790  1.0
  C  C167  1  0.45485737  0.25056352  0.96961719  1.0
  C  C168  1  0.49187730  0.34503421  0.11307623  1.0
  C  C169  1  0.15496720  0.99187616  0.61307660  1.0
  C  C170  1  0.50812522  0.65496811  0.11307645  1.0
  C  C171  1  0.84503312  0.00812454  0.61307761  1.0
  C  C172  1  0.00812397  0.84503367  0.38692225  1.0
  C  C173  1  0.99187578  0.15496620  0.38692341  1.0
  C  C174  1  0.65496631  0.50812391  0.88692275  1.0
  C  C175  1  0.34503394  0.49187704  0.88692337  1.0
  C  C176  1  0.46060479  0.36653492  0.84942583  1.0
  C  C177  1  0.13346428  0.96060405  0.34942574  1.0
  C  C178  1  0.53939446  0.63346553  0.84942604  1.0
  C  C179  1  0.86653447  0.03939370  0.34942593  1.0
  C  C180  1  0.03939588  0.86653569  0.65057444  1.0
  C  C181  1  0.96060543  0.13346552  0.65057429  1.0
  C  C182  1  0.63346606  0.53939279  0.15057396  1.0
  C  C183  1  0.36653422  0.46060625  0.15057351  1.0
  C  C184  1  0.52777770  0.28033450  0.12825119  1.0
  C  C185  1  0.21966708  0.02777551  0.62825167  1.0
  C  C186  1  0.47222317  0.71966674  0.12825062  1.0
  C  C187  1  0.78033374  0.97222409  0.62825166  1.0
  C  C188  1  0.97222269  0.78033314  0.37174784  1.0
  C  C189  1  0.02777494  0.21966674  0.37174870  1.0
  C  C190  1  0.71966648  0.47222399  0.87174884  1.0
  C  C191  1  0.28033380  0.52777590  0.87174922  1.0
  C  C192  1  0.46071654  0.32995027  0.81416139  1.0
  C  C193  1  0.17004840  0.96071684  0.31416049  1.0
  C  C194  1  0.53928333  0.67005022  0.81416106  1.0
  C  C195  1  0.82995097  0.03928257  0.31416070  1.0
  C  C196  1  0.03928361  0.82995154  0.68583942  1.0
  C  C197  1  0.96071708  0.17004963  0.68583926  1.0
  C  C198  1  0.67005010  0.53928322  0.18583866  1.0
  C  C199  1  0.32994956  0.46071740  0.18583823  1.0
  C  C200  1  0.49861698  0.21092514  0.12435666  1.0
  C  C201  1  0.28907606  0.99861632  0.62435671  1.0
  C  C202  1  0.50138336  0.78907610  0.12435659  1.0
  C  C203  1  0.71092532  0.00138437  0.62435673  1.0
  C  C204  1  0.00138329  0.71092353  0.37564266  1.0
  C  C205  1  0.99861594  0.28907636  0.37564324  1.0
  C  C206  1  0.78907573  0.50138421  0.87564310  1.0
  C  C207  1  0.21092453  0.49861675  0.87564405  1.0
  C  C208  1  0.59257495  0.28946944  0.14699422  1.0
  C  C209  1  0.21053100  0.09257341  0.64699471  1.0
  C  C210  1  0.40742588  0.71053070  0.14699395  1.0
  C  C211  1  0.78946924  0.90742725  0.64699471  1.0
  C  C212  1  0.90742489  0.78946814  0.35300507  1.0
  C  C213  1  0.09257278  0.21053123  0.35300590  1.0
  C  C214  1  0.71053156  0.40742609  0.85300554  1.0
  C  C215  1  0.28946822  0.59257435  0.85300642  1.0
  C  C216  1  0.49163426  0.36308255  0.78435705  1.0
  C  C217  1  0.13691674  0.99163406  0.28435644  1.0
  C  C218  1  0.50836622  0.63691851  0.78435648  1.0
  C  C219  1  0.86308271  0.00836538  0.28435610  1.0
  C  C220  1  0.00836588  0.86308327  0.71564375  1.0
  C  C221  1  0.99163421  0.13691732  0.71564411  1.0
  C  C222  1  0.63691839  0.50836494  0.21564326  1.0
  C  C223  1  0.36308229  0.49163566  0.21564334  1.0
  C  C224  1  0.42820326  0.26198058  0.81049557  1.0
  C  C225  1  0.23802072  0.92820509  0.31049543  1.0
  C  C226  1  0.57179499  0.73802153  0.81049573  1.0
  C  C227  1  0.76197974  0.07179379  0.31049593  1.0
  C  C228  1  0.07179531  0.76198020  0.68950447  1.0
  C  C229  1  0.92820753  0.23802096  0.68950404  1.0
  C  C230  1  0.73802131  0.57179439  0.18950448  1.0
  C  C231  1  0.26197996  0.42820515  0.18950436  1.0
  C  C232  1  0.53535755  0.15152110  0.13799022  1.0
  C  C233  1  0.34847973  0.03535692  0.63799118  1.0
  C  C234  1  0.46464222  0.84848012  0.13799041  1.0
  C  C235  1  0.65152215  0.96464430  0.63798991  1.0
  C  C236  1  0.96464238  0.65151922  0.36200964  1.0
  C  C237  1  0.03535743  0.34848013  0.36200914  1.0
  C  C238  1  0.84847915  0.46464304  0.86200926  1.0
  C  C239  1  0.15152115  0.53535685  0.86200918  1.0
  C  C240  1  0.62827839  0.23020678  0.16113352  1.0
  C  C241  1  0.26979245  0.12827796  0.66113399  1.0
  C  C242  1  0.37172133  0.76979280  0.16113272  1.0
  C  C243  1  0.73020668  0.87172215  0.66113297  1.0
  C  C244  1  0.87172148  0.73020552  0.33886632  1.0
  C  C245  1  0.12827729  0.26979278  0.33886658  1.0
  C  C246  1  0.76979360  0.37172313  0.83886596  1.0
  C  C247  1  0.23020621  0.62827733  0.83886661  1.0
  C  C248  1  0.49069485  0.32831691  0.75161097  1.0
  C  C249  1  0.17168292  0.99069354  0.25161061  1.0
  C  C250  1  0.50930515  0.67168364  0.75161092  1.0
  C  C251  1  0.82831713  0.00930594  0.25161056  1.0
  C  C252  1  0.00930584  0.82831705  0.74838958  1.0
  C  C253  1  0.99069417  0.17168297  0.74838966  1.0
  C  C254  1  0.67168288  0.50930490  0.24838908  1.0
  C  C255  1  0.32831664  0.49069620  0.24838891  1.0
  C  C256  1  0.42683541  0.22768115  0.77765864  1.0
  C  C257  1  0.27231853  0.92683612  0.27765850  1.0
  C  C258  1  0.57316507  0.77231937  0.77765853  1.0
  C  C259  1  0.72768201  0.07316387  0.27765848  1.0
  C  C260  1  0.07316480  0.72768182  0.72234166  1.0
  C  C261  1  0.92683527  0.27231930  0.72234123  1.0
  C  C262  1  0.77231850  0.57316334  0.22234140  1.0
  C  C263  1  0.22768108  0.42683563  0.22234130  1.0
  C  C264  1  0.60105108  0.16006140  0.15634066  1.0
  C  C265  1  0.33993937  0.10105110  0.65634084  1.0
  C  C266  1  0.39894811  0.83993872  0.15634036  1.0
  C  C267  1  0.66006193  0.89894956  0.65634064  1.0
  C  C268  1  0.89894884  0.66006066  0.34365893  1.0
  C  C269  1  0.10105101  0.33993980  0.34365893  1.0
  C  C270  1  0.83993888  0.39894994  0.84365855  1.0
  C  C271  1  0.16006038  0.60104997  0.84365897  1.0
  C  C272  1  0.45844922  0.25997165  0.74764234  1.0
  C  C273  1  0.24003026  0.95845051  0.24764247  1.0
  C  C274  1  0.54155080  0.74003052  0.74764251  1.0
  C  C275  1  0.75997034  0.04155113  0.24764272  1.0
  C  C276  1  0.04154990  0.75996961  0.75235743  1.0
  C  C277  1  0.95844795  0.24002932  0.75235698  1.0
  C  C278  1  0.74002965  0.54154951  0.25235744  1.0
  C  C279  1  0.25997094  0.45844943  0.25235731  1.0
  C  C280  1  0.64300368  0.09724922  0.16911626  1.0
  C  C281  1  0.40275088  0.14300427  0.66911694  1.0
  C  C282  1  0.35699494  0.90274927  0.16911623  1.0
  C  C283  1  0.59725094  0.85699583  0.66911600  1.0
  C  C284  1  0.85699628  0.59724852  0.33088362  1.0
  C  C285  1  0.14300468  0.40275087  0.33088331  1.0
  C  C286  1  0.90275097  0.35699620  0.83088320  1.0
  C  C287  1  0.09724885  0.64300319  0.83088418  1.0
  C  C288  1  0.45924519  0.22231589  0.71300450  1.0
  C  C289  1  0.27768441  0.95924536  0.21300462  1.0
  C  C290  1  0.54075491  0.77768471  0.71300387  1.0
  C  C291  1  0.72231573  0.04075524  0.21300462  1.0
  C  C292  1  0.04075449  0.72231435  0.78699528  1.0
  C  C293  1  0.95924435  0.27768401  0.78699482  1.0
  C  C294  1  0.77768480  0.54075356  0.28699500  1.0
  C  C295  1  0.22231625  0.45924588  0.28699517  1.0
  C  C296  1  0.64980597  0.03588429  0.14757861  1.0
  C  C297  1  0.46411629  0.14980868  0.64757847  1.0
  C  C298  1  0.35019486  0.96411530  0.14757883  1.0
  C  C299  1  0.53588503  0.85019360  0.64757836  1.0
  C  C300  1  0.85019241  0.53588249  0.35242128  1.0
  C  C301  1  0.14980688  0.46411634  0.35242122  1.0
  C  C302  1  0.96411526  0.35019445  0.85242111  1.0
  C  C303  1  0.03588182  0.64980492  0.85242132  1.0
  C  C304  1  0.67942152  0.09895812  0.20182329  1.0
  C  C305  1  0.40104082  0.17942272  0.70182292  1.0
  C  C306  1  0.32057703  0.90104034  0.20182354  1.0
  C  C307  1  0.59895984  0.82057734  0.70182331  1.0
  C  C308  1  0.82057898  0.59895802  0.29817632  1.0
  C  C309  1  0.17942205  0.40104195  0.29817679  1.0
  C  C310  1  0.90104102  0.32057828  0.79817643  1.0
  C  C311  1  0.09895942  0.67942060  0.79817687  1.0
  C  C312  1  0.51942401  0.22877063  0.69067182  1.0
  C  C313  1  0.27123052  0.01942373  0.19067155  1.0
  C  C314  1  0.48057451  0.77123160  0.69067123  1.0
  C  C315  1  0.72876913  0.98057689  0.19067104  1.0
  C  C316  1  0.98057582  0.72876880  0.80932848  1.0
  C  C317  1  0.01942298  0.27123061  0.80932880  1.0
  C  C318  1  0.77123059  0.48057574  0.30932847  1.0
  C  C319  1  0.22876933  0.51942475  0.30932861  1.0
  C  C320  1  0.69306519  0.97746016  0.15790026  1.0
  C  C321  1  0.52254081  0.19306716  0.65790050  1.0
  C  C322  1  0.30693508  0.02253996  0.15790102  1.0
  C  C323  1  0.47745994  0.80693404  0.65790017  1.0
  C  C324  1  0.80693400  0.47745841  0.34209952  1.0
  C  C325  1  0.19306477  0.52253989  0.34209915  1.0
  C  C326  1  0.02253807  0.30693462  0.84209932  1.0
  C  C327  1  0.97745850  0.69306475  0.84209954  1.0
  C  C328  1  0.70168109  0.91396703  0.13461323  1.0
  C  C329  1  0.58603281  0.20168248  0.63461318  1.0
  C  C330  1  0.29831977  0.08603204  0.13461291  1.0
  C  C331  1  0.41396800  0.79831766  0.63461342  1.0
  C  C332  1  0.79831759  0.41396850  0.36538683  1.0
  C  C333  1  0.20168166  0.58603247  0.36538671  1.0
  C  C334  1  0.08603271  0.29831926  0.86538661  1.0
  C  C335  1  0.91396758  0.70168225  0.86538633  1.0
  C  C336  1  0.70465867  0.92187172  0.09746977  1.0
  C  C337  1  0.57812873  0.20466112  0.59746947  1.0
  C  C338  1  0.29534120  0.07812739  0.09746947  1.0
  C  C339  1  0.42187163  0.79534014  0.59746970  1.0
  C  C340  1  0.79533840  0.42187261  0.40253028  1.0
  C  C341  1  0.20466078  0.57812724  0.40253016  1.0
  C  C342  1  0.07812801  0.29534116  0.90253032  1.0
  C  C343  1  0.92187112  0.70465977  0.90253031  1.0
  C  C344  1  0.70691957  0.84426087  0.14917487  1.0
  C  C345  1  0.65573884  0.20691986  0.64917453  1.0
  C  C346  1  0.29308071  0.15573818  0.14917428  1.0
  C  C347  1  0.34426086  0.79308027  0.64917428  1.0
  C  C348  1  0.79307916  0.34426128  0.35082600  1.0
  C  C349  1  0.20692121  0.65574079  0.35082612  1.0
  C  C350  1  0.15574040  0.29307914  0.85082628  1.0
  C  C351  1  0.84426047  0.70692076  0.85082550  1.0
  C  C352  1  0.71144045  0.86194430  0.07552174  1.0
  C  C353  1  0.63805610  0.21144287  0.57552168  1.0
  C  C354  1  0.28855892  0.13805375  0.07552089  1.0
  C  C355  1  0.36194485  0.78855841  0.57552167  1.0
  C  C356  1  0.78855665  0.36194571  0.42447913  1.0
  C  C357  1  0.21144410  0.63805358  0.42447898  1.0
  C  C358  1  0.13805317  0.28855830  0.92447835  1.0
  C  C359  1  0.86194482  0.71144314  0.92447863  1.0
  C  C360  1  0.71340997  0.78421851  0.12735805  1.0
  C  C361  1  0.71578168  0.21340968  0.62735822  1.0
  C  C362  1  0.28659036  0.21578164  0.12735798  1.0
  C  C363  1  0.28421806  0.78659047  0.62735774  1.0
  C  C364  1  0.78658933  0.28421890  0.37264257  1.0
  C  C365  1  0.21340991  0.71578153  0.37264320  1.0
  C  C366  1  0.21578266  0.28658875  0.87264282  1.0
  C  C367  1  0.78421762  0.71341221  0.87264155  1.0
  C  C368  1  0.71528244  0.79268007  0.09034715  1.0
  C  C369  1  0.70732073  0.21528375  0.59034679  1.0
  C  C370  1  0.28471582  0.20731958  0.09034654  1.0
  C  C371  1  0.29268018  0.78471698  0.59034709  1.0
  C  C372  1  0.78471416  0.29268150  0.40965321  1.0
  C  C373  1  0.21528446  0.70731780  0.40965384  1.0
  C  C374  1  0.20731893  0.28471468  0.90965320  1.0
  C  C375  1  0.79268019  0.71528624  0.90965271  1.0
  C  C376  1  0.71254507  0.72779746  0.06733079  1.0
  C  C377  1  0.77220221  0.21254579  0.56733120  1.0
  C  C378  1  0.28745702  0.27220060  0.06733017  1.0
  C  C379  1  0.22779875  0.78745497  0.56733127  1.0
  C  C380  1  0.78745427  0.22779994  0.43266932  1.0
  C  C381  1  0.21254430  0.77220042  0.43266940  1.0
  C  C382  1  0.27220251  0.28745368  0.93267008  1.0
  C  C383  1  0.72779817  0.71254505  0.93266963  1.0
  O  O384  1  0.38848547  0.36909958  0.03494874  1.0
  O  O385  1  0.13089990  0.88848631  0.53494857  1.0
  O  O386  1  0.61151615  0.63089959  0.03494864  1.0
  O  O387  1  0.86910113  0.11151556  0.53494874  1.0
  O  O388  1  0.11151255  0.86909889  0.46505107  1.0
  O  O389  1  0.88848648  0.13089928  0.46505176  1.0
  O  O390  1  0.63090039  0.61151270  0.96505159  1.0
  O  O391  1  0.36909860  0.38848601  0.96505116  1.0
  O  O392  1  0.25532470  0.40170904  0.00944087  1.0
  O  O393  1  0.09828792  0.75532211  0.50944282  1.0
  O  O394  1  0.74467860  0.59828855  0.00944124  1.0
  O  O395  1  0.90171263  0.24467871  0.50944214  1.0
  O  O396  1  0.24467708  0.90171201  0.49055654  1.0
  O  O397  1  0.75532244  0.09828667  0.49055837  1.0
  O  O398  1  0.59829097  0.74467745  0.99055922  1.0
  O  O399  1  0.40170796  0.25532176  0.99055907  1.0
  O  O400  1  0.26334433  0.28989970  0.96622233  1.0
  O  O401  1  0.21009770  0.76334279  0.46622272  1.0
  O  O402  1  0.73665519  0.71009846  0.96622188  1.0
  O  O403  1  0.78990079  0.23665592  0.46622263  1.0
  O  O404  1  0.23665639  0.78990209  0.53377796  1.0
  O  O405  1  0.76334465  0.21009870  0.53377789  1.0
  O  O406  1  0.71009800  0.73665563  0.03377801  1.0
  O  O407  1  0.28990200  0.26334462  0.03377792  1.0
  O  O408  1  0.42965286  0.48009734  0.07626853  1.0
  O  O409  1  0.01990275  0.92965277  0.57626868  1.0
  O  O410  1  0.57034759  0.51990233  0.07626795  1.0
  O  O411  1  0.98009711  0.07034689  0.57626826  1.0
  O  O412  1  0.07034671  0.98009672  0.42373099  1.0
  O  O413  1  0.92965296  0.01990204  0.42373168  1.0
  O  O414  1  0.51990227  0.57034846  0.92373075  1.0
  O  O415  1  0.48009735  0.42965245  0.92373131  1.0
  O  O416  1  0.32907872  0.43818408  0.12433702  1.0
  O  O417  1  0.06181863  0.82908064  0.62433794  1.0
  O  O418  1  0.67092162  0.56181716  0.12433718  1.0
  O  O419  1  0.93818113  0.17092005  0.62433805  1.0
  O  O420  1  0.17091818  0.93818075  0.37566197  1.0
  O  O421  1  0.82907998  0.06181698  0.37566244  1.0
  O  O422  1  0.56181874  0.67092056  0.87566253  1.0
  O  O423  1  0.43818315  0.32907932  0.87566261  1.0
  O  O424  1  0.29024132  0.46967493  0.05696638  1.0
  O  O425  1  0.03032095  0.79024047  0.55696810  1.0
  O  O426  1  0.70976025  0.53032206  0.05696653  1.0
  O  O427  1  0.96967842  0.20976083  0.55696792  1.0
  O  O428  1  0.20975825  0.96967905  0.44303154  1.0
  O  O429  1  0.79023867  0.03032076  0.44303257  1.0
  O  O430  1  0.53032250  0.70976021  0.94303397  1.0
  O  O431  1  0.46967437  0.29023960  0.94303378  1.0
  O  O432  1  0.29017227  0.33344898  0.08283236  1.0
  O  O433  1  0.16655098  0.79017189  0.58283296  1.0
  O  O434  1  0.70982763  0.66655015  0.08283220  1.0
  O  O435  1  0.83344941  0.20982939  0.58283312  1.0
  O  O436  1  0.20982739  0.83344827  0.41716746  1.0
  O  O437  1  0.79017067  0.16655211  0.41716739  1.0
  O  O438  1  0.66655097  0.70982871  0.91716745  1.0
  O  O439  1  0.33344974  0.29017004  0.91716786  1.0
  O  O440  1  0.42692679  0.34015621  0.10251594  1.0
  O  O441  1  0.15984471  0.92692609  0.60251550  1.0
  O  O442  1  0.57307521  0.65984505  0.10251532  1.0
  O  O443  1  0.84015671  0.07307355  0.60251622  1.0
  O  O444  1  0.07307340  0.84015561  0.39748282  1.0
  O  O445  1  0.92692578  0.15984317  0.39748347  1.0
  O  O446  1  0.65984430  0.57307397  0.89748332  1.0
  O  O447  1  0.34015646  0.42692588  0.89748369  1.0
  O  O448  1  0.43210150  0.48148948  0.14929213  1.0
  O  O449  1  0.01851319  0.93210469  0.64929334  1.0
  O  O450  1  0.56789662  0.51851173  0.14929342  1.0
  O  O451  1  0.98148597  0.06789597  0.64929320  1.0
  O  O452  1  0.06789483  0.98148678  0.35070659  1.0
  O  O453  1  0.93210446  0.01851313  0.35070727  1.0
  O  O454  1  0.51851450  0.56789545  0.85070661  1.0
  O  O455  1  0.48148799  0.43210283  0.85070664  1.0
  O  O456  1  0.47007938  0.59725577  0.11177811  1.0
  O  O457  1  0.90274402  0.97007698  0.61177857  1.0
  O  O458  1  0.52992315  0.40274494  0.11177812  1.0
  O  O459  1  0.09725684  0.02992265  0.61177892  1.0
  O  O460  1  0.02992312  0.09725576  0.38822150  1.0
  O  O461  1  0.97007662  0.90274357  0.38822087  1.0
  O  O462  1  0.40274511  0.52992294  0.88822091  1.0
  O  O463  1  0.59725512  0.47007747  0.88822086  1.0
