# generated using pymatgen
data_Zn4H12C40Cl8O17
_symmetry_space_group_name_H-M   'P 1'
_cell_length_a   23.80786341
_cell_length_b   23.80791676
_cell_length_c   23.80631677
_cell_angle_alpha   66.51327859
_cell_angle_beta   72.49576385
_cell_angle_gamma   107.50138197
_symmetry_Int_Tables_number   1
_chemical_formula_structural   Zn4H12C40Cl8O17
_chemical_formula_sum   'Zn8 H24 C80 Cl16 O34'
_cell_volume   10348.67001795
_cell_formula_units_Z   2
loop_
 _symmetry_equiv_pos_site_id
 _symmetry_equiv_pos_as_xyz
  1  'x, y, z'
loop_
 _atom_site_type_symbol
 _atom_site_label
 _atom_site_symmetry_multiplicity
 _atom_site_fract_x
 _atom_site_fract_y
 _atom_site_fract_z
 _atom_site_occupancy
  Zn  Zn0  1  0.05747810  0.09971940  0.45774692  1.0
  Zn  Zn1  1  0.05747502  0.95775726  0.48476388  1.0
  Zn  Zn2  1  0.94251833  0.95774507  0.59972973  1.0
  Zn  Zn3  1  0.94253541  0.98477985  0.45774413  1.0
  Zn  Zn4  1  0.94252405  0.40028118  0.04225025  1.0
  Zn  Zn5  1  0.05748422  0.54225448  0.90026857  1.0
  Zn  Zn6  1  0.94252440  0.54224222  0.01523175  1.0
  Zn  Zn7  1  0.05746370  0.51522426  0.04225600  1.0
  H  H8  1  0.92332913  0.27116982  0.96449383  1.0
  H  H9  1  0.07666682  0.46449837  0.77113668  1.0
  H  H10  1  0.92332888  0.03550066  0.72886179  1.0
  H  H11  1  0.07661776  0.22884082  0.53549207  1.0
  H  H12  1  0.07668174  0.61221291  0.15214035  1.0
  H  H13  1  0.92334205  0.65219779  0.11215249  1.0
  H  H14  1  0.07661824  0.84777389  0.38787404  1.0
  H  H15  1  0.92332885  0.88782458  0.34782599  1.0
  H  H16  1  0.73565095  0.27116198  0.15220049  1.0
  H  H17  1  0.73564791  0.46449862  0.11215275  1.0
  H  H18  1  0.26435370  0.03550083  0.38784896  1.0
  H  H19  1  0.26435122  0.22882430  0.34786676  1.0
  H  H20  1  0.26435895  0.65222832  0.77115464  1.0
  H  H21  1  0.26434317  0.61215220  0.96451846  1.0
  H  H22  1  0.73565999  0.88785399  0.53548130  1.0
  H  H23  1  0.73564035  0.84783796  0.72883504  1.0
  H  H24  1  0.91941840  0.08217363  0.33724704  1.0
  H  H25  1  0.08058415  0.41782840  0.16274994  1.0
  H  H26  1  0.91941538  0.25666435  0.16275634  1.0
  H  H27  1  0.08058673  0.24333768  0.33724077  1.0
  H  H28  1  0.91941335  0.83723633  0.74335407  1.0
  H  H29  1  0.08058675  0.66276366  0.75664410  1.0
  H  H30  1  0.91941945  0.66274561  0.91784258  1.0
  H  H31  1  0.08058201  0.83725542  0.58215603  1.0
  C  C32  1  0.18216434  0.09107138  0.40892770  1.0
  C  C33  1  0.99999497  0.86034297  0.63965818  1.0
  C  C34  1  0.99998524  0.09107307  0.59108487  1.0
  C  C35  1  0.81783975  0.90893276  0.59106191  1.0
  C  C36  1  0.00000595  0.13965907  0.36033826  1.0
  C  C37  1  0.99998853  0.90891074  0.40892501  1.0
  C  C38  1  0.00000248  0.40892964  0.90890992  1.0
  C  C39  1  0.00000488  0.63965649  0.86033985  1.0
  C  C40  1  0.81783695  0.40892544  0.09108774  1.0
  C  C41  1  0.99999600  0.59109281  0.09107202  1.0
  C  C42  1  0.99999595  0.36034346  0.13965955  1.0
  C  C43  1  0.18216286  0.59108650  0.90893451  1.0
  C  C44  1  0.00000376  0.19577040  0.30422896  1.0
  C  C45  1  0.99999859  0.30423215  0.19576829  1.0
  C  C46  1  0.95611572  0.17923213  0.27688405  1.0
  C  C47  1  0.04388683  0.32076990  0.22311251  1.0
  C  C48  1  0.95611406  0.23299994  0.22311719  1.0
  C  C49  1  0.04388780  0.26700155  0.27688021  1.0
  C  C50  1  0.99999761  0.80423166  0.69576818  1.0
  C  C51  1  0.00000225  0.69576782  0.80422984  1.0
  C  C52  1  0.95611437  0.77687917  0.76700937  1.0
  C  C53  1  0.04388529  0.72312082  0.73298893  1.0
  C  C54  1  0.95611539  0.72311188  0.82077664  1.0
  C  C55  1  0.04388471  0.77688811  0.67922153  1.0
  C  C56  1  0.00000064  0.37147422  0.87145533  1.0
  C  C57  1  0.95670209  0.29948905  0.90858154  1.0
  C  C58  1  0.95678604  0.26474987  0.87357852  1.0
  C  C59  1  0.99999093  0.30058929  0.80057436  1.0
  C  C60  1  0.04320210  0.37358228  0.76472942  1.0
  C  C61  1  0.04329025  0.40858852  0.79946615  1.0
  C  C62  1  0.99998116  0.26533319  0.76532259  1.0
  C  C63  1  0.99997557  0.23467535  0.73466674  1.0
  C  C64  1  0.99997444  0.19942079  0.69941596  1.0
  C  C65  1  0.95677949  0.12642148  0.73526554  1.0
  C  C66  1  0.95669282  0.09141368  0.70052941  1.0
  C  C67  1  0.99997387  0.12852851  0.62853924  1.0
  C  C68  1  0.04325443  0.20052051  0.59140692  1.0
  C  C69  1  0.04317241  0.23525813  0.62641292  1.0
  C  C70  1  0.00000796  0.62855919  0.12851364  1.0
  C  C71  1  0.04330629  0.63474506  0.15719506  1.0
  C  C72  1  0.04322037  0.66966267  0.19201988  1.0
  C  C73  1  0.00000501  0.69944101  0.19939641  1.0
  C  C74  1  0.95680018  0.69207256  0.16960972  1.0
  C  C75  1  0.95671648  0.65725103  0.13468744  1.0
  C  C76  1  0.99999613  0.73468199  0.23466495  1.0
  C  C77  1  0.99998396  0.76532052  0.26533340  1.0
  C  C78  1  0.99997957  0.80056410  0.30059987  1.0
  C  C79  1  0.04317338  0.80791635  0.33040177  1.0
  C  C80  1  0.04325442  0.84273215  0.36532756  1.0
  C  C81  1  0.99997576  0.87144122  0.37148603  1.0
  C  C82  1  0.95669200  0.86527729  0.34278436  1.0
  C  C83  1  0.95678089  0.83036229  0.30795760  1.0
  C  C84  1  0.74292770  0.37146983  0.12853921  1.0
  C  C85  1  0.70806263  0.29948349  0.15724322  1.0
  C  C86  1  0.63832106  0.26474667  0.19206606  1.0
  C  C87  1  0.60116409  0.30058387  0.19942662  1.0
  C  C88  1  0.63831829  0.37358115  0.16962166  1.0
  C  C89  1  0.70806223  0.40858921  0.13469882  1.0
  C  C90  1  0.53065434  0.26532697  0.23469265  1.0
  C  C91  1  0.46934609  0.23466509  0.26535939  1.0
  C  C92  1  0.39883861  0.19940454  0.30061821  1.0
  C  C93  1  0.36168472  0.12641462  0.33039789  1.0
  C  C94  1  0.29194042  0.09140865  0.36531916  1.0
  C  C95  1  0.25707286  0.12852539  0.37149263  1.0
  C  C96  1  0.29193758  0.20050333  0.34281433  1.0
  C  C97  1  0.36168149  0.23524329  0.30799416  1.0
  C  C98  1  0.25707250  0.62855151  0.87147499  1.0
  C  C99  1  0.29194271  0.65726543  0.79948165  1.0
  C  C100  1  0.36168520  0.69208670  0.76474220  1.0
  C  C101  1  0.39883675  0.69943695  0.80058675  1.0
  C  C102  1  0.36167649  0.66962766  0.87359219  1.0
  C  C103  1  0.29193223  0.63470613  0.90860343  1.0
  C  C104  1  0.46934603  0.73469854  0.76532867  1.0
  C  C105  1  0.53065407  0.76535520  0.73466196  1.0
  C  C106  1  0.60116379  0.80060635  0.69940074  1.0
  C  C107  1  0.63832348  0.83039160  0.62640418  1.0
  C  C108  1  0.70806891  0.86531469  0.59139533  1.0
  C  C109  1  0.74292956  0.87148080  0.62852103  1.0
  C  C110  1  0.70805679  0.84278988  0.70050812  1.0
  C  C111  1  0.63831523  0.80796965  0.73524645  1.0
  Cl  Cl112  1  0.09656653  0.41955879  0.67633948  1.0
  Cl  Cl113  1  0.90342072  0.17637147  0.91956318  1.0
  Cl  Cl114  1  0.09651714  0.32364442  0.58041538  1.0
  Cl  Cl115  1  0.90343210  0.08044181  0.82365790  1.0
  Cl  Cl116  1  0.90343371  0.72708658  0.17699756  1.0
  Cl  Cl117  1  0.09658296  0.67705264  0.22703458  1.0
  Cl  Cl118  1  0.90343355  0.82299479  0.27292099  1.0
  Cl  Cl119  1  0.09652015  0.77287882  0.32303592  1.0
  Cl  Cl120  1  0.59591465  0.41956138  0.17698968  1.0
  Cl  Cl121  1  0.59591908  0.17636341  0.22710119  1.0
  Cl  Cl122  1  0.40408471  0.32361970  0.27297860  1.0
  Cl  Cl123  1  0.40408672  0.08043756  0.32301104  1.0
  Cl  Cl124  1  0.40407468  0.67698692  0.91958052  1.0
  Cl  Cl125  1  0.40409259  0.72713516  0.67634804  1.0
  Cl  Cl126  1  0.59590546  0.77294837  0.82363264  1.0
  Cl  Cl127  1  0.59592971  0.82301719  0.58041466  1.0
  O  O128  1  0.00000059  0.99999967  0.50000000  1.0
  O  O129  1  0.15308461  0.12765810  0.41262806  1.0
  O  O130  1  0.04019193  0.88421134  0.57559419  1.0
  O  O131  1  0.95969303  0.02540566  0.62767818  1.0
  O  O132  1  0.15308640  0.02541067  0.43428454  1.0
  O  O133  1  0.04028731  0.12765687  0.52541800  1.0
  O  O134  1  0.95979514  0.88419972  0.65599975  1.0
  O  O135  1  0.84691354  0.91263152  0.62765989  1.0
  O  O136  1  0.95981222  0.07560273  0.38420045  1.0
  O  O137  1  0.84692181  0.93430123  0.52539905  1.0
  O  O138  1  0.04020240  0.15599187  0.38420044  1.0
  O  O139  1  0.04028757  0.91262137  0.43429154  1.0
  O  O140  1  0.95970888  0.93429464  0.41261992  1.0
  O  O141  1  0.00000083  0.50000083  0.99999830  1.0
  O  O142  1  0.95970516  0.37234374  0.97457913  1.0
  O  O143  1  0.04020492  0.61579923  0.84399842  1.0
  O  O144  1  0.84691420  0.47458565  0.06571787  1.0
  O  O145  1  0.04030296  0.47459494  0.87231916  1.0
  O  O146  1  0.84691620  0.37233769  0.08738122  1.0
  O  O147  1  0.95980885  0.61578917  0.92440314  1.0
  O  O148  1  0.95969807  0.58737746  0.06570774  1.0
  O  O149  1  0.04018816  0.42440033  0.11579846  1.0
  O  O150  1  0.04028419  0.56571359  0.08737299  1.0
  O  O151  1  0.95979995  0.34401067  0.11579681  1.0
  O  O152  1  0.15308800  0.58737782  0.87234121  1.0
  O  O153  1  0.15307908  0.56570861  0.97460121  1.0
  O  O154  1  0.91301419  0.11314393  0.29987493  1.0
  O  O155  1  0.08698879  0.38685808  0.20012192  1.0
  O  O156  1  0.91301228  0.21288827  0.20013056  1.0
  O  O157  1  0.08699026  0.28711374  0.29986643  1.0
  O  O158  1  0.91301254  0.79986320  0.78713119  1.0
  O  O159  1  0.08698780  0.70013731  0.71286712  1.0
  O  O160  1  0.91301626  0.70011991  0.88687375  1.0
  O  O161  1  0.08698545  0.79988164  0.61312456  1.0
