# generated using pymatgen
data_AlH11C12O5
_symmetry_space_group_name_H-M   'P 1'
_cell_length_a   6.73409975
_cell_length_b   18.07545779
_cell_length_c   20.63740313
_cell_angle_alpha   72.59491043
_cell_angle_beta   87.68926577
_cell_angle_gamma   87.43423880
_symmetry_Int_Tables_number   1
_chemical_formula_structural   AlH11C12O5
_chemical_formula_sum   'Al4 H44 C48 O20'
_cell_volume   2393.64986587
_cell_formula_units_Z   4
loop_
 _symmetry_equiv_pos_site_id
 _symmetry_equiv_pos_as_xyz
  1  'x, y, z'
loop_
 _atom_site_type_symbol
 _atom_site_label
 _atom_site_symmetry_multiplicity
 _atom_site_fract_x
 _atom_site_fract_y
 _atom_site_fract_z
 _atom_site_occupancy
  Al  Al0  1  0.12880940  0.49877044  0.49858588  1.0
  Al  Al1  1  0.62863082  0.49925584  0.49978157  1.0
  Al  Al2  1  0.61390213  0.00015466  0.00065605  1.0
  Al  Al3  1  0.11411506  0.99929721  0.99924809  1.0
  H  H4  1  0.61130641  0.78042096  0.67804683  1.0
  H  H5  1  0.21628169  0.19680952  0.35131418  1.0
  H  H6  1  0.55850221  0.82133053  0.77345971  1.0
  H  H7  1  0.07308794  0.15892795  0.26603116  1.0
  H  H8  1  0.11058585  0.85240923  0.73264965  1.0
  H  H9  1  0.63134106  0.15780780  0.23154682  1.0
  H  H10  1  0.87139598  0.88407895  0.70153746  1.0
  H  H11  1  0.44472242  0.11845677  0.29331935  1.0
  H  H12  1  0.92920958  0.80885745  0.62741868  1.0
  H  H13  1  0.57404699  0.20059078  0.35066423  1.0
  H  H14  1  0.15083642  0.72716168  0.81971754  1.0
  H  H15  1  0.55791382  0.28763982  0.15052533  1.0
  H  H16  1  0.59606255  0.72814055  0.83108249  1.0
  H  H17  1  0.03159503  0.25441185  0.21263477  1.0
  H  H18  1  0.10483837  0.63280140  0.76554733  1.0
  H  H19  1  0.50968329  0.38284153  0.20605116  1.0
  H  H20  1  0.63052061  0.55969410  0.77593963  1.0
  H  H21  1  0.53606195  0.60278164  0.83865405  1.0
  H  H22  1  0.37282870  0.56329700  0.79371537  1.0
  H  H23  1  0.34725063  0.70339714  0.74340571  1.0
  H  H24  1  0.46814711  0.66264293  0.68431057  1.0
  H  H25  1  0.03407948  0.41258106  0.27353277  1.0
  H  H26  1  0.90096574  0.35980520  0.23028786  1.0
  H  H27  1  0.78788479  0.38558968  0.29997530  1.0
  H  H28  1  0.88458389  0.24936494  0.34647635  1.0
  H  H29  1  0.04701419  0.30293774  0.37729403  1.0
  H  H30  1  0.14093039  0.76161126  0.67130222  1.0
  H  H31  1  0.68637271  0.26003345  0.27511471  1.0
  H  H32  1  0.09197620  0.55676052  0.90254693  1.0
  H  H33  1  0.24407866  0.62097318  0.92706217  1.0
  H  H34  1  0.05199694  0.57252507  0.98292679  1.0
  H  H35  1  0.94903158  0.71090414  0.92773583  1.0
  H  H36  1  0.79362912  0.64790357  0.90402104  1.0
  H  H37  1  0.34135969  0.45215326  0.08692935  1.0
  H  H38  1  0.51691883  0.40533902  0.04439416  1.0
  H  H39  1  0.27552397  0.43190690  0.01186374  1.0
  H  H40  1  0.29530187  0.28993174  0.06944183  1.0
  H  H41  1  0.12537462  0.33527588  0.11402788  1.0
  H  H42  1  0.86997882  0.61009267  0.80466629  1.0
  H  H43  1  0.24828029  0.38147452  0.20453157  1.0
  H  H44  1  0.36555055  0.59650083  0.49789672  1.0
  H  H45  1  0.88778707  0.39913566  0.50724464  1.0
  H  H46  1  0.37841947  0.90377773  0.99757788  1.0
  H  H47  1  0.85510390  0.09498299  0.00377357  1.0
  C  C48  1  0.40070690  0.42155658  0.42191290  1.0
  C  C49  1  0.86108363  0.57682449  0.57629160  1.0
  C  C50  1  0.37579531  0.39284186  0.60329846  1.0
  C  C51  1  0.87988821  0.60498011  0.39536926  1.0
  C  C52  1  0.87672321  0.66666667  0.33208029  1.0
  C  C53  1  0.37501211  0.33161668  0.66691561  1.0
  C  C54  1  0.87283800  0.71979949  0.27896037  1.0
  C  C55  1  0.37221866  0.27890827  0.72034956  1.0
  C  C56  1  0.86911421  0.77838440  0.22031558  1.0
  C  C57  1  0.36950462  0.22069240  0.77927814  1.0
  C  C58  1  0.86588739  0.83148296  0.16718450  1.0
  C  C59  1  0.36710713  0.16784618  0.83259071  1.0
  C  C60  1  0.65423899  0.76848488  0.78370988  1.0
  C  C61  1  0.13913124  0.21622862  0.24710765  1.0
  C  C62  1  0.96489157  0.83213645  0.72448170  1.0
  C  C63  1  0.49913092  0.17295749  0.25850810  1.0
  C  C64  1  0.98507198  0.77891838  0.67819918  1.0
  C  C65  1  0.54987075  0.23052983  0.29665217  1.0
  C  C66  1  0.85873518  0.62088165  0.62401772  1.0
  C  C67  1  0.40826473  0.37737287  0.37417350  1.0
  C  C68  1  0.86996412  0.78793263  0.79452546  1.0
  C  C69  1  0.33525049  0.21005751  0.20661221  1.0
  C  C70  1  0.64909606  0.73315828  0.72427334  1.0
  C  C71  1  0.18174820  0.24730651  0.30719437  1.0
  C  C72  1  0.86420132  0.70500648  0.71022034  1.0
  C  C73  1  0.37918987  0.29244615  0.28957887  1.0
  C  C74  1  0.96315914  0.65853090  0.77771981  1.0
  C  C75  1  0.38362099  0.34424120  0.21438725  1.0
  C  C76  1  0.99390933  0.71070837  0.82355615  1.0
  C  C77  1  0.40034115  0.29361655  0.16568956  1.0
  C  C78  1  0.86405800  0.65872133  0.66367924  1.0
  C  C79  1  0.40210772  0.33894774  0.33498955  1.0
  C  C80  1  0.87516408  0.83598500  0.83941401  1.0
  C  C81  1  0.32115041  0.16274161  0.16149535  1.0
  C  C82  1  0.88394569  0.87666719  0.87658005  1.0
  C  C83  1  0.32925630  0.12250046  0.12357753  1.0
  C  C84  1  0.36577765  0.10623321  0.89607603  1.0
  C  C85  1  0.86369735  0.89316148  0.10377454  1.0
  C  C86  1  0.34197805  0.07716045  0.07695700  1.0
  C  C87  1  0.88125789  0.92222830  0.92301364  1.0
  C  C88  1  0.48615284  0.67388420  0.73328813  1.0
  C  C89  1  0.50916866  0.59604887  0.78853336  1.0
  C  C90  1  0.00526529  0.29044232  0.33077376  1.0
  C  C91  1  0.92858098  0.36605019  0.28063341  1.0
  C  C92  1  0.94644201  0.66892625  0.89863411  1.0
  C  C93  1  0.09122467  0.60103116  0.92931342  1.0
  C  C94  1  0.28454588  0.32982891  0.10069264  1.0
  C  C95  1  0.35857680  0.40915710  0.05887696  1.0
  O  O96  1  0.54585839  0.41497170  0.57735192  1.0
  O  O97  1  0.05069291  0.57910010  0.41760631  1.0
  O  O98  1  0.22724535  0.43637263  0.44319314  1.0
  O  O99  1  0.69420617  0.55751911  0.56034419  1.0
  O  O100  1  0.20593170  0.41769365  0.57947762  1.0
  O  O101  1  0.71093080  0.58356345  0.42274583  1.0
  O  O102  1  0.03236207  0.56184009  0.55362363  1.0
  O  O103  1  0.56524395  0.44098391  0.43932662  1.0
  O  O104  1  0.37398963  0.54470662  0.49317349  1.0
  O  O105  1  0.88281422  0.45326643  0.50566977  1.0
  O  O106  1  0.17839696  0.05815811  0.05842885  1.0
  O  O107  1  0.70959922  0.93901301  0.94413043  1.0
  O  O108  1  0.53521550  0.08243102  0.92074542  1.0
  O  O109  1  0.03316948  0.91514357  0.07726575  1.0
  O  O110  1  0.51647799  0.06092458  0.05754855  1.0
  O  O111  1  0.04797594  0.94076189  0.93971279  1.0
  O  O112  1  0.69303553  0.91819006  0.08084205  1.0
  O  O113  1  0.19549344  0.08308260  0.92085080  1.0
  O  O114  1  0.36916727  0.95395139  0.00567176  1.0
  O  O115  1  0.85980517  0.04556066  0.99426869  1.0
