# generated using pymatgen
data_AlH8C14NO5F
_symmetry_space_group_name_H-M   'P 1'
_cell_length_a   6.66765608
_cell_length_b   11.10621638
_cell_length_c   17.72284541
_cell_angle_alpha   89.79358525
_cell_angle_beta   79.80007190
_cell_angle_gamma   72.87946265
_symmetry_Int_Tables_number   1
_chemical_formula_structural   AlH8C14NO5F
_chemical_formula_sum   'Al2 H16 C28 N2 O10 F2'
_cell_volume   1232.79662232
_cell_formula_units_Z   2
loop_
 _symmetry_equiv_pos_site_id
 _symmetry_equiv_pos_as_xyz
  1  'x, y, z'
loop_
 _atom_site_type_symbol
 _atom_site_label
 _atom_site_symmetry_multiplicity
 _atom_site_fract_x
 _atom_site_fract_y
 _atom_site_fract_z
 _atom_site_occupancy
  Al  Al0  1  0.00252504  0.50665742  0.49745186  1.0
  Al  Al1  1  0.50256748  0.50791560  0.49756599  1.0
  H  H2  1  0.35128015  0.36646109  0.43985433  1.0
  H  H3  1  0.65534853  0.65782785  0.53977561  1.0
  H  H4  1  0.86874763  0.43158856  0.71987692  1.0
  H  H5  1  0.80447673  0.40772183  0.86208675  1.0
  H  H6  1  0.43373765  0.53466287  0.73528066  1.0
  H  H7  1  0.53352247  0.54638207  0.26319072  1.0
  H  H8  1  0.20534915  0.43592707  0.26773141  1.0
  H  H9  1  0.28654126  0.41309384  0.12404802  1.0
  H  H10  1  0.53055619  0.24611413  0.60583336  1.0
  H  H11  1  0.78306430  0.77581977  0.60507720  1.0
  H  H12  1  0.35218810  0.88884368  0.44217752  1.0
  H  H13  1  0.23346637  0.12488610  0.44787022  1.0
  H  H14  1  0.33641088  0.54014650  0.94557415  1.0
  H  H15  1  0.49043087  0.57611142  0.86527427  1.0
  H  H16  1  0.61624060  0.54919142  0.05293292  1.0
  H  H17  1  0.42833241  0.58625185  0.13624270  1.0
  C  C18  1  0.86192855  0.28079529  0.50854361  1.0
  C  C19  1  0.81623464  0.50184388  0.35841244  1.0
  C  C20  1  0.13570756  0.73534315  0.49939096  1.0
  C  C21  1  0.19330339  0.49993662  0.63617184  1.0
  C  C22  1  0.15398016  0.48586690  0.72056154  1.0
  C  C23  1  0.97460787  0.45062181  0.75542038  1.0
  C  C24  1  0.93894559  0.43841693  0.83409171  1.0
  C  C25  1  0.07457825  0.46577367  0.87987187  1.0
  C  C26  1  0.25661394  0.50149012  0.84426075  1.0
  C  C27  1  0.29508021  0.50858118  0.76421419  1.0
  C  C28  1  0.03047497  0.46266133  0.96061106  1.0
  C  C29  1  0.00132314  0.46532341  0.03094810  1.0
  C  C30  1  0.95626848  0.47237550  0.11196801  1.0
  C  C31  1  0.73931161  0.51103366  0.15112733  1.0
  C  C32  1  0.69757163  0.51899685  0.23164370  1.0
  C  C33  1  0.86429893  0.49302459  0.27285984  1.0
  C  C34  1  0.07797348  0.45619593  0.23437481  1.0
  C  C35  1  0.12201489  0.44441303  0.15487751  1.0
  C  C36  1  0.92641261  0.14120338  0.51518658  1.0
  C  C37  1  0.78746270  0.07745934  0.55689340  1.0
  C  C38  1  0.12876725  0.07359993  0.47727637  1.0
  C  C39  1  0.58802645  0.14355872  0.60307968  1.0
  C  C40  1  0.46668112  0.07819787  0.64576767  1.0
  C  C41  1  0.06147816  0.87568954  0.51025012  1.0
  C  C42  1  0.19568998  0.94142121  0.47432180  1.0
  C  C43  1  0.85823111  0.94161388  0.55521460  1.0
  C  C44  1  0.72922616  0.87786139  0.60160288  1.0
  C  C45  1  0.53820071  0.94510213  0.64540535  1.0
  N  N46  1  0.39261519  0.52556453  0.88824264  1.0
  N  N47  1  0.57677804  0.53590563  0.10965591  1.0
  O  O48  1  0.00502943  0.33481711  0.51014042  1.0
  O  O49  1  0.62375512  0.51573711  0.39119235  1.0
  O  O50  1  0.33227272  0.68098338  0.50001739  1.0
  O  O51  1  0.03374440  0.51598634  0.60266827  1.0
  O  O52  1  0.99923821  0.68014822  0.48934929  1.0
  O  O53  1  0.38191386  0.49652088  0.60373458  1.0
  O  O54  1  0.67199861  0.33519166  0.49890127  1.0
  O  O55  1  0.97325466  0.49266284  0.39244840  1.0
  O  O56  1  0.29654787  0.45002083  0.46482910  1.0
  O  O57  1  0.70792388  0.56704638  0.52996829  1.0
  F  F58  1  0.27723653  0.13979033  0.69057988  1.0
  F  F59  1  0.41522643  0.88505431  0.69046702  1.0
