# generated using pymatgen
data_ZnH20C30NO4
_symmetry_space_group_name_H-M   'P 1'
_cell_length_a   15.15564517
_cell_length_b   15.75034353
_cell_length_c   15.93537172
_cell_angle_alpha   87.49080589
_cell_angle_beta   84.77381598
_cell_angle_gamma   61.24625363
_symmetry_Int_Tables_number   1
_chemical_formula_structural   ZnH20C30NO4
_chemical_formula_sum   'Zn4 H80 C120 N4 O16'
_cell_volume   3320.97922298
_cell_formula_units_Z   4
loop_
 _symmetry_equiv_pos_site_id
 _symmetry_equiv_pos_as_xyz
  1  'x, y, z'
loop_
 _atom_site_type_symbol
 _atom_site_label
 _atom_site_symmetry_multiplicity
 _atom_site_fract_x
 _atom_site_fract_y
 _atom_site_fract_z
 _atom_site_occupancy
  Zn  Zn0  1  0.44384073  0.99143072  0.43539917  1.0
  Zn  Zn1  1  0.56477583  0.99154953  0.06458936  1.0
  Zn  Zn2  1  0.55615905  0.00856977  0.56460090  1.0
  Zn  Zn3  1  0.43522339  0.00844806  0.93540774  1.0
  H  H4  1  0.33365689  0.28132257  0.67730527  1.0
  H  H5  1  0.18833439  0.43667866  0.72638168  1.0
  H  H6  1  0.01538323  0.41744209  0.53435144  1.0
  H  H7  1  0.16328519  0.26059208  0.48625157  1.0
  H  H8  1  0.93389481  0.54916331  0.63072725  1.0
  H  H9  1  0.07160746  0.57208878  0.74806942  1.0
  H  H10  1  0.99500942  0.68016840  0.85801251  1.0
  H  H11  1  0.84407649  0.81384833  0.93387168  1.0
  H  H12  1  0.66323850  0.83162614  0.73430814  1.0
  H  H13  1  0.81183500  0.69887021  0.65829821  1.0
  H  H14  1  0.22976611  0.06235270  0.43957507  1.0
  H  H15  1  0.10202701  0.06684591  0.34853169  1.0
  H  H16  1  0.34887922  0.89762609  0.16556105  1.0
  H  H17  1  0.46531528  0.90057972  0.26350214  1.0
  H  H18  1  0.06357176  0.01243058  0.22632626  1.0
  H  H19  1  0.22611806  0.95973436  0.07869053  1.0
  H  H20  1  0.99253771  0.84693013  0.84819865  1.0
  H  H21  1  0.15938498  0.70248737  0.84518124  1.0
  H  H22  1  0.28615525  0.68877567  0.94199197  1.0
  H  H23  1  0.24350750  0.81973851  0.04273760  1.0
  H  H24  1  0.38488487  0.28141023  0.82254472  1.0
  H  H25  1  0.37506631  0.43668289  0.77345554  1.0
  H  H26  1  0.56718055  0.41730196  0.96559760  1.0
  H  H27  1  0.57589978  0.26058609  0.01369888  1.0
  H  H28  1  0.51706289  0.54909937  0.86929275  1.0
  H  H29  1  0.35634308  0.57208184  0.75201765  1.0
  H  H30  1  0.32468869  0.68024259  0.64211014  1.0
  H  H31  1  0.34204686  0.81384848  0.56616937  1.0
  H  H32  1  0.50519531  0.83162187  0.76568717  1.0
  H  H33  1  0.48936710  0.69884384  0.84169854  1.0
  H  H34  1  0.70799278  0.06250452  0.06046474  1.0
  H  H35  1  0.83127261  0.06692265  0.15152684  1.0
  H  H36  1  0.75364147  0.89758456  0.33436757  1.0
  H  H37  1  0.63423159  0.90060417  0.23641921  1.0
  H  H38  1  0.92418264  0.01239226  0.27369440  1.0
  H  H39  1  0.81419472  0.95970924  0.42123645  1.0
  H  H40  1  0.16056672  0.84686338  0.65174464  1.0
  H  H41  1  0.13816145  0.70242805  0.65472437  1.0
  H  H42  1  0.02503221  0.68873657  0.55796295  1.0
  H  H43  1  0.93666495  0.81977828  0.45728075  1.0
  H  H44  1  0.66634355  0.71867792  0.32269599  1.0
  H  H45  1  0.81166605  0.56332183  0.27361958  1.0
  H  H46  1  0.98461690  0.58255767  0.46564799  1.0
  H  H47  1  0.83671531  0.73940696  0.51374912  1.0
  H  H48  1  0.06610497  0.45083718  0.36927156  1.0
  H  H49  1  0.92839201  0.42791098  0.25193195  1.0
  H  H50  1  0.00499072  0.31983136  0.14198755  1.0
  H  H51  1  0.15592232  0.18615144  0.06612725  1.0
  H  H52  1  0.33676289  0.16837507  0.26569049  1.0
  H  H53  1  0.18816471  0.30113173  0.34170242  1.0
  H  H54  1  0.77023469  0.93764707  0.56042619  1.0
  H  H55  1  0.89797350  0.93315313  0.65147089  1.0
  H  H56  1  0.65112043  0.10237730  0.83443952  1.0
  H  H57  1  0.53468334  0.09942439  0.73649786  1.0
  H  H58  1  0.93642802  0.98756991  0.77367506  1.0
  H  H59  1  0.77388509  0.04026468  0.92130993  1.0
  H  H60  1  0.00746213  0.15306891  0.15180273  1.0
  H  H61  1  0.84061486  0.29751167  0.15482013  1.0
  H  H62  1  0.71384627  0.31122265  0.05800804  1.0
  H  H63  1  0.75649439  0.18025908  0.95726240  1.0
  H  H64  1  0.61511358  0.71859026  0.17745421  1.0
  H  H65  1  0.62493178  0.56331832  0.22654526  1.0
  H  H66  1  0.43281827  0.58269780  0.03440321  1.0
  H  H67  1  0.42409867  0.73941440  0.98630068  1.0
  H  H68  1  0.48293724  0.45090039  0.13070731  1.0
  H  H69  1  0.64365603  0.42791864  0.24798184  1.0
  H  H70  1  0.67531271  0.31975863  0.35788849  1.0
  H  H71  1  0.65795417  0.18615346  0.43383052  1.0
  H  H72  1  0.49480519  0.16837717  0.23431415  1.0
  H  H73  1  0.51063370  0.30115593  0.15830146  1.0
  H  H74  1  0.29200555  0.93749886  0.93953533  1.0
  H  H75  1  0.16872577  0.93307928  0.84847328  1.0
  H  H76  1  0.24635866  0.10241520  0.66563061  1.0
  H  H77  1  0.36576722  0.09939559  0.76357972  1.0
  H  H78  1  0.07581690  0.98760606  0.72630641  1.0
  H  H79  1  0.18580512  0.04028980  0.57876305  1.0
  H  H80  1  0.83943450  0.15313421  0.34825480  1.0
  H  H81  1  0.86183772  0.29757099  0.34527582  1.0
  H  H82  1  0.97496696  0.31126247  0.44203786  1.0
  H  H83  1  0.06333422  0.18022076  0.54272006  1.0
  C  C84  1  0.34577497  0.16661223  0.55074168  1.0
  C  C85  1  0.25756970  0.26149570  0.57864720  1.0
  C  C86  1  0.26367107  0.31235638  0.64611715  1.0
  C  C87  1  0.18220446  0.39983134  0.67260582  1.0
  C  C88  1  0.09112431  0.44027662  0.63265032  1.0
  C  C89  1  0.08555773  0.38803199  0.56544402  1.0
  C  C90  1  0.16751166  0.30041582  0.53860717  1.0
  C  C91  1  0.00351447  0.53129710  0.65970336  1.0
  C  C92  1  0.00173694  0.59145472  0.71878853  1.0
  C  C93  1  0.91413070  0.67739585  0.75398715  1.0
  C  C94  1  0.92226545  0.71384053  0.83053585  1.0
  C  C95  1  0.83850331  0.78807563  0.87328249  1.0
  C  C96  1  0.74406484  0.82914813  0.84005733  1.0
  C  C97  1  0.73606888  0.79755786  0.76134349  1.0
  C  C98  1  0.81988784  0.72289910  0.71892937  1.0
  C  C99  1  0.65245699  0.90132632  0.89122439  1.0
  C  C100  1  0.25219896  0.02595335  0.37874790  1.0
  C  C101  1  0.18196345  0.02821761  0.32780041  1.0
  C  C102  1  0.21403306  0.98368143  0.24830075  1.0
  C  C103  1  0.31842828  0.93538947  0.22549469  1.0
  C  C104  1  0.38418997  0.93611325  0.28013393  1.0
  C  C105  1  0.13793642  0.99185063  0.19425386  1.0
  C  C106  1  0.15140957  0.97963702  0.11004304  1.0
  C  C107  1  0.07315187  0.99114188  0.05585356  1.0
  C  C108  1  0.09523697  0.91517527  0.99928113  1.0
  C  C109  1  0.02205462  0.92360019  0.94269671  1.0
  C  C110  1  0.04818852  0.84346185  0.88867538  1.0
  C  C111  1  0.14117902  0.76208900  0.88774992  1.0
  C  C112  1  0.21305004  0.75408983  0.94297330  1.0
  C  C113  1  0.18952531  0.82786025  0.99819006  1.0
  C  C114  1  0.48743991  0.16662881  0.94916796  1.0
  C  C115  1  0.48075481  0.26152171  0.92125247  1.0
  C  C116  1  0.42388976  0.31238934  0.85373636  1.0
  C  C117  1  0.41798823  0.39983080  0.82725746  1.0
  C  C118  1  0.46864578  0.44023572  0.86727103  1.0
  C  C119  1  0.52634402  0.38799065  0.93450885  1.0
  C  C120  1  0.53188242  0.30042607  0.96133916  1.0
  C  C121  1  0.46529539  0.53126363  0.84028231  1.0
  C  C122  1  0.40684714  0.59147678  0.78126492  1.0
  C  C123  1  0.40842596  0.67745107  0.74607150  1.0
  C  C124  1  0.36377692  0.71391207  0.66956502  1.0
  C  C125  1  0.37335770  0.78811429  0.62678390  1.0
  C  C126  1  0.42678398  0.82915429  0.65996433  1.0
  C  C127  1  0.46640199  0.79757654  0.73866835  1.0
  C  C128  1  0.45723285  0.72293111  0.78108685  1.0
  C  C129  1  0.44622011  0.90129704  0.60875382  1.0
  C  C130  1  0.72196137  0.02605034  0.12125863  1.0
  C  C131  1  0.78995149  0.02827325  0.17221580  1.0
  C  C132  1  0.80245629  0.98365672  0.25167280  1.0
  C  C133  1  0.74633258  0.93536513  0.27445150  1.0
  C  C134  1  0.67984394  0.93612453  0.21980723  1.0
  C  C135  1  0.87037369  0.99180748  0.30572616  1.0
  C  C136  1  0.86901909  0.97961249  0.38993148  1.0
  C  C137  1  0.93572835  0.99113879  0.44415263  1.0
  C  C138  1  0.98955770  0.91518078  0.50074431  1.0
  C  C139  1  0.05432723  0.92359713  0.55730064  1.0
  C  C140  1  0.10833023  0.84344292  0.61129723  1.0
  C  C141  1  0.09671534  0.76206019  0.61220480  1.0
  C  C142  1  0.03278708  0.75408268  0.55701459  1.0
  C  C143  1  0.98253976  0.82787559  0.50182431  1.0
  C  C144  1  0.65422613  0.83338826  0.44925889  1.0
  C  C145  1  0.74243110  0.73850406  0.42135155  1.0
  C  C146  1  0.73632967  0.68764484  0.35388405  1.0
  C  C147  1  0.81779796  0.60016915  0.32739464  1.0
  C  C148  1  0.90887679  0.55972387  0.36734900  1.0
  C  C149  1  0.91444440  0.61196777  0.43455461  1.0
  C  C150  1  0.83249052  0.69958249  0.46139027  1.0
  C  C151  1  0.99648663  0.46870339  0.34029659  1.0
  C  C152  1  0.99826248  0.40854649  0.28121279  1.0
  C  C153  1  0.08586770  0.32260608  0.24601486  1.0
  C  C154  1  0.07773263  0.28616068  0.16946371  1.0
  C  C155  1  0.16149478  0.21192558  0.12671769  1.0
  C  C156  1  0.25593596  0.17085163  0.15994393  1.0
  C  C157  1  0.26393156  0.20244263  0.23865714  1.0
  C  C158  1  0.18011091  0.27710212  0.28107138  1.0
  C  C159  1  0.34754194  0.09867054  0.10877528  1.0
  C  C160  1  0.74780287  0.97404569  0.62125268  1.0
  C  C161  1  0.81803808  0.97178071  0.67220085  1.0
  C  C162  1  0.78596739  0.01631906  0.75170114  1.0
  C  C163  1  0.68157150  0.06461102  0.77450663  1.0
  C  C164  1  0.61581041  0.06388869  0.71986727  1.0
  C  C165  1  0.86206402  0.00814986  0.80574803  1.0
  C  C166  1  0.84859256  0.02036275  0.88995936  1.0
  C  C167  1  0.92684996  0.00885716  0.94414576  1.0
  C  C168  1  0.90476142  0.08482666  0.00071837  1.0
  C  C169  1  0.97794581  0.07640030  0.05730141  1.0
  C  C170  1  0.95181125  0.15653864  0.11132343  1.0
  C  C171  1  0.85881773  0.23791221  0.11224913  1.0
  C  C172  1  0.78694979  0.24590921  0.05702683  1.0
  C  C173  1  0.81047380  0.17214024  0.00180944  1.0
  C  C174  1  0.51255757  0.83337095  0.05082921  1.0
  C  C175  1  0.51924665  0.73847805  0.07874497  1.0
  C  C176  1  0.57611134  0.68761115  0.14626233  1.0
  C  C177  1  0.58201088  0.60016969  0.17274204  1.0
  C  C178  1  0.53135339  0.55976332  0.13272852  1.0
  C  C179  1  0.47365612  0.61200911  0.06549058  1.0
  C  C180  1  0.46811837  0.69957370  0.03865959  1.0
  C  C181  1  0.53470306  0.46873686  0.15971725  1.0
  C  C182  1  0.59315197  0.40852370  0.21873457  1.0
  C  C183  1  0.59157272  0.32255159  0.25392731  1.0
  C  C184  1  0.63622118  0.28608914  0.33043767  1.0
  C  C185  1  0.62664238  0.21188692  0.37321736  1.0
  C  C186  1  0.57321645  0.17084620  0.34003505  1.0
  C  C187  1  0.53359947  0.20242322  0.26133348  1.0
  C  C188  1  0.54276548  0.27707228  0.21891509  1.0
  C  C189  1  0.55377924  0.09870562  0.39124619  1.0
  C  C190  1  0.27803732  0.97395232  0.87874143  1.0
  C  C191  1  0.21004654  0.97172941  0.82778558  1.0
  C  C192  1  0.19754319  0.01634304  0.74832795  1.0
  C  C193  1  0.25366755  0.06463463  0.72554793  1.0
  C  C194  1  0.32015656  0.06387451  0.78019346  1.0
  C  C195  1  0.12962554  0.00819012  0.69427220  1.0
  C  C196  1  0.13098353  0.02038365  0.61006915  1.0
  C  C197  1  0.06427329  0.00885663  0.55584561  1.0
  C  C198  1  0.01044455  0.08481609  0.49925632  1.0
  C  C199  1  0.94567339  0.07639901  0.44269829  1.0
  C  C200  1  0.89166997  0.15655540  0.38870163  1.0
  C  C201  1  0.90328449  0.23793885  0.38779533  1.0
  C  C202  1  0.96721174  0.24591708  0.44298559  1.0
  C  C203  1  0.01746007  0.17212345  0.49817582  1.0
  N  N204  1  0.35187399  0.98108227  0.35551050  1.0
  N  N205  1  0.66717760  0.98114952  0.14445021  1.0
  N  N206  1  0.64812675  0.01891894  0.64449070  1.0
  N  N207  1  0.33282182  0.01885169  0.85555111  1.0
  O  O208  1  0.33527867  0.12465872  0.48893338  1.0
  O  O209  1  0.42413312  0.13507648  0.59173506  1.0
  O  O210  1  0.66666667  0.92667169  0.96156727  1.0
  O  O211  1  0.56710300  0.93008252  0.86199807  1.0
  O  O212  1  0.53988104  0.12476820  0.01099903  1.0
  O  O213  1  0.44070896  0.13498495  0.90817486  1.0
  O  O214  1  0.40675745  0.92649174  0.53835183  1.0
  O  O215  1  0.50269926  0.93018897  0.63801104  1.0
  O  O216  1  0.66472067  0.87534394  0.51106537  1.0
  O  O217  1  0.57586871  0.86492256  0.40826489  1.0
  O  O218  1  0.33329562  0.07332301  0.03843223  1.0
  O  O219  1  0.43289486  0.06991652  0.13800725  1.0
  O  O220  1  0.46012072  0.87523229  0.98899960  1.0
  O  O221  1  0.55929262  0.86501191  0.09182395  1.0
  O  O222  1  0.59324298  0.07350874  0.46164755  1.0
  O  O223  1  0.49730003  0.06981514  0.36198639  1.0
