# generated using pymatgen
data_Al2H17C24N2O10F
_symmetry_space_group_name_H-M   'P 1'
_cell_length_a   6.64031842
_cell_length_b   11.17639791
_cell_length_c   15.22018084
_cell_angle_alpha   82.96375084
_cell_angle_beta   78.22568270
_cell_angle_gamma   72.79770799
_symmetry_Int_Tables_number   1
_chemical_formula_structural   Al2H17C24N2O10F
_chemical_formula_sum   'Al2 H17 C24 N2 O10 F1'
_cell_volume   1053.99479451
_cell_formula_units_Z   1
loop_
 _symmetry_equiv_pos_site_id
 _symmetry_equiv_pos_as_xyz
  1  'x, y, z'
loop_
 _atom_site_type_symbol
 _atom_site_label
 _atom_site_symmetry_multiplicity
 _atom_site_fract_x
 _atom_site_fract_y
 _atom_site_fract_z
 _atom_site_occupancy
  Al  Al0  1  0.50509370  0.50294830  0.49239146  1.0
  Al  Al1  1  0.00893071  0.49776665  0.49130606  1.0
  H  H2  1  0.30432663  0.35477936  0.55142849  1.0
  H  H3  1  0.72812044  0.63692411  0.41972706  1.0
  H  H4  1  0.86899553  0.46229401  0.93825213  1.0
  H  H5  1  0.20496322  0.44538220  0.04353897  1.0
  H  H6  1  0.64477280  0.56162792  0.22744263  1.0
  H  H7  1  0.73663369  0.58354247  0.06044839  1.0
  H  H8  1  0.29672982  0.59501202  0.75389962  1.0
  H  H9  1  0.19793126  0.59418921  0.92110347  1.0
  H  H10  1  0.69971071  0.12483977  0.41696363  1.0
  H  H11  1  0.19563448  0.09395650  0.66049823  1.0
  H  H12  1  0.38679314  0.10752823  0.56111826  1.0
  H  H13  1  0.50443157  0.87273779  0.55488295  1.0
  H  H14  1  0.31314270  0.85918129  0.65373102  1.0
  H  H15  1  0.05681450  0.47867933  0.69845048  1.0
  H  H16  1  0.12478403  0.44605391  0.80530146  1.0
  H  H17  1  0.02423761  0.42058086  0.28348481  1.0
  H  H18  1  0.97496482  0.40741236  0.17710531  1.0
  C  C19  1  0.85873393  0.27349995  0.49764471  1.0
  C  C20  1  0.67990798  0.52268422  0.65310410  1.0
  C  C21  1  0.15014368  0.72588212  0.48580244  1.0
  C  C22  1  0.33183716  0.48650482  0.32966584  1.0
  C  C23  1  0.63456085  0.53001478  0.75144934  1.0
  C  C24  1  0.37716787  0.49096069  0.23066773  1.0
  C  C25  1  0.80195935  0.49640028  0.80333124  1.0
  C  C26  1  0.74202739  0.49365932  0.89803420  1.0
  C  C27  1  0.24674430  0.45885381  0.17843742  1.0
  C  C28  1  0.30172149  0.47216171  0.08360639  1.0
  C  C29  1  0.55265620  0.53415545  0.18576468  1.0
  C  C30  1  0.60444043  0.54552599  0.09297986  1.0
  C  C31  1  0.42024611  0.56490078  0.79572684  1.0
  C  C32  1  0.36515034  0.56302593  0.88857800  1.0
  C  C33  1  0.52892659  0.52406368  0.94113206  1.0
  C  C34  1  0.47696045  0.51397876  0.04042078  1.0
  C  C35  1  0.93219208  0.13462567  0.49567460  1.0
  C  C36  1  0.07407980  0.86462231  0.48739111  1.0
  C  C37  1  0.10237252  0.06008362  0.53574415  1.0
  C  C38  1  0.90243153  0.94204800  0.44710125  1.0
  C  C39  1  0.16894053  0.92994081  0.53179024  1.0
  C  C40  1  0.83185075  0.07182228  0.45071726  1.0
  C  C41  1  0.26451993  0.06005377  0.59303009  1.0
  C  C42  1  0.33929705  0.91240848  0.58882043  1.0
  N  N43  1  0.01352051  0.46030047  0.76565973  1.0
  N  N44  1  0.07760100  0.41324433  0.21623987  1.0
  O  O45  1  0.66767034  0.32860801  0.48606171  1.0
  O  O46  1  0.86464514  0.53060999  0.61136367  1.0
  O  O47  1  0.02217123  0.66778541  0.47239112  1.0
  O  O48  1  0.46693664  0.50872664  0.36985573  1.0
  O  O49  1  0.34079934  0.67498231  0.49960816  1.0
  O  O50  1  0.15628929  0.46321557  0.37095739  1.0
  O  O51  1  0.99393674  0.32704034  0.51074850  1.0
  O  O52  1  0.53634533  0.50538509  0.61545093  1.0
  O  O53  1  0.26443319  0.44471561  0.53666746  1.0
  O  O54  1  0.75268879  0.55209167  0.44735311  1.0
  F  F55  1  0.79977318  0.88985646  0.39989168  1.0
