# generated using pymatgen
data_ZnH10C9NO6
_symmetry_space_group_name_H-M   'P 1'
_cell_length_a   9.68470463
_cell_length_b   15.53675776
_cell_length_c   16.22146856
_cell_angle_alpha   90.02199067
_cell_angle_beta   94.33904168
_cell_angle_gamma   91.28865777
_symmetry_Int_Tables_number   1
_chemical_formula_structural   ZnH10C9NO6
_chemical_formula_sum   'Zn4 H40 C36 N4 O24'
_cell_volume   2433.20993345
_cell_formula_units_Z   4
loop_
 _symmetry_equiv_pos_site_id
 _symmetry_equiv_pos_as_xyz
  1  'x, y, z'
loop_
 _atom_site_type_symbol
 _atom_site_label
 _atom_site_symmetry_multiplicity
 _atom_site_fract_x
 _atom_site_fract_y
 _atom_site_fract_z
 _atom_site_occupancy
  Zn  Zn0  1  0.63549160  0.01104313  0.51220675  1.0
  Zn  Zn1  1  0.62776700  0.49942705  0.00867404  1.0
  Zn  Zn2  1  0.35341863  0.99647376  0.49130582  1.0
  Zn  Zn3  1  0.34752996  0.50597862  0.99324404  1.0
  H  H4  1  0.57011302  0.21587028  0.70235933  1.0
  H  H5  1  0.61914669  0.80181650  0.70959737  1.0
  H  H6  1  0.62052533  0.69836282  0.21456855  1.0
  H  H7  1  0.57343660  0.30180341  0.20469628  1.0
  H  H8  1  0.34587209  0.84626486  0.26303756  1.0
  H  H9  1  0.31037759  0.14440105  0.26365293  1.0
  H  H10  1  0.30187013  0.35741216  0.75424506  1.0
  H  H11  1  0.34876518  0.75142804  0.84832435  1.0
  H  H12  1  0.89611941  0.99847112  0.63077100  1.0
  H  H13  1  0.88684017  0.49947924  0.12937796  1.0
  H  H14  1  0.88823406  0.03744826  0.45410397  1.0
  H  H15  1  0.87869750  0.47288490  0.95056644  1.0
  H  H16  1  0.15508012  0.04803603  0.61051135  1.0
  H  H17  1  0.13951515  0.44642435  0.10853760  1.0
  H  H18  1  0.07620862  0.95241865  0.45806365  1.0
  H  H19  1  0.07635307  0.54992012  0.96031647  1.0
  H  H20  1  0.10305466  0.32303719  0.67451410  1.0
  H  H21  1  0.11404824  0.25095291  0.76127896  1.0
  H  H22  1  0.01946552  0.21933723  0.66609200  1.0
  H  H23  1  0.16274953  0.83319426  0.81563031  1.0
  H  H24  1  0.15573880  0.74340126  0.74549526  1.0
  H  H25  1  0.07693796  0.84286776  0.71458346  1.0
  H  H26  1  0.16528895  0.82670398  0.17485603  1.0
  H  H27  1  0.15679325  0.74899188  0.25649769  1.0
  H  H28  1  0.07552571  0.72614433  0.15542846  1.0
  H  H29  1  0.11198003  0.22428981  0.24687445  1.0
  H  H30  1  0.13832569  0.14526653  0.16892626  1.0
  H  H31  1  0.03336102  0.23609755  0.14380524  1.0
  H  H32  1  0.56287372  0.73336307  0.48116171  1.0
  H  H33  1  0.73046310  0.77750749  0.46401243  1.0
  H  H34  1  0.69244127  0.66448807  0.44573920  1.0
  H  H35  1  0.71314245  0.23260817  0.44232556  1.0
  H  H36  1  0.55656060  0.28619551  0.46084633  1.0
  H  H37  1  0.69173565  0.34392935  0.41305265  1.0
  H  H38  1  0.48915522  0.22457539  0.96979425  1.0
  H  H39  1  0.66280338  0.26340978  0.96053678  1.0
  H  H40  1  0.61546364  0.15299375  0.93485546  1.0
  H  H41  1  0.50698510  0.52596583  0.72832983  1.0
  H  H42  1  0.67702291  0.53498815  0.77991180  1.0
  H  H43  1  0.64980658  0.56039347  0.67145771  1.0
  C  C44  1  0.48304610  0.12354356  0.38656313  1.0
  C  C45  1  0.49821625  0.87895844  0.39248346  1.0
  C  C46  1  0.48809465  0.61610420  0.88063757  1.0
  C  C47  1  0.46663428  0.38268082  0.88486692  1.0
  C  C48  1  0.52276526  0.88983412  0.61991523  1.0
  C  C49  1  0.47645417  0.12686822  0.61104906  1.0
  C  C50  1  0.47269178  0.37668096  0.10724808  1.0
  C  C51  1  0.51833265  0.61683279  0.11847518  1.0
  C  C52  1  0.35705418  0.23520114  0.69788378  1.0
  C  C53  1  0.40909517  0.80645156  0.73174179  1.0
  C  C54  1  0.40986236  0.72879018  0.20482631  1.0
  C  C55  1  0.36656520  0.25987840  0.19527512  1.0
  C  C56  1  0.47058918  0.19461512  0.67302545  1.0
  C  C57  1  0.52037756  0.82927444  0.68879429  1.0
  C  C58  1  0.52016737  0.68243918  0.18311651  1.0
  C  C59  1  0.47335425  0.31104116  0.17153868  1.0
  C  C60  1  0.41972149  0.79447207  0.26861985  1.0
  C  C61  1  0.38393953  0.19820939  0.26213958  1.0
  C  C62  1  0.36923969  0.30221144  0.76094967  1.0
  C  C63  1  0.41583925  0.74350281  0.79804719  1.0
  C  C64  1  0.50769759  0.80078962  0.33776768  1.0
  C  C65  1  0.48189625  0.19832811  0.32688885  1.0
  C  C66  1  0.45782926  0.30367604  0.82999844  1.0
  C  C67  1  0.49430997  0.67215284  0.80463242  1.0
  C  C68  1  0.93532824  0.01129221  0.57015589  1.0
  C  C69  1  0.92572240  0.48983145  0.06836255  1.0
  C  C70  1  0.08659101  0.01551910  0.56247947  1.0
  C  C71  1  0.07651825  0.48203533  0.06146106  1.0
  C  C72  1  0.11058544  0.25511127  0.69345590  1.0
  C  C73  1  0.16476192  0.81396750  0.75033278  1.0
  C  C74  1  0.16492982  0.75745893  0.18966250  1.0
  C  C75  1  0.12545789  0.21436515  0.18078491  1.0
  C  C76  1  0.65103618  0.72957590  0.44249095  1.0
  C  C77  1  0.63981639  0.28106900  0.41873759  1.0
  C  C78  1  0.58081128  0.21963943  0.93410252  1.0
  C  C79  1  0.60584809  0.56255513  0.73170153  1.0
  N  N80  1  0.84650702  0.02319195  0.50904375  1.0
  N  N81  1  0.83731258  0.48517821  0.00578396  1.0
  N  N82  1  0.14307611  0.98424535  0.50055245  1.0
  N  N83  1  0.13817742  0.51476893  0.00145253  1.0
  O  O84  1  0.60166688  0.09789231  0.41385607  1.0
  O  O85  1  0.61184962  0.90990502  0.42549344  1.0
  O  O86  1  0.60180979  0.58362171  0.90826878  1.0
  O  O87  1  0.58639520  0.40170740  0.91817572  1.0
  O  O88  1  0.36603881  0.09246158  0.40327439  1.0
  O  O89  1  0.37755669  0.90731281  0.39992294  1.0
  O  O90  1  0.37093425  0.60640375  0.91017311  1.0
  O  O91  1  0.35592731  0.42360388  0.89198529  1.0
  O  O92  1  0.64239904  0.92114708  0.60411443  1.0
  O  O93  1  0.59858854  0.10757030  0.59156626  1.0
  O  O94  1  0.59297601  0.40941570  0.09502270  1.0
  O  O95  1  0.63638490  0.59633822  0.09314941  1.0
  O  O96  1  0.40954768  0.90697725  0.57798861  1.0
  O  O97  1  0.36446764  0.09076944  0.57973189  1.0
  O  O98  1  0.35968027  0.39854364  0.06718722  1.0
  O  O99  1  0.40234917  0.58275107  0.09084839  1.0
  O  O100  1  0.22787145  0.21559629  0.66148947  1.0
  O  O101  1  0.28603365  0.84692621  0.71491474  1.0
  O  O102  1  0.28370455  0.71631819  0.16198271  1.0
  O  O103  1  0.23846575  0.26519159  0.15364839  1.0
  O  O104  1  0.60743962  0.74264075  0.35622444  1.0
  O  O105  1  0.58338289  0.25976735  0.33601139  1.0
  O  O106  1  0.54639119  0.23884699  0.84779099  1.0
  O  O107  1  0.58407232  0.65260519  0.74735686  1.0
