# generated using pymatgen
data_CuH5C7N2
_symmetry_space_group_name_H-M   'P 1'
_cell_length_a   27.19032625
_cell_length_b   27.52953241
_cell_length_c   28.33740466
_cell_angle_alpha   88.26228252
_cell_angle_beta   88.25196525
_cell_angle_gamma   87.06021405
_symmetry_Int_Tables_number   1
_chemical_formula_structural   CuH5C7N2
_chemical_formula_sum   'Cu12 H60 C84 N24'
_cell_volume   21165.03229348
_cell_formula_units_Z   12
loop_
 _symmetry_equiv_pos_site_id
 _symmetry_equiv_pos_as_xyz
  1  'x, y, z'
loop_
 _atom_site_type_symbol
 _atom_site_label
 _atom_site_symmetry_multiplicity
 _atom_site_fract_x
 _atom_site_fract_y
 _atom_site_fract_z
 _atom_site_occupancy
  Cu  Cu0  1  0.11727615  0.81659326  0.90437336  1.0
  Cu  Cu1  1  0.15706259  0.91569813  0.86367082  1.0
  Cu  Cu2  1  0.07268908  0.86416628  0.81073764  1.0
  Cu  Cu3  1  0.87641068  0.33303468  0.59101860  1.0
  Cu  Cu4  1  0.81893509  0.42412088  0.63723102  1.0
  Cu  Cu5  1  0.91137837  0.37240686  0.68772014  1.0
  Cu  Cu6  1  0.61575469  0.68587428  0.10045854  1.0
  Cu  Cu7  1  0.66220206  0.58557676  0.13857697  1.0
  Cu  Cu8  1  0.56449958  0.63300926  0.18836361  1.0
  Cu  Cu9  1  0.39945470  0.14980794  0.42001678  1.0
  Cu  Cu10  1  0.33462800  0.09776757  0.34761419  1.0
  Cu  Cu11  1  0.44196883  0.12801450  0.31758591  1.0
  H  H12  1  0.64860764  0.28912289  0.42744053  1.0
  H  H13  1  0.59024718  0.36621775  0.30524574  1.0
  H  H14  1  0.71014673  0.42317785  0.37848124  1.0
  H  H15  1  0.36382691  0.83449199  0.04549283  1.0
  H  H16  1  0.42102346  0.89557173  0.16932259  1.0
  H  H17  1  0.29122124  0.96186928  0.10583098  1.0
  H  H18  1  0.13623309  0.18420505  0.54879827  1.0
  H  H19  1  0.07108027  0.12517027  0.67725632  1.0
  H  H20  1  0.21716318  0.07557434  0.63199462  1.0
  H  H21  1  0.81455993  0.54642058  0.89223002  1.0
  H  H22  1  0.94392934  0.61189130  0.83334736  1.0
  H  H23  1  0.87134185  0.67033974  0.95777314  1.0
  H  H24  1  0.19477284  0.79092909  0.98458441  1.0
  H  H25  1  0.23799729  0.93465452  0.93927492  1.0
  H  H26  1  0.99373753  0.78654550  0.78863409  1.0
  H  H27  1  0.04426203  0.73157759  0.92454919  1.0
  H  H28  1  0.16957024  0.00881129  0.79681291  1.0
  H  H29  1  0.05307073  0.94067518  0.72638233  1.0
  H  H30  1  0.81307955  0.32110897  0.50054333  1.0
  H  H31  1  0.74118300  0.45159806  0.55738868  1.0
  H  H32  1  0.99879986  0.29497093  0.71074043  1.0
  H  H33  1  0.95719727  0.24716563  0.57393431  1.0
  H  H34  1  0.78667425  0.50387904  0.71281966  1.0
  H  H35  1  0.91896869  0.43992543  0.77567457  1.0
  H  H36  1  0.69554183  0.71321296  0.02084498  1.0
  H  H37  1  0.75025956  0.56812523  0.06240517  1.0
  H  H38  1  0.47599305  0.71070853  0.21124435  1.0
  H  H39  1  0.53978500  0.77508896  0.08367007  1.0
  H  H40  1  0.68106518  0.49300083  0.20605623  1.0
  H  H41  1  0.54306220  0.55129469  0.26658215  1.0
  H  H42  1  0.32519505  0.15541270  0.50868357  1.0
  H  H43  1  0.23065784  0.10257361  0.40325488  1.0
  H  H44  1  0.53031194  0.20035243  0.31135941  1.0
  H  H45  1  0.48390239  0.21277441  0.45828967  1.0
  H  H46  1  0.31426650  0.02429838  0.26747246  1.0
  H  H47  1  0.46428170  0.05942932  0.23019144  1.0
  H  H48  1  0.26683505  0.93492485  0.02819817  1.0
  H  H49  1  0.28289281  0.82371822  0.02546280  1.0
  H  H50  1  0.72593610  0.31629688  0.46114380  1.0
  H  H51  1  0.71470520  0.42789961  0.46276308  1.0
  H  H52  1  0.78315771  0.57047317  0.97141176  1.0
  H  H53  1  0.78870971  0.68118093  0.97847311  1.0
  H  H54  1  0.25874408  0.11887834  0.56566910  1.0
  H  H55  1  0.18160865  0.13620714  0.48914839  1.0
  H  H56  1  0.95304590  0.69955295  0.92982137  1.0
  H  H57  1  0.95628028  0.69481375  0.82154713  1.0
  H  H58  1  0.56257051  0.28633097  0.32531137  1.0
  H  H59  1  0.57164127  0.26082251  0.43111070  1.0
  H  H60  1  0.04896112  0.20819321  0.57259462  1.0
  H  H61  1  0.04781848  0.20806004  0.68107528  1.0
  H  H62  1  0.44632862  0.80638660  0.07447721  1.0
  H  H63  1  0.43723482  0.80879230  0.18274345  1.0
  H  H64  1  0.18254685  0.04947134  0.71119555  1.0
  H  H65  1  0.07347851  0.03635752  0.69216426  1.0
  H  H66  1  0.68729561  0.45567860  0.29672611  1.0
  H  H67  1  0.57443480  0.45341068  0.29775757  1.0
  H  H68  1  0.31664418  0.98832700  0.18394113  1.0
  H  H69  1  0.42964721  0.97733352  0.18491979  1.0
  H  H70  1  0.92089248  0.53068719  0.80735096  1.0
  H  H71  1  0.80778123  0.53591524  0.80692330  1.0
  C  C72  1  0.68173768  0.35681939  0.40873201  1.0
  C  C73  1  0.64801908  0.32060775  0.40305111  1.0
  C  C74  1  0.61401863  0.32395635  0.36657047  1.0
  C  C75  1  0.61542102  0.36396549  0.33460360  1.0
  C  C76  1  0.64939991  0.40024703  0.33868018  1.0
  C  C77  1  0.68268042  0.39592454  0.37567965  1.0
  C  C78  1  0.32240255  0.89775015  0.07180697  1.0
  C  C79  1  0.36100908  0.86185127  0.07266002  1.0
  C  C80  1  0.39608605  0.86004477  0.10813481  1.0
  C  C81  1  0.39339344  0.89624567  0.14213808  1.0
  C  C82  1  0.35607244  0.93351405  0.14143684  1.0
  C  C83  1  0.32061648  0.93330967  0.10642214  1.0
  C  C84  1  0.18109831  0.12903473  0.58572270  1.0
  C  C85  1  0.13815918  0.15880369  0.57911754  1.0
  C  C86  1  0.09917243  0.15936135  0.61288143  1.0
  C  C87  1  0.10191373  0.12640958  0.65175008  1.0
  C  C88  1  0.14392709  0.09551755  0.65865476  1.0
  C  C89  1  0.18410236  0.09910873  0.62664358  1.0
  C  C90  1  0.83733891  0.60907303  0.92849747  1.0
  C  C91  1  0.84100293  0.57494205  0.89245544  1.0
  C  C92  1  0.87876016  0.57600999  0.85752521  1.0
  C  C93  1  0.91351498  0.61184229  0.85939032  1.0
  C  C94  1  0.91044102  0.64703340  0.89437673  1.0
  C  C95  1  0.87270033  0.64454312  0.92919596  1.0
  C  C96  1  0.19943205  0.82636007  0.96765413  1.0
  C  C97  1  0.23209346  0.86226350  0.97808024  1.0
  C  C98  1  0.22083015  0.90017006  0.94512264  1.0
  C  C99  1  0.01196110  0.77910024  0.82183393  1.0
  C  C100  1  0.00312594  0.74297864  0.85677742  1.0
  C  C101  1  0.03708177  0.75158466  0.89167522  1.0
  C  C102  1  0.14179801  0.98546633  0.78480613  1.0
  C  C103  1  0.11054048  0.99202502  0.74622601  1.0
  C  C104  1  0.08168250  0.95105758  0.74941238  1.0
  C  C105  1  0.80014684  0.35197533  0.52127208  1.0
  C  C106  1  0.76262962  0.38770629  0.51178281  1.0
  C  C107  1  0.76412704  0.41917099  0.54982749  1.0
  C  C108  1  0.98220653  0.28928660  0.67711649  1.0
  C  C109  1  0.99531913  0.25462634  0.64291259  1.0
  C  C110  1  0.96161249  0.26534956  0.60687740  1.0
  C  C111  1  0.81979799  0.48251122  0.72220278  1.0
  C  C112  1  0.85064851  0.48720226  0.76055204  1.0
  C  C113  1  0.88794795  0.45055641  0.75376492  1.0
  C  C114  1  0.70273523  0.67736981  0.03695360  1.0
  C  C115  1  0.73936486  0.64147037  0.02527126  1.0
  C  C116  1  0.73009099  0.60287775  0.05752876  1.0
  C  C117  1  0.49786641  0.72030761  0.17996899  1.0
  C  C118  1  0.49101491  0.75966225  0.14764695  1.0
  C  C119  1  0.52988409  0.75262585  0.11428409  1.0
  C  C120  1  0.64784543  0.51428015  0.21595081  1.0
  C  C121  1  0.61207671  0.50474274  0.25146607  1.0
  C  C122  1  0.57682133  0.54351755  0.24614358  1.0
  C  C123  1  0.30896950  0.14123181  0.47774541  1.0
  C  C124  1  0.25986817  0.13007177  0.47062694  1.0
  C  C125  1  0.26043728  0.11527673  0.42356202  1.0
  C  C126  1  0.51232426  0.19853918  0.34604514  1.0
  C  C127  1  0.52347389  0.22178251  0.38770208  1.0
  C  C128  1  0.48921116  0.20409711  0.42131683  1.0
  C  C129  1  0.35040891  0.03919576  0.26368107  1.0
  C  C130  1  0.38981446  0.02667812  0.23227621  1.0
  C  C131  1  0.42731396  0.05654009  0.24524798  1.0
  C  C132  1  0.28449946  0.89910540  0.03620174  1.0
  C  C133  1  0.26851610  0.86006371  0.01450925  1.0
  C  C134  1  0.71475302  0.35315463  0.44869019  1.0
  C  C135  1  0.72953854  0.39136665  0.47249927  1.0
  C  C136  1  0.79780475  0.60640897  0.96458321  1.0
  C  C137  1  0.77723614  0.64458883  0.98825899  1.0
  C  C138  1  0.22227521  0.12742441  0.55131269  1.0
  C  C139  1  0.21835614  0.13214526  0.50397691  1.0
  C  C140  1  0.94561486  0.68547082  0.89516593  1.0
  C  C141  1  0.96717928  0.70588559  0.85634722  1.0
  C  C142  1  0.57774135  0.28741141  0.36059270  1.0
  C  C143  1  0.55983349  0.25735451  0.39484577  1.0
  C  C144  1  0.05834048  0.19584265  0.60845009  1.0
  C  C145  1  0.03492759  0.21752382  0.64558584  1.0
  C  C146  1  0.43405837  0.82037027  0.10887567  1.0
  C  C147  1  0.45256698  0.79824972  0.14814956  1.0
  C  C148  1  0.14629522  0.05803362  0.69639544  1.0
  C  C149  1  0.10831993  0.03075624  0.71041378  1.0
  C  C150  1  0.65095684  0.44171995  0.30510064  1.0
  C  C151  1  0.61093891  0.46465292  0.28588474  1.0
  C  C152  1  0.35347532  0.97230160  0.17570471  1.0
  C  C153  1  0.39258154  0.99041837  0.19620350  1.0
  C  C154  1  0.88330337  0.54079895  0.81971474  1.0
  C  C155  1  0.84532352  0.52247529  0.79765713  1.0
  N  N156  1  0.18423692  0.88771635  0.91754227  1.0
  N  N157  1  0.17060517  0.84200000  0.93182486  1.0
  N  N158  1  0.06377913  0.78988078  0.87845123  1.0
  N  N159  1  0.04788755  0.80728500  0.83521479  1.0
  N  N160  1  0.09503865  0.92225523  0.78666764  1.0
  N  N161  1  0.13216065  0.94386599  0.80887106  1.0
  N  N162  1  0.79935793  0.40304539  0.57981291  1.0
  N  N163  1  0.82200532  0.36149855  0.56180026  1.0
  N  N164  1  0.93108588  0.30341320  0.61887417  1.0
  N  N165  1  0.94410989  0.31853256  0.66238993  1.0
  N  N166  1  0.87988309  0.42625012  0.71437048  1.0
  N  N167  1  0.83775655  0.44635550  0.69448626  1.0
  N  N168  1  0.69090648  0.61498554  0.08586763  1.0
  N  N169  1  0.67361262  0.66112652  0.07277503  1.0
  N  N170  1  0.55748740  0.71222503  0.12587552  1.0
  N  N171  1  0.53735727  0.69184614  0.16644733  1.0
  N  N172  1  0.59089102  0.57400944  0.21069195  1.0
  N  N173  1  0.63483479  0.55558395  0.19162080  1.0
  N  N174  1  0.30636402  0.11702883  0.40442786  1.0
  N  N175  1  0.33647020  0.13341532  0.43806723  1.0
  N  N176  1  0.45954141  0.17342838  0.40110648  1.0
  N  N177  1  0.47419368  0.16975302  0.35435853  1.0
  N  N178  1  0.41134586  0.08471586  0.28126005  1.0
  N  N179  1  0.36359226  0.07372123  0.29283814  1.0
