# generated using pymatgen
data_MnH15C12N2O5
_symmetry_space_group_name_H-M   'P 1'
_cell_length_a   7.02495925
_cell_length_b   21.64444523
_cell_length_c   21.64438959
_cell_angle_alpha   60.00010632
_cell_angle_beta   89.99983292
_cell_angle_gamma   89.99987678
_symmetry_Int_Tables_number   1
_chemical_formula_structural   MnH15C12N2O5
_chemical_formula_sum   'Mn6 H90 C72 N12 O30'
_cell_volume   2850.14337522
_cell_formula_units_Z   6
loop_
 _symmetry_equiv_pos_site_id
 _symmetry_equiv_pos_as_xyz
  1  'x, y, z'
loop_
 _atom_site_type_symbol
 _atom_site_label
 _atom_site_symmetry_multiplicity
 _atom_site_fract_x
 _atom_site_fract_y
 _atom_site_fract_z
 _atom_site_occupancy
  Mn  Mn0  1  0.84844302  0.60498273  0.73066294  1.0
  Mn  Mn1  1  0.48489132  0.39501848  0.33564629  1.0
  Mn  Mn2  1  0.51510765  0.66435487  0.60498265  1.0
  Mn  Mn3  1  0.18177142  0.73066289  0.66435440  1.0
  Mn  Mn4  1  0.15155288  0.26933792  0.39501837  1.0
  Mn  Mn5  1  0.81822328  0.33564256  0.26933784  1.0
  H  H6  1  0.00417510  0.57468575  0.99955472  1.0
  H  H7  1  0.32915828  0.42531411  0.57424052  1.0
  H  H8  1  0.67084329  0.42575779  0.57468896  1.0
  H  H9  1  0.33751058  0.99955437  0.42575785  1.0
  H  H10  1  0.99582472  0.00044733  0.42531106  1.0
  H  H11  1  0.66249326  0.57424064  0.00044541  1.0
  H  H12  1  0.85987864  0.62886530  0.87923900  1.0
  H  H13  1  0.47345141  0.37113384  0.50810411  1.0
  H  H14  1  0.52655017  0.49189346  0.62887014  1.0
  H  H15  1  0.19321519  0.87923852  0.49189474  1.0
  H  H16  1  0.14011711  0.12076385  0.37113168  1.0
  H  H17  1  0.80678274  0.50810447  0.12076282  1.0
  H  H18  1  0.54559361  0.56937747  0.90919466  1.0
  H  H19  1  0.78773787  0.43062274  0.47857297  1.0
  H  H20  1  0.21226097  0.52142885  0.56937415  1.0
  H  H21  1  0.87892997  0.90919682  0.52142704  1.0
  H  H22  1  0.45440347  0.09080328  0.43062450  1.0
  H  H23  1  0.12107224  0.47857242  0.09080395  1.0
  H  H24  1  0.21599745  0.37475402  0.72139244  1.0
  H  H25  1  0.11734502  0.62524407  0.09614720  1.0
  H  H26  1  0.88266305  0.90385393  0.37475493  1.0
  H  H27  1  0.54932696  0.72139038  0.90385642  1.0
  H  H28  1  0.78399534  0.27861306  0.62524183  1.0
  H  H29  1  0.45068027  0.09614397  0.27860414  1.0
  H  H30  1  0.20578080  0.31523789  0.81562217  1.0
  H  H31  1  0.12755967  0.68476131  0.13085933  1.0
  H  H32  1  0.87244273  0.86914057  0.31523857  1.0
  H  H33  1  0.53910468  0.81561936  0.86914378  1.0
  H  H34  1  0.79421751  0.18438409  0.68476043  1.0
  H  H35  1  0.46089416  0.13085944  0.18437429  1.0
  H  H36  1  0.99070647  0.34631701  0.76510505  1.0
  H  H37  1  0.34263584  0.65368148  0.11142195  1.0
  H  H38  1  0.65737081  0.88857922  0.34631930  1.0
  H  H39  1  0.32403447  0.76510046  0.88858057  1.0
  H  H40  1  0.00928766  0.23490366  0.65367781  1.0
  H  H41  1  0.67596997  0.11142189  0.23489060  1.0
  H  H42  1  0.41498044  0.44405482  0.75355234  1.0
  H  H43  1  0.91836011  0.55594370  0.19760784  1.0
  H  H44  1  0.08164490  0.80239263  0.44405750  1.0
  H  H45  1  0.74831209  0.75355149  0.80239522  1.0
  H  H46  1  0.58501382  0.24644924  0.55594373  1.0
  H  H47  1  0.25169102  0.19760543  0.24644600  1.0
  H  H48  1  0.28908195  0.51315185  0.75747299  1.0
  H  H49  1  0.04425957  0.48684735  0.27062551  1.0
  H  H50  1  0.95574385  0.72937437  0.51315294  1.0
  H  H51  1  0.62241559  0.75747047  0.72937812  1.0
  H  H52  1  0.71091381  0.24252862  0.48684631  1.0
  H  H53  1  0.37759046  0.27062249  0.24252647  1.0
  H  H54  1  0.27052776  0.44271742  0.88828541  1.0
  H  H55  1  0.06281291  0.55728237  0.33100275  1.0
  H  H56  1  0.93718910  0.66900036  0.44271479  1.0
  H  H57  1  0.60385731  0.88828374  0.66900053  1.0
  H  H58  1  0.72947346  0.11171536  0.55728424  1.0
  H  H59  1  0.39614611  0.33100073  0.11171358  1.0
  H  H60  1  0.36808302  0.36603155  0.88881202  1.0
  H  H61  1  0.96525951  0.63396860  0.25484249  1.0
  H  H62  1  0.03474552  0.74516031  0.36603033  1.0
  H  H63  1  0.70141199  0.88880922  0.74516032  1.0
  H  H64  1  0.63191526  0.11119151  0.63396878  1.0
  H  H65  1  0.29858851  0.25484144  0.11118695  1.0
  H  H66  1  0.66599082  0.43147361  0.83591150  1.0
  H  H67  1  0.66734905  0.56852600  0.26738456  1.0
  H  H68  1  0.33265447  0.73261591  0.43147338  1.0
  H  H69  1  0.99932142  0.83590877  0.73261784  1.0
  H  H70  1  0.33400618  0.16408928  0.56852657  1.0
  H  H71  1  0.00068045  0.26738374  0.16408832  1.0
  H  H72  1  0.57411673  0.50355176  0.83848618  1.0
  H  H73  1  0.75922137  0.49644840  0.34203839  1.0
  H  H74  1  0.24078056  0.65796320  0.50355104  1.0
  H  H75  1  0.90744933  0.83848550  0.65796363  1.0
  H  H76  1  0.42587893  0.16151412  0.49644821  1.0
  H  H77  1  0.09255548  0.34203700  0.16151293  1.0
  H  H78  1  0.64571419  0.36254306  0.96628615  1.0
  H  H79  1  0.68762197  0.63745871  0.32882574  1.0
  H  H80  1  0.31237444  0.67117385  0.36254041  1.0
  H  H81  1  0.97904499  0.96628458  0.67117505  1.0
  H  H82  1  0.35428827  0.03371454  0.63745853  1.0
  H  H83  1  0.02095853  0.32882681  0.03371325  1.0
  H  H84  1  0.77909278  0.44363814  0.93401646  1.0
  H  H85  1  0.55424189  0.55636311  0.37765287  1.0
  H  H86  1  0.44575722  0.62234768  0.44363555  1.0
  H  H87  1  0.11242534  0.93401524  0.62234918  1.0
  H  H88  1  0.22090697  0.06598294  0.55636299  1.0
  H  H89  1  0.88757677  0.37765287  0.06598287  1.0
  H  H90  1  0.54281939  0.43791229  0.96763573  1.0
  H  H91  1  0.79051500  0.56209005  0.40554599  1.0
  H  H92  1  0.20948123  0.59445443  0.43791113  1.0
  H  H93  1  0.87615220  0.96763429  0.59445513  1.0
  H  H94  1  0.45718458  0.03236586  0.56208771  1.0
  H  H95  1  0.12385140  0.40554626  0.03236400  1.0
  C  C96  1  0.95846810  0.44563919  0.79402463  1.0
  C  C97  1  0.37487066  0.55436094  0.23966421  1.0
  C  C98  1  0.62513431  0.76033630  0.44564018  1.0
  C  C99  1  0.29179989  0.79402068  0.76033857  1.0
  C  C100  1  0.04152754  0.20597806  0.55435960  1.0
  C  C101  1  0.70820332  0.23966214  0.20597406  1.0
  C  C102  1  0.13601959  0.36128514  0.77028010  1.0
  C  C103  1  0.19732108  0.63871404  0.13156490  1.0
  C  C104  1  0.80268411  0.86843586  0.36128640  1.0
  C  C105  1  0.46934784  0.77027685  0.86843903  1.0
  C  C106  1  0.86397598  0.22972658  0.63871174  1.0
  C  C107  1  0.53065521  0.13156311  0.22971694  1.0
  C  C108  1  0.30596612  0.45512999  0.78315602  1.0
  C  C109  1  0.02737259  0.54486868  0.23828652  1.0
  C  C110  1  0.97263094  0.76171424  0.45513151  1.0
  C  C111  1  0.63929944  0.78315353  0.76171642  1.0
  C  C112  1  0.69402955  0.21684612  0.54486832  1.0
  C  C113  1  0.36070375  0.23828421  0.21684273  1.0
  C  C114  1  0.36908082  0.42472827  0.86098231  1.0
  C  C115  1  0.96425885  0.57527081  0.28571048  1.0
  C  C116  1  0.03574323  0.71429127  0.42472779  1.0
  C  C117  1  0.70241151  0.86098049  0.71429171  1.0
  C  C118  1  0.63091756  0.13901969  0.57527127  1.0
  C  C119  1  0.29759041  0.28570891  0.13901709  1.0
  C  C120  1  0.63678169  0.42096291  0.93831721  1.0
  C  C121  1  0.69655447  0.57903835  0.35927780  1.0
  C  C122  1  0.30344327  0.64072253  0.42096110  1.0
  C  C123  1  0.97011278  0.93831500  0.64072384  1.0
  C  C124  1  0.36322087  0.06168410  0.57903775  1.0
  C  C125  1  0.02989074  0.35927763  0.06168333  1.0
  C  C126  1  0.11818062  0.63125648  0.82520790  1.0
  C  C127  1  0.21514837  0.36874385  0.45646429  1.0
  C  C128  1  0.78485042  0.54353641  0.63125586  1.0
  C  C129  1  0.45151841  0.82520816  0.54353557  1.0
  C  C130  1  0.88181377  0.17479194  0.36874538  1.0
  C  C131  1  0.54848367  0.45646367  0.17479249  1.0
  C  C132  1  0.31590278  0.61274131  0.83519768  1.0
  C  C133  1  0.01743048  0.38725796  0.44793916  1.0
  C  C134  1  0.98257120  0.55206200  0.61273986  1.0
  C  C135  1  0.64923764  0.83519818  0.55205991  1.0
  C  C136  1  0.68409300  0.16480192  0.38726085  1.0
  C  C137  1  0.35076302  0.44793860  0.16480293  1.0
  C  C138  1  0.39466460  0.58265594  0.90404734  1.0
  C  C139  1  0.93866544  0.41734427  0.48670490  1.0
  C  C140  1  0.06133053  0.51329749  0.58265430  1.0
  C  C141  1  0.72799961  0.90404872  0.51329492  1.0
  C  C142  1  0.60533534  0.09595086  0.41734625  1.0
  C  C143  1  0.27200260  0.48670431  0.09595141  1.0
  C  C144  1  0.28896412  0.56763409  0.96436876  1.0
  C  C145  1  0.04436961  0.43236522  0.53200345  1.0
  C  C146  1  0.95562917  0.46799645  0.56763458  1.0
  C  C147  1  0.62229508  0.96436991  0.46799513  1.0
  C  C148  1  0.71103716  0.03563125  0.43236535  1.0
  C  C149  1  0.37770298  0.53200306  0.03563126  1.0
  C  C150  1  0.09261422  0.58478460  0.95397281  1.0
  C  C151  1  0.24071668  0.41521524  0.53875801  1.0
  C  C152  1  0.75927922  0.46124202  0.58478636  1.0
  C  C153  1  0.42594952  0.95397284  0.46124146  1.0
  C  C154  1  0.90738709  0.04602779  0.41521516  1.0
  C  C155  1  0.57405280  0.53875696  0.04602730  1.0
  C  C156  1  0.01100255  0.61547815  0.88693416  1.0
  C  C157  1  0.32233023  0.38452007  0.50241179  1.0
  C  C158  1  0.67767137  0.49758733  0.61548045  1.0
  C  C159  1  0.34433630  0.88693403  0.49758657  1.0
  C  C160  1  0.98899460  0.11306767  0.38452087  1.0
  C  C161  1  0.65566448  0.50241113  0.11306872  1.0
  C  C162  1  0.44233934  0.61903693  0.77788797  1.0
  C  C163  1  0.89098740  0.38096321  0.39692705  1.0
  C  C164  1  0.10901006  0.60307454  0.61903579  1.0
  C  C165  1  0.77567534  0.77789011  0.60307348  1.0
  C  C166  1  0.55765368  0.22211000  0.38096371  1.0
  C  C167  1  0.22432519  0.39692569  0.22211121  1.0
  N  N168  1  0.12773460  0.42291550  0.77995626  1.0
  N  N169  1  0.20560571  0.57708423  0.20287204  1.0
  N  N170  1  0.79439790  0.79712969  0.42291619  1.0
  N  N171  1  0.46106481  0.77995372  0.79713164  1.0
  N  N172  1  0.87226103  0.22004754  0.57708322  1.0
  N  N173  1  0.53893834  0.20286982  0.22004215  1.0
  N  N174  1  0.56472030  0.44771612  0.86519167  1.0
  N  N175  1  0.76861924  0.55228404  0.31290733  1.0
  N  N176  1  0.23138279  0.68709415  0.44771529  1.0
  N  N177  1  0.89805119  0.86519018  0.68709436  1.0
  N  N178  1  0.43527953  0.13480945  0.55228360  1.0
  N  N179  1  0.10195219  0.31290709  0.13480806  1.0
  O  O180  1  0.96313269  0.50239403  0.79951697  1.0
  O  O181  1  0.37020577  0.49760772  0.30191241  1.0
  O  O182  1  0.62979763  0.69808924  0.50239297  1.0
  O  O183  1  0.29646637  0.79951397  0.69809244  1.0
  O  O184  1  0.03686301  0.20048367  0.49760639  1.0
  O  O185  1  0.70353692  0.30190975  0.20048139  1.0
  O  O186  1  0.80801322  0.40898290  0.80191365  1.0
  O  O187  1  0.52532705  0.59101775  0.21089655  1.0
  O  O188  1  0.47467656  0.78910451  0.40898155  1.0
  O  O189  1  0.14134192  0.80191043  0.78910663  1.0
  O  O190  1  0.19198236  0.19808779  0.59101753  1.0
  O  O191  1  0.85865984  0.21089552  0.19808455  1.0
  O  O192  1  0.03158386  0.66167901  0.76228224  1.0
  O  O193  1  0.30174556  0.33832130  0.42396061  1.0
  O  O194  1  0.69825466  0.57603955  0.66167879  1.0
  O  O195  1  0.36492153  0.76228305  0.57603815  1.0
  O  O196  1  0.96841065  0.23771811  0.33832180  1.0
  O  O197  1  0.63507901  0.42396054  0.23771800  1.0
  O  O198  1  0.38450433  0.64676430  0.71364221  1.0
  O  O199  1  0.94882286  0.35323584  0.36040767  1.0
  O  O200  1  0.05117460  0.63959269  0.64676418  1.0
  O  O201  1  0.71784018  0.71364462  0.63959230  1.0
  O  O202  1  0.61548737  0.28635656  0.35323462  1.0
  O  O203  1  0.28216023  0.36040863  0.28635760  1.0
  O  O204  1  0.61204282  0.59248748  0.79573377  1.0
  O  O205  1  0.72128530  0.40751001  0.38822628  1.0
  O  O206  1  0.27871220  0.61177725  0.59248784  1.0
  O  O207  1  0.94537872  0.79573624  0.61177661  1.0
  O  O208  1  0.38795014  0.20426495  0.40751074  1.0
  O  O209  1  0.05462182  0.38822191  0.20426574  1.0
