# generated using pymatgen
data_Hf3H12C24(N3O8)2
_symmetry_space_group_name_H-M   'P 1'
_cell_length_a   17.22111561
_cell_length_b   17.22586427
_cell_length_c   18.09894375
_cell_angle_alpha   89.55290296
_cell_angle_beta   89.96156124
_cell_angle_gamma   110.24310190
_symmetry_Int_Tables_number   1
_chemical_formula_structural   Hf3H12C24(N3O8)2
_chemical_formula_sum   'Hf6 H24 C48 N12 O32'
_cell_volume   5037.21179655
_cell_formula_units_Z   2
loop_
 _symmetry_equiv_pos_site_id
 _symmetry_equiv_pos_as_xyz
  1  'x, y, z'
loop_
 _atom_site_type_symbol
 _atom_site_label
 _atom_site_symmetry_multiplicity
 _atom_site_fract_x
 _atom_site_fract_y
 _atom_site_fract_z
 _atom_site_occupancy
  Hf  Hf0  1  0.89585258  0.88801006  0.90864168  1.0
  Hf  Hf1  1  0.90712053  0.89318697  0.10224185  1.0
  Hf  Hf2  1  0.07580780  0.06424627  0.89836166  1.0
  Hf  Hf3  1  0.08314960  0.07304229  0.09191116  1.0
  Hf  Hf4  1  0.90198351  0.06815195  0.00089136  1.0
  Hf  Hf5  1  0.07881160  0.89119730  0.99952230  1.0
  H  H6  1  0.90430944  0.76729766  0.99965377  1.0
  H  H7  1  0.92708469  0.04064746  0.16316901  1.0
  H  H8  1  0.20287761  0.06556003  0.00011630  1.0
  H  H9  1  0.92761454  0.04509482  0.83819504  1.0
  H  H10  1  0.92419783  0.87080561  0.24502507  1.0
  H  H11  1  0.13388148  0.06076476  0.22899815  1.0
  H  H12  1  0.19684849  0.22270331  0.09529178  1.0
  H  H13  1  0.23207094  0.17212025  0.85955081  1.0
  H  H14  1  0.09820222  0.05061728  0.75543779  1.0
  H  H15  1  0.83331655  0.87714284  0.76699867  1.0
  H  H16  1  0.74570767  0.77501671  0.90704723  1.0
  H  H17  1  0.80284849  0.73699656  0.14291207  1.0
  H  H18  1  0.17169977  0.22165299  0.87721904  1.0
  H  H19  1  0.90441045  0.83802552  0.77077631  1.0
  H  H20  1  0.75065142  0.79531224  0.12620268  1.0
  H  H21  1  0.09581854  0.13245632  0.23479156  1.0
  H  H22  1  0.36386560  0.96534219  0.43044584  1.0
  H  H23  1  0.61768298  0.97799342  0.42985874  1.0
  H  H24  1  0.61850310  0.98032288  0.56851210  1.0
  H  H25  1  0.36470160  0.96779294  0.56894028  1.0
  H  H26  1  0.00491000  0.60576655  0.42941776  1.0
  H  H27  1  0.97943475  0.34844460  0.43388870  1.0
  H  H28  1  0.97968640  0.35011326  0.57254175  1.0
  H  H29  1  0.00522583  0.60746120  0.56794515  1.0
  C  C30  1  0.75905587  0.98003537  0.88446593  1.0
  C  C31  1  0.99879330  0.75558198  0.12572351  1.0
  C  C32  1  0.75821294  0.97681326  0.11514316  1.0
  C  C33  1  0.00131473  0.76065447  0.87284664  1.0
  C  C34  1  0.21317964  0.97326128  0.87310952  1.0
  C  C35  1  0.99142330  0.20947514  0.11785300  1.0
  C  C36  1  0.21047684  0.96605431  0.12615783  1.0
  C  C37  1  0.99098730  0.21318440  0.88665017  1.0
  C  C38  1  0.99898758  0.55158019  0.76644591  1.0
  C  C39  1  0.99344366  0.48100340  0.65991226  1.0
  C  C40  1  0.99187597  0.41845499  0.77112523  1.0
  C  C41  1  0.99641231  0.54531904  0.23325044  1.0
  C  C42  1  0.99269215  0.47723350  0.34197233  1.0
  C  C43  1  0.99115950  0.41283810  0.23264798  1.0
  C  C44  1  0.42271881  0.97461669  0.76607530  1.0
  C  C45  1  0.55499846  0.97916345  0.76873805  1.0
  C  C46  1  0.49104273  0.97544462  0.65842256  1.0
  C  C47  1  0.41879263  0.96482425  0.23324820  1.0
  C  C48  1  0.55194575  0.97190891  0.22984767  1.0
  C  C49  1  0.48896425  0.97008768  0.34045422  1.0
  C  C50  1  0.41918359  0.96861189  0.46130062  1.0
  C  C51  1  0.49063783  0.97148668  0.42204881  1.0
  C  C52  1  0.56268054  0.97573977  0.46088550  1.0
  C  C53  1  0.56313866  0.97705318  0.53769050  1.0
  C  C54  1  0.49162469  0.97420377  0.57686811  1.0
  C  C55  1  0.41965232  0.96996429  0.53792797  1.0
  C  C56  1  0.99938849  0.55022886  0.46134342  1.0
  C  C57  1  0.99225106  0.47706474  0.42352830  1.0
  C  C58  1  0.98503629  0.40475796  0.46382468  1.0
  C  C59  1  0.98517728  0.40568033  0.54062722  1.0
  C  C60  1  0.99257604  0.47895520  0.57833806  1.0
  C  C61  1  0.99956298  0.55117414  0.53798113  1.0
  C  C62  1  0.98987866  0.34137016  0.19257499  1.0
  C  C63  1  0.98992320  0.28142420  0.15761341  1.0
  C  C64  1  0.99893327  0.61881182  0.19488825  1.0
  C  C65  1  0.00006325  0.68181748  0.16353174  1.0
  C  C66  1  0.99019540  0.34729349  0.81298425  1.0
  C  C67  1  0.99013751  0.28697272  0.84838210  1.0
  C  C68  1  0.00382723  0.68882036  0.83352960  1.0
  C  C69  1  0.00232384  0.62580514  0.80288137  1.0
  C  C70  1  0.28202656  0.96186409  0.16542480  1.0
  C  C71  1  0.34478350  0.96211081  0.19624271  1.0
  C  C72  1  0.62351031  0.97460189  0.18857106  1.0
  C  C73  1  0.68418619  0.97614355  0.15335344  1.0
  C  C74  1  0.28646734  0.97215517  0.83478683  1.0
  C  C75  1  0.34922102  0.97297547  0.80352615  1.0
  C  C76  1  0.62641670  0.98117400  0.80976807  1.0
  C  C77  1  0.68665420  0.98168248  0.84499892  1.0
  N  N78  1  0.99808412  0.55272326  0.69219105  1.0
  N  N79  1  0.98978879  0.41168886  0.69703020  1.0
  N  N80  1  0.99637591  0.48656389  0.80952680  1.0
  N  N81  1  0.99588090  0.54788947  0.30740506  1.0
  N  N82  1  0.99011729  0.40758960  0.30691278  1.0
  N  N83  1  0.99419144  0.47977862  0.19211959  1.0
  N  N84  1  0.48810529  0.97755788  0.80821391  1.0
  N  N85  1  0.56037896  0.97822112  0.69456763  1.0
  N  N86  1  0.42040693  0.97353662  0.69188852  1.0
  N  N87  1  0.48397390  0.96747037  0.19079190  1.0
  N  N88  1  0.55837680  0.97357885  0.30401459  1.0
  N  N89  1  0.41740700  0.96562504  0.30747331  1.0
  O  O90  1  0.78414266  0.92069994  0.86831388  1.0
  O  O91  1  0.79084946  0.03758267  0.93039207  1.0
  O  O92  1  0.94156544  0.78252733  0.14497248  1.0
  O  O93  1  0.05409475  0.78573125  0.07678239  1.0
  O  O94  1  0.77957166  0.91397501  0.12485707  1.0
  O  O95  1  0.79601313  0.04127363  0.07684304  1.0
  O  O96  1  0.94969181  0.79320693  0.85045661  1.0
  O  O97  1  0.04997234  0.78308978  0.92782846  1.0
  O  O98  1  0.80290824  0.77984572  0.91412561  1.0
  O  O99  1  0.89089286  0.88798540  0.78067907  1.0
  O  O100  1  0.79186634  0.77342855  0.10597675  1.0
  O  O101  1  0.90455304  0.90423971  0.21179699  1.0
  O  O102  1  0.87745727  0.94368234  0.00285793  1.0
  O  O103  1  0.93369223  0.82658370  0.00308499  1.0
  O  O104  1  0.18650116  0.03117224  0.85491891  1.0
  O  O105  1  0.18320023  0.91702336  0.92146534  1.0
  O  O106  1  0.05095919  0.18426719  0.13348778  1.0
  O  O107  1  0.93336612  0.17823500  0.07204539  1.0
  O  O108  1  0.17843839  0.01752804  0.14930809  1.0
  O  O109  1  0.18773885  0.91882076  0.07043967  1.0
  O  O110  1  0.05405843  0.19248050  0.87646913  1.0
  O  O111  1  0.92727465  0.17479599  0.92549636  1.0
  O  O112  1  0.19455653  0.18051980  0.89650550  1.0
  O  O113  1  0.06402357  0.06855712  0.78892749  1.0
  O  O114  1  0.19160195  0.16560894  0.08726212  1.0
  O  O115  1  0.08418485  0.07524179  0.21990618  1.0
  O  O116  1  0.14351208  0.03638376  0.99687539  1.0
  O  O117  1  0.02658238  0.09296435  0.99821719  1.0
  O  O118  1  0.02687479  0.94007718  0.91857565  1.0
  O  O119  1  0.94510179  0.02923109  0.11479906  1.0
  O  O120  1  0.93961956  0.02642122  0.88629109  1.0
  O  O121  1  0.03105584  0.94227168  0.08128173  1.0
