# generated using pymatgen
data_Zn4H32C58N14O13
_symmetry_space_group_name_H-M   'P 1'
_cell_length_a   19.18853228
_cell_length_b   19.19827794
_cell_length_c   19.25852724
_cell_angle_alpha   89.49596263
_cell_angle_beta   85.54359995
_cell_angle_gamma   85.33626562
_symmetry_Int_Tables_number   1
_chemical_formula_structural   Zn4H32C58N14O13
_chemical_formula_sum   'Zn4 H32 C58 N14 O13'
_cell_volume   7049.69729967
_cell_formula_units_Z   1
loop_
 _symmetry_equiv_pos_site_id
 _symmetry_equiv_pos_as_xyz
  1  'x, y, z'
loop_
 _atom_site_type_symbol
 _atom_site_label
 _atom_site_symmetry_multiplicity
 _atom_site_fract_x
 _atom_site_fract_y
 _atom_site_fract_z
 _atom_site_occupancy
  Zn  Zn0  1  0.55906513  0.55739611  0.43947500  1.0
  Zn  Zn1  1  0.55802946  0.43662097  0.55600884  1.0
  Zn  Zn2  1  0.44752879  0.44609525  0.44002893  1.0
  Zn  Zn3  1  0.43409658  0.55981657  0.56551968  1.0
  H  H4  1  0.47342703  0.59234307  0.91242911  1.0
  H  H5  1  0.24651199  0.50611758  0.38750253  1.0
  H  H6  1  0.59413460  0.07784871  0.49761424  1.0
  H  H7  1  0.59840794  0.75840125  0.45214466  1.0
  H  H8  1  0.48413300  0.27999182  0.82667971  1.0
  H  H9  1  0.57584577  0.28911241  0.81897415  1.0
  H  H10  1  0.53889660  0.23728282  0.88657692  1.0
  H  H11  1  0.56499843  0.35045775  0.93591049  1.0
  H  H12  1  0.47528863  0.34127368  0.94459895  1.0
  H  H13  1  0.31628981  0.15563357  0.42651302  1.0
  H  H14  1  0.35298810  0.06739079  0.42254395  1.0
  H  H15  1  0.57083793  0.60093232  0.22446295  1.0
  H  H16  1  0.26654434  0.08753305  0.46148971  1.0
  H  H17  1  0.35032591  0.06339475  0.55387994  1.0
  H  H18  1  0.31384690  0.15117170  0.55788469  1.0
  H  H19  1  0.13439491  0.40075167  0.34030450  1.0
  H  H20  1  0.04641795  0.42663570  0.37112961  1.0
  H  H21  1  0.07453805  0.43898364  0.28188696  1.0
  H  H22  1  0.06628332  0.55190576  0.34783355  1.0
  H  H23  1  0.15354537  0.52827648  0.31391574  1.0
  H  H24  1  0.69829285  0.12090708  0.51109153  1.0
  H  H25  1  0.68246631  0.12466570  0.42147361  1.0
  H  H26  1  0.51558250  0.38002538  0.76522598  1.0
  H  H27  1  0.74084893  0.18050255  0.45517053  1.0
  H  H28  1  0.63029481  0.25066851  0.43892324  1.0
  H  H29  1  0.64285795  0.24412440  0.52766588  1.0
  H  H30  1  0.44460126  0.43085458  0.09711476  1.0
  H  H31  1  0.44536030  0.42498152  0.22762080  1.0
  H  H32  1  0.91294658  0.55050513  0.41190831  1.0
  H  H33  1  0.07816770  0.53186642  0.59632800  1.0
  H  H34  1  0.76147459  0.45093541  0.60305955  1.0
  H  H35  1  0.88984203  0.46040511  0.61675506  1.0
  C  C36  1  0.49351508  0.49275122  0.68892034  1.0
  C  C37  1  0.54955204  0.11682373  0.50252947  1.0
  C  C38  1  0.50825786  0.51242065  0.23328093  1.0
  C  C39  1  0.50822709  0.50830498  0.31074515  1.0
  C  C40  1  0.47246462  0.46440899  0.19762167  1.0
  C  C41  1  0.47193472  0.46753370  0.12573978  1.0
  C  C42  1  0.50668800  0.51921773  0.08822148  1.0
  C  C43  1  0.54158487  0.56858394  0.12401923  1.0
  C  C44  1  0.54294237  0.56419883  0.19656719  1.0
  C  C45  1  0.48152147  0.54601612  0.87963502  1.0
  C  C46  1  0.47963709  0.55180379  0.80741356  1.0
  C  C47  1  0.51540703  0.90942140  0.52128094  1.0
  C  C48  1  0.49419078  0.48045365  0.91089479  1.0
  C  C49  1  0.49247241  0.49050346  0.76650275  1.0
  C  C50  1  0.50535177  0.42568278  0.79867258  1.0
  C  C51  1  0.68792819  0.49297329  0.49711649  1.0
  C  C52  1  0.50533718  0.41839187  0.87079887  1.0
  C  C53  1  0.23494862  0.51628867  0.49832573  1.0
  C  C54  1  0.20890595  0.51285167  0.43284019  1.0
  C  C55  1  0.13720871  0.51784714  0.42382500  1.0
  C  C56  1  0.09060849  0.52287727  0.48455344  1.0
  C  C57  1  0.11560818  0.52703294  0.55085068  1.0
  C  C58  1  0.45842341  0.88079608  0.55940223  1.0
  C  C59  1  0.18759720  0.52485490  0.55848983  1.0
  C  C60  1  0.87935381  0.52948784  0.45381077  1.0
  C  C61  1  0.80781087  0.52555768  0.44654504  1.0
  C  C62  1  0.90839517  0.50596481  0.51531385  1.0
  C  C63  1  0.31272353  0.51100246  0.50161115  1.0
  C  C64  1  0.76494856  0.49685323  0.50123208  1.0
  C  C65  1  0.79509618  0.47310470  0.56186366  1.0
  C  C66  1  0.86593457  0.47821678  0.56952213  1.0
  C  C67  1  0.50456243  0.31224210  0.49681932  1.0
  C  C68  1  0.49840324  0.68661932  0.51136335  1.0
  C  C69  1  0.45227426  0.80751212  0.55813244  1.0
  C  C70  1  0.50294817  0.76396953  0.51815410  1.0
  C  C71  1  0.55994309  0.79288471  0.48244060  1.0
  C  C72  1  0.56731455  0.86449167  0.48458904  1.0
  C  C73  1  0.37044315  0.25965525  0.51738984  1.0
  C  C74  1  0.57630127  0.62198407  0.08650221  1.0
  C  C75  1  0.51907464  0.34823008  0.90528960  1.0
  C  C76  1  0.53000713  0.28551080  0.85640531  1.0
  C  C77  1  0.78198602  0.54900523  0.38183182  1.0
  C  C78  1  0.34879954  0.11354352  0.52622485  1.0
  C  C79  1  0.31948595  0.10564228  0.45481319  1.0
  C  C80  1  0.42104184  0.13886573  0.51820490  1.0
  C  C81  1  0.21004629  0.52788481  0.62741812  1.0
  C  C82  1  0.11161394  0.51371872  0.35221088  1.0
  C  C83  1  0.09056662  0.44057828  0.33535096  1.0
  C  C84  1  0.40794256  0.92431282  0.60085931  1.0
  C  C85  1  0.39263394  0.78193819  0.59605408  1.0
  C  C86  1  0.63179659  0.21312471  0.48256145  1.0
  C  C87  1  0.69125749  0.15643675  0.46669641  1.0
  C  C88  1  0.62553122  0.89355515  0.44747035  1.0
  C  C89  1  0.46929920  0.61993496  0.77751858  1.0
  C  C90  1  0.43105182  0.21080013  0.51186847  1.0
  C  C91  1  0.48225632  0.09270071  0.51358104  1.0
  C  C92  1  0.49873125  0.23486494  0.50166021  1.0
  C  C93  1  0.55937636  0.18757086  0.49642236  1.0
  N  N94  1  0.52667569  0.98039825  0.51814028  1.0
  N  N95  1  0.22380643  0.52897279  0.68540482  1.0
  N  N96  1  0.36647566  0.95712675  0.63744393  1.0
  N  N97  1  0.34096860  0.76765416  0.62708071  1.0
  N  N98  1  0.67373682  0.91566896  0.41653288  1.0
  N  N99  1  0.46347257  0.67714627  0.75635396  1.0
  N  N100  1  0.47141556  0.02113423  0.51731430  1.0
  N  N101  1  0.50829774  0.52691494  0.01544972  1.0
  N  N102  1  0.49603712  0.47233013  0.98348124  1.0
  N  N103  1  0.01877995  0.52308369  0.47410540  1.0
  N  N104  1  0.98023790  0.50651181  0.52705765  1.0
  N  N105  1  0.32004066  0.29826151  0.52302509  1.0
  N  N106  1  0.60524525  0.66685533  0.05850133  1.0
  N  N107  1  0.76685477  0.56788308  0.32674944  1.0
  O  O108  1  0.49950954  0.50090460  0.50116264  1.0
  O  O109  1  0.54400043  0.33784344  0.53842453  1.0
  O  O110  1  0.45047064  0.65909234  0.54856136  1.0
  O  O111  1  0.46891789  0.34502318  0.45217988  1.0
  O  O112  1  0.54384171  0.65597556  0.46771657  1.0
  O  O113  1  0.65850661  0.53293134  0.45312703  1.0
  O  O114  1  0.33704249  0.54297138  0.55086345  1.0
  O  O115  1  0.53459640  0.44611157  0.65645670  1.0
  O  O116  1  0.47333872  0.46126461  0.34069415  1.0
  O  O117  1  0.45385968  0.54023976  0.66221126  1.0
  O  O118  1  0.54276917  0.55195979  0.34066026  1.0
  O  O119  1  0.65827154  0.45045294  0.53892202  1.0
  O  O120  1  0.34772338  0.47527699  0.45324873  1.0
