# generated using pymatgen
data_Zn2H29C42(NO)8
_symmetry_space_group_name_H-M   'P 1'
_cell_length_a   16.56256739
_cell_length_b   17.94586428
_cell_length_c   31.13382716
_cell_angle_alpha   90.28302919
_cell_angle_beta   89.83597956
_cell_angle_gamma   89.95428817
_symmetry_Int_Tables_number   1
_chemical_formula_structural   Zn2H29C42(NO)8
_chemical_formula_sum   'Zn4 H58 C84 N16 O16'
_cell_volume   9253.74070080
_cell_formula_units_Z   2
loop_
 _symmetry_equiv_pos_site_id
 _symmetry_equiv_pos_as_xyz
  1  'x, y, z'
loop_
 _atom_site_type_symbol
 _atom_site_label
 _atom_site_symmetry_multiplicity
 _atom_site_fract_x
 _atom_site_fract_y
 _atom_site_fract_z
 _atom_site_occupancy
  Zn  Zn0  1  0.58040337  0.50121047  0.50399166  1.0
  Zn  Zn1  1  0.41080253  0.49404733  0.50190369  1.0
  Zn  Zn2  1  0.41955556  0.50341894  0.92498332  1.0
  Zn  Zn3  1  0.58925079  0.49632679  0.92700786  1.0
  H  H4  1  0.28609518  0.57335705  0.54491938  1.0
  H  H5  1  0.13514534  0.58320984  0.54919308  1.0
  H  H6  1  0.12312895  0.40324705  0.45634693  1.0
  H  H7  1  0.86601369  0.59258441  0.55136366  1.0
  H  H8  1  0.70657545  0.42857773  0.45734232  1.0
  H  H9  1  0.85756745  0.41858289  0.45471944  1.0
  H  H10  1  0.61636231  0.73450325  0.50239814  1.0
  H  H11  1  0.62233956  0.87335021  0.50302247  1.0
  H  H12  1  0.36214219  0.88033652  0.49908089  1.0
  H  H13  1  0.63330331  0.11442712  0.49932156  1.0
  H  H14  1  0.38277740  0.26554400  0.50488633  1.0
  H  H15  1  0.37326269  0.12650984  0.50324500  1.0
  H  H16  1  0.39655861  0.50505281  0.78624747  1.0
  H  H17  1  0.65363434  0.50186075  0.79636186  1.0
  H  H18  1  0.60323079  0.50459733  0.64274216  1.0
  H  H19  1  0.34615248  0.50134604  0.63260707  1.0
  H  H20  1  0.37709182  0.50170281  0.06204457  1.0
  H  H21  1  0.36997549  0.50934654  0.14215964  1.0
  H  H22  1  0.63013254  0.51314071  0.14634627  1.0
  H  H23  1  0.36968944  0.51138459  0.28274431  1.0
  H  H24  1  0.62292324  0.49943562  0.36681981  1.0
  H  H25  1  0.62987933  0.50832074  0.28679348  1.0
  H  H26  1  0.71380619  0.57501235  0.88413512  1.0
  H  H27  1  0.86472918  0.58475925  0.87983594  1.0
  H  H28  1  0.87709968  0.40574888  0.97227215  1.0
  H  H29  1  0.13394102  0.59412614  0.87751192  1.0
  H  H30  1  0.29335863  0.43127458  0.97141692  1.0
  H  H31  1  0.14236189  0.42128175  0.97386291  1.0
  H  H32  1  0.38357721  0.73692273  0.92571981  1.0
  H  H33  1  0.37761227  0.87574491  0.92429370  1.0
  H  H34  1  0.63784101  0.88243839  0.92769478  1.0
  H  H35  1  0.36701224  0.11675180  0.92801726  1.0
  H  H36  1  0.61734429  0.26778133  0.92333703  1.0
  H  H37  1  0.62703505  0.12872499  0.92407163  1.0
  H  H38  1  0.34376580  0.39790867  0.44564804  1.0
  H  H39  1  0.25292196  0.36145778  0.42804374  1.0
  H  H40  1  0.64592912  0.61785834  0.54672198  1.0
  H  H41  1  0.73574637  0.64579013  0.57134375  1.0
  H  H42  1  0.34161154  0.67982254  0.49047955  1.0
  H  H43  1  0.29142984  0.76575229  0.48971592  1.0
  H  H44  1  0.66015965  0.31495804  0.50313612  1.0
  H  H45  1  0.70793278  0.22763512  0.50520091  1.0
  H  H46  1  0.65498977  0.50654490  0.03133546  1.0
  H  H47  1  0.70105994  0.52317268  0.08073677  1.0
  H  H48  1  0.34513087  0.50274435  0.39769174  1.0
  H  H49  1  0.29880473  0.51997337  0.34851808  1.0
  H  H50  1  0.65646448  0.40084366  0.98310356  1.0
  H  H51  1  0.74731711  0.36452787  0.00064583  1.0
  H  H52  1  0.35399750  0.61941774  0.88237003  1.0
  H  H53  1  0.26419713  0.64703970  0.85770112  1.0
  H  H54  1  0.65840508  0.68229188  0.93767073  1.0
  H  H55  1  0.70854049  0.76816409  0.93780546  1.0
  H  H56  1  0.33994745  0.31732465  0.92561585  1.0
  H  H57  1  0.29221864  0.23004357  0.92302212  1.0
  H  H58  1  0.30961111  0.47649004  0.74563746  1.0
  H  H59  1  0.26868179  0.48456274  0.69635692  1.0
  H  H60  1  0.69018316  0.47619754  0.68323338  1.0
  H  H61  1  0.73110938  0.48449315  0.73254614  1.0
  C  C62  1  0.48936582  0.64568687  0.50011067  1.0
  C  C63  1  0.48334860  0.50435118  0.58618944  1.0
  C  C64  1  0.51052326  0.35160053  0.50425071  1.0
  C  C65  1  0.49557500  0.49399577  0.41774694  1.0
  C  C66  1  0.51065755  0.64799906  0.92841856  1.0
  C  C67  1  0.51649217  0.50523709  0.84277843  1.0
  C  C68  1  0.48948609  0.35384690  0.92453375  1.0
  C  C69  1  0.50456895  0.49716311  0.01113774  1.0
  C  C70  1  0.24707598  0.53743728  0.52570408  1.0
  C  C71  1  0.16408072  0.54256381  0.52820901  1.0
  C  C72  1  0.11756583  0.49337154  0.50253584  1.0
  C  C73  1  0.15743551  0.44194036  0.47624698  1.0
  C  C74  1  0.24273653  0.44031931  0.47536748  1.0
  C  C75  1  0.03213967  0.49672721  0.50332369  1.0
  C  C76  1  0.95866150  0.50087589  0.50397715  1.0
  C  C77  1  0.87323719  0.50477475  0.50379802  1.0
  C  C78  1  0.83244805  0.55524933  0.53027291  1.0
  C  C79  1  0.74713507  0.55862212  0.52924429  1.0
  C  C80  1  0.74474299  0.46355542  0.47757869  1.0
  C  C81  1  0.82779127  0.45786465  0.47622722  1.0
  C  C82  1  0.48734746  0.72827926  0.50045022  1.0
  C  C83  1  0.56098904  0.76730488  0.50203336  1.0
  C  C84  1  0.56470878  0.84423704  0.50228209  1.0
  C  C85  1  0.49196838  0.88584624  0.50124422  1.0
  C  C86  1  0.41802319  0.84813467  0.49975199  1.0
  C  C87  1  0.41382857  0.76970764  0.49895623  1.0
  C  C88  1  0.49469338  0.96472369  0.50137575  1.0
  C  C89  1  0.49933198  0.03266206  0.50135461  1.0
  C  C90  1  0.50336417  0.11150880  0.50148714  1.0
  C  C91  1  0.57818966  0.14774417  0.50054832  1.0
  C  C92  1  0.58426297  0.22612777  0.50073143  1.0
  C  C93  1  0.51160286  0.26890810  0.50262549  1.0
  C  C94  1  0.43706597  0.23130179  0.50340037  1.0
  C  C95  1  0.43155621  0.15447079  0.50265139  1.0
  C  C96  1  0.45459327  0.50328798  0.76977019  1.0
  C  C97  1  0.60067524  0.50235944  0.77562329  1.0
  C  C98  1  0.60944257  0.50063177  0.73130982  1.0
  C  C99  1  0.53902594  0.50197797  0.70440722  1.0
  C  C100  1  0.54518805  0.50294851  0.65920441  1.0
  C  C101  1  0.39911849  0.50199526  0.65334349  1.0
  C  C102  1  0.39034770  0.50056673  0.69765192  1.0
  C  C103  1  0.46074873  0.50204796  0.72456386  1.0
  C  C104  1  0.52351422  0.50394221  0.79488815  1.0
  C  C105  1  0.47627583  0.50344664  0.63407822  1.0
  C  C106  1  0.50596796  0.50129371  0.05877680  1.0
  C  C107  1  0.43204458  0.50365641  0.08117729  1.0
  C  C108  1  0.42783754  0.50836172  0.12549064  1.0
  C  C109  1  0.50035832  0.51175824  0.14946606  1.0
  C  C110  1  0.57443731  0.51064534  0.12774827  1.0
  C  C111  1  0.57929162  0.50487518  0.08272654  1.0
  C  C112  1  0.49932944  0.51440129  0.19492400  1.0
  C  C113  1  0.50043385  0.51399847  0.23414532  1.0
  C  C114  1  0.49946797  0.51048847  0.27956492  1.0
  C  C115  1  0.42542392  0.50872158  0.30129247  1.0
  C  C116  1  0.42067750  0.50219346  0.34624688  1.0
  C  C117  1  0.49405599  0.49855030  0.37013525  1.0
  C  C118  1  0.56792855  0.50149305  0.34772944  1.0
  C  C119  1  0.57204279  0.50690053  0.30346771  1.0
  C  C120  1  0.75287968  0.53928025  0.90326125  1.0
  C  C121  1  0.83585819  0.54434390  0.90073352  1.0
  C  C122  1  0.88246468  0.49540101  0.92628033  1.0
  C  C123  1  0.84272041  0.44425866  0.95247615  1.0
  C  C124  1  0.75741952  0.44273080  0.95340650  1.0
  C  C125  1  0.96786665  0.49878565  0.92544719  1.0
  C  C126  1  0.04132049  0.50303115  0.92472738  1.0
  C  C127  1  0.12674026  0.50691580  0.92492752  1.0
  C  C128  1  0.16752031  0.55704325  0.89855996  1.0
  C  C129  1  0.25282953  0.56043316  0.89968303  1.0
  C  C130  1  0.25520786  0.46599782  0.95120156  1.0
  C  C131  1  0.17217859  0.46030027  0.95245770  1.0
  C  C132  1  0.51262958  0.73056306  0.92749762  1.0
  C  C133  1  0.43897325  0.76963194  0.92577859  1.0
  C  C134  1  0.43524713  0.84655937  0.92507947  1.0
  C  C135  1  0.50799895  0.88810089  0.92577011  1.0
  C  C136  1  0.58194594  0.85032188  0.92731128  1.0
  C  C137  1  0.58614269  0.77193097  0.92860398  1.0
  C  C138  1  0.50534820  0.96696715  0.92542339  1.0
  C  C139  1  0.50095849  0.03492337  0.92554999  1.0
  C  C140  1  0.49693691  0.11377226  0.92577332  1.0
  C  C141  1  0.42207807  0.15005038  0.92699111  1.0
  C  C142  1  0.41591402  0.22842582  0.92734013  1.0
  C  C143  1  0.48851329  0.27115819  0.92567268  1.0
  C  C144  1  0.56310085  0.23353390  0.92460399  1.0
  C  C145  1  0.56869701  0.15669298  0.92485397  1.0
  N  N146  1  0.28621047  0.48838425  0.49995531  1.0
  N  N147  1  0.70459075  0.51148025  0.50354144  1.0
  N  N148  1  0.71385583  0.49053584  0.92893012  1.0
  N  N149  1  0.29535330  0.51364264  0.92536895  1.0
  N  N150  1  0.28345187  0.39042382  0.45066527  1.0
  N  N151  1  0.70526011  0.60755248  0.55388487  1.0
  N  N152  1  0.34008155  0.73512151  0.49812873  1.0
  N  N153  1  0.65882826  0.25879078  0.49830549  1.0
  N  N154  1  0.65443125  0.50152189  0.06386776  1.0
  N  N155  1  0.34560183  0.49819121  0.36510625  1.0
  N  N156  1  0.71676787  0.39316772  0.97803739  1.0
  N  N157  1  0.29468158  0.60906512  0.87516593  1.0
  N  N158  1  0.65991777  0.73726986  0.92956158  1.0
  N  N159  1  0.34132904  0.26113756  0.93007678  1.0
  N  N160  1  0.31384337  0.50055757  0.71630401  1.0
  N  N161  1  0.68595068  0.50044590  0.71265818  1.0
  O  O162  1  0.55693878  0.61407325  0.50850921  1.0
  O  O163  1  0.42481601  0.60938065  0.49133601  1.0
  O  O164  1  0.41765465  0.51386491  0.56537674  1.0
  O  O165  1  0.55286461  0.49542945  0.56933712  1.0
  O  O166  1  0.44220995  0.38361162  0.50877008  1.0
  O  O167  1  0.57796232  0.38686006  0.50099731  1.0
  O  O168  1  0.56184402  0.50409427  0.43739345  1.0
  O  O169  1  0.42790207  0.48032810  0.43695752  1.0
  O  O170  1  0.44307345  0.61613964  0.92028348  1.0
  O  O171  1  0.57524515  0.61196710  0.93738461  1.0
  O  O172  1  0.58220545  0.51496976  0.86357655  1.0
  O  O173  1  0.44701779  0.49644536  0.85963319  1.0
  O  O174  1  0.55774711  0.38581847  0.92016796  1.0
  O  O175  1  0.42200083  0.38913543  0.92797556  1.0
  O  O176  1  0.43831171  0.50726540  0.99151887  1.0
  O  O177  1  0.57235568  0.48375216  0.99188466  1.0
