# generated using pymatgen
data_Zr3H20(C9O4)4
_symmetry_space_group_name_H-M   'P 1'
_cell_length_a   16.91686826
_cell_length_b   17.00117616
_cell_length_c   16.91863416
_cell_angle_alpha   119.29059567
_cell_angle_beta   90.95985600
_cell_angle_gamma   119.28803925
_symmetry_Int_Tables_number   1
_chemical_formula_structural   Zr3H20(C9O4)4
_chemical_formula_sum   'Zr6 H40 C72 O32'
_cell_volume   3485.25872576
_cell_formula_units_Z   2
loop_
 _symmetry_equiv_pos_site_id
 _symmetry_equiv_pos_as_xyz
  1  'x, y, z'
loop_
 _atom_site_type_symbol
 _atom_site_label
 _atom_site_symmetry_multiplicity
 _atom_site_fract_x
 _atom_site_fract_y
 _atom_site_fract_z
 _atom_site_occupancy
  Zr  Zr0  1  0.89578473  0.29156018  0.89578624  1.0
  Zr  Zr1  1  0.10424848  0.70840519  0.10416261  1.0
  Zr  Zr2  1  0.10332605  0.49997743  0.10329300  1.0
  Zr  Zr3  1  0.89666285  0.49993860  0.89661558  1.0
  Zr  Zr4  1  0.89599834  0.50003152  0.10402886  1.0
  Zr  Zr5  1  0.10405935  0.49999740  0.89592733  1.0
  H  H6  1  0.92013758  0.33775333  0.08321734  1.0
  H  H7  1  0.91680445  0.66218122  0.07985318  1.0
  H  H8  1  0.24553546  0.66228572  0.08230343  1.0
  H  H9  1  0.91764247  0.33771755  0.75449921  1.0
  H  H10  1  0.62170221  0.01661900  0.89022154  1.0
  H  H11  1  0.65232031  0.29556714  0.13828436  1.0
  H  H12  1  0.50938684  0.17306436  0.16037535  1.0
  H  H13  1  0.37378570  0.98367493  0.10524282  1.0
  H  H14  1  0.34300635  0.70465005  0.85701027  1.0
  H  H15  1  0.48756392  0.82709659  0.83651035  1.0
  H  H16  1  0.89476608  0.01627762  0.62632326  1.0
  H  H17  1  0.14303504  0.29536283  0.65724191  1.0
  H  H18  1  0.16348343  0.17295543  0.51258494  1.0
  H  H19  1  0.10992443  0.98362797  0.37846363  1.0
  H  H20  1  0.86172523  0.70451283  0.34755248  1.0
  H  H21  1  0.83950117  0.82683091  0.49045613  1.0
  H  H22  1  0.62437117  0.49607878  0.10659398  1.0
  H  H23  1  0.65321976  0.49595276  0.85498199  1.0
  H  H24  1  0.50743351  0.49739645  0.83424012  1.0
  H  H25  1  0.37151996  0.49582404  0.88929965  1.0
  H  H26  1  0.34259430  0.49574740  0.14081305  1.0
  H  H27  1  0.48997867  0.49749648  0.16314406  1.0
  H  H28  1  0.11065626  0.50412072  0.62839010  1.0
  H  H29  1  0.85913286  0.50420401  0.65734586  1.0
  H  H30  1  0.83686236  0.50263580  0.51005366  1.0
  H  H31  1  0.89343122  0.50411538  0.37567346  1.0
  H  H32  1  0.14520525  0.50450064  0.34699812  1.0
  H  H33  1  0.16581081  0.50280103  0.49262486  1.0
  H  H34  1  0.89296608  0.01659238  0.88843933  1.0
  H  H35  1  0.14325766  0.29532200  0.13826095  1.0
  H  H36  1  0.16495227  0.17246397  0.16185926  1.0
  H  H37  1  0.11156080  0.98342082  0.10702780  1.0
  H  H38  1  0.86150164  0.70476929  0.85697110  1.0
  H  H39  1  0.83798242  0.82759611  0.83518074  1.0
  H  H40  1  0.62346461  0.01643003  0.62816864  1.0
  H  H41  1  0.65203255  0.29508214  0.65683012  1.0
  H  H42  1  0.50744825  0.17226768  0.51045029  1.0
  H  H43  1  0.37175364  0.98321409  0.37631931  1.0
  H  H44  1  0.34299622  0.70453649  0.34785927  1.0
  H  H45  1  0.48934342  0.82741464  0.49252793  1.0
  C  C46  1  0.73224455  0.24089651  0.00282377  1.0
  C  C47  1  0.99728760  0.75920107  0.26778421  1.0
  C  C48  1  0.26202680  0.75919417  0.99133580  1.0
  C  C49  1  0.00859827  0.24074001  0.73808508  1.0
  C  C50  1  0.00720089  0.24005391  0.00165115  1.0
  C  C51  1  0.73278948  0.23998613  0.73834070  1.0
  C  C52  1  0.99826529  0.75992479  0.99281949  1.0
  C  C53  1  0.26162579  0.75971486  0.26706204  1.0
  C  C54  1  0.00835224  0.50455442  0.26672676  1.0
  C  C55  1  0.26217612  0.49542412  0.00379761  1.0
  C  C56  1  0.99622649  0.50452601  0.73774891  1.0
  C  C57  1  0.73330723  0.49556154  0.99170439  1.0
  C  C58  1  0.59653026  0.04999361  0.94899283  1.0
  C  C59  1  0.61278823  0.20671263  0.08926664  1.0
  C  C60  1  0.53363233  0.13856576  0.10107618  1.0
  C  C61  1  0.48174305  0.02247242  0.03689568  1.0
  C  C62  1  0.39912762  0.95024906  0.04665028  1.0
  C  C63  1  0.38279066  0.79351338  0.90625947  1.0
  C  C64  1  0.46276015  0.86164605  0.89524096  1.0
  C  C65  1  0.51454686  0.97773273  0.95935626  1.0
  C  C66  1  0.64526310  0.16282364  0.01233535  1.0
  C  C67  1  0.34967446  0.83740462  0.98257147  1.0
  C  C68  1  0.95330419  0.04970693  0.60092443  1.0
  C  C69  1  0.09370302  0.20648691  0.61733620  1.0
  C  C70  1  0.10471091  0.13839315  0.53732932  1.0
  C  C71  1  0.04060520  0.02230987  0.48549256  1.0
  C  C72  1  0.05110182  0.95016164  0.40356448  1.0
  C  C73  1  0.91077692  0.79338129  0.38717939  1.0
  C  C74  1  0.89885559  0.86143969  0.46630095  1.0
  C  C75  1  0.96306995  0.97752270  0.51828052  1.0
  C  C76  1  0.01739558  0.16254985  0.65044209  1.0
  C  C77  1  0.98779484  0.83731469  0.35477520  1.0
  C  C78  1  0.59783060  0.49620535  0.04745936  1.0
  C  C79  1  0.61310283  0.49612106  0.90459087  1.0
  C  C80  1  0.53298303  0.49685696  0.89350509  1.0
  C  C81  1  0.48158298  0.49663978  0.95891538  1.0
  C  C82  1  0.39817767  0.49591886  0.94853801  1.0
  C  C83  1  0.38287234  0.49587639  0.09135867  1.0
  C  C84  1  0.46384098  0.49684682  0.10327382  1.0
  C  C85  1  0.51507463  0.49677404  0.03770165  1.0
  C  C86  1  0.64581094  0.49554531  0.98214053  1.0
  C  C87  1  0.34955460  0.49523283  0.01320397  1.0
  C  C88  1  0.05139179  0.50399379  0.60171762  1.0
  C  C89  1  0.90858287  0.50406927  0.61704920  1.0
  C  C90  1  0.89674615  0.50329249  0.53618499  1.0
  C  C91  1  0.96232427  0.50340220  0.48495986  1.0
  C  C92  1  0.95256355  0.50400280  0.40223000  1.0
  C  C93  1  0.09556333  0.50430404  0.38710279  1.0
  C  C94  1  0.10656898  0.50341767  0.46712636  1.0
  C  C95  1  0.04105257  0.50343745  0.51840676  1.0
  C  C96  1  0.98672036  0.50464139  0.65033581  1.0
  C  C97  1  0.01793478  0.50472998  0.35429736  1.0
  C  C98  1  0.95213977  0.04962864  0.94778761  1.0
  C  C99  1  0.09401919  0.20644332  0.08936197  1.0
  C  C100  1  0.10566806  0.13839609  0.10196699  1.0
  C  C101  1  0.04109427  0.02251163  0.03742698  1.0
  C  C102  1  0.05219614  0.95044750  0.04790222  1.0
  C  C103  1  0.91047665  0.79363989  0.90615971  1.0
  C  C104  1  0.89787779  0.86167299  0.89445905  1.0
  C  C105  1  0.96255379  0.97754906  0.95892476  1.0
  C  C106  1  0.01664701  0.16211892  0.01143655  1.0
  C  C107  1  0.98847000  0.83793287  0.98346022  1.0
  C  C108  1  0.59731076  0.04943374  0.60183298  1.0
  C  C109  1  0.61233579  0.20621594  0.61693268  1.0
  C  C110  1  0.53266407  0.13818717  0.53624648  1.0
  C  C111  1  0.48129785  0.02232365  0.48501523  1.0
  C  C112  1  0.39808639  0.95020665  0.40249726  1.0
  C  C113  1  0.38288241  0.79339688  0.38756726  1.0
  C  C114  1  0.46352773  0.86147743  0.46730392  1.0
  C  C115  1  0.51480737  0.97735700  0.51861096  1.0
  C  C116  1  0.64534029  0.16193495  0.65064182  1.0
  C  C117  1  0.34927835  0.83772007  0.35452001  1.0
  O  O118  1  0.76357500  0.20388701  0.93506399  1.0
  O  O119  1  0.06502614  0.79609847  0.23637503  1.0
  O  O120  1  0.23119487  0.79609573  0.05964992  1.0
  O  O121  1  0.94027699  0.20383841  0.76891175  1.0
  O  O122  1  0.07137352  0.34131192  0.06614487  1.0
  O  O123  1  0.76990535  0.34124330  0.77501070  1.0
  O  O124  1  0.93380087  0.65866379  0.92860137  1.0
  O  O125  1  0.22496783  0.65847653  0.22995550  1.0
  O  O126  1  0.93891563  0.50377780  0.23479544  1.0
  O  O127  1  0.23101822  0.49622059  0.93515801  1.0
  O  O128  1  0.06487594  0.50370725  0.76887089  1.0
  O  O129  1  0.76522095  0.49635789  0.06116249  1.0
  O  O130  1  0.22511376  0.49653155  0.06925129  1.0
  O  O131  1  0.93083303  0.50350826  0.77488880  1.0
  O  O132  1  0.77148140  0.49654092  0.92734294  1.0
  O  O133  1  0.07271852  0.50346752  0.22857377  1.0
  O  O134  1  0.93759032  0.20314966  0.93312591  1.0
  O  O135  1  0.22993599  0.79656082  0.23434546  1.0
  O  O136  1  0.06683201  0.79678579  0.06236598  1.0
  O  O137  1  0.76553775  0.20315707  0.77002493  1.0
  O  O138  1  0.07276568  0.34277518  0.77557245  1.0
  O  O139  1  0.77016915  0.34293392  0.06734628  1.0
  O  O140  1  0.93271309  0.65716023  0.22987943  1.0
  O  O141  1  0.22454243  0.65717170  0.92717948  1.0
  O  O142  1  0.94140400  0.38247517  0.82426682  1.0
  O  O143  1  0.17575838  0.61753713  0.05856893  1.0
  O  O144  1  0.94184226  0.61744467  0.05882681  1.0
  O  O145  1  0.94111134  0.38248638  0.05818515  1.0
  O  O146  1  0.04307641  0.58709727  0.12919355  1.0
  O  O147  1  0.87075515  0.41287154  0.95692858  1.0
  O  O148  1  0.04408972  0.58706790  0.95782460  1.0
  O  O149  1  0.04212089  0.41295246  0.95594591  1.0
