# generated using pymatgen
data_Zn4H34C44BrN21O10
_symmetry_space_group_name_H-M   'P 1'
_cell_length_a   14.53430085
_cell_length_b   14.84349184
_cell_length_c   14.92231033
_cell_angle_alpha   103.35659917
_cell_angle_beta   112.23083164
_cell_angle_gamma   110.72820125
_symmetry_Int_Tables_number   1
_chemical_formula_structural   Zn4H34C44BrN21O10
_chemical_formula_sum   'Zn4 H34 C44 Br1 N21 O10'
_cell_volume   2527.44568164
_cell_formula_units_Z   1
loop_
 _symmetry_equiv_pos_site_id
 _symmetry_equiv_pos_as_xyz
  1  'x, y, z'
loop_
 _atom_site_type_symbol
 _atom_site_label
 _atom_site_symmetry_multiplicity
 _atom_site_fract_x
 _atom_site_fract_y
 _atom_site_fract_z
 _atom_site_occupancy
  Zn  Zn0  1  0.86925955  0.00355129  0.36265842  1.0
  Zn  Zn1  1  0.13948521  0.99103979  0.66345931  1.0
  Zn  Zn2  1  0.15377890  0.14598518  0.49884136  1.0
  Zn  Zn3  1  0.85769177  0.86143501  0.49878195  1.0
  H  H4  1  0.83222301  0.80166311  0.19286150  1.0
  H  H5  1  0.20267651  0.82744123  0.54045160  1.0
  H  H6  1  0.62177467  0.64403036  0.31605339  1.0
  H  H7  1  0.43975550  0.05850676  0.75679474  1.0
  H  H8  1  0.63450030  0.83124798  0.13316537  1.0
  H  H9  1  0.83667346  0.67054906  0.32870639  1.0
  H  H10  1  0.19244076  0.00677173  0.31843191  1.0
  H  H11  1  0.84917856  0.19411777  0.50150403  1.0
  H  H12  1  0.16796167  0.36186064  0.46150538  1.0
  H  H13  1  0.76676125  0.73419060  0.63695189  1.0
  H  H14  1  0.12898769  0.93566317  0.86106715  1.0
  H  H15  1  0.80717709  0.15079101  0.23462675  1.0
  H  H16  1  0.85431843  0.01070837  0.69034621  1.0
  H  H17  1  0.19166755  0.35352575  0.67116225  1.0
  H  H18  1  0.55436902  0.48844070  0.12626843  1.0
  H  H19  1  0.48322870  0.43537693  0.89567377  1.0
  H  H20  1  0.44753579  0.35038787  0.95638077  1.0
  H  H21  1  0.42142750  0.52871538  0.16765320  1.0
  H  H22  1  0.29735048  0.36602784  0.01934048  1.0
  H  H23  1  0.43239093  0.68002714  0.99735998  1.0
  H  H24  1  0.52890986  0.65048480  0.96833207  1.0
  H  H25  1  0.37276345  0.50565489  0.81606061  1.0
  H  H26  1  0.35651241  0.59266932  0.10164617  1.0
  H  H27  1  0.21791713  0.42505224  0.96413981  1.0
  H  H28  1  0.06311870  0.45893008  0.38867325  1.0
  H  H29  1  0.84799120  0.52083714  0.24111963  1.0
  H  H30  1  0.10044344  0.61003911  0.40844240  1.0
  H  H31  1  0.63784639  0.13256375  0.79927743  1.0
  H  H32  1  0.60018273  0.22009103  0.62751926  1.0
  H  H33  1  0.78308003  0.11218371  0.77699972  1.0
  H  H34  1  0.75233604  0.22203115  0.62457569  1.0
  H  H35  1  0.10539436  0.85154549  0.95662571  1.0
  H  H36  1  0.14504614  0.89495103  0.12682739  1.0
  H  H37  1  0.89536595  0.75140106  0.05524788  1.0
  C  C38  1  0.92146011  0.86259723  0.23925628  1.0
  C  C39  1  0.11267563  0.80361715  0.49751728  1.0
  C  C40  1  0.38844943  0.18116205  0.60401850  1.0
  C  C41  1  0.63903754  0.70475150  0.28635093  1.0
  C  C42  1  0.41136784  0.09517723  0.70486747  1.0
  C  C43  1  0.64496830  0.80005103  0.19323523  1.0
  C  C44  1  0.92576814  0.72340790  0.38973853  1.0
  C  C45  1  0.10557039  0.96712497  0.30251807  1.0
  C  C46  1  0.00823690  0.87390579  0.21428610  1.0
  C  C47  1  0.02060975  0.70753211  0.41068274  1.0
  C  C48  1  0.47266217  0.16086784  0.66927643  1.0
  C  C49  1  0.58721558  0.69645725  0.18197743  1.0
  C  C50  1  0.85672216  0.14031923  0.53882094  1.0
  C  C51  1  0.22328043  0.20918865  0.80276914  1.0
  C  C52  1  0.08071798  0.29671959  0.41186955  1.0
  C  C53  1  0.85790069  0.78726397  0.67838830  1.0
  C  C54  1  0.04282182  0.89019549  0.79312806  1.0
  C  C55  1  0.89630160  0.18859040  0.29462581  1.0
  C  C56  1  0.86015885  0.04754416  0.63627442  1.0
  C  C57  1  0.19487181  0.29637419  0.70461860  1.0
  C  C58  1  0.83824179  0.13077475  0.62347083  1.0
  C  C59  1  0.25147289  0.31439212  0.81172105  1.0
  C  C60  1  0.98399312  0.29383800  0.33430112  1.0
  C  C61  1  0.94188225  0.81675181  0.78308403  1.0
  C  C62  1  0.53969005  0.51653773  0.06307134  1.0
  C  C63  1  0.45403787  0.42488893  0.95243373  1.0
  C  C64  1  0.39258992  0.53964930  0.09346008  1.0
  C  C65  1  0.45783736  0.61924963  0.98301175  1.0
  C  C66  1  0.49743112  0.59698744  0.08253647  1.0
  C  C67  1  0.33486694  0.41891971  0.90871890  1.0
  C  C68  1  0.30276545  0.43185520  0.99652979  1.0
  C  C69  1  0.35671119  0.51781742  0.88274611  1.0
  C  C70  1  0.91096011  0.41208905  0.25891053  1.0
  C  C71  1  0.98523518  0.38724479  0.32333203  1.0
  C  C72  1  0.92562340  0.51862867  0.28639148  1.0
  C  C73  1  0.02005293  0.60971798  0.36646844  1.0
  C  C74  1  0.65619850  0.16075728  0.74325951  1.0
  C  C75  1  0.58231002  0.18671071  0.68073139  1.0
  C  C76  1  0.74776545  0.15265837  0.73331398  1.0
  C  C77  1  0.78160289  0.17583404  0.66381779  1.0
  C  C78  1  0.02831381  0.81803150  0.96164146  1.0
  C  C79  1  0.93233542  0.78603382  0.86638602  1.0
  C  C80  1  0.05447007  0.83947213  0.06926202  1.0
  C  C81  1  0.98337743  0.81466013  0.10978477  1.0
  Br  Br82  1  0.69115665  0.57963971  0.07480784  1.0
  N  N83  1  0.96279253  0.94310277  0.33150458  1.0
  N  N84  1  0.07436379  0.86959191  0.52600200  1.0
  N  N85  1  0.28878038  0.13053201  0.60092596  1.0
  N  N86  1  0.72187514  0.80557162  0.35428915  1.0
  N  N87  1  0.30313940  0.07795553  0.66251228  1.0
  N  N88  1  0.72532759  0.86500987  0.29645672  1.0
  N  N89  1  0.95917507  0.81946888  0.45952689  1.0
  N  N90  1  0.07655785  0.00683702  0.37114611  1.0
  N  N91  1  0.88398964  0.06748098  0.50372245  1.0
  N  N92  1  0.15532137  0.13803403  0.69898773  1.0
  N  N93  1  0.05300090  0.20322139  0.41750557  1.0
  N  N94  1  0.90620481  0.83869196  0.63144678  1.0
  N  N95  1  0.02106523  0.90267155  0.70225986  1.0
  N  N96  1  0.93779654  0.13669649  0.34533809  1.0
  N  N97  1  0.88601965  0.01037788  0.56356541  1.0
  N  N98  1  0.13910755  0.19088595  0.63886331  1.0
  N  N99  1  0.26555688  0.16948681  0.87793820  1.0
  N  N100  1  0.25204946  0.53293967  0.84126714  1.0
  N  N101  1  0.80467080  0.33042696  0.16094152  1.0
  N  N102  1  0.39303734  0.24361581  0.54676728  1.0
  N  N103  1  0.81866811  0.73227617  0.84975655  1.0
  O  O104  1  0.25046833  0.07595443  0.84193588  1.0
  O  O105  1  0.31885816  0.22603414  0.97507911  1.0
  O  O106  1  0.22559246  0.56712572  0.90585096  1.0
  O  O107  1  0.20054245  0.51104602  0.74466023  1.0
  O  O108  1  0.74219646  0.35926392  0.10594917  1.0
  O  O109  1  0.78188096  0.23566362  0.13488365  1.0
  O  O110  1  0.48082716  0.29062917  0.54406428  1.0
  O  O111  1  0.30262422  0.25027150  0.49736167  1.0
  O  O112  1  0.80154582  0.67542049  0.89816912  1.0
  O  O113  1  0.74160568  0.74326459  0.78682151  1.0
