# generated using pymatgen
data_Al4H22(C4O3)7
_symmetry_space_group_name_H-M   'P 1'
_cell_length_a   6.66233295
_cell_length_b   12.76412853
_cell_length_c   17.14241877
_cell_angle_alpha   91.14325457
_cell_angle_beta   92.17203300
_cell_angle_gamma   91.94751567
_symmetry_Int_Tables_number   1
_chemical_formula_structural   Al4H22(C4O3)7
_chemical_formula_sum   'Al4 H22 C28 O21'
_cell_volume   1455.55389606
_cell_formula_units_Z   1
loop_
 _symmetry_equiv_pos_site_id
 _symmetry_equiv_pos_as_xyz
  1  'x, y, z'
loop_
 _atom_site_type_symbol
 _atom_site_label
 _atom_site_symmetry_multiplicity
 _atom_site_fract_x
 _atom_site_fract_y
 _atom_site_fract_z
 _atom_site_occupancy
  Al  Al0  1  0.88887243  0.50073237  0.49609669  1.0
  Al  Al1  1  0.38835068  0.50338798  0.49596245  1.0
  Al  Al2  1  0.37752009  0.99223235  0.99236119  1.0
  Al  Al3  1  0.87700177  0.99030221  0.99170919  1.0
  H  H4  1  0.29254509  0.65352121  0.85402180  1.0
  H  H5  1  0.96770814  0.57230547  0.75430494  1.0
  H  H6  1  0.77636861  0.76770751  0.77169721  1.0
  H  H7  1  0.97345678  0.83813069  0.63655761  1.0
  H  H8  1  0.29805591  0.91936299  0.73651147  1.0
  H  H9  1  0.48962590  0.72415994  0.71898687  1.0
  H  H10  1  0.82722840  0.68092702  0.29498880  1.0
  H  H11  1  0.28907516  0.70752500  0.30223760  1.0
  H  H12  1  0.82983631  0.78436754  0.17484159  1.0
  H  H13  1  0.28903706  0.80918110  0.20215000  1.0
  H  H14  1  0.92609484  0.20336975  0.81596490  1.0
  H  H15  1  0.47050587  0.17539117  0.78016274  1.0
  H  H16  1  0.94188013  0.30580975  0.69559304  1.0
  H  H17  1  0.47901351  0.29713024  0.69101366  1.0
  H  H18  1  0.51389146  0.23084459  0.17271583  1.0
  H  H19  1  0.91841575  0.29391822  0.32451990  1.0
  H  H20  1  0.46145823  0.29083227  0.29064287  1.0
  H  H21  1  0.05705499  0.16999158  0.26624660  1.0
  H  H22  1  0.65470240  0.63204041  0.52742159  1.0
  H  H23  1  0.13857879  0.37588966  0.53236649  1.0
  H  H24  1  0.61101311  0.85842922  0.96474420  1.0
  H  H25  1  0.13708408  0.12107691  0.02241689  1.0
  C  C26  1  0.64568143  0.38174191  0.60473560  1.0
  C  C27  1  0.61339249  0.37733539  0.38906550  1.0
  C  C28  1  0.12914006  0.61721815  0.38726073  1.0
  C  C29  1  0.15931373  0.62788227  0.60435136  1.0
  C  C30  1  0.04064648  0.65021442  0.75147706  1.0
  C  C31  1  0.22235244  0.69374450  0.80480830  1.0
  C  C32  1  0.11327856  0.80059319  0.81307037  1.0
  C  C33  1  0.93415817  0.75732353  0.75920063  1.0
  C  C34  1  0.04352944  0.79801518  0.68584683  1.0
  C  C35  1  0.22523565  0.84144961  0.73910488  1.0
  C  C36  1  0.33176099  0.73439914  0.73137744  1.0
  C  C37  1  0.15272469  0.69103558  0.67749975  1.0
  C  C38  1  0.97286496  0.70970207  0.27530485  1.0
  C  C39  1  0.13763297  0.68285278  0.31768398  1.0
  C  C40  1  0.97392251  0.77228720  0.20542041  1.0
  C  C41  1  0.13965871  0.81632979  0.17488845  1.0
  C  C42  1  0.78522428  0.21617911  0.78328578  1.0
  C  C43  1  0.61739578  0.16891356  0.80971686  1.0
  C  C44  1  0.79320450  0.28165503  0.71509878  1.0
  C  C45  1  0.63206088  0.31622184  0.67429980  1.0
  C  C46  1  0.80029744  0.20407958  0.22197290  1.0
  C  C47  1  0.65226068  0.18956020  0.16536507  1.0
  C  C48  1  0.77957111  0.27138259  0.29086644  1.0
  C  C49  1  0.60883955  0.30829076  0.31857762  1.0
  C  C50  1  0.65291305  0.11953884  0.09696158  1.0
  C  C51  1  0.61768105  0.10546423  0.88103316  1.0
  C  C52  1  0.10611190  0.86504809  0.88557017  1.0
  C  C53  1  0.13650028  0.87724964  0.10247800  1.0
  O  O54  1  0.44614208  0.41371473  0.40829096  1.0
  O  O55  1  0.81854806  0.41440224  0.58403513  1.0
  O  O56  1  0.98982429  0.60964414  0.56823688  1.0
  O  O57  1  0.78220998  0.39435849  0.42520467  1.0
  O  O58  1  0.95936437  0.58026716  0.40761867  1.0
  O  O59  1  0.47709958  0.40014737  0.57003504  1.0
  O  O60  1  0.64373749  0.56635715  0.49792248  1.0
  O  O61  1  0.29802676  0.60238441  0.42261422  1.0
  O  O62  1  0.32860236  0.59554908  0.58343842  1.0
  O  O63  1  0.13568135  0.43634350  0.49901648  1.0
  O  O64  1  0.78544849  0.09159510  0.91681690  1.0
  O  O65  1  0.48210199  0.10244206  0.06086332  1.0
  O  O66  1  0.30830099  0.91282594  0.08253241  1.0
  O  O67  1  0.44516138  0.07091137  0.90084475  1.0
  O  O68  1  0.27381158  0.88196478  0.92291715  1.0
  O  O69  1  0.81745157  0.08047065  0.07706679  1.0
  O  O70  1  0.62256259  0.92588493  0.99177366  1.0
  O  O71  1  0.93786081  0.90036920  0.90461234  1.0
  O  O72  1  0.96886057  0.88845073  0.06567857  1.0
  O  O73  1  0.13068021  0.05653263  0.99141378  1.0
  O  O74  1  0.97928612  0.15603119  0.21758994  1.0
