# generated using pymatgen
data_ZnH15C23(NO3)2
_symmetry_space_group_name_H-M   'P 1'
_cell_length_a   14.68540370
_cell_length_b   16.30126855
_cell_length_c   24.87594255
_cell_angle_alpha   89.99996142
_cell_angle_beta   89.99999837
_cell_angle_gamma   113.23162906
_symmetry_Int_Tables_number   1
_chemical_formula_structural   ZnH15C23(NO3)2
_chemical_formula_sum   'Zn8 H120 C184 N16 O48'
_cell_volume   5472.21898584
_cell_formula_units_Z   8
loop_
 _symmetry_equiv_pos_site_id
 _symmetry_equiv_pos_as_xyz
  1  'x, y, z'
loop_
 _atom_site_type_symbol
 _atom_site_label
 _atom_site_symmetry_multiplicity
 _atom_site_fract_x
 _atom_site_fract_y
 _atom_site_fract_z
 _atom_site_occupancy
  Zn  Zn0  1  0.91399902  0.63562142  0.96772359  1.0
  Zn  Zn1  1  0.58600188  0.86437863  0.46772359  1.0
  Zn  Zn2  1  0.08600189  0.36437881  0.03227648  1.0
  Zn  Zn3  1  0.41399874  0.13562093  0.53227648  1.0
  Zn  Zn4  1  0.07150550  0.85561712  0.97489634  1.0
  Zn  Zn5  1  0.42849436  0.64438308  0.47489643  1.0
  Zn  Zn6  1  0.92849444  0.14438244  0.02510373  1.0
  Zn  Zn7  1  0.57150587  0.35561714  0.52510404  1.0
  H  H8  1  0.72131168  0.19366481  0.96165557  1.0
  H  H9  1  0.77868798  0.30633490  0.46165640  1.0
  H  H10  1  0.27868825  0.80633475  0.03834410  1.0
  H  H11  1  0.22131128  0.69366466  0.53834407  1.0
  H  H12  1  0.28575915  0.30021230  0.96987715  1.0
  H  H13  1  0.21424180  0.19978823  0.46987723  1.0
  H  H14  1  0.71424176  0.69978793  0.03012252  1.0
  H  H15  1  0.78575872  0.80021266  0.53012325  1.0
  H  H16  1  0.69482063  0.51626408  0.95530358  1.0
  H  H17  1  0.80517959  0.98373598  0.45530313  1.0
  H  H18  1  0.30517931  0.48373547  0.04469649  1.0
  H  H19  1  0.19482034  0.01626358  0.54469654  1.0
  H  H20  1  0.59397321  0.35252729  0.95383232  1.0
  H  H21  1  0.90602578  0.14747243  0.45383241  1.0
  H  H22  1  0.40602673  0.64747227  0.04616735  1.0
  H  H23  1  0.09397348  0.85252713  0.54616726  1.0
  H  H24  1  0.95802606  0.47813962  0.95265766  1.0
  H  H25  1  0.54197400  0.02185943  0.45265741  1.0
  H  H26  1  0.04197388  0.52185993  0.04734201  1.0
  H  H27  1  0.45802565  0.97813946  0.54734226  1.0
  H  H28  1  0.86943579  0.31425995  0.95339495  1.0
  H  H29  1  0.63056320  0.18573977  0.45339504  1.0
  H  H30  1  0.13056415  0.68573961  0.04660471  1.0
  H  H31  1  0.36943606  0.81425979  0.54660544  1.0
  H  H32  1  0.62561807  0.12930762  0.04737264  1.0
  H  H33  1  0.87438184  0.37069260  0.54737254  1.0
  H  H34  1  0.37438216  0.87069260  0.95262743  1.0
  H  H35  1  0.12561742  0.62930696  0.45262753  1.0
  H  H36  1  0.44284009  0.02070372  0.90876556  1.0
  H  H37  1  0.05715925  0.47929623  0.40876551  1.0
  H  H38  1  0.55716014  0.97929651  0.09123451  1.0
  H  H39  1  0.94284030  0.52070400  0.59123416  1.0
  H  H40  1  0.38253329  0.41411774  0.92852231  1.0
  H  H41  1  0.11746672  0.08588218  0.42852203  1.0
  H  H42  1  0.61746694  0.58588249  0.07147816  1.0
  H  H43  1  0.88253351  0.91411804  0.57147804  1.0
  H  H44  1  0.53866571  0.42021836  0.07604968  1.0
  H  H45  1  0.96133418  0.07978182  0.57604970  1.0
  H  H46  1  0.46133423  0.57978120  0.92395039  1.0
  H  H47  1  0.03866605  0.92021840  0.42395077  1.0
  H  H48  1  0.38131329  0.12989014  0.01571957  1.0
  H  H49  1  0.11868765  0.37011029  0.51571907  1.0
  H  H50  1  0.61868694  0.87011009  0.98427969  1.0
  H  H51  1  0.88131288  0.62989060  0.48428060  1.0
  H  H52  1  0.14310392  0.18488503  0.94381867  1.0
  H  H53  1  0.35689676  0.31511487  0.44381869  1.0
  H  H54  1  0.85689631  0.81511520  0.05618100  1.0
  H  H55  1  0.64310347  0.68488536  0.55618178  1.0
  H  H56  1  0.04726338  0.02151807  0.93722921  1.0
  H  H57  1  0.45273759  0.47848250  0.43722955  1.0
  H  H58  1  0.95273617  0.97848215  0.06277046  1.0
  H  H59  1  0.54726264  0.52151772  0.56277052  1.0
  H  H60  1  0.27532030  0.96837407  0.00556822  1.0
  H  H61  1  0.22467925  0.53162538  0.50556786  1.0
  H  H62  1  0.72467963  0.03162549  0.99443145  1.0
  H  H63  1  0.77532030  0.46837485  0.49443141  1.0
  H  H64  1  0.89068390  0.95065774  0.88784393  1.0
  H  H65  1  0.60931539  0.54934174  0.38784407  1.0
  H  H66  1  0.10931604  0.04934182  0.11215654  1.0
  H  H67  1  0.39068416  0.45065849  0.61215519  1.0
  H  H68  1  0.69616448  0.67289670  0.88369420  1.0
  H  H69  1  0.80383550  0.82710278  0.38369422  1.0
  H  H70  1  0.30383478  0.32710286  0.11630587  1.0
  H  H71  1  0.19616473  0.17289745  0.61630585  1.0
  H  H72  1  0.76712481  0.98833475  0.83482523  1.0
  H  H73  1  0.73287471  0.51166680  0.33482538  1.0
  H  H74  1  0.23287542  0.01166548  0.16517524  1.0
  H  H75  1  0.26712552  0.48833343  0.66517428  1.0
  H  H76  1  0.57098596  0.71092953  0.83175003  1.0
  H  H77  1  0.92901434  0.78907068  0.33175006  1.0
  H  H78  1  0.42901389  0.28907136  0.16825044  1.0
  H  H79  1  0.07098589  0.21092954  0.66825041  1.0
  H  H80  1  0.47506626  0.89168726  0.73164363  1.0
  H  H81  1  0.02493413  0.60831258  0.23164375  1.0
  H  H82  1  0.52493397  0.10831297  0.26835644  1.0
  H  H83  1  0.97506746  0.39168765  0.76835672  1.0
  H  H84  1  0.74031897  0.84014379  0.74480536  1.0
  H  H85  1  0.75968109  0.65985586  0.24480504  1.0
  H  H86  1  0.25968097  0.15985576  0.25519471  1.0
  H  H87  1  0.24032021  0.34014370  0.75519462  1.0
  H  H88  1  0.48368196  0.88308623  0.63151396  1.0
  H  H89  1  0.01631878  0.61691440  0.13151408  1.0
  H  H90  1  0.51631798  0.11691333  0.36848571  1.0
  H  H91  1  0.98368310  0.38308649  0.86848599  1.0
  H  H92  1  0.74865063  0.83309622  0.64510863  1.0
  H  H93  1  0.75134851  0.66690289  0.14510832  1.0
  H  H94  1  0.25134960  0.16690401  0.35489184  1.0
  H  H95  1  0.24865182  0.33309600  0.85489135  1.0
  H  H96  1  0.12738923  0.55089693  0.90562747  1.0
  H  H97  1  0.37261135  0.94910336  0.40562783  1.0
  H  H98  1  0.87261071  0.44910263  0.09437300  1.0
  H  H99  1  0.62738888  0.05089687  0.59437264  1.0
  H  H100  1  0.28646503  0.83114878  0.87553488  1.0
  H  H101  1  0.21353460  0.66885088  0.37553497  1.0
  H  H102  1  0.71353559  0.16885078  0.12446519  1.0
  H  H103  1  0.78646495  0.33114934  0.62446550  1.0
  H  H104  1  0.25487449  0.51779957  0.85335529  1.0
  H  H105  1  0.24512612  0.98220078  0.35335483  1.0
  H  H106  1  0.74512574  0.48220065  0.14664518  1.0
  H  H107  1  0.75487479  0.01779944  0.64664483  1.0
  H  H108  1  0.41674580  0.79823700  0.82483048  1.0
  H  H109  1  0.08325512  0.70176406  0.32483095  1.0
  H  H110  1  0.58325414  0.20176256  0.17516959  1.0
  H  H111  1  0.91674608  0.29823683  0.67516952  1.0
  H  H112  1  0.26424220  0.66070812  0.74860787  1.0
  H  H113  1  0.23575750  0.83929169  0.24860748  1.0
  H  H114  1  0.73575774  0.33929144  0.25139260  1.0
  H  H115  1  0.76424137  0.16070853  0.75139219  1.0
  H  H116  1  0.53857576  0.62339409  0.74074285  1.0
  H  H117  1  0.96142430  0.87660557  0.24074244  1.0
  H  H118  1  0.46142379  0.37660614  0.25925763  1.0
  H  H119  1  0.03857534  0.12339332  0.75925723  1.0
  H  H120  1  0.26171284  0.66926254  0.64864864  1.0
  H  H121  1  0.23828624  0.83073740  0.14864825  1.0
  H  H122  1  0.73828671  0.33073769  0.35135143  1.0
  H  H123  1  0.76171263  0.16926282  0.85135142  1.0
  H  H124  1  0.53600002  0.63408208  0.64049257  1.0
  H  H125  1  0.96400009  0.86591770  0.14049217  1.0
  H  H126  1  0.46399953  0.36591814  0.35950790  1.0
  H  H127  1  0.03599916  0.13408186  0.85950750  1.0
  C  C128  1  0.73041615  0.46895876  0.95381018  1.0
  C  C129  1  0.76958381  0.03104162  0.45380952  1.0
  C  C130  1  0.26958408  0.53104146  0.04618989  1.0
  C  C131  1  0.23041642  0.96895860  0.54619014  1.0
  C  C132  1  0.67416812  0.37784975  0.95319274  1.0
  C  C133  1  0.82583155  0.12214996  0.45319244  1.0
  C  C134  1  0.32583114  0.62214980  0.04680693  1.0
  C  C135  1  0.17416839  0.87784959  0.54680723  1.0
  C  C136  1  0.87730787  0.44791447  0.95293102  1.0
  C  C137  1  0.62269150  0.05208458  0.45293116  1.0
  C  C138  1  0.12269206  0.55208509  0.04706865  1.0
  C  C139  1  0.37730814  0.94791431  0.54706891  1.0
  C  C140  1  0.82737913  0.35624735  0.95298531  1.0
  C  C141  1  0.67262054  0.14375236  0.45298541  1.0
  C  C142  1  0.17262110  0.64375287  0.04701436  1.0
  C  C143  1  0.32737843  0.85624653  0.54701466  1.0
  C  C144  1  0.72296304  0.31885845  0.95370851  1.0
  C  C145  1  0.77703662  0.18114127  0.45370819  1.0
  C  C146  1  0.27703689  0.68114111  0.04629196  1.0
  C  C147  1  0.22296263  0.81885829  0.54629148  1.0
  C  C148  1  0.57497455  0.17542546  0.95007853  1.0
  C  C149  1  0.92502482  0.32457360  0.45007895  1.0
  C  C150  1  0.42502538  0.82457410  0.04992154  1.0
  C  C151  1  0.07497541  0.67542663  0.54992193  1.0
  C  C152  1  0.53973106  0.08408943  0.97483982  1.0
  C  C153  1  0.96026927  0.41591026  0.47483980  1.0
  C  C154  1  0.46026985  0.91591080  0.02516025  1.0
  C  C155  1  0.03973164  0.58408996  0.52516027  1.0
  C  C156  1  0.57117713  0.07225247  0.02652038  1.0
  C  C157  1  0.92882348  0.42774778  0.52652025  1.0
  C  C158  1  0.42882379  0.92774776  0.97347969  1.0
  C  C159  1  0.07117607  0.57225245  0.47347982  1.0
  C  C160  1  0.46794379  0.01106582  0.94860646  1.0
  C  C161  1  0.03205553  0.48893407  0.44860601  1.0
  C  C162  1  0.53205615  0.98893373  0.05139401  1.0
  C  C163  1  0.96794305  0.51106549  0.55139366  1.0
  C  C164  1  0.43381156  0.45130910  0.95993699  1.0
  C  C165  1  0.06618940  0.04869145  0.45993673  1.0
  C  C166  1  0.56618964  0.54869179  0.04006308  1.0
  C  C167  1  0.93381083  0.95130878  0.54006334  1.0
  C  C168  1  0.52190539  0.45607938  0.04309816  1.0
  C  C169  1  0.97809452  0.04392084  0.54309780  1.0
  C  C170  1  0.47809484  0.54392084  0.95690231  1.0
  C  C171  1  0.02190503  0.95607938  0.45690228  1.0
  C  C172  1  0.45511632  0.40665601  0.00330270  1.0
  C  C173  1  0.04488365  0.09334377  0.50330232  1.0
  C  C174  1  0.54488391  0.59334422  0.99669737  1.0
  C  C175  1  0.95511561  0.90665579  0.49669776  1.0
  C  C176  1  0.41396561  0.30710545  0.00837951  1.0
  C  C177  1  0.08603435  0.19289432  0.50837909  1.0
  C  C178  1  0.58603432  0.69289411  0.99162056  1.0
  C  C179  1  0.91396520  0.80710590  0.49162098  1.0
  C  C180  1  0.27193956  0.17141442  0.97973168  1.0
  C  C181  1  0.22806110  0.32858544  0.47973130  1.0
  C  C182  1  0.72806067  0.82858581  0.02026759  1.0
  C  C183  1  0.77193981  0.67141479  0.52026877  1.0
  C  C184  1  0.30875048  0.10851645  0.99740178  1.0
  C  C185  1  0.19125017  0.39148338  0.49740177  1.0
  C  C186  1  0.69124975  0.89148377  0.00259749  1.0
  C  C187  1  0.80875006  0.60851685  0.50259830  1.0
  C  C188  1  0.17636614  0.13927401  0.95693014  1.0
  C  C189  1  0.32363385  0.36072587  0.45693014  1.0
  C  C190  1  0.82363409  0.86072621  0.04306953  1.0
  C  C191  1  0.67636570  0.63927436  0.54306993  1.0
  C  C192  1  0.12235286  0.04827048  0.95331824  1.0
  C  C193  1  0.37764782  0.45172940  0.45331860  1.0
  C  C194  1  0.87764737  0.95172974  0.04668143  1.0
  C  C195  1  0.62235241  0.54827082  0.54668147  1.0
  C  C196  1  0.24983003  0.01881404  0.99163076  1.0
  C  C197  1  0.25016995  0.48118580  0.49163071  1.0
  C  C198  1  0.75016991  0.98118552  0.00836851  1.0
  C  C199  1  0.74982960  0.51881443  0.50836896  1.0
  C  C200  1  0.87518108  0.78589607  0.91839718  1.0
  C  C201  1  0.62481946  0.71410471  0.41839725  1.0
  C  C202  1  0.12481915  0.21410416  0.08160289  1.0
  C  C203  1  0.37518077  0.28589552  0.58160282  1.0
  C  C204  1  0.80106272  0.80926010  0.88823550  1.0
  C  C205  1  0.69893687  0.69074004  0.38823558  1.0
  C  C206  1  0.19893722  0.19073945  0.11176497  1.0
  C  C207  1  0.30106239  0.30925952  0.61176409  1.0
  C  C208  1  0.82077403  0.89844121  0.87541748  1.0
  C  C209  1  0.67922517  0.60155962  0.37541719  1.0
  C  C210  1  0.17922620  0.10155902  0.12458299  1.0
  C  C211  1  0.32077438  0.39844061  0.62458207  1.0
  C  C212  1  0.71079696  0.74168530  0.87287490  1.0
  C  C213  1  0.78920264  0.75831486  0.37287494  1.0
  C  C214  1  0.28920191  0.25831493  0.12712558  1.0
  C  C215  1  0.21079691  0.24168536  0.62712513  1.0
  C  C216  1  0.75228558  0.91976445  0.84622501  1.0
  C  C217  1  0.74771403  0.58023574  0.34622433  1.0
  C  C218  1  0.24771465  0.08023578  0.15377546  1.0
  C  C219  1  0.25228552  0.41976448  0.65377493  1.0
  C  C220  1  0.64157143  0.76232360  0.84401689  1.0
  C  C221  1  0.85842886  0.73767659  0.34401695  1.0
  C  C222  1  0.35842811  0.23767662  0.15598358  1.0
  C  C223  1  0.14157137  0.26232363  0.65598353  1.0
  C  C224  1  0.66424012  0.85110816  0.83025096  1.0
  C  C225  1  0.83575950  0.64889205  0.33025065  1.0
  C  C226  1  0.33575943  0.14889206  0.16974911  1.0
  C  C227  1  0.16424005  0.35110817  0.66974902  1.0
  C  C228  1  0.60720088  0.86690521  0.74389805  1.0
  C  C229  1  0.89279917  0.63309444  0.24389815  1.0
  C  C230  1  0.39279935  0.13309502  0.25610202  1.0
  C  C231  1  0.10720174  0.36690578  0.75610192  1.0
  C  C232  1  0.53484860  0.87926555  0.71214769  1.0
  C  C233  1  0.96515147  0.62073414  0.21214739  1.0
  C  C234  1  0.46515201  0.12073401  0.28785238  1.0
  C  C235  1  0.03484944  0.37926608  0.78785308  1.0
  C  C236  1  0.68458561  0.85013020  0.71997494  1.0
  C  C237  1  0.81541446  0.64986948  0.21997463  1.0
  C  C238  1  0.31541492  0.14987070  0.28002513  1.0
  C  C239  1  0.18458615  0.35013007  0.78002504  1.0
  C  C240  1  0.54002081  0.87453712  0.65660769  1.0
  C  C241  1  0.95997959  0.62546331  0.15660739  1.0
  C  C242  1  0.45998039  0.12546377  0.34339238  1.0
  C  C243  1  0.04002103  0.37453625  0.84339268  1.0
  C  C244  1  0.68888688  0.84609071  0.66422469  1.0
  C  C245  1  0.81111293  0.65390837  0.16422478  1.0
  C  C246  1  0.31111462  0.15391085  0.33577538  1.0
  C  C247  1  0.18888710  0.34608985  0.83577529  1.0
  C  C248  1  0.61729642  0.85836360  0.63179335  1.0
  C  C249  1  0.88270370  0.64163619  0.13179345  1.0
  C  C250  1  0.38270507  0.14163796  0.36820672  1.0
  C  C251  1  0.11729731  0.35836270  0.86820662  1.0
  C  C252  1  0.62471963  0.85610587  0.57220767  1.0
  C  C253  1  0.87528150  0.64389466  0.07220777  1.0
  C  C254  1  0.37528128  0.14389435  0.42779240  1.0
  C  C255  1  0.12472009  0.35610557  0.92779230  1.0
  C  C256  1  0.12101417  0.71276198  0.92235404  1.0
  C  C257  1  0.37898610  0.78723762  0.42235407  1.0
  C  C258  1  0.87898644  0.28723757  0.07764563  1.0
  C  C259  1  0.62101413  0.21276261  0.57764600  1.0
  C  C260  1  0.19942923  0.69314576  0.89363553  1.0
  C  C261  1  0.30057135  0.80685454  0.39363596  1.0
  C  C262  1  0.80057138  0.30685380  0.10636494  1.0
  C  C263  1  0.69942888  0.19314568  0.60636492  1.0
  C  C264  1  0.19087976  0.60484118  0.88812742  1.0
  C  C265  1  0.30912054  0.89515846  0.38812700  1.0
  C  C266  1  0.80912086  0.39515837  0.11187346  1.0
  C  C267  1  0.69087940  0.10484110  0.61187307  1.0
  C  C268  1  0.28130076  0.76294564  0.87125646  1.0
  C  C269  1  0.21869984  0.73705469  0.37125692  1.0
  C  C270  1  0.71870015  0.23705458  0.12874361  1.0
  C  C271  1  0.78130039  0.26294554  0.62874395  1.0
  C  C272  1  0.26177341  0.58614022  0.85940529  1.0
  C  C273  1  0.23822680  0.91386079  0.35940527  1.0
  C  C274  1  0.73822652  0.41385934  0.14059518  1.0
  C  C275  1  0.76177372  0.08614010  0.64059480  1.0
  C  C276  1  0.35285054  0.74505112  0.84270438  1.0
  C  C277  1  0.14714940  0.75494925  0.34270443  1.0
  C  C278  1  0.64714940  0.25494844  0.15729609  1.0
  C  C279  1  0.85285083  0.24505097  0.65729604  1.0
  C  C280  1  0.34069918  0.65624653  0.83623430  1.0
  C  C281  1  0.15930076  0.84375385  0.33623431  1.0
  C  C282  1  0.65930075  0.34375303  0.16376618  1.0
  C  C283  1  0.84069947  0.15624638  0.66376576  1.0
  C  C284  1  0.40209740  0.64196165  0.75033685  1.0
  C  C285  1  0.09790230  0.85803817  0.25033645  1.0
  C  C286  1  0.59790215  0.35803858  0.24966362  1.0
  C  C287  1  0.90209696  0.14196139  0.74966362  1.0
  C  C288  1  0.32365143  0.65490546  0.72488535  1.0
  C  C289  1  0.17634760  0.84509439  0.22488496  1.0
  C  C290  1  0.67634744  0.34509477  0.27511472  1.0
  C  C291  1  0.82365098  0.15490517  0.77511471  1.0
  C  C292  1  0.47834126  0.63342856  0.72011046  1.0
  C  C293  1  0.02165777  0.86657129  0.22011006  1.0
  C  C294  1  0.52165829  0.36657166  0.27989001  1.0
  C  C295  1  0.97834051  0.13342760  0.77988961  1.0
  C  C296  1  0.32252518  0.65981219  0.66905510  1.0
  C  C297  1  0.17747456  0.84018772  0.16905471  1.0
  C  C298  1  0.67747437  0.34018803  0.33094537  1.0
  C  C299  1  0.82252469  0.15981184  0.83094495  1.0
  C  C300  1  0.47645227  0.63919981  0.66447277  1.0
  C  C301  1  0.02354650  0.86079944  0.16447318  1.0
  C  C302  1  0.52354728  0.36080041  0.33552650  1.0
  C  C303  1  0.97645178  0.13919945  0.83552730  1.0
  C  C304  1  0.39863803  0.65227848  0.63815336  1.0
  C  C305  1  0.10136242  0.84772148  0.13815257  1.0
  C  C306  1  0.60136220  0.34772175  0.36184711  1.0
  C  C307  1  0.89863684  0.15227808  0.86184670  1.0
  C  C308  1  0.39497301  0.65593284  0.57850858  1.0
  C  C309  1  0.10502776  0.84406785  0.07850819  1.0
  C  C310  1  0.60502654  0.34406738  0.42149149  1.0
  C  C311  1  0.89497276  0.15593304  0.92149107  1.0
  N  N312  1  0.83054673  0.50465803  0.95371450  1.0
  N  N313  1  0.66945282  0.99534203  0.45371444  1.0
  N  N314  1  0.16945350  0.49534219  0.04628557  1.0
  N  N315  1  0.33054644  0.00465753  0.54628563  1.0
  N  N316  1  0.67491357  0.22712724  0.95827479  1.0
  N  N317  1  0.82508638  0.27287313  0.45827523  1.0
  N  N318  1  0.32508666  0.77287298  0.04172488  1.0
  N  N319  1  0.17491346  0.72712776  0.54172524  1.0
  N  N320  1  0.32359514  0.26287925  0.98362860  1.0
  N  N321  1  0.17640581  0.23712127  0.48362866  1.0
  N  N322  1  0.67640577  0.73712098  0.01637067  1.0
  N  N323  1  0.82359472  0.76287962  0.51637141  1.0
  N  N324  1  0.15789801  0.98780419  0.97022633  1.0
  N  N325  1  0.34210185  0.51219602  0.47022609  1.0
  N  N326  1  0.84210154  0.01219604  0.02977333  1.0
  N  N327  1  0.65789770  0.48780420  0.52977318  1.0
  O  O328  1  0.51827564  0.20176954  0.92599059  1.0
  O  O329  1  0.98172404  0.29823022  0.42599102  1.0
  O  O330  1  0.48172459  0.79823069  0.07400908  1.0
  O  O331  1  0.01827512  0.70177068  0.57400865  1.0
  O  O332  1  0.45977373  0.26989121  0.03330119  1.0
  O  O333  1  0.04022515  0.23010920  0.53330034  1.0
  O  O334  1  0.54022582  0.73010902  0.96669888  1.0
  O  O335  1  0.95977372  0.76989103  0.46669892  1.0
  O  O336  1  0.95523672  0.84986597  0.93219725  1.0
  O  O337  1  0.54476245  0.65013479  0.43219654  1.0
  O  O338  1  0.04476253  0.15013359  0.06780242  1.0
  O  O339  1  0.45523778  0.34986544  0.56780313  1.0
  O  O340  1  0.85207644  0.70316244  0.92801412  1.0
  O  O341  1  0.64792448  0.79683765  0.42801456  1.0
  O  O342  1  0.14792350  0.29683712  0.07198555  1.0
  O  O343  1  0.35207545  0.20316190  0.57198552  1.0
  O  O344  1  0.59710197  0.87170508  0.79876913  1.0
  O  O345  1  0.90289806  0.62829451  0.29876883  1.0
  O  O346  1  0.40289797  0.12829448  0.20123094  1.0
  O  O347  1  0.09710247  0.37170639  0.70123124  1.0
  O  O348  1  0.55259415  0.86268098  0.54489253  1.0
  O  O349  1  0.94740729  0.63732026  0.04489262  1.0
  O  O350  1  0.44740520  0.13731724  0.45510755  1.0
  O  O351  1  0.05259586  0.36268197  0.95510745  1.0
  O  O352  1  0.69881322  0.84975977  0.54986359  1.0
  O  O353  1  0.80118695  0.65024012  0.04986329  1.0
  O  O354  1  0.30118672  0.15023978  0.45013648  1.0
  O  O355  1  0.19881367  0.34975944  0.95013638  1.0
  O  O356  1  0.04059092  0.64671457  0.93297677  1.0
  O  O357  1  0.45940867  0.85328502  0.43297677  1.0
  O  O358  1  0.95940931  0.35328566  0.06702330  1.0
  O  O359  1  0.54059127  0.14671454  0.56702370  1.0
  O  O360  1  0.14107759  0.79436940  0.93387479  1.0
  O  O361  1  0.35892200  0.70563019  0.43387526  1.0
  O  O362  1  0.85892264  0.20563083  0.06612488  1.0
  O  O363  1  0.64107794  0.29436937  0.56612521  1.0
  O  O364  1  0.40865857  0.63591401  0.80545074  1.0
  O  O365  1  0.09134110  0.86408574  0.30545075  1.0
  O  O366  1  0.59134069  0.36408555  0.19454933  1.0
  O  O367  1  0.90865884  0.13591382  0.69454932  1.0
  O  O368  1  0.31885352  0.65628812  0.55492596  1.0
  O  O369  1  0.18114630  0.84371193  0.05492517  1.0
  O  O370  1  0.68114642  0.34371143  0.44507411  1.0
  O  O371  1  0.81885325  0.15628829  0.94507410  1.0
  O  O372  1  0.47121235  0.65680927  0.55196286  1.0
  O  O373  1  0.02878678  0.84319078  0.05196287  1.0
  O  O374  1  0.52878758  0.34319028  0.44803721  1.0
  O  O375  1  0.97121141  0.15680944  0.94803680  1.0
