# generated using pymatgen
data_Al6H24C65O32
_symmetry_space_group_name_H-M   'P 1'
_cell_length_a   12.50786427
_cell_length_b   12.67818130
_cell_length_c   26.95808329
_cell_angle_alpha   81.61688114
_cell_angle_beta   88.85484586
_cell_angle_gamma   60.66328706
_symmetry_Int_Tables_number   1
_chemical_formula_structural   Al6H24C65O32
_chemical_formula_sum   'Al6 H24 C65 O32'
_cell_volume   3680.31150108
_cell_formula_units_Z   1
loop_
 _symmetry_equiv_pos_site_id
 _symmetry_equiv_pos_as_xyz
  1  'x, y, z'
loop_
 _atom_site_type_symbol
 _atom_site_label
 _atom_site_symmetry_multiplicity
 _atom_site_fract_x
 _atom_site_fract_y
 _atom_site_fract_z
 _atom_site_occupancy
  Al  Al0  1  0.40861504  0.17267265  0.48903720  1.0
  Al  Al1  1  0.41776090  0.91261497  0.50470951  1.0
  Al  Al2  1  0.65804792  0.91382093  0.50391983  1.0
  Al  Al3  1  0.93541862  0.15825913  0.01733802  1.0
  Al  Al4  1  0.67887519  0.41070029  0.00605803  1.0
  Al  Al5  1  0.91212617  0.42534810  0.00458153  1.0
  H  H6  1  0.62102900  0.52849783  0.31891927  1.0
  H  H7  1  0.01944044  0.40459053  0.76420433  1.0
  H  H8  1  0.71471835  0.79506423  0.19259742  1.0
  H  H9  1  0.69997739  0.82541752  0.28221569  1.0
  H  H10  1  0.47743597  0.19785916  0.71433543  1.0
  H  H11  1  0.87112930  0.10905593  0.79730149  1.0
  H  H12  1  0.86607709  0.07131318  0.70916095  1.0
  H  H13  1  0.08653811  0.93910434  0.83116048  1.0
  H  H14  1  0.06096894  0.05176281  0.87090861  1.0
  H  H15  1  0.18287522  0.89799891  0.88722400  1.0
  H  H16  1  0.03734213  0.52156151  0.69251643  1.0
  H  H17  1  0.89583726  0.51687009  0.69240934  1.0
  H  H18  1  0.95374175  0.54963755  0.63421458  1.0
  H  H19  1  0.57133539  0.49785053  0.19317542  1.0
  H  H20  1  0.72531825  0.39414164  0.21448446  1.0
  H  H21  1  0.60666210  0.42180385  0.25670163  1.0
  H  H22  1  0.36094605  0.17811026  0.78049174  1.0
  H  H23  1  0.32032687  0.33405243  0.75664105  1.0
  H  H24  1  0.28846589  0.29407080  0.81976482  1.0
  H  H25  1  0.39135715  0.86771457  0.78361935  1.0
  H  H26  1  0.42156322  0.91521012  0.72089730  1.0
  H  H27  1  0.39938420  0.78464117  0.73369916  1.0
  H  H28  1  0.28477389  0.37280929  0.50512133  1.0
  H  H29  1  0.04821102  0.95502969  0.05777860  1.0
  C  C30  1  0.28722153  0.08885846  0.42156705  1.0
  C  C31  1  0.69438557  0.73709158  0.22057882  1.0
  C  C32  1  0.68624609  0.75407633  0.27043349  1.0
  C  C33  1  0.65897376  0.67888531  0.30627592  1.0
  C  C34  1  0.67646156  0.64473419  0.20530049  1.0
  C  C35  1  0.68558053  0.62740811  0.15440222  1.0
  C  C36  1  0.64718387  0.69833700  0.35695733  1.0
  C  C37  1  0.69360344  0.60862482  0.11096749  1.0
  C  C38  1  0.69456555  0.20122276  0.13672888  1.0
  C  C39  1  0.68514272  0.18182759  0.18208541  1.0
  C  C40  1  0.67664209  0.16260480  0.23181869  1.0
  C  C41  1  0.60846246  0.76776219  0.44619720  1.0
  C  C42  1  0.67075236  0.14749239  0.27783153  1.0
  C  C43  1  0.66252758  0.13100171  0.32765612  1.0
  C  C44  1  0.65370415  0.11505606  0.37319479  1.0
  C  C45  1  0.10072153  0.22503590  0.13621622  1.0
  C  C46  1  0.12666242  0.20344347  0.18157131  1.0
  C  C47  1  0.15353634  0.17970010  0.23119877  1.0
  C  C48  1  0.17685232  0.15720996  0.27702650  1.0
  C  C49  1  0.20562122  0.13345805  0.32649981  1.0
  C  C50  1  0.23466112  0.11201086  0.37154751  1.0
  C  C51  1  0.69214381  0.60975116  0.87444994  1.0
  C  C52  1  0.62747591  0.08898308  0.42422065  1.0
  C  C53  1  0.68313092  0.63025575  0.82835719  1.0
  C  C54  1  0.67367780  0.65088103  0.77799260  1.0
  C  C55  1  0.66453529  0.66879804  0.73161621  1.0
  C  C56  1  0.65084195  0.69316912  0.68130945  1.0
  C  C57  1  0.63719591  0.71811995  0.63532246  1.0
  C  C58  1  0.64999086  0.10110123  0.61381185  1.0
  C  C59  1  0.56262593  0.17854643  0.73319156  1.0
  C  C60  1  0.56582008  0.19886992  0.78247433  1.0
  C  C61  1  0.78561224  0.12777898  0.77880084  1.0
  C  C62  1  0.78302987  0.10686520  0.72987808  1.0
  C  C63  1  0.26810636  0.08522768  0.56182825  1.0
  C  C64  1  0.67094072  0.13282138  0.70670767  1.0
  C  C65  1  0.67847163  0.17422152  0.80583158  1.0
  C  C66  1  0.68322759  0.19719626  0.85508355  1.0
  C  C67  1  0.66342667  0.11423905  0.65671305  1.0
  C  C68  1  0.69279350  0.21641818  0.89733253  1.0
  C  C69  1  0.20824379  0.11261441  0.60777261  1.0
  C  C70  1  0.18808800  0.06527739  0.73997216  1.0
  C  C71  1  0.17058791  0.09051881  0.78947055  1.0
  C  C72  1  0.06589800  0.31095998  0.75644186  1.0
  C  C73  1  0.08316066  0.28548732  0.70748275  1.0
  C  C74  1  0.61210870  0.76996952  0.58293981  1.0
  C  C75  1  0.14736534  0.16158964  0.69875740  1.0
  C  C76  1  0.11074692  0.21418782  0.79744769  1.0
  C  C77  1  0.09809340  0.23870084  0.84724954  1.0
  C  C78  1  0.17671130  0.13479406  0.64983436  1.0
  C  C79  1  0.08937021  0.25313664  0.89119600  1.0
  C  C80  1  0.72103246  0.23007643  0.08605020  1.0
  C  C81  1  0.71971666  0.56073278  0.06466628  1.0
  C  C82  1  0.05182097  0.24819535  0.08558735  1.0
  C  C83  1  0.72255726  0.23841323  0.94436950  1.0
  C  C84  1  0.71710359  0.56143620  0.92718045  1.0
  C  C85  1  0.61735998  0.08455928  0.56600226  1.0
  C  C86  1  0.05193467  0.26457317  0.94169275  1.0
  C  C87  1  0.63518793  0.71852896  0.40019060  1.0
  C  C88  1  0.64171233  0.58632785  0.29095632  1.0
  C  C89  1  0.65089814  0.56697004  0.24111698  1.0
  C  C90  1  0.13034867  0.97070128  0.85586357  1.0
  C  C91  1  0.97921943  0.49709836  0.67214544  1.0
  C  C92  1  0.63709029  0.46507417  0.22574679  1.0
  C  C93  1  0.35296031  0.26300777  0.79019462  1.0
  C  C94  1  0.37184794  0.87510942  0.74331613  1.0
  O  O95  1  0.52957665  0.16815048  0.43995669  1.0
  O  O96  1  0.51068956  0.79244140  0.56259664  1.0
  O  O97  1  0.69189795  0.79468947  0.56227215  1.0
  O  O98  1  0.69934100  0.99298860  0.54623151  1.0
  O  O99  1  0.49618860  0.99702681  0.49933188  1.0
  O  O100  1  0.03217298  0.16729841  0.07238934  1.0
  O  O101  1  0.82344983  0.15590201  0.07135704  1.0
  O  O102  1  0.63888768  0.33269899  0.06107181  1.0
  O  O103  1  0.64497963  0.53118633  0.04745966  1.0
  O  O104  1  0.81981916  0.54474801  0.04492244  1.0
  O  O105  1  0.02798838  0.35109493  0.05888395  1.0
  O  O106  1  0.31825445  0.16435931  0.43196040  1.0
  O  O107  1  0.03731269  0.17892847  0.96477348  1.0
  O  O108  1  0.82998775  0.16574978  0.96362042  1.0
  O  O109  1  0.63970551  0.33227010  0.96261332  1.0
  O  O110  1  0.64034246  0.53365882  0.94872463  1.0
  O  O111  1  0.81717811  0.54413663  0.94699044  1.0
  O  O112  1  0.03073733  0.36304032  0.95858949  1.0
  O  O113  1  0.84098025  0.33391528  0.00952600  1.0
  O  O114  1  0.30166044  0.99169650  0.45043646  1.0
  O  O115  1  0.50499177  0.79102721  0.46450594  1.0
  O  O116  1  0.68683174  0.79109517  0.46454551  1.0
  O  O117  1  0.70521169  0.98298192  0.44841062  1.0
  O  O118  1  0.50935347  0.15857095  0.54782900  1.0
  O  O119  1  0.29040819  0.16450632  0.53724082  1.0
  O  O120  1  0.29932057  0.97875609  0.55006233  1.0
  O  O121  1  0.21863854  0.99545883  0.82859184  1.0
  O  O122  1  0.04491712  0.37107257  0.66564779  1.0
  O  O123  1  0.46749890  0.24161888  0.81105284  1.0
  O  O124  1  0.24188171  0.94808039  0.73007721  1.0
  O  O125  1  0.33307266  0.33259623  0.47834220  1.0
  O  O126  1  0.02115449  0.99862721  0.02395229  1.0
