# generated using pymatgen
data_Zn4H21C40ClO14
_symmetry_space_group_name_H-M   'P 1'
_cell_length_a   15.09231289
_cell_length_b   15.22769942
_cell_length_c   19.50441547
_cell_angle_alpha   88.32239720
_cell_angle_beta   89.80467439
_cell_angle_gamma   88.24582806
_symmetry_Int_Tables_number   1
_chemical_formula_structural   Zn4H21C40ClO14
_chemical_formula_sum   'Zn4 H21 C40 Cl1 O14'
_cell_volume   4478.49301512
_cell_formula_units_Z   1
loop_
 _symmetry_equiv_pos_site_id
 _symmetry_equiv_pos_as_xyz
  1  'x, y, z'
loop_
 _atom_site_type_symbol
 _atom_site_label
 _atom_site_symmetry_multiplicity
 _atom_site_fract_x
 _atom_site_fract_y
 _atom_site_fract_z
 _atom_site_occupancy
  Zn  Zn0  1  0.43463812  0.57510177  0.43777657  1.0
  Zn  Zn1  1  0.42121256  0.42898613  0.55841743  1.0
  Zn  Zn2  1  0.57537969  0.57392831  0.55769422  1.0
  Zn  Zn3  1  0.57763434  0.41829864  0.44955193  1.0
  H  H4  1  0.40585780  0.58383423  0.22792950  1.0
  H  H5  1  0.61262657  0.56270168  0.76957261  1.0
  H  H6  1  0.00191299  0.69079146  0.49706667  1.0
  H  H7  1  0.83871926  0.33899855  0.50920697  1.0
  H  H8  1  0.85345786  0.62050023  0.51074650  1.0
  H  H9  1  0.35131154  0.45941293  0.76510731  1.0
  H  H10  1  0.40196459  0.51788294  0.00029519  1.0
  H  H11  1  0.64408060  0.41069586  0.11199817  1.0
  H  H12  1  0.60623224  0.56573717  0.89716509  1.0
  H  H13  1  0.63042219  0.40406461  0.23950850  1.0
  H  H14  1  0.60412556  0.48616444  0.00138526  1.0
  H  H15  1  0.34234680  0.46530139  0.89273350  1.0
  H  H16  1  0.41851728  0.59114457  0.10064932  1.0
  H  H17  1  0.23389543  0.67196493  0.47458189  1.0
  H  H18  1  0.48696507  0.16315303  0.62496247  1.0
  H  H19  1  0.49714355  0.99341738  0.35407915  1.0
  H  H20  1  0.50003748  0.00006656  0.63967398  1.0
  H  H21  1  0.50373084  0.83087934  0.36937882  1.0
  H  H22  1  0.51530691  0.85349598  0.58815383  1.0
  H  H23  1  0.15087544  0.39401056  0.50952601  1.0
  H  H24  1  0.00395862  0.32379576  0.51066406  1.0
  C  C25  1  0.49222769  0.26117056  0.51126347  1.0
  C  C26  1  0.53808824  0.50049515  0.02239264  1.0
  C  C27  1  0.46892973  0.51247825  0.97884344  1.0
  C  C28  1  0.51184995  0.73530453  0.48753639  1.0
  C  C29  1  0.48290672  0.50966331  0.75985958  1.0
  C  C30  1  0.49179885  0.16282223  0.51461220  1.0
  C  C31  1  0.51025066  0.83306769  0.48005844  1.0
  C  C32  1  0.50016438  0.96297906  0.40522796  1.0
  C  C33  1  0.50437196  0.87296601  0.41353053  1.0
  C  C34  1  0.51078945  0.88475425  0.53717663  1.0
  C  C35  1  0.50333410  0.97753342  0.53043870  1.0
  C  C36  1  0.53081510  0.49955971  0.09704289  1.0
  C  C37  1  0.49903921  0.01781243  0.46286847  1.0
  C  C38  1  0.49409325  0.11146573  0.45677325  1.0
  C  C39  1  0.49175801  0.12115446  0.58074458  1.0
  C  C40  1  0.26544345  0.52101506  0.49623046  1.0
  C  C41  1  0.49860388  0.03129247  0.58864074  1.0
  C  C42  1  0.16778821  0.53230759  0.49847678  1.0
  C  C43  1  0.83775131  0.48127129  0.51059062  1.0
  C  C44  1  0.97080732  0.38850393  0.51001075  1.0
  C  C45  1  0.87990262  0.39642319  0.50971021  1.0
  C  C46  1  0.88726115  0.55623465  0.51005953  1.0
  C  C47  1  0.59158798  0.44856258  0.13737591  1.0
  C  C48  1  0.98120608  0.55023078  0.50623266  1.0
  C  C49  1  0.02366542  0.46425911  0.50781842  1.0
  C  C50  1  0.11687329  0.45820525  0.50605785  1.0
  C  C51  1  0.12487204  0.61778560  0.49287607  1.0
  C  C52  1  0.73901639  0.48850550  0.50918576  1.0
  C  C53  1  0.03343493  0.62539832  0.49925698  1.0
  C  C54  1  0.48804766  0.50658762  0.68370027  1.0
  C  C55  1  0.50977768  0.49060865  0.31751176  1.0
  C  C56  1  0.51665682  0.49268998  0.24134248  1.0
  C  C57  1  0.45681227  0.54513530  0.20179581  1.0
  C  C58  1  0.58420403  0.44440082  0.20842464  1.0
  C  C59  1  0.46381206  0.54845293  0.13081387  1.0
  C  C60  1  0.55075338  0.54109451  0.86847022  1.0
  C  C61  1  0.55453582  0.53999989  0.79735911  1.0
  C  C62  1  0.40654615  0.48256860  0.79472776  1.0
  C  C63  1  0.40206479  0.48588273  0.86575587  1.0
  C  C64  1  0.47464958  0.51336233  0.90416732  1.0
  Cl  Cl65  1  0.48653503  0.15938447  0.37542142  1.0
  O  O66  1  0.50199941  0.49890040  0.50212591  1.0
  O  O67  1  0.42601037  0.46730060  0.65337443  1.0
  O  O68  1  0.56894609  0.44527516  0.35086253  1.0
  O  O69  1  0.55421995  0.54298369  0.65474440  1.0
  O  O70  1  0.44521104  0.53480807  0.34383814  1.0
  O  O71  1  0.17145912  0.69165501  0.48296836  1.0
  O  O72  1  0.30968654  0.58604377  0.47054877  1.0
  O  O73  1  0.69970472  0.42452462  0.48268204  1.0
  O  O74  1  0.44294657  0.30105966  0.55460905  1.0
  O  O75  1  0.54312329  0.69996303  0.54288875  1.0
  O  O76  1  0.54366413  0.29627669  0.46745113  1.0
  O  O77  1  0.48048477  0.69443293  0.43706568  1.0
  O  O78  1  0.30067003  0.44920530  0.51916550  1.0
  O  O79  1  0.70154046  0.55721825  0.53383815  1.0
